@<TRIPOS>MOLECULE
../data/bude_mols_rdkit_confs/molecule_58.pdb
 34 36 0 0 0
SMALL
GASTEIGER

@<TRIPOS>ATOM
      1  N1        -6.4720    0.8820   -0.3560 N.am    1  UNL1       -0.3253
      2  C1        -5.0710    1.0270   -0.3010 C.2     1  UNL1        0.2416
      3  O1        -4.5460    2.1810   -0.4040 O.2     1  UNL1       -0.2704
      4  C2        -4.2340   -0.1470   -0.1260 C.ar    1  UNL1        0.0400
      5  C3        -4.7930   -1.3880   -0.0150 C.ar    1  UNL1       -0.0494
      6  C4        -4.0320   -2.5370    0.1530 C.ar    1  UNL1       -0.0576
      7  C5        -2.6670   -2.3940    0.2070 C.ar    1  UNL1       -0.0192
      8  C6        -2.0260   -1.1440    0.0990 C.ar    1  UNL1        0.1326
      9  O2        -0.6770   -1.1830    0.1710 O.3     1  UNL1       -0.4235
     10  C7         0.1810   -0.1140    0.0950 C.ar    1  UNL1        0.3267
     11  N2        -0.1810    1.1660   -0.0680 N.ar    1  UNL1       -0.1831
     12  C8         0.6270    2.2110   -0.1450 C.ar    1  UNL1        0.1237
     13  N3         1.9560    1.9420   -0.0470 N.ar    1  UNL1       -0.2157
     14  C9         2.3960    0.6790    0.1180 C.ar    1  UNL1        0.1666
     15  C10        3.8560    0.4260    0.2210 C.ar    1  UNL1        0.0193
     16  C11        4.7290    1.4830    0.1460 C.ar    1  UNL1       -0.0510
     17  C12        6.0850    1.2570    0.2410 C.ar    1  UNL1       -0.0611
     18  C13        6.5070   -0.0440    0.4090 C.ar    1  UNL1       -0.0617
     19  C14        5.6270   -1.1150    0.4840 C.ar    1  UNL1       -0.0611
     20  C15        4.2810   -0.8680    0.3880 C.ar    1  UNL1       -0.0510
     21  N4         1.5300   -0.3210    0.1870 N.ar    1  UNL1       -0.1748
     22  C16       -2.8350   -0.0650   -0.0640 C.ar    1  UNL1       -0.0071
     23 H          -7.0446    1.6741   -0.4745 H       1  UNL1        0.1453
     24 H          -6.8779   -0.0113   -0.2759 H       1  UNL1        0.1453
     25 H          -5.8204   -1.4751   -0.0576 H       1  UNL1        0.0625
     26 H          -4.4759   -3.4651    0.2344 H       1  UNL1        0.0619
     27 H          -2.0863   -3.2379    0.3320 H       1  UNL1        0.0654
     28 H           0.2703    3.1711   -0.2716 H       1  UNL1        0.1049
     29 H           4.3712    2.4426    0.0190 H       1  UNL1        0.0625
     30 H           6.7610    2.0350    0.1882 H       1  UNL1        0.0618
     31 H           7.5195   -0.2299    0.4821 H       1  UNL1        0.0618
     32 H           5.9782   -2.0773    0.6094 H       1  UNL1        0.0618
     33 H           3.6001   -1.6417    0.4405 H       1  UNL1        0.0625
     34 H          -2.3966    0.8656   -0.1467 H       1  UNL1        0.0662
@<TRIPOS>BOND
     1     1     2   am
     2     2     3    2
     3     2     4    1
     4     4     5   ar
     5     4    22   ar
     6     5     6   ar
     7     6     7   ar
     8     7     8   ar
     9     8     9    1
    10     8    22   ar
    11     9    10    1
    12    10    11   ar
    13    10    21   ar
    14    11    12   ar
    15    12    13   ar
    16    13    14   ar
    17    14    15    1
    18    14    21   ar
    19    15    16   ar
    20    15    20   ar
    21    16    17   ar
    22    17    18   ar
    23    18    19   ar
    24    19    20   ar
    25     1    23    1
    26     1    24    1
    27     5    25    1
    28     6    26    1
    29     7    27    1
    30    12    28    1
    31    16    29    1
    32    17    30    1
    33    18    31    1
    34    19    32    1
    35    20    33    1
    36    22    34    1
@<TRIPOS>MOLECULE
../data/bude_mols_rdkit_confs/molecule_58.pdb
 34 36 0 0 0
SMALL
GASTEIGER

@<TRIPOS>ATOM
      1  N1         4.8910   -1.2140    1.2100 N.am    1  UNL1       -0.3253
      2  C1         5.3320   -0.4720    0.0880 C.2     1  UNL1        0.2416
      3  O1         6.5540   -0.4120   -0.1650 O.2     1  UNL1       -0.2704
      4  C2         4.3870    0.2200   -0.7730 C.ar    1  UNL1        0.0400
      5  C3         4.7870    0.9460   -1.8680 C.ar    1  UNL1       -0.0494
      6  C4         3.8830    1.5980   -2.6770 C.ar    1  UNL1       -0.0576
      7  C5         2.5330    1.5550   -2.4320 C.ar    1  UNL1       -0.0192
      8  C6         2.0910    0.8190   -1.3190 C.ar    1  UNL1        0.1326
      9  O2         0.7630    0.7950   -1.1040 O.3     1  UNL1       -0.4235
     10  C7        -0.0210    0.2140   -0.1650 C.ar    1  UNL1        0.3267
     11  N2         0.4870   -0.5290    0.8280 N.ar    1  UNL1       -0.1831
     12  C8        -0.2590   -1.1130    1.7650 C.ar    1  UNL1        0.1237
     13  N3        -1.5900   -0.9380    1.6960 N.ar    1  UNL1       -0.2157
     14  C9        -2.1510   -0.2040    0.7220 C.ar    1  UNL1        0.1666
     15  C10       -3.6130   -0.0450    0.6940 C.ar    1  UNL1        0.0193
     16  C11       -4.4130   -0.6300    1.6400 C.ar    1  UNL1       -0.0510
     17  C12       -5.7880   -0.5080    1.6510 C.ar    1  UNL1       -0.0611
     18  C13       -6.4030    0.2360    0.6700 C.ar    1  UNL1       -0.0617
     19  C14       -5.6170    0.8380   -0.2980 C.ar    1  UNL1       -0.0611
     20  C15       -4.2280    0.7000   -0.2890 C.ar    1  UNL1       -0.0510
     21  N4        -1.3850    0.3630   -0.1940 N.ar    1  UNL1       -0.1748
     22  C16        3.0110    0.1780   -0.5270 C.ar    1  UNL1       -0.0071
     23 H           5.5451   -1.6765    1.7823 H       1  UNL1        0.1453
     24 H           3.9302   -1.2676    1.4180 H       1  UNL1        0.1453
     25 H           5.7929    1.0046   -2.0908 H       1  UNL1        0.0625
     26 H           4.2296    2.1329   -3.4886 H       1  UNL1        0.0619
     27 H           1.8643    2.0470   -3.0450 H       1  UNL1        0.0654
     28 H           0.1688   -1.6781    2.5151 H       1  UNL1        0.1049
     29 H          -3.9650   -1.1902    2.3819 H       1  UNL1        0.0625
     30 H          -6.3476   -0.9688    2.3855 H       1  UNL1        0.0618
     31 H          -7.4293    0.3431    0.6561 H       1  UNL1        0.0618
     32 H          -6.0660    1.3985   -1.0391 H       1  UNL1        0.0618
     33 H          -3.6604    1.1568   -1.0199 H       1  UNL1        0.0625
     34 H           2.6720   -0.3590    0.2865 H       1  UNL1        0.0662
@<TRIPOS>BOND
     1     1     2   am
     2     2     3    2
     3     2     4    1
     4     4     5   ar
     5     4    22   ar
     6     5     6   ar
     7     6     7   ar
     8     7     8   ar
     9     8     9    1
    10     8    22   ar
    11     9    10    1
    12    10    11   ar
    13    10    21   ar
    14    11    12   ar
    15    12    13   ar
    16    13    14   ar
    17    14    15    1
    18    14    21   ar
    19    15    16   ar
    20    15    20   ar
    21    16    17   ar
    22    17    18   ar
    23    18    19   ar
    24    19    20   ar
    25     1    23    1
    26     1    24    1
    27     5    25    1
    28     6    26    1
    29     7    27    1
    30    12    28    1
    31    16    29    1
    32    17    30    1
    33    18    31    1
    34    19    32    1
    35    20    33    1
    36    22    34    1
@<TRIPOS>MOLECULE
../data/bude_mols_rdkit_confs/molecule_58.pdb
 34 36 0 0 0
SMALL
GASTEIGER

@<TRIPOS>ATOM
      1  N1        -4.9920    1.8290    1.6630 N.am    1  UNL1       -0.3253
      2  C1        -5.3650    0.6410    0.9870 C.2     1  UNL1        0.2416
      3  O1        -6.5690    0.4580    0.6570 O.2     1  UNL1       -0.2704
      4  C2        -4.4140   -0.4060    0.6450 C.ar    1  UNL1        0.0400
      5  C3        -4.8100   -1.5330   -0.0050 C.ar    1  UNL1       -0.0494
      6  C4        -3.8920   -2.5060   -0.3160 C.ar    1  UNL1       -0.0576
      7  C5        -2.5570   -2.3510    0.0270 C.ar    1  UNL1       -0.0192
      8  C6        -2.1160   -1.2220    0.6860 C.ar    1  UNL1        0.1326
      9  O2        -0.7780   -1.0790    1.0240 O.3     1  UNL1       -0.4235
     10  C7         0.1090   -0.4630    0.1190 C.ar    1  UNL1        0.3267
     11  N2        -0.3670   -0.0230   -1.0620 N.ar    1  UNL1       -0.1831
     12  C8         0.4120    0.5710   -1.9680 C.ar    1  UNL1        0.1237
     13  N3         1.7130    0.7190   -1.6620 N.ar    1  UNL1       -0.2157
     14  C9         2.2090    0.2870   -0.4900 C.ar    1  UNL1        0.1666
     15  C10        3.6420    0.4770   -0.2090 C.ar    1  UNL1        0.0193
     16  C11        4.4520    1.0880   -1.1390 C.ar    1  UNL1       -0.0510
     17  C12        5.8050    1.2980   -0.9390 C.ar    1  UNL1       -0.0611
     18  C13        6.3440    0.8680    0.2490 C.ar    1  UNL1       -0.0617
     19  C14        5.5570    0.2530    1.2000 C.ar    1  UNL1       -0.0611
     20  C15        4.2160    0.0640    0.9620 C.ar    1  UNL1       -0.0510
     21  N4         1.3930   -0.3040    0.3950 N.ar    1  UNL1       -0.1748
     22  C16       -3.0610   -0.2630    0.9850 C.ar    1  UNL1       -0.0071
     23 H          -5.6714    2.5098    1.8733 H       1  UNL1        0.1453
     24 H          -4.0534    1.9737    1.9225 H       1  UNL1        0.1453
     25 H          -5.8010   -1.6572   -0.2647 H       1  UNL1        0.0625
     26 H          -4.1980   -3.3595   -0.8089 H       1  UNL1        0.0619
     27 H          -1.8819   -3.0931   -0.2149 H       1  UNL1        0.0654
     28 H           0.0312    0.9036   -2.8677 H       1  UNL1        0.1049
     29 H           4.0308    1.4041   -2.0265 H       1  UNL1        0.0625
     30 H           6.3870    1.7601   -1.6551 H       1  UNL1        0.0618
     31 H           7.3501    1.0068    0.4322 H       1  UNL1        0.0618
     32 H           5.9739   -0.0649    2.0889 H       1  UNL1        0.0618
     33 H           3.6332   -0.3968    1.6783 H       1  UNL1        0.0625
     34 H          -2.7610    0.5926    1.4778 H       1  UNL1        0.0662
@<TRIPOS>BOND
     1     1     2   am
     2     2     3    2
     3     2     4    1
     4     4     5   ar
     5     4    22   ar
     6     5     6   ar
     7     6     7   ar
     8     7     8   ar
     9     8     9    1
    10     8    22   ar
    11     9    10    1
    12    10    11   ar
    13    10    21   ar
    14    11    12   ar
    15    12    13   ar
    16    13    14   ar
    17    14    15    1
    18    14    21   ar
    19    15    16   ar
    20    15    20   ar
    21    16    17   ar
    22    17    18   ar
    23    18    19   ar
    24    19    20   ar
    25     1    23    1
    26     1    24    1
    27     5    25    1
    28     6    26    1
    29     7    27    1
    30    12    28    1
    31    16    29    1
    32    17    30    1
    33    18    31    1
    34    19    32    1
    35    20    33    1
    36    22    34    1
@<TRIPOS>MOLECULE
../data/bude_mols_rdkit_confs/molecule_58.pdb
 34 36 0 0 0
SMALL
GASTEIGER

@<TRIPOS>ATOM
      1  N1         6.5780    0.3390   -0.9710 N.am    1  UNL1       -0.3253
      2  C1         5.2410    0.7570   -1.1070 C.2     1  UNL1        0.2416
      3  O1         4.8890    1.3690   -2.1360 O.2     1  UNL1       -0.2704
      4  C2         4.2910    0.4710   -0.0530 C.ar    1  UNL1        0.0400
      5  C3         4.6780   -0.2080    1.0910 C.ar    1  UNL1       -0.0494
      6  C4         3.8030   -0.4980    2.1160 C.ar    1  UNL1       -0.0576
      7  C5         2.4890   -0.0980    2.0020 C.ar    1  UNL1       -0.0192
      8  C6         2.0460    0.5910    0.8670 C.ar    1  UNL1        0.1326
      9  O2         0.7140    0.9720    0.7990 O.3     1  UNL1       -0.4235
     10  C7        -0.1940    0.0710    0.2210 C.ar    1  UNL1        0.3267
     11  N2         0.1840   -1.1220   -0.2570 N.ar    1  UNL1       -0.1831
     12  C8        -0.6590   -2.0080   -0.8160 C.ar    1  UNL1        0.1237
     13  N3        -1.9720   -1.6530   -0.8930 N.ar    1  UNL1       -0.2157
     14  C9        -2.3960   -0.4680   -0.4280 C.ar    1  UNL1        0.1666
     15  C10       -3.8130   -0.1110   -0.5220 C.ar    1  UNL1        0.0193
     16  C11       -4.7440   -0.9600   -1.0810 C.ar    1  UNL1       -0.0510
     17  C12       -6.0740   -0.6140   -1.1650 C.ar    1  UNL1       -0.0611
     18  C13       -6.4980    0.5990   -0.6870 C.ar    1  UNL1       -0.0617
     19  C14       -5.5740    1.4640   -0.1220 C.ar    1  UNL1       -0.0611
     20  C15       -4.2650    1.1050   -0.0480 C.ar    1  UNL1       -0.0510
     21  N4        -1.5070    0.3740    0.1200 N.ar    1  UNL1       -0.1748
     22  C16        2.9590    0.8510   -0.1180 C.ar    1  UNL1       -0.0071
     23 H           7.2287    0.5306   -1.6845 H       1  UNL1        0.1453
     24 H           6.8626   -0.1450   -0.1623 H       1  UNL1        0.1453
     25 H           5.6612   -0.5089    1.1794 H       1  UNL1        0.0625
     26 H           4.1263   -1.0058    2.9542 H       1  UNL1        0.0619
     27 H           1.8239   -0.3090    2.7624 H       1  UNL1        0.0654
     28 H          -0.3257   -2.9177   -1.1714 H       1  UNL1        0.1049
     29 H          -4.4372   -1.8757   -1.4448 H       1  UNL1        0.0625
     30 H          -6.7516   -1.2676   -1.5877 H       1  UNL1        0.0618
     31 H          -7.4933    0.8649   -0.7471 H       1  UNL1        0.0618
     32 H          -5.8796    2.3799    0.2422 H       1  UNL1        0.0618
     33 H          -3.5891    1.7603    0.3748 H       1  UNL1        0.0625
     34 H           2.6382    1.3588   -0.9572 H       1  UNL1        0.0662
@<TRIPOS>BOND
     1     1     2   am
     2     2     3    2
     3     2     4    1
     4     4     5   ar
     5     4    22   ar
     6     5     6   ar
     7     6     7   ar
     8     7     8   ar
     9     8     9    1
    10     8    22   ar
    11     9    10    1
    12    10    11   ar
    13    10    21   ar
    14    11    12   ar
    15    12    13   ar
    16    13    14   ar
    17    14    15    1
    18    14    21   ar
    19    15    16   ar
    20    15    20   ar
    21    16    17   ar
    22    17    18   ar
    23    18    19   ar
    24    19    20   ar
    25     1    23    1
    26     1    24    1
    27     5    25    1
    28     6    26    1
    29     7    27    1
    30    12    28    1
    31    16    29    1
    32    17    30    1
    33    18    31    1
    34    19    32    1
    35    20    33    1
    36    22    34    1
@<TRIPOS>MOLECULE
../data/bude_mols_rdkit_confs/molecule_58.pdb
 34 36 0 0 0
SMALL
GASTEIGER

@<TRIPOS>ATOM
      1  N1         4.9840    1.6240   -1.4690 N.am    1  UNL1       -0.3253
      2  C1         5.3510    0.4330   -0.7900 C.2     1  UNL1        0.2416
      3  O1         6.5060   -0.0330   -0.9470 O.2     1  UNL1       -0.2704
      4  C2         4.4030   -0.2410    0.0790 C.ar    1  UNL1        0.0400
      5  C3         4.7820   -1.4080    0.7360 C.ar    1  UNL1       -0.0494
      6  C4         3.8650   -2.0320    1.5560 C.ar    1  UNL1       -0.0576
      7  C5         2.5970   -1.4880    1.7070 C.ar    1  UNL1       -0.0192
      8  C6         2.2170   -0.3320    1.0580 C.ar    1  UNL1        0.1326
      9  O2         0.9460    0.1880    1.2270 O.3     1  UNL1       -0.4235
     10  C7        -0.0540   -0.2390    0.3440 C.ar    1  UNL1        0.3267
     11  N2         0.1970   -1.1260   -0.6390 N.ar    1  UNL1       -0.1831
     12  C8        -0.7330   -1.5590   -1.5030 C.ar    1  UNL1        0.1237
     13  N3        -1.9790   -1.0590   -1.3500 N.ar    1  UNL1       -0.2157
     14  C9        -2.2940   -0.1770   -0.3960 C.ar    1  UNL1        0.1666
     15  C10       -3.6460    0.3520   -0.2450 C.ar    1  UNL1        0.0193
     16  C11       -3.9200    1.2570    0.7520 C.ar    1  UNL1       -0.0510
     17  C12       -5.1800    1.7940    0.9440 C.ar    1  UNL1       -0.0611
     18  C13       -6.1920    1.3970    0.0950 C.ar    1  UNL1       -0.0617
     19  C14       -5.9510    0.4870   -0.9210 C.ar    1  UNL1       -0.0611
     20  C15       -4.6780   -0.0160   -1.0670 C.ar    1  UNL1       -0.0510
     21  N4        -1.3190    0.2200    0.4400 N.ar    1  UNL1       -0.1748
     22  C16        3.1400    0.2820    0.2420 C.ar    1  UNL1       -0.0071
     23 H           5.6323    2.0754   -2.0566 H       1  UNL1        0.1453
     24 H           4.0811    1.9988   -1.3524 H       1  UNL1        0.1453
     25 H           5.7293   -1.7983    0.6122 H       1  UNL1        0.0625
     26 H           4.1204   -2.8987    2.0546 H       1  UNL1        0.0619
     27 H           1.9186   -1.9626    2.3231 H       1  UNL1        0.0654
     28 H          -0.5086   -2.2389   -2.2462 H       1  UNL1        0.1049
     29 H          -3.1559    1.5473    1.3820 H       1  UNL1        0.0625
     30 H          -5.3580    2.4725    1.7010 H       1  UNL1        0.0618
     31 H          -7.1411    1.7830    0.2184 H       1  UNL1        0.0618
     32 H          -6.7099    0.1923   -1.5552 H       1  UNL1        0.0618
     33 H          -4.4946   -0.6945   -1.8227 H       1  UNL1        0.0625
     34 H           2.8811    1.1483   -0.2556 H       1  UNL1        0.0662
@<TRIPOS>BOND
     1     1     2   am
     2     2     3    2
     3     2     4    1
     4     4     5   ar
     5     4    22   ar
     6     5     6   ar
     7     6     7   ar
     8     7     8   ar
     9     8     9    1
    10     8    22   ar
    11     9    10    1
    12    10    11   ar
    13    10    21   ar
    14    11    12   ar
    15    12    13   ar
    16    13    14   ar
    17    14    15    1
    18    14    21   ar
    19    15    16   ar
    20    15    20   ar
    21    16    17   ar
    22    17    18   ar
    23    18    19   ar
    24    19    20   ar
    25     1    23    1
    26     1    24    1
    27     5    25    1
    28     6    26    1
    29     7    27    1
    30    12    28    1
    31    16    29    1
    32    17    30    1
    33    18    31    1
    34    19    32    1
    35    20    33    1
    36    22    34    1
@<TRIPOS>MOLECULE
../data/bude_mols_rdkit_confs/molecule_58.pdb
 34 36 0 0 0
SMALL
GASTEIGER

@<TRIPOS>ATOM
      1  N1         5.6670    0.9070   -0.7390 N.am    1  UNL1       -0.3253
      2  C1         5.3170   -0.4600   -0.6800 C.2     1  UNL1        0.2416
      3  O1         6.1040   -1.2770   -1.2230 O.2     1  UNL1       -0.2704
      4  C2         4.1060   -0.9200   -0.0260 C.ar    1  UNL1        0.0400
      5  C3         3.7980   -2.2630    0.0240 C.ar    1  UNL1       -0.0494
      6  C4         2.6330   -2.6600    0.6580 C.ar    1  UNL1       -0.0576
      7  C5         1.7610   -1.7570    1.2470 C.ar    1  UNL1       -0.0192
      8  C6         2.0790   -0.4180    1.1920 C.ar    1  UNL1        0.1326
      9  O2         1.2230    0.4860    1.7720 O.3     1  UNL1       -0.4235
     10  C7         0.1670    1.0990    1.1340 C.ar    1  UNL1        0.3267
     11  N2         0.3550    2.3170    0.6020 N.ar    1  UNL1       -0.1831
     12  C8        -0.6050    3.0010   -0.0400 C.ar    1  UNL1        0.1237
     13  N3        -1.8200    2.4000   -0.1390 N.ar    1  UNL1       -0.2157
     14  C9        -2.0630    1.1840    0.3740 C.ar    1  UNL1        0.1666
     15  C10       -3.3870    0.5650    0.2470 C.ar    1  UNL1        0.0193
     16  C11       -3.6520   -0.6720    0.7670 C.ar    1  UNL1       -0.0510
     17  C12       -4.8910   -1.2800    0.6610 C.ar    1  UNL1       -0.0611
     18  C13       -5.8880   -0.5820   -0.0060 C.ar    1  UNL1       -0.0617
     19  C14       -5.6660    0.6570   -0.5410 C.ar    1  UNL1       -0.0611
     20  C15       -4.4110    1.2160   -0.4060 C.ar    1  UNL1       -0.0510
     21  N4        -1.0610    0.5500    1.0050 N.ar    1  UNL1       -0.1748
     22  C16        3.2370   -0.0190    0.5610 C.ar    1  UNL1       -0.0071
     23 H           6.4966    1.1836   -1.1911 H       1  UNL1        0.1453
     24 H           5.0813    1.5833   -0.3280 H       1  UNL1        0.1453
     25 H           4.4258   -2.9611   -0.4043 H       1  UNL1        0.0625
     26 H           2.4050   -3.6659    0.6936 H       1  UNL1        0.0619
     27 H           0.8985   -2.0790    1.7132 H       1  UNL1        0.0654
     28 H          -0.4293    3.9366   -0.4386 H       1  UNL1        0.1049
     29 H          -2.8961   -1.1733    1.2593 H       1  UNL1        0.0625
     30 H          -5.0663   -2.2147    1.0618 H       1  UNL1        0.0618
     31 H          -6.8225   -1.0096   -0.1009 H       1  UNL1        0.0618
     32 H          -6.4189    1.1621   -1.0340 H       1  UNL1        0.0618
     33 H          -4.2342    2.1505   -0.8066 H       1  UNL1        0.0625
     34 H           3.4636    0.9872    0.5253 H       1  UNL1        0.0662
@<TRIPOS>BOND
     1     1     2   am
     2     2     3    2
     3     2     4    1
     4     4     5   ar
     5     4    22   ar
     6     5     6   ar
     7     6     7   ar
     8     7     8   ar
     9     8     9    1
    10     8    22   ar
    11     9    10    1
    12    10    11   ar
    13    10    21   ar
    14    11    12   ar
    15    12    13   ar
    16    13    14   ar
    17    14    15    1
    18    14    21   ar
    19    15    16   ar
    20    15    20   ar
    21    16    17   ar
    22    17    18   ar
    23    18    19   ar
    24    19    20   ar
    25     1    23    1
    26     1    24    1
    27     5    25    1
    28     6    26    1
    29     7    27    1
    30    12    28    1
    31    16    29    1
    32    17    30    1
    33    18    31    1
    34    19    32    1
    35    20    33    1
    36    22    34    1
@<TRIPOS>MOLECULE
../data/bude_mols_rdkit_confs/molecule_58.pdb
 34 36 0 0 0
SMALL
GASTEIGER

@<TRIPOS>ATOM
      1  N1         5.4170    2.5380    0.2300 N.am    1  UNL1       -0.3253
      2  C1         5.7240    1.1740    0.0340 C.2     1  UNL1        0.2416
      3  O1         6.9280    0.8360   -0.0380 O.2     1  UNL1       -0.2704
      4  C2         4.6570    0.1750   -0.0820 C.ar    1  UNL1        0.0400
      5  C3         4.9950   -1.1470   -0.2730 C.ar    1  UNL1       -0.0494
      6  C4         4.0050   -2.0880   -0.3830 C.ar    1  UNL1       -0.0576
      7  C5         2.6540   -1.7140   -0.3030 C.ar    1  UNL1       -0.0192
      8  C6         2.2870   -0.4100   -0.1140 C.ar    1  UNL1        0.1326
      9  O2         1.0080    0.0270   -0.0260 O.3     1  UNL1       -0.4235
     10  C7        -0.1880   -0.6030   -0.0890 C.ar    1  UNL1        0.3267
     11  N2        -0.2880   -1.9200   -0.2700 N.ar    1  UNL1       -0.1831
     12  C8        -1.4280   -2.6140   -0.3420 C.ar    1  UNL1        0.1237
     13  N3        -2.5730   -1.9180   -0.2210 N.ar    1  UNL1       -0.2157
     14  C9        -2.5460   -0.5880   -0.0370 C.ar    1  UNL1        0.1666
     15  C10       -3.7970    0.1750    0.0960 C.ar    1  UNL1        0.0193
     16  C11       -3.8130    1.5260    0.2840 C.ar    1  UNL1       -0.0510
     17  C12       -4.9830    2.2390    0.4080 C.ar    1  UNL1       -0.0611
     18  C13       -6.1720    1.5380    0.3350 C.ar    1  UNL1       -0.0617
     19  C14       -6.1730    0.1790    0.1460 C.ar    1  UNL1       -0.0611
     20  C15       -4.9940   -0.5090    0.0260 C.ar    1  UNL1       -0.0510
     21  N4        -1.3680    0.0530    0.0280 N.ar    1  UNL1       -0.1748
     22  C16        3.3490    0.5080   -0.0090 C.ar    1  UNL1       -0.0071
     23 H           6.1420    3.1997    0.3064 H       1  UNL1        0.1453
     24 H           4.4780    2.8275    0.2902 H       1  UNL1        0.1453
     25 H           5.9866   -1.4265   -0.3328 H       1  UNL1        0.0625
     26 H           4.2543   -3.0792   -0.5257 H       1  UNL1        0.0619
     27 H           1.9232   -2.4376   -0.3885 H       1  UNL1        0.0654
     28 H          -1.4299   -3.6362   -0.4838 H       1  UNL1        0.1049
     29 H          -2.9148    2.0316    0.3351 H       1  UNL1        0.0625
     30 H          -4.9733    3.2611    0.5505 H       1  UNL1        0.0618
     31 H          -7.0682    2.0420    0.4236 H       1  UNL1        0.0618
     32 H          -7.0695   -0.3295    0.0938 H       1  UNL1        0.0618
     33 H          -5.0009   -1.5312   -0.1157 H       1  UNL1        0.0625
     34 H           3.1130    1.5025    0.1333 H       1  UNL1        0.0662
@<TRIPOS>BOND
     1     1     2   am
     2     2     3    2
     3     2     4    1
     4     4     5   ar
     5     4    22   ar
     6     5     6   ar
     7     6     7   ar
     8     7     8   ar
     9     8     9    1
    10     8    22   ar
    11     9    10    1
    12    10    11   ar
    13    10    21   ar
    14    11    12   ar
    15    12    13   ar
    16    13    14   ar
    17    14    15    1
    18    14    21   ar
    19    15    16   ar
    20    15    20   ar
    21    16    17   ar
    22    17    18   ar
    23    18    19   ar
    24    19    20   ar
    25     1    23    1
    26     1    24    1
    27     5    25    1
    28     6    26    1
    29     7    27    1
    30    12    28    1
    31    16    29    1
    32    17    30    1
    33    18    31    1
    34    19    32    1
    35    20    33    1
    36    22    34    1
@<TRIPOS>MOLECULE
../data/bude_mols_rdkit_confs/molecule_58.pdb
 34 36 0 0 0
SMALL
GASTEIGER

@<TRIPOS>ATOM
      1  N1         6.2430    1.8990   -0.1770 N.am    1  UNL1       -0.3253
      2  C1         5.2140    1.5850   -1.0920 C.2     1  UNL1        0.2416
      3  O1         5.3430    1.9670   -2.2780 O.2     1  UNL1       -0.2704
      4  C2         4.0480    0.8380   -0.6420 C.ar    1  UNL1        0.0400
      5  C3         3.9010    0.4280    0.6650 C.ar    1  UNL1       -0.0494
      6  C4         2.7640   -0.2760    1.0000 C.ar    1  UNL1       -0.0576
      7  C5         1.7850   -0.5800    0.0850 C.ar    1  UNL1       -0.0192
      8  C6         1.9420   -0.1670   -1.2150 C.ar    1  UNL1        0.1326
      9  O2         0.9620   -0.4560   -2.1900 O.3     1  UNL1       -0.4235
     10  C7        -0.1650   -1.1740   -1.8190 C.ar    1  UNL1        0.3267
     11  N2        -0.2720   -2.5080   -1.9680 N.ar    1  UNL1       -0.1831
     12  C8        -1.3780   -3.1800   -1.5990 C.ar    1  UNL1        0.1237
     13  N3        -2.3780   -2.4760   -1.0750 N.ar    1  UNL1       -0.2157
     14  C9        -2.3090   -1.1370   -0.9090 C.ar    1  UNL1        0.1666
     15  C10       -3.3980   -0.3650   -0.3370 C.ar    1  UNL1        0.0193
     16  C11       -3.2890    0.9960   -0.1830 C.ar    1  UNL1       -0.0510
     17  C12       -4.3180    1.7680    0.3630 C.ar    1  UNL1       -0.0611
     18  C13       -5.4790    1.1370    0.7580 C.ar    1  UNL1       -0.0617
     19  C14       -5.6050   -0.2280    0.6110 C.ar    1  UNL1       -0.0611
     20  C15       -4.5700   -0.9660    0.0670 C.ar    1  UNL1       -0.0510
     21  N4        -1.1950   -0.4960   -1.2850 N.ar    1  UNL1       -0.1748
     22  C16        3.0710    0.5350   -1.5580 C.ar    1  UNL1       -0.0071
     23 H           7.0326    2.4040   -0.4784 H       1  UNL1        0.1453
     24 H           6.1707    1.6129    0.7622 H       1  UNL1        0.1453
     25 H           4.6211    0.6417    1.3727 H       1  UNL1        0.0625
     26 H           2.6434   -0.5870    1.9766 H       1  UNL1        0.0619
     27 H           0.9463   -1.1095    0.3699 H       1  UNL1        0.0654
     28 H          -1.4479   -4.2027   -1.7180 H       1  UNL1        0.1049
     29 H          -2.4184    1.4636   -0.4804 H       1  UNL1        0.0625
     30 H          -4.2114    2.7890    0.4684 H       1  UNL1        0.0618
     31 H          -6.2530    1.6863    1.1634 H       1  UNL1        0.0618
     32 H          -6.4736   -0.6999    0.9076 H       1  UNL1        0.0618
     33 H          -4.6775   -1.9870   -0.0385 H       1  UNL1        0.0625
     34 H           3.1891    0.8448   -2.5353 H       1  UNL1        0.0662
@<TRIPOS>BOND
     1     1     2   am
     2     2     3    2
     3     2     4    1
     4     4     5   ar
     5     4    22   ar
     6     5     6   ar
     7     6     7   ar
     8     7     8   ar
     9     8     9    1
    10     8    22   ar
    11     9    10    1
    12    10    11   ar
    13    10    21   ar
    14    11    12   ar
    15    12    13   ar
    16    13    14   ar
    17    14    15    1
    18    14    21   ar
    19    15    16   ar
    20    15    20   ar
    21    16    17   ar
    22    17    18   ar
    23    18    19   ar
    24    19    20   ar
    25     1    23    1
    26     1    24    1
    27     5    25    1
    28     6    26    1
    29     7    27    1
    30    12    28    1
    31    16    29    1
    32    17    30    1
    33    18    31    1
    34    19    32    1
    35    20    33    1
    36    22    34    1
@<TRIPOS>MOLECULE
../data/bude_mols_rdkit_confs/molecule_58.pdb
 34 36 0 0 0
SMALL
GASTEIGER

@<TRIPOS>ATOM
      1  N1        -6.3650   -0.1170   -0.8980 N.am    1  UNL1       -0.3253
      2  C1        -5.3120   -0.5840   -0.0790 C.2     1  UNL1        0.2416
      3  O1        -5.4450   -1.7010    0.4800 O.2     1  UNL1       -0.2704
      4  C2        -4.0970    0.1950    0.1220 C.ar    1  UNL1        0.0400
      5  C3        -3.9050    1.4220   -0.4750 C.ar    1  UNL1       -0.0494
      6  C4        -2.7340    2.1340   -0.2580 C.ar    1  UNL1       -0.0576
      7  C5        -1.7600    1.6050    0.5610 C.ar    1  UNL1       -0.0192
      8  C6        -1.9170    0.3750    1.1790 C.ar    1  UNL1        0.1326
      9  O2        -0.9070   -0.1000    1.9870 O.3     1  UNL1       -0.4235
     10  C7         0.1470   -0.8790    1.5600 C.ar    1  UNL1        0.3267
     11  N2         0.1550   -2.2230    1.6360 N.ar    1  UNL1       -0.1831
     12  C8         1.1910   -2.9690    1.2150 C.ar    1  UNL1        0.1237
     13  N3         2.2500   -2.3430    0.7020 N.ar    1  UNL1       -0.2157
     14  C9         2.2470   -1.0050    0.6240 C.ar    1  UNL1        0.1666
     15  C10        3.4240   -0.3220    0.0540 C.ar    1  UNL1        0.0193
     16  C11        3.4750    1.0520   -0.0520 C.ar    1  UNL1       -0.0510
     17  C12        4.5770    1.6860   -0.5860 C.ar    1  UNL1       -0.0611
     18  C13        5.6760    0.9870   -1.0380 C.ar    1  UNL1       -0.0617
     19  C14        5.6300   -0.3870   -0.9350 C.ar    1  UNL1       -0.0611
     20  C15        4.5210   -1.0230   -0.3980 C.ar    1  UNL1       -0.0510
     21  N4         1.2230   -0.2310    1.0380 N.ar    1  UNL1       -0.1748
     22  C16       -3.0950   -0.2960    0.9350 C.ar    1  UNL1       -0.0071
     23 H          -7.1754   -0.6632   -1.0170 H       1  UNL1        0.1453
     24 H          -6.2881    0.7545   -1.3494 H       1  UNL1        0.1453
     25 H          -4.6371    1.8140   -1.0877 H       1  UNL1        0.0625
     26 H          -2.5935    3.0528   -0.7065 H       1  UNL1        0.0619
     27 H          -0.8910    2.1390    0.7181 H       1  UNL1        0.0654
     28 H           1.1670   -3.9982    1.2870 H       1  UNL1        0.1049
     29 H           2.6744    1.6157    0.2740 H       1  UNL1        0.0625
     30 H           4.5791    2.7161   -0.6493 H       1  UNL1        0.0618
     31 H           6.4964    1.4706   -1.4356 H       1  UNL1        0.0618
     32 H           6.4312   -0.9494   -1.2618 H       1  UNL1        0.0618
     33 H           4.5170   -2.0531   -0.3349 H       1  UNL1        0.0625
     34 H          -3.2360   -1.2146    1.3838 H       1  UNL1        0.0662
@<TRIPOS>BOND
     1     1     2   am
     2     2     3    2
     3     2     4    1
     4     4     5   ar
     5     4    22   ar
     6     5     6   ar
     7     6     7   ar
     8     7     8   ar
     9     8     9    1
    10     8    22   ar
    11     9    10    1
    12    10    11   ar
    13    10    21   ar
    14    11    12   ar
    15    12    13   ar
    16    13    14   ar
    17    14    15    1
    18    14    21   ar
    19    15    16   ar
    20    15    20   ar
    21    16    17   ar
    22    17    18   ar
    23    18    19   ar
    24    19    20   ar
    25     1    23    1
    26     1    24    1
    27     5    25    1
    28     6    26    1
    29     7    27    1
    30    12    28    1
    31    16    29    1
    32    17    30    1
    33    18    31    1
    34    19    32    1
    35    20    33    1
    36    22    34    1
@<TRIPOS>MOLECULE
../data/bude_mols_rdkit_confs/molecule_58.pdb
 34 36 0 0 0
SMALL
GASTEIGER

@<TRIPOS>ATOM
      1  N1        -6.8290   -1.0910   -0.4990 N.am    1  UNL1       -0.3253
      2  C1        -5.4770   -1.2030   -0.9090 C.2     1  UNL1        0.2416
      3  O1        -5.1210   -1.8660   -1.9180 O.2     1  UNL1       -0.2704
      4  C2        -4.4570   -0.5120   -0.1160 C.ar    1  UNL1        0.0400
      5  C3        -4.8310    0.2200    0.9940 C.ar    1  UNL1       -0.0494
      6  C4        -3.8930    0.8790    1.7570 C.ar    1  UNL1       -0.0576
      7  C5        -2.5530    0.7750    1.3610 C.ar    1  UNL1       -0.0192
      8  C6        -2.1470    0.0660    0.2760 C.ar    1  UNL1        0.1326
      9  O2        -0.8600   -0.0480   -0.1240 O.3     1  UNL1       -0.4235
     10  C7         0.3010    0.4610    0.3850 C.ar    1  UNL1        0.3267
     11  N2         0.3660    1.2390    1.4790 N.ar    1  UNL1       -0.1831
     12  C8         1.5020    1.7430    1.9850 C.ar    1  UNL1        0.1237
     13  N3         2.6640    1.4640    1.3720 N.ar    1  UNL1       -0.2157
     14  C9         2.6470    0.6910    0.2770 C.ar    1  UNL1        0.1666
     15  C10        3.9010    0.3750   -0.4050 C.ar    1  UNL1        0.0193
     16  C11        3.9010   -0.4190   -1.5340 C.ar    1  UNL1       -0.0510
     17  C12        5.1220   -0.6700   -2.1180 C.ar    1  UNL1       -0.0611
     18  C13        6.3000   -0.1740   -1.6320 C.ar    1  UNL1       -0.0617
     19  C14        6.2890    0.6150   -0.5070 C.ar    1  UNL1       -0.0611
     20  C15        5.0730    0.8810    0.0970 C.ar    1  UNL1       -0.0510
     21  N4         1.4980    0.2080   -0.1980 N.ar    1  UNL1       -0.1748
     22  C16       -3.1320   -0.5980   -0.4850 C.ar    1  UNL1       -0.0071
     23 H          -7.5377   -1.5436   -1.0109 H       1  UNL1        0.1453
     24 H          -7.0594   -0.5606    0.2977 H       1  UNL1        0.1453
     25 H          -5.8279    0.2738    1.2553 H       1  UNL1        0.0625
     26 H          -4.1661    1.4276    2.5874 H       1  UNL1        0.0619
     27 H          -1.8375    1.2623    1.9228 H       1  UNL1        0.0654
     28 H           1.4832    2.3346    2.8304 H       1  UNL1        0.1049
     29 H           3.0267   -0.8063   -1.9221 H       1  UNL1        0.0625
     30 H           5.1497   -1.2611   -2.9635 H       1  UNL1        0.0618
     31 H           7.1905   -0.3906   -2.1065 H       1  UNL1        0.0618
     32 H           7.1660    0.9996   -0.1222 H       1  UNL1        0.0618
     33 H           5.0472    1.4722    0.9425 H       1  UNL1        0.0625
     34 H          -2.8610   -1.1468   -1.3159 H       1  UNL1        0.0662
@<TRIPOS>BOND
     1     1     2   am
     2     2     3    2
     3     2     4    1
     4     4     5   ar
     5     4    22   ar
     6     5     6   ar
     7     6     7   ar
     8     7     8   ar
     9     8     9    1
    10     8    22   ar
    11     9    10    1
    12    10    11   ar
    13    10    21   ar
    14    11    12   ar
    15    12    13   ar
    16    13    14   ar
    17    14    15    1
    18    14    21   ar
    19    15    16   ar
    20    15    20   ar
    21    16    17   ar
    22    17    18   ar
    23    18    19   ar
    24    19    20   ar
    25     1    23    1
    26     1    24    1
    27     5    25    1
    28     6    26    1
    29     7    27    1
    30    12    28    1
    31    16    29    1
    32    17    30    1
    33    18    31    1
    34    19    32    1
    35    20    33    1
    36    22    34    1
@<TRIPOS>MOLECULE
../data/bude_mols_rdkit_confs/molecule_58.pdb
 34 36 0 0 0
SMALL
GASTEIGER

@<TRIPOS>ATOM
      1  N1         5.0110    2.0540    0.7420 N.am    1  UNL1       -0.3253
      2  C1         4.1220    1.0350    1.1350 C.2     1  UNL1        0.2416
      3  O1         3.8820    0.8140    2.3480 O.2     1  UNL1       -0.2704
      4  C2         3.4630    0.2150    0.1310 C.ar    1  UNL1        0.0400
      5  C3         3.7050    0.4300   -1.2070 C.ar    1  UNL1       -0.0494
      6  C4         3.0870   -0.3390   -2.1420 C.ar    1  UNL1       -0.0576
      7  C5         2.2110   -1.3440   -1.7760 C.ar    1  UNL1       -0.0192
      8  C6         1.9540   -1.5790   -0.4420 C.ar    1  UNL1        0.1326
      9  O2         1.0930   -2.5620    0.0130 O.3     1  UNL1       -0.4235
     10  C7        -0.2440   -2.3860    0.2320 C.ar    1  UNL1        0.3267
     11  N2        -0.9670   -3.4440    0.6800 N.ar    1  UNL1       -0.1831
     12  C8        -2.2840   -3.3510    0.9190 C.ar    1  UNL1        0.1237
     13  N3        -2.8950   -2.1730    0.7060 N.ar    1  UNL1       -0.2157
     14  C9        -2.2210   -1.0870    0.2600 C.ar    1  UNL1        0.1666
     15  C10       -2.9310    0.1680    0.0450 C.ar    1  UNL1        0.0193
     16  C11       -4.2880    0.2310    0.3000 C.ar    1  UNL1       -0.0510
     17  C12       -4.9980    1.3980    0.1100 C.ar    1  UNL1       -0.0611
     18  C13       -4.3360    2.5230   -0.3440 C.ar    1  UNL1       -0.0617
     19  C14       -2.9820    2.4810   -0.6050 C.ar    1  UNL1       -0.0611
     20  C15       -2.2910    1.3060   -0.4090 C.ar    1  UNL1       -0.0510
     21  N4        -0.9110   -1.2320    0.0370 N.ar    1  UNL1       -0.1748
     22  C16        2.5800   -0.8000    0.5060 C.ar    1  UNL1       -0.0071
     23 H           5.4564    2.6083    1.4229 H       1  UNL1        0.1453
     24 H           5.1871    2.2121   -0.2136 H       1  UNL1        0.1453
     25 H           4.3558    1.1753   -1.5003 H       1  UNL1        0.0625
     26 H           3.2750   -0.1697   -3.1425 H       1  UNL1        0.0619
     27 H           1.7503   -1.9172   -2.5000 H       1  UNL1        0.0654
     28 H          -2.8166   -4.1668    1.2592 H       1  UNL1        0.1049
     29 H          -4.7791   -0.6110    0.6389 H       1  UNL1        0.0625
     30 H          -6.0110    1.4308    0.3044 H       1  UNL1        0.0618
     31 H          -4.8585    3.4011   -0.4889 H       1  UNL1        0.0618
     32 H          -2.4911    3.3230   -0.9443 H       1  UNL1        0.0618
     33 H          -1.2782    1.2746   -0.6044 H       1  UNL1        0.0625
     34 H           2.3940   -0.9687    1.5070 H       1  UNL1        0.0662
@<TRIPOS>BOND
     1     1     2   am
     2     2     3    2
     3     2     4    1
     4     4     5   ar
     5     4    22   ar
     6     5     6   ar
     7     6     7   ar
     8     7     8   ar
     9     8     9    1
    10     8    22   ar
    11     9    10    1
    12    10    11   ar
    13    10    21   ar
    14    11    12   ar
    15    12    13   ar
    16    13    14   ar
    17    14    15    1
    18    14    21   ar
    19    15    16   ar
    20    15    20   ar
    21    16    17   ar
    22    17    18   ar
    23    18    19   ar
    24    19    20   ar
    25     1    23    1
    26     1    24    1
    27     5    25    1
    28     6    26    1
    29     7    27    1
    30    12    28    1
    31    16    29    1
    32    17    30    1
    33    18    31    1
    34    19    32    1
    35    20    33    1
    36    22    34    1
@<TRIPOS>MOLECULE
../data/bude_mols_rdkit_confs/molecule_58.pdb
 34 36 0 0 0
SMALL
GASTEIGER

@<TRIPOS>ATOM
      1  N1         5.3200   -1.5190   -1.1950 N.am    1  UNL1       -0.3253
      2  C1         5.1430   -0.1130   -1.0830 C.2     1  UNL1        0.2416
      3  O1         5.9530    0.6380   -1.6500 O.2     1  UNL1       -0.2704
      4  C2         4.0160    0.3860   -0.3050 C.ar    1  UNL1        0.0400
      5  C3         3.8190    1.7490   -0.1800 C.ar    1  UNL1       -0.0494
      6  C4         2.7490    2.2030    0.5580 C.ar    1  UNL1       -0.0576
      7  C5         1.8590    1.3460    1.1840 C.ar    1  UNL1       -0.0192
      8  C6         2.0800   -0.0110    1.0420 C.ar    1  UNL1        0.1326
      9  O2         1.2280   -0.9280    1.6420 O.3     1  UNL1       -0.4235
     10  C7         0.1330   -1.3340    0.8560 C.ar    1  UNL1        0.3267
     11  N2         0.2040   -2.4640    0.1270 N.ar    1  UNL1       -0.1831
     12  C8        -0.8660   -2.8130   -0.6100 C.ar    1  UNL1        0.1237
     13  N3        -1.9940   -2.0520   -0.6240 N.ar    1  UNL1       -0.2157
     14  C9        -2.0670   -0.9230    0.1030 C.ar    1  UNL1        0.1666
     15  C10       -3.2820   -0.1150    0.0800 C.ar    1  UNL1        0.0193
     16  C11       -3.3790    1.0470    0.8170 C.ar    1  UNL1       -0.0510
     17  C12       -4.5280    1.8170    0.8000 C.ar    1  UNL1       -0.0611
     18  C13       -5.6290    1.4630    0.0470 C.ar    1  UNL1       -0.0617
     19  C14       -5.5370    0.3020   -0.6910 C.ar    1  UNL1       -0.0611
     20  C15       -4.3790   -0.4730   -0.6730 C.ar    1  UNL1       -0.0510
     21  N4        -0.9910   -0.5880    0.8330 N.ar    1  UNL1       -0.1748
     22  C16        3.1360   -0.4740    0.3140 C.ar    1  UNL1       -0.0071
     23 H           6.0737   -1.8804   -1.7151 H       1  UNL1        0.1453
     24 H           4.6888   -2.1314   -0.7524 H       1  UNL1        0.1453
     25 H           4.4639    2.4155   -0.6328 H       1  UNL1        0.0625
     26 H           2.6046    3.2209    0.6482 H       1  UNL1        0.0619
     27 H           1.0634    1.7059    1.7340 H       1  UNL1        0.0654
     28 H          -0.8306   -3.6752   -1.1761 H       1  UNL1        0.1049
     29 H          -2.5775    1.3482    1.3931 H       1  UNL1        0.0625
     30 H          -4.5628    2.6795    1.3657 H       1  UNL1        0.0618
     31 H          -6.4834    2.0417    0.0367 H       1  UNL1        0.0618
     32 H          -6.3393    0.0018   -1.2665 H       1  UNL1        0.0618
     33 H          -4.3421   -1.3362   -1.2374 H       1  UNL1        0.0625
     34 H           3.2791   -1.4921    0.2248 H       1  UNL1        0.0662
@<TRIPOS>BOND
     1     1     2   am
     2     2     3    2
     3     2     4    1
     4     4     5   ar
     5     4    22   ar
     6     5     6   ar
     7     6     7   ar
     8     7     8   ar
     9     8     9    1
    10     8    22   ar
    11     9    10    1
    12    10    11   ar
    13    10    21   ar
    14    11    12   ar
    15    12    13   ar
    16    13    14   ar
    17    14    15    1
    18    14    21   ar
    19    15    16   ar
    20    15    20   ar
    21    16    17   ar
    22    17    18   ar
    23    18    19   ar
    24    19    20   ar
    25     1    23    1
    26     1    24    1
    27     5    25    1
    28     6    26    1
    29     7    27    1
    30    12    28    1
    31    16    29    1
    32    17    30    1
    33    18    31    1
    34    19    32    1
    35    20    33    1
    36    22    34    1
@<TRIPOS>MOLECULE
../data/bude_mols_rdkit_confs/molecule_58.pdb
 34 36 0 0 0
SMALL
GASTEIGER

@<TRIPOS>ATOM
      1  N1         6.4400   -0.2850    1.4790 N.am    1  UNL1       -0.3253
      2  C1         5.4450   -0.8700    0.6620 C.2     1  UNL1        0.2416
      3  O1         5.6700   -1.9900    0.1500 O.2     1  UNL1       -0.2704
      4  C2         4.2020   -0.1490    0.4480 C.ar    1  UNL1        0.0400
      5  C3         3.9810    1.0760    0.9980 C.ar    1  UNL1       -0.0494
      6  C4         2.7960    1.7210    0.7740 C.ar    1  UNL1       -0.0576
      7  C5         1.8230    1.1070   -0.0230 C.ar    1  UNL1       -0.0192
      8  C6         2.0330   -0.1290   -0.5840 C.ar    1  UNL1        0.1326
      9  O2         1.0930   -0.7440   -1.3660 O.3     1  UNL1       -0.4235
     10  C7        -0.1430   -0.2460   -1.6720 C.ar    1  UNL1        0.3267
     11  N2        -0.4340    0.4440   -2.7970 N.ar    1  UNL1       -0.1831
     12  C8        -1.6990    0.9020   -3.0150 C.ar    1  UNL1        0.1237
     13  N3        -2.6910    0.6740   -2.1100 N.ar    1  UNL1       -0.2157
     14  C9        -2.4060   -0.0040   -1.0060 C.ar    1  UNL1        0.1666
     15  C10       -3.4740   -0.2540   -0.0280 C.ar    1  UNL1        0.0193
     16  C11       -3.2490   -0.9540    1.1440 C.ar    1  UNL1       -0.0510
     17  C12       -4.2610   -1.1820    2.0530 C.ar    1  UNL1       -0.0611
     18  C13       -5.5500   -0.7120    1.8160 C.ar    1  UNL1       -0.0617
     19  C14       -5.7800   -0.0140    0.6500 C.ar    1  UNL1       -0.0611
     20  C15       -4.7530    0.2070   -0.2530 C.ar    1  UNL1       -0.0510
     21  N4        -1.1570   -0.4420   -0.8150 N.ar    1  UNL1       -0.1748
     22  C16        3.2300   -0.7630   -0.3480 C.ar    1  UNL1       -0.0071
     23 H           7.2890   -0.7582    1.6359 H       1  UNL1        0.1453
     24 H           6.2837    0.5954    1.8909 H       1  UNL1        0.1453
     25 H           4.7069    1.5178    1.5836 H       1  UNL1        0.0625
     26 H           2.6212    2.6500    1.1880 H       1  UNL1        0.0619
     27 H           0.9287    1.5933   -0.1928 H       1  UNL1        0.0654
     28 H          -1.9081    1.4287   -3.8775 H       1  UNL1        0.1049
     29 H          -2.3023   -1.3138    1.3426 H       1  UNL1        0.0625
     30 H          -4.0605   -1.7069    2.9186 H       1  UNL1        0.0618
     31 H          -6.3103   -0.8812    2.4930 H       1  UNL1        0.0618
     32 H          -6.7254    0.3471    0.4479 H       1  UNL1        0.0618
     33 H          -4.9514    0.7319   -1.1191 H       1  UNL1        0.0625
     34 H           3.4112   -1.6924   -0.7585 H       1  UNL1        0.0662
@<TRIPOS>BOND
     1     1     2   am
     2     2     3    2
     3     2     4    1
     4     4     5   ar
     5     4    22   ar
     6     5     6   ar
     7     6     7   ar
     8     7     8   ar
     9     8     9    1
    10     8    22   ar
    11     9    10    1
    12    10    11   ar
    13    10    21   ar
    14    11    12   ar
    15    12    13   ar
    16    13    14   ar
    17    14    15    1
    18    14    21   ar
    19    15    16   ar
    20    15    20   ar
    21    16    17   ar
    22    17    18   ar
    23    18    19   ar
    24    19    20   ar
    25     1    23    1
    26     1    24    1
    27     5    25    1
    28     6    26    1
    29     7    27    1
    30    12    28    1
    31    16    29    1
    32    17    30    1
    33    18    31    1
    34    19    32    1
    35    20    33    1
    36    22    34    1
@<TRIPOS>MOLECULE
../data/bude_mols_rdkit_confs/molecule_58.pdb
 34 36 0 0 0
SMALL
GASTEIGER

@<TRIPOS>ATOM
      1  N1        -4.9360   -2.4200    0.4080 N.am    1  UNL1       -0.3253
      2  C1        -3.6860   -1.9580    0.8700 C.2     1  UNL1        0.2416
      3  O1        -2.8530   -2.7790    1.3080 O.2     1  UNL1       -0.2704
      4  C2        -3.3460   -0.5480    0.8480 C.ar    1  UNL1        0.0400
      5  C3        -4.2650    0.3810    0.3560 C.ar    1  UNL1       -0.0494
      6  C4        -3.9830    1.7300    0.3180 C.ar    1  UNL1       -0.0576
      7  C5        -2.7610    2.1660    0.7780 C.ar    1  UNL1       -0.0192
      8  C6        -1.8000    1.2820    1.2820 C.ar    1  UNL1        0.1326
      9  O2        -0.5790    1.7650    1.7370 O.3     1  UNL1       -0.4235
     10  C7         0.4550    1.8630    0.8160 C.ar    1  UNL1        0.3267
     11  N2         0.6570    3.0690    0.2070 N.ar    1  UNL1       -0.1831
     12  C8         1.6370    3.2510   -0.6970 C.ar    1  UNL1        0.1237
     13  N3         2.4290    2.1970   -0.9950 N.ar    1  UNL1       -0.2157
     14  C9         2.2640    0.9930   -0.4190 C.ar    1  UNL1        0.1666
     15  C10        3.1320   -0.1450   -0.7500 C.ar    1  UNL1        0.0193
     16  C11        4.1430   -0.0470   -1.6480 C.ar    1  UNL1       -0.0510
     17  C12        4.9510   -1.1320   -1.9460 C.ar    1  UNL1       -0.0611
     18  C13        4.7120   -2.3350   -1.3090 C.ar    1  UNL1       -0.0617
     19  C14        3.6920   -2.4650   -0.3910 C.ar    1  UNL1       -0.0611
     20  C15        2.9170   -1.3530   -0.1310 C.ar    1  UNL1       -0.0510
     21  N4         1.2700    0.8680    0.4770 N.ar    1  UNL1       -0.1748
     22  C16       -2.1480   -0.0490    1.2910 C.ar    1  UNL1       -0.0071
     23 H          -5.1450   -3.3817    0.4324 H       1  UNL1        0.1453
     24 H          -5.5995   -1.7807    0.0611 H       1  UNL1        0.1453
     25 H          -5.1795    0.0491    0.0117 H       1  UNL1        0.0625
     26 H          -4.6758    2.4011   -0.0489 H       1  UNL1        0.0619
     27 H          -2.5470    3.1752    0.7504 H       1  UNL1        0.0654
     28 H           1.7796    4.1677   -1.1491 H       1  UNL1        0.1049
     29 H           4.3142    0.8549   -2.1195 H       1  UNL1        0.0625
     30 H           5.7176   -1.0436   -2.6313 H       1  UNL1        0.0618
     31 H           5.3074   -3.1499   -1.5243 H       1  UNL1        0.0618
     32 H           3.5140   -3.3629    0.0855 H       1  UNL1        0.0618
     33 H           2.1482   -1.4315    0.5530 H       1  UNL1        0.0625
     34 H          -1.4566   -0.7214    1.6582 H       1  UNL1        0.0662
@<TRIPOS>BOND
     1     1     2   am
     2     2     3    2
     3     2     4    1
     4     4     5   ar
     5     4    22   ar
     6     5     6   ar
     7     6     7   ar
     8     7     8   ar
     9     8     9    1
    10     8    22   ar
    11     9    10    1
    12    10    11   ar
    13    10    21   ar
    14    11    12   ar
    15    12    13   ar
    16    13    14   ar
    17    14    15    1
    18    14    21   ar
    19    15    16   ar
    20    15    20   ar
    21    16    17   ar
    22    17    18   ar
    23    18    19   ar
    24    19    20   ar
    25     1    23    1
    26     1    24    1
    27     5    25    1
    28     6    26    1
    29     7    27    1
    30    12    28    1
    31    16    29    1
    32    17    30    1
    33    18    31    1
    34    19    32    1
    35    20    33    1
    36    22    34    1
@<TRIPOS>MOLECULE
../data/bude_mols_rdkit_confs/molecule_58.pdb
 34 36 0 0 0
SMALL
GASTEIGER

@<TRIPOS>ATOM
      1  N1         6.6310   -0.6990    0.4300 N.am    1  UNL1       -0.3253
      2  C1         5.3020   -0.6250    0.9070 C.2     1  UNL1        0.2416
      3  O1         4.9860   -1.2650    1.9350 O.2     1  UNL1       -0.2704
      4  C2         4.3330    0.1830    0.2050 C.ar    1  UNL1        0.0400
      5  C3         4.7060    0.8800   -0.9300 C.ar    1  UNL1       -0.0494
      6  C4         3.8090    1.6600   -1.6240 C.ar    1  UNL1       -0.0576
      7  C5         2.5120    1.7440   -1.1740 C.ar    1  UNL1       -0.0192
      8  C6         2.0770    1.0690   -0.0440 C.ar    1  UNL1        0.1326
      9  O2         0.7610    1.1800    0.3750 O.3     1  UNL1       -0.4235
     10  C7        -0.2070    0.2950   -0.0870 C.ar    1  UNL1        0.3267
     11  N2         0.1630   -0.6680   -0.9470 N.ar    1  UNL1       -0.1831
     12  C8        -0.7790   -1.5160   -1.3860 C.ar    1  UNL1        0.1237
     13  N3        -2.0710   -1.4050   -0.9740 N.ar    1  UNL1       -0.2157
     14  C9        -2.4510   -0.4450   -0.1140 C.ar    1  UNL1        0.1666
     15  C10       -3.8350   -0.3290    0.3260 C.ar    1  UNL1        0.0193
     16  C11       -4.7980   -1.2060   -0.1310 C.ar    1  UNL1       -0.0510
     17  C12       -6.1150   -1.1200    0.2680 C.ar    1  UNL1       -0.0611
     18  C13       -6.5220   -0.1450    1.1470 C.ar    1  UNL1       -0.0617
     19  C14       -5.5780    0.7460    1.6200 C.ar    1  UNL1       -0.0611
     20  C15       -4.2560    0.6440    1.2070 C.ar    1  UNL1       -0.0510
     21  N4        -1.5030    0.4010    0.3220 N.ar    1  UNL1       -0.1748
     22  C16        3.0170    0.3000    0.6160 C.ar    1  UNL1       -0.0071
     23 H           7.2948   -1.2488    0.9057 H       1  UNL1        0.1453
     24 H           6.8925   -0.2007   -0.3778 H       1  UNL1        0.1453
     25 H           5.6800    0.8137   -1.2645 H       1  UNL1        0.0625
     26 H           4.1050    2.1737   -2.4687 H       1  UNL1        0.0619
     27 H           1.8402    2.3291   -1.6950 H       1  UNL1        0.0654
     28 H          -0.5196   -2.2648   -2.0470 H       1  UNL1        0.1049
     29 H          -4.5236   -1.9494   -0.7921 H       1  UNL1        0.0625
     30 H          -6.8036   -1.7960   -0.0979 H       1  UNL1        0.0618
     31 H          -7.5076   -0.0801    1.4461 H       1  UNL1        0.0618
     32 H          -5.8556    1.4883    2.2810 H       1  UNL1        0.0618
     33 H          -3.5659    1.3191    1.5718 H       1  UNL1        0.0625
     34 H           2.7215   -0.2144    1.4605 H       1  UNL1        0.0662
@<TRIPOS>BOND
     1     1     2   am
     2     2     3    2
     3     2     4    1
     4     4     5   ar
     5     4    22   ar
     6     5     6   ar
     7     6     7   ar
     8     7     8   ar
     9     8     9    1
    10     8    22   ar
    11     9    10    1
    12    10    11   ar
    13    10    21   ar
    14    11    12   ar
    15    12    13   ar
    16    13    14   ar
    17    14    15    1
    18    14    21   ar
    19    15    16   ar
    20    15    20   ar
    21    16    17   ar
    22    17    18   ar
    23    18    19   ar
    24    19    20   ar
    25     1    23    1
    26     1    24    1
    27     5    25    1
    28     6    26    1
    29     7    27    1
    30    12    28    1
    31    16    29    1
    32    17    30    1
    33    18    31    1
    34    19    32    1
    35    20    33    1
    36    22    34    1
@<TRIPOS>MOLECULE
../data/bude_mols_rdkit_confs/molecule_58.pdb
 34 36 0 0 0
SMALL
GASTEIGER

@<TRIPOS>ATOM
      1  N1         5.8300    2.0250   -0.7690 N.am    1  UNL1       -0.3253
      2  C1         5.5210    0.7200   -1.2140 C.2     1  UNL1        0.2416
      3  O1         6.3800    0.1350   -1.9270 O.2     1  UNL1       -0.2704
      4  C2         4.2540    0.0650   -0.8650 C.ar    1  UNL1        0.0400
      5  C3         3.9510   -1.2070   -1.2920 C.ar    1  UNL1       -0.0494
      6  C4         2.7390   -1.8170   -0.9510 C.ar    1  UNL1       -0.0576
      7  C5         1.8410   -1.1130   -0.1700 C.ar    1  UNL1       -0.0192
      8  C6         2.1240    0.1680    0.2720 C.ar    1  UNL1        0.1326
      9  O2         1.2690    0.9170    1.0520 O.3     1  UNL1       -0.4235
     10  C7         0.0320    0.4710    1.4820 C.ar    1  UNL1        0.3267
     11  N2        -0.0450   -0.0780    2.7050 N.ar    1  UNL1       -0.1831
     12  C8        -1.2250   -0.5410    3.2010 C.ar    1  UNL1        0.1237
     13  N3        -2.3450   -0.4380    2.4270 N.ar    1  UNL1       -0.2157
     14  C9        -2.2820    0.1100    1.2010 C.ar    1  UNL1        0.1666
     15  C10       -3.5040    0.1990    0.4090 C.ar    1  UNL1        0.0193
     16  C11       -4.7090   -0.2500    0.8540 C.ar    1  UNL1       -0.0510
     17  C12       -5.8030   -0.1170    0.0220 C.ar    1  UNL1       -0.0611
     18  C13       -5.7290    0.4490   -1.2330 C.ar    1  UNL1       -0.0617
     19  C14       -4.4950    0.8990   -1.6680 C.ar    1  UNL1       -0.0611
     20  C15       -3.3970    0.7750   -0.8560 C.ar    1  UNL1       -0.0510
     21  N4        -1.1010    0.5480    0.7630 N.ar    1  UNL1       -0.1748
     22  C16        3.3320    0.7270   -0.0910 C.ar    1  UNL1       -0.0071
     23 H           6.6873    2.4400   -1.0182 H       1  UNL1        0.1453
     24 H           5.1880    2.5193   -0.2097 H       1  UNL1        0.1453
     25 H           4.6303   -1.7209   -1.8747 H       1  UNL1        0.0625
     26 H           2.5199   -2.7719   -1.2754 H       1  UNL1        0.0619
     27 H           0.9429   -1.5508    0.0883 H       1  UNL1        0.0654
     28 H          -1.2721   -0.9611    4.1424 H       1  UNL1        0.1049
     29 H          -4.8027   -0.6784    1.7882 H       1  UNL1        0.0625
     30 H          -6.7186   -0.4571    0.3551 H       1  UNL1        0.0618
     31 H          -6.5672    0.5343   -1.8289 H       1  UNL1        0.0618
     32 H          -4.4011    1.3273   -2.6022 H       1  UNL1        0.0618
     33 H          -2.4792    1.1126   -1.1857 H       1  UNL1        0.0625
     34 H           3.5521    1.6820    0.2323 H       1  UNL1        0.0662
@<TRIPOS>BOND
     1     1     2   am
     2     2     3    2
     3     2     4    1
     4     4     5   ar
     5     4    22   ar
     6     5     6   ar
     7     6     7   ar
     8     7     8   ar
     9     8     9    1
    10     8    22   ar
    11     9    10    1
    12    10    11   ar
    13    10    21   ar
    14    11    12   ar
    15    12    13   ar
    16    13    14   ar
    17    14    15    1
    18    14    21   ar
    19    15    16   ar
    20    15    20   ar
    21    16    17   ar
    22    17    18   ar
    23    18    19   ar
    24    19    20   ar
    25     1    23    1
    26     1    24    1
    27     5    25    1
    28     6    26    1
    29     7    27    1
    30    12    28    1
    31    16    29    1
    32    17    30    1
    33    18    31    1
    34    19    32    1
    35    20    33    1
    36    22    34    1
@<TRIPOS>MOLECULE
../data/bude_mols_rdkit_confs/molecule_58.pdb
 34 36 0 0 0
SMALL
GASTEIGER

@<TRIPOS>ATOM
      1  N1        -4.6740    1.2090   -1.9880 N.am    1  UNL1       -0.3253
      2  C1        -3.5340    0.9600   -1.1840 C.2     1  UNL1        0.2416
      3  O1        -2.7820    1.9130   -0.8810 O.2     1  UNL1       -0.2704
      4  C2        -3.2580   -0.3940   -0.7260 C.ar    1  UNL1        0.0400
      5  C3        -4.0720   -1.4630   -1.0500 C.ar    1  UNL1       -0.0494
      6  C4        -3.7770   -2.7210   -0.5980 C.ar    1  UNL1       -0.0576
      7  C5        -2.6710   -2.9190    0.1760 C.ar    1  UNL1       -0.0192
      8  C6        -1.8330   -1.8850    0.5230 C.ar    1  UNL1        0.1326
      9  O2        -0.7200   -2.1380    1.3130 O.3     1  UNL1       -0.4235
     10  C7         0.1400   -1.1110    1.6760 C.ar    1  UNL1        0.3267
     11  N2        -0.0390   -0.5010    2.8800 N.ar    1  UNL1       -0.1831
     12  C8         0.7610    0.4990    3.2870 C.ar    1  UNL1        0.1237
     13  N3         1.7450    0.8770    2.4630 N.ar    1  UNL1       -0.2157
     14  C9         1.9630    0.3060    1.2610 C.ar    1  UNL1        0.1666
     15  C10        3.0490    0.7610    0.4100 C.ar    1  UNL1        0.0193
     16  C11        3.8830    1.7830    0.8040 C.ar    1  UNL1       -0.0510
     17  C12        4.9040    2.1740   -0.0540 C.ar    1  UNL1       -0.0611
     18  C13        5.1320    1.5930   -1.2830 C.ar    1  UNL1       -0.0617
     19  C14        4.2850    0.5700   -1.6570 C.ar    1  UNL1       -0.0611
     20  C15        3.2470    0.1570   -0.8110 C.ar    1  UNL1       -0.0510
     21  N4         1.1520   -0.6870    0.8810 N.ar    1  UNL1       -0.1748
     22  C16       -2.1500   -0.6200    0.0560 C.ar    1  UNL1       -0.0071
     23 H          -4.8658    2.1226   -2.3007 H       1  UNL1        0.1453
     24 H          -5.2742    0.4684   -2.2339 H       1  UNL1        0.1453
     25 H          -4.9076   -1.3118   -1.6365 H       1  UNL1        0.0625
     26 H          -4.3883   -3.5160   -0.8416 H       1  UNL1        0.0619
     27 H          -2.4571   -3.8716    0.5106 H       1  UNL1        0.0654
     28 H           0.6217    0.9581    4.2007 H       1  UNL1        0.1049
     29 H           3.7530    2.2483    1.7159 H       1  UNL1        0.0625
     30 H           5.5256    2.9415    0.2455 H       1  UNL1        0.0618
     31 H           5.9006    1.9085   -1.8951 H       1  UNL1        0.0618
     32 H           4.4172    0.1045   -2.5685 H       1  UNL1        0.0618
     33 H           2.6230   -0.6098   -1.1072 H       1  UNL1        0.0625
     34 H          -1.5382    0.1740    0.3016 H       1  UNL1        0.0662
@<TRIPOS>BOND
     1     1     2   am
     2     2     3    2
     3     2     4    1
     4     4     5   ar
     5     4    22   ar
     6     5     6   ar
     7     6     7   ar
     8     7     8   ar
     9     8     9    1
    10     8    22   ar
    11     9    10    1
    12    10    11   ar
    13    10    21   ar
    14    11    12   ar
    15    12    13   ar
    16    13    14   ar
    17    14    15    1
    18    14    21   ar
    19    15    16   ar
    20    15    20   ar
    21    16    17   ar
    22    17    18   ar
    23    18    19   ar
    24    19    20   ar
    25     1    23    1
    26     1    24    1
    27     5    25    1
    28     6    26    1
    29     7    27    1
    30    12    28    1
    31    16    29    1
    32    17    30    1
    33    18    31    1
    34    19    32    1
    35    20    33    1
    36    22    34    1
@<TRIPOS>MOLECULE
../data/bude_mols_rdkit_confs/molecule_58.pdb
 34 36 0 0 0
SMALL
GASTEIGER

@<TRIPOS>ATOM
      1  N1        -6.1500   -0.3360    1.0220 N.am    1  UNL1       -0.3253
      2  C1        -5.1860   -0.6520    0.0330 C.2     1  UNL1        0.2416
      3  O1        -5.3690   -1.6580   -0.7210 O.2     1  UNL1       -0.2704
      4  C2        -4.0040    0.1720   -0.1080 C.ar    1  UNL1        0.0400
      5  C3        -3.8260    1.2560    0.7180 C.ar    1  UNL1       -0.0494
      6  C4        -2.6690    2.0260    0.5480 C.ar    1  UNL1       -0.0576
      7  C5        -1.7200    1.7420   -0.4000 C.ar    1  UNL1       -0.0192
      8  C6        -1.9170    0.6530   -1.2160 C.ar    1  UNL1        0.1326
      9  O2        -0.9650    0.3600   -2.1740 O.3     1  UNL1       -0.4235
     10  C7         0.0700   -0.4910   -1.8120 C.ar    1  UNL1        0.3267
     11  N2        -0.0430   -1.8170   -2.0990 N.ar    1  UNL1       -0.1831
     12  C8         0.9680   -2.6270   -1.7430 C.ar    1  UNL1        0.1237
     13  N3         2.0650   -2.1470   -1.1190 N.ar    1  UNL1       -0.2157
     14  C9         2.1890   -0.8400   -0.8300 C.ar    1  UNL1        0.1666
     15  C10        3.3710   -0.3020   -0.1540 C.ar    1  UNL1        0.0193
     16  C11        4.4020   -1.1400    0.2070 C.ar    1  UNL1       -0.0510
     17  C12        5.5430   -0.6790    0.8480 C.ar    1  UNL1       -0.0611
     18  C13        5.6830    0.6600    1.1510 C.ar    1  UNL1       -0.0617
     19  C14        4.6450    1.4930    0.7860 C.ar    1  UNL1       -0.0611
     20  C15        3.5040    1.0350    0.1450 C.ar    1  UNL1       -0.0510
     21  N4         1.1790   -0.0300   -1.1850 N.ar    1  UNL1       -0.1748
     22  C16       -3.0500   -0.1110   -1.0580 C.ar    1  UNL1       -0.0071
     23 H          -6.9550   -0.8941    1.1208 H       1  UNL1        0.1453
     24 H          -6.0149    0.4416    1.6104 H       1  UNL1        0.1453
     25 H          -4.5230    1.4948    1.4406 H       1  UNL1        0.0625
     26 H          -2.5243    2.8423    1.1626 H       1  UNL1        0.0619
     27 H          -0.8785    2.3312   -0.4987 H       1  UNL1        0.0654
     28 H           0.9049   -3.6359   -1.9506 H       1  UNL1        0.1049
     29 H           4.3234   -2.1466   -0.0067 H       1  UNL1        0.0625
     30 H           6.2924   -1.3423    1.1000 H       1  UNL1        0.0618
     31 H           6.5239    1.0213    1.6279 H       1  UNL1        0.0618
     32 H           4.7213    2.4998    0.9993 H       1  UNL1        0.0618
     33 H           2.7539    1.6970   -0.1081 H       1  UNL1        0.0625
     34 H          -3.1895   -0.9265   -1.6748 H       1  UNL1        0.0662
@<TRIPOS>BOND
     1     1     2   am
     2     2     3    2
     3     2     4    1
     4     4     5   ar
     5     4    22   ar
     6     5     6   ar
     7     6     7   ar
     8     7     8   ar
     9     8     9    1
    10     8    22   ar
    11     9    10    1
    12    10    11   ar
    13    10    21   ar
    14    11    12   ar
    15    12    13   ar
    16    13    14   ar
    17    14    15    1
    18    14    21   ar
    19    15    16   ar
    20    15    20   ar
    21    16    17   ar
    22    17    18   ar
    23    18    19   ar
    24    19    20   ar
    25     1    23    1
    26     1    24    1
    27     5    25    1
    28     6    26    1
    29     7    27    1
    30    12    28    1
    31    16    29    1
    32    17    30    1
    33    18    31    1
    34    19    32    1
    35    20    33    1
    36    22    34    1
@<TRIPOS>MOLECULE
../data/bude_mols_rdkit_confs/molecule_58.pdb
 34 36 0 0 0
SMALL
GASTEIGER

@<TRIPOS>ATOM
      1  N1         4.7830    2.7470    0.8470 N.am    1  UNL1       -0.3253
      2  C1         3.6980    2.2100    0.1180 C.2     1  UNL1        0.2416
      3  O1         2.8960    2.9650   -0.4630 O.2     1  UNL1       -0.2704
      4  C2         3.5260    0.7710    0.0510 C.ar    1  UNL1        0.0400
      5  C3         4.4040   -0.0650    0.6950 C.ar    1  UNL1       -0.0494
      6  C4         4.2010   -1.4240    0.6030 C.ar    1  UNL1       -0.0576
      7  C5         3.1400   -1.9300   -0.1200 C.ar    1  UNL1       -0.0192
      8  C6         2.2460   -1.1100   -0.7750 C.ar    1  UNL1        0.1326
      9  O2         1.1740   -1.5700   -1.5090 O.3     1  UNL1       -0.4235
     10  C7        -0.0910   -1.7920   -0.9730 C.ar    1  UNL1        0.3267
     11  N2        -0.3700   -3.0500   -0.5850 N.ar    1  UNL1       -0.1831
     12  C8        -1.5710   -3.3360   -0.0590 C.ar    1  UNL1        0.1237
     13  N3        -2.4540   -2.3440    0.0590 N.ar    1  UNL1       -0.2157
     14  C9        -2.1870   -1.0840   -0.3250 C.ar    1  UNL1        0.1666
     15  C10       -3.2300   -0.0580   -0.1530 C.ar    1  UNL1        0.0193
     16  C11       -4.4530   -0.3850    0.3900 C.ar    1  UNL1       -0.0510
     17  C12       -5.4480    0.5850    0.5560 C.ar    1  UNL1       -0.0611
     18  C13       -5.2290    1.8950    0.1790 C.ar    1  UNL1       -0.0617
     19  C14       -3.9930    2.2050   -0.3650 C.ar    1  UNL1       -0.0611
     20  C15       -3.0110    1.2490   -0.5290 C.ar    1  UNL1       -0.0510
     21  N4        -0.9910   -0.7830   -0.8520 N.ar    1  UNL1       -0.1748
     22  C16        2.4540    0.2490   -0.6800 C.ar    1  UNL1       -0.0071
     23 H           4.9073    3.7223    0.8978 H       1  UNL1        0.1453
     24 H           5.4146    2.1458    1.3041 H       1  UNL1        0.1453
     25 H           5.1969    0.3156    1.2349 H       1  UNL1        0.0625
     26 H           4.8489   -2.0706    1.0796 H       1  UNL1        0.0619
     27 H           3.0120   -2.9527   -0.1719 H       1  UNL1        0.0654
     28 H          -1.8040   -4.2943    0.2448 H       1  UNL1        0.1049
     29 H          -4.6380   -1.3585    0.6783 H       1  UNL1        0.0625
     30 H          -6.3569    0.3178    0.9654 H       1  UNL1        0.0618
     31 H          -5.9580    2.6157    0.2978 H       1  UNL1        0.0618
     32 H          -3.8015    3.1766   -0.6553 H       1  UNL1        0.0618
     33 H          -2.1021    1.5165   -0.9381 H       1  UNL1        0.0625
     34 H           1.8058    0.8944   -1.1578 H       1  UNL1        0.0662
@<TRIPOS>BOND
     1     1     2   am
     2     2     3    2
     3     2     4    1
     4     4     5   ar
     5     4    22   ar
     6     5     6   ar
     7     6     7   ar
     8     7     8   ar
     9     8     9    1
    10     8    22   ar
    11     9    10    1
    12    10    11   ar
    13    10    21   ar
    14    11    12   ar
    15    12    13   ar
    16    13    14   ar
    17    14    15    1
    18    14    21   ar
    19    15    16   ar
    20    15    20   ar
    21    16    17   ar
    22    17    18   ar
    23    18    19   ar
    24    19    20   ar
    25     1    23    1
    26     1    24    1
    27     5    25    1
    28     6    26    1
    29     7    27    1
    30    12    28    1
    31    16    29    1
    32    17    30    1
    33    18    31    1
    34    19    32    1
    35    20    33    1
    36    22    34    1
