@<TRIPOS>MOLECULE
../data/bude_mols_rdkit_confs/molecule_72.pdb
 40 43 0 0 0
SMALL
GASTEIGER

@<TRIPOS>ATOM
      1  N1         5.6440    1.4200    0.3610 N.2     1  UNL1       -0.3282
      2  N2         4.7420    0.7490    0.8370 N.2     1  UNL1       -0.0146
      3  N3         4.0850   -0.1820    1.3130 N.2     1  UNL1        0.0789
      4  C1         2.7780   -0.5080    0.6740 C.3     1  UNL1        0.1461
      5  C2         2.7560   -0.0080   -0.7300 C.3     1  UNL1        0.0991
      6  O1         3.7770   -0.7000   -1.3980 O.3     1  UNL1       -0.3880
      7  C3         1.5040   -0.2160   -1.4500 C.3     1  UNL1        0.0547
      8  N4         0.3120    0.3320   -0.9780 N.ar    1  UNL1       -0.3044
      9  C4        -0.5460   -0.3340   -0.1910 C.ar    1  UNL1        0.0642
     10  C5        -1.7130    0.2750    0.2980 C.ar    1  UNL1        0.0543
     11  C6        -2.0150    1.6050   -0.0260 C.ar    1  UNL1        0.0001
     12  C7        -3.1400    2.2460    0.4250 C.ar    1  UNL1       -0.0531
     13  C8        -3.3420    3.5650    0.0430 C.ar    1  UNL1       -0.0611
     14  C9        -2.4620    4.2510   -0.7670 C.ar    1  UNL1       -0.0610
     15  C10       -1.3340    3.5970   -1.2140 C.ar    1  UNL1       -0.0488
     16  C11       -1.1200    2.2720   -0.8370 C.ar    1  UNL1        0.0474
     17  C12        0.0050    1.6240   -1.2850 C.ar    1  UNL1        0.2596
     18  O2         0.8070    2.2310   -2.0160 O.2     1  UNL1       -0.2670
     19  C13       -2.4790   -0.6390    1.1120 C.2     1  UNL1        0.1963
     20  O3        -3.5790   -0.4010    1.7000 O.2     1  UNL1       -0.2865
     21  C14       -1.7310   -1.8830    1.1170 C.ar    1  UNL1        0.0315
     22  C15       -2.0190   -3.0760    1.7330 C.ar    1  UNL1       -0.0503
     23  C16       -1.1680   -4.1680    1.6090 C.ar    1  UNL1       -0.0610
     24  C17       -0.0360   -3.9930    0.8460 C.ar    1  UNL1       -0.0611
     25  C18        0.2460   -2.7700    0.2220 C.ar    1  UNL1       -0.0519
     26  C19       -0.5870   -1.7070    0.3470 C.ar    1  UNL1        0.0101
     27 H           1.9881   -0.0445    1.2273 H       1  UNL1        0.0605
     28 H           2.6450   -1.5697    0.6700 H       1  UNL1        0.0605
     29 H           2.8822    1.0541   -0.6997 H       1  UNL1        0.0632
     30 H           3.5880   -1.6512   -1.3805 H       1  UNL1        0.2099
     31 H           1.3541   -1.2741   -1.5030 H       1  UNL1        0.0519
     32 H           1.6643    0.3143   -2.3654 H       1  UNL1        0.0519
     33 H          -3.8186    1.7606    1.0324 H       1  UNL1        0.0624
     34 H          -4.1868    4.0530    0.3795 H       1  UNL1        0.0618
     35 H          -2.6437    5.2316   -1.0325 H       1  UNL1        0.0618
     36 H          -0.6554    4.0828   -1.8210 H       1  UNL1        0.0625
     37 H          -2.8795   -3.1631    2.2960 H       1  UNL1        0.0625
     38 H          -1.3755   -5.0687    2.0680 H       1  UNL1        0.0618
     39 H           0.6206   -4.7808    0.7306 H       1  UNL1        0.0618
     40 H           1.1042   -2.6766   -0.3436 H       1  UNL1        0.0624
@<TRIPOS>UNITY_ATOM_ATTR
1 1
charge -1
2 1
charge 1
@<TRIPOS>BOND
     1     1     2    2
     2     2     3    2
     3     3     4    1
     4     4     5    1
     5     5     6    1
     6     5     7    1
     7     7     8    1
     8     8     9   ar
     9     8    17   ar
    10     9    10   ar
    11     9    26    1
    12    10    11   ar
    13    10    19    1
    14    11    12   ar
    15    11    16   ar
    16    12    13   ar
    17    13    14   ar
    18    14    15   ar
    19    15    16   ar
    20    16    17   ar
    21    17    18    2
    22    19    20    2
    23    19    21    1
    24    21    22   ar
    25    21    26   ar
    26    22    23   ar
    27    23    24   ar
    28    24    25   ar
    29    25    26   ar
    30     4    27    1
    31     4    28    1
    32     5    29    1
    33     6    30    1
    34     7    31    1
    35     7    32    1
    36    12    33    1
    37    13    34    1
    38    14    35    1
    39    15    36    1
    40    22    37    1
    41    23    38    1
    42    24    39    1
    43    25    40    1
@<TRIPOS>MOLECULE
../data/bude_mols_rdkit_confs/molecule_72.pdb
 40 43 0 0 0
SMALL
GASTEIGER

@<TRIPOS>ATOM
      1  N1         4.7390   -0.2970    3.0060 N.2     1  UNL1       -0.3282
      2  N2         4.4690    0.3480    1.9700 N.2     1  UNL1       -0.0146
      3  N3         4.2520    0.4840    0.7710 N.2     1  UNL1        0.0789
      4  C1         2.8500    0.6690    0.2980 C.3     1  UNL1        0.1461
      5  C2         2.7180    0.1400   -1.0820 C.3     1  UNL1        0.0991
      6  O1         3.1040   -1.2470   -1.1130 O.3     1  UNL1       -0.3880
      7  C3         1.4060    0.3010   -1.7620 C.3     1  UNL1        0.0547
      8  N4         0.2690   -0.2940   -1.1390 N.ar    1  UNL1       -0.3044
      9  C4        -0.5590    0.3360   -0.2990 C.ar    1  UNL1        0.0642
     10  C5        -1.6240   -0.3080    0.3110 C.ar    1  UNL1        0.0543
     11  C6        -1.8740   -1.6390    0.0710 C.ar    1  UNL1        0.0001
     12  C7        -2.9410   -2.3240    0.6690 C.ar    1  UNL1       -0.0531
     13  C8        -3.0880   -3.6470    0.3530 C.ar    1  UNL1       -0.0611
     14  C9        -2.2730   -4.3460   -0.5010 C.ar    1  UNL1       -0.0610
     15  C10       -1.2340   -3.6530   -1.0750 C.ar    1  UNL1       -0.0488
     16  C11       -1.0300   -2.3030   -0.7930 C.ar    1  UNL1        0.0474
     17  C12        0.0090   -1.6210   -1.3700 C.ar    1  UNL1        0.2596
     18  O2         0.7600   -2.2220   -2.1440 O.2     1  UNL1       -0.2670
     19  C13       -2.3830    0.5770    1.1630 C.2     1  UNL1        0.1963
     20  O3        -3.3970    0.3980    1.8810 O.2     1  UNL1       -0.2865
     21  C14       -1.7150    1.8690    1.0550 C.ar    1  UNL1        0.0315
     22  C15       -1.9750    3.1020    1.6260 C.ar    1  UNL1       -0.0503
     23  C16       -1.2090    4.2190    1.3790 C.ar    1  UNL1       -0.0610
     24  C17       -0.1560    4.0580    0.5260 C.ar    1  UNL1       -0.0611
     25  C18        0.1530    2.8420   -0.0770 C.ar    1  UNL1       -0.0519
     26  C19       -0.6270    1.7430    0.1870 C.ar    1  UNL1        0.0101
     27 H           2.6060    1.7108    0.3052 H       1  UNL1        0.0605
     28 H           2.1828    0.1411    0.9469 H       1  UNL1        0.0605
     29 H           3.3771    0.7649   -1.6476 H       1  UNL1        0.0632
     30 H           2.4774   -1.7688   -0.5877 H       1  UNL1        0.2099
     31 H           1.4963   -0.1245   -2.7396 H       1  UNL1        0.0519
     32 H           1.2123    1.3531   -1.7398 H       1  UNL1        0.0519
     33 H          -3.5876   -1.8508    1.3194 H       1  UNL1        0.0624
     34 H          -3.8711   -4.1577    0.7900 H       1  UNL1        0.0618
     35 H          -2.4326   -5.3454   -0.7030 H       1  UNL1        0.0618
     36 H          -0.5957   -4.1390   -1.7241 H       1  UNL1        0.0625
     37 H          -2.7798    3.1884    2.2662 H       1  UNL1        0.0625
     38 H          -1.4200    5.1299    1.8158 H       1  UNL1        0.0618
     39 H           0.4387    4.8755    0.3184 H       1  UNL1        0.0618
     40 H           0.9600    2.7672   -0.7159 H       1  UNL1        0.0624
@<TRIPOS>UNITY_ATOM_ATTR
1 1
charge -1
2 1
charge 1
@<TRIPOS>BOND
     1     1     2    2
     2     2     3    2
     3     3     4    1
     4     4     5    1
     5     5     6    1
     6     5     7    1
     7     7     8    1
     8     8     9   ar
     9     8    17   ar
    10     9    10   ar
    11     9    26    1
    12    10    11   ar
    13    10    19    1
    14    11    12   ar
    15    11    16   ar
    16    12    13   ar
    17    13    14   ar
    18    14    15   ar
    19    15    16   ar
    20    16    17   ar
    21    17    18    2
    22    19    20    2
    23    19    21    1
    24    21    22   ar
    25    21    26   ar
    26    22    23   ar
    27    23    24   ar
    28    24    25   ar
    29    25    26   ar
    30     4    27    1
    31     4    28    1
    32     5    29    1
    33     6    30    1
    34     7    31    1
    35     7    32    1
    36    12    33    1
    37    13    34    1
    38    14    35    1
    39    15    36    1
    40    22    37    1
    41    23    38    1
    42    24    39    1
    43    25    40    1
@<TRIPOS>MOLECULE
../data/bude_mols_rdkit_confs/molecule_72.pdb
 40 43 0 0 0
SMALL
GASTEIGER

@<TRIPOS>ATOM
      1  N1         5.6410   -1.3230    1.1340 N.2     1  UNL1       -0.3282
      2  N2         4.6900   -0.7190    1.6320 N.2     1  UNL1       -0.0146
      3  N3         3.5830   -0.4330    2.1260 N.2     1  UNL1        0.0789
      4  C1         2.6030    0.1200    1.1540 C.3     1  UNL1        0.1461
      5  C2         2.7140   -0.7320   -0.0520 C.3     1  UNL1        0.0991
      6  O1         2.4440   -2.0820    0.3100 O.3     1  UNL1       -0.3880
      7  C3         1.7600   -0.4450   -1.1780 C.3     1  UNL1        0.0547
      8  N4         0.3670   -0.5660   -0.8310 N.ar    1  UNL1       -0.3044
      9  C4        -0.4250    0.4200   -0.4040 C.ar    1  UNL1        0.0642
     10  C5        -1.7570    0.1950   -0.0610 C.ar    1  UNL1        0.0543
     11  C6        -2.2910   -1.0800   -0.1600 C.ar    1  UNL1        0.0001
     12  C7        -3.6170   -1.2870    0.1860 C.ar    1  UNL1       -0.0531
     13  C8        -4.1030   -2.5720    0.0710 C.ar    1  UNL1       -0.0611
     14  C9        -3.2970   -3.5960   -0.3690 C.ar    1  UNL1       -0.0610
     15  C10       -1.9880   -3.3720   -0.7060 C.ar    1  UNL1       -0.0488
     16  C11       -1.4580   -2.0800   -0.6020 C.ar    1  UNL1        0.0474
     17  C12       -0.1440   -1.8390   -0.9370 C.ar    1  UNL1        0.2596
     18  O2         0.5540   -2.8070   -1.3350 O.2     1  UNL1       -0.2670
     19  C13       -2.4050    1.4230    0.3610 C.2     1  UNL1        0.1963
     20  O3        -3.5700    1.6700    0.7470 O.2     1  UNL1       -0.2865
     21  C14       -1.3770    2.4510    0.2580 C.ar    1  UNL1        0.0315
     22  C15       -1.3960    3.8030    0.5140 C.ar    1  UNL1       -0.0503
     23  C16       -0.2620    4.5510    0.3200 C.ar    1  UNL1       -0.0610
     24  C17        0.8920    3.9770   -0.1250 C.ar    1  UNL1       -0.0611
     25  C18        0.9360    2.6210   -0.3890 C.ar    1  UNL1       -0.0519
     26  C19       -0.1920    1.8680   -0.1970 C.ar    1  UNL1        0.0101
     27 H           2.8439    1.1353    0.9174 H       1  UNL1        0.0605
     28 H           1.6089    0.1183    1.5498 H       1  UNL1        0.0605
     29 H           3.7043   -0.5315   -0.4042 H       1  UNL1        0.0632
     30 H           1.5260   -2.1578    0.6139 H       1  UNL1        0.2099
     31 H           1.9664   -1.1308   -1.9730 H       1  UNL1        0.0519
     32 H           1.9156    0.5771   -1.4535 H       1  UNL1        0.0519
     33 H          -4.2146   -0.5128    0.5154 H       1  UNL1        0.0624
     34 H          -5.0854   -2.7684    0.3186 H       1  UNL1        0.0618
     35 H          -3.6848   -4.5492   -0.4466 H       1  UNL1        0.0618
     36 H          -1.3961   -4.1509   -1.0346 H       1  UNL1        0.0625
     37 H          -2.2612    4.2534    0.8511 H       1  UNL1        0.0625
     38 H          -0.2829    5.5644    0.5140 H       1  UNL1        0.0618
     39 H           1.7345    4.5564   -0.2650 H       1  UNL1        0.0618
     40 H           1.8069    2.1818   -0.7262 H       1  UNL1        0.0624
@<TRIPOS>UNITY_ATOM_ATTR
1 1
charge -1
2 1
charge 1
@<TRIPOS>BOND
     1     1     2    2
     2     2     3    2
     3     3     4    1
     4     4     5    1
     5     5     6    1
     6     5     7    1
     7     7     8    1
     8     8     9   ar
     9     8    17   ar
    10     9    10   ar
    11     9    26    1
    12    10    11   ar
    13    10    19    1
    14    11    12   ar
    15    11    16   ar
    16    12    13   ar
    17    13    14   ar
    18    14    15   ar
    19    15    16   ar
    20    16    17   ar
    21    17    18    2
    22    19    20    2
    23    19    21    1
    24    21    22   ar
    25    21    26   ar
    26    22    23   ar
    27    23    24   ar
    28    24    25   ar
    29    25    26   ar
    30     4    27    1
    31     4    28    1
    32     5    29    1
    33     6    30    1
    34     7    31    1
    35     7    32    1
    36    12    33    1
    37    13    34    1
    38    14    35    1
    39    15    36    1
    40    22    37    1
    41    23    38    1
    42    24    39    1
    43    25    40    1
@<TRIPOS>MOLECULE
../data/bude_mols_rdkit_confs/molecule_72.pdb
 40 43 0 0 0
SMALL
GASTEIGER

@<TRIPOS>ATOM
      1  N1         5.1590   -1.4460    1.2730 N.2     1  UNL1       -0.3282
      2  N2         5.1430   -0.3940    0.6580 N.2     1  UNL1       -0.0146
      3  N3         5.0710    0.7400    0.1520 N.2     1  UNL1        0.0789
      4  C1         3.8860    1.0080   -0.6430 C.3     1  UNL1        0.1461
      5  C2         2.6980    0.1820   -0.1160 C.3     1  UNL1        0.0991
      6  O1         2.4920    0.5520    1.1800 O.3     1  UNL1       -0.3880
      7  C3         1.5840    0.3920   -1.0780 C.3     1  UNL1        0.0547
      8  N4         0.3560   -0.2470   -0.8320 N.ar    1  UNL1       -0.3044
      9  C4        -0.6310    0.3020   -0.1080 C.ar    1  UNL1        0.0642
     10  C5        -1.8480   -0.3530    0.1060 C.ar    1  UNL1        0.0543
     11  C6        -2.0460   -1.6140   -0.4450 C.ar    1  UNL1        0.0001
     12  C7        -3.2360   -2.2820   -0.2490 C.ar    1  UNL1       -0.0531
     13  C8        -3.3590   -3.5410   -0.8320 C.ar    1  UNL1       -0.0611
     14  C9        -2.3540   -4.1140   -1.5750 C.ar    1  UNL1       -0.0610
     15  C10       -1.1860   -3.4410   -1.7580 C.ar    1  UNL1       -0.0488
     16  C11       -1.0370   -2.1820   -1.1860 C.ar    1  UNL1        0.0474
     17  C12        0.1270   -1.4740   -1.3510 C.ar    1  UNL1        0.2596
     18  O2         1.0370   -1.9980   -2.0260 O.2     1  UNL1       -0.2670
     19  C13       -2.7400    0.4560    0.9200 C.2     1  UNL1        0.1963
     20  O3        -3.9230    0.1530    1.2970 O.2     1  UNL1       -0.2865
     21  C14       -2.0210    1.6630    1.2120 C.ar    1  UNL1        0.0315
     22  C15       -2.4050    2.7600    1.9480 C.ar    1  UNL1       -0.0503
     23  C16       -1.5490    3.8300    2.1130 C.ar    1  UNL1       -0.0610
     24  C17       -0.3060    3.7530    1.5160 C.ar    1  UNL1       -0.0611
     25  C18        0.0930    2.6380    0.7640 C.ar    1  UNL1       -0.0519
     26  C19       -0.7620    1.5900    0.6080 C.ar    1  UNL1        0.0101
     27 H           4.0763    0.7439   -1.6623 H       1  UNL1        0.0605
     28 H           3.6467    2.0487   -0.5755 H       1  UNL1        0.0605
     29 H           2.8419   -0.8774   -0.0728 H       1  UNL1        0.0632
     30 H           2.3519    1.5108    1.2241 H       1  UNL1        0.2099
     31 H           1.9267    0.0598   -2.0356 H       1  UNL1        0.0519
     32 H           1.3583    1.4346   -0.9940 H       1  UNL1        0.0519
     33 H          -4.0017   -1.8676    0.3051 H       1  UNL1        0.0624
     34 H          -4.2389   -4.0642   -0.7011 H       1  UNL1        0.0618
     35 H          -2.4849   -5.0491   -1.9914 H       1  UNL1        0.0618
     36 H          -0.4223   -3.8582   -2.3127 H       1  UNL1        0.0625
     37 H          -3.3416    2.7831    2.3807 H       1  UNL1        0.0625
     38 H          -1.8277    4.6578    2.6627 H       1  UNL1        0.0618
     39 H           0.3507    4.5414    1.6267 H       1  UNL1        0.0618
     40 H           1.0296    2.6123    0.3314 H       1  UNL1        0.0624
@<TRIPOS>UNITY_ATOM_ATTR
1 1
charge -1
2 1
charge 1
@<TRIPOS>BOND
     1     1     2    2
     2     2     3    2
     3     3     4    1
     4     4     5    1
     5     5     6    1
     6     5     7    1
     7     7     8    1
     8     8     9   ar
     9     8    17   ar
    10     9    10   ar
    11     9    26    1
    12    10    11   ar
    13    10    19    1
    14    11    12   ar
    15    11    16   ar
    16    12    13   ar
    17    13    14   ar
    18    14    15   ar
    19    15    16   ar
    20    16    17   ar
    21    17    18    2
    22    19    20    2
    23    19    21    1
    24    21    22   ar
    25    21    26   ar
    26    22    23   ar
    27    23    24   ar
    28    24    25   ar
    29    25    26   ar
    30     4    27    1
    31     4    28    1
    32     5    29    1
    33     6    30    1
    34     7    31    1
    35     7    32    1
    36    12    33    1
    37    13    34    1
    38    14    35    1
    39    15    36    1
    40    22    37    1
    41    23    38    1
    42    24    39    1
    43    25    40    1
@<TRIPOS>MOLECULE
../data/bude_mols_rdkit_confs/molecule_72.pdb
 40 43 0 0 0
SMALL
GASTEIGER

@<TRIPOS>ATOM
      1  N1         6.9830   -0.1780    0.8400 N.2     1  UNL1       -0.3282
      2  N2         5.9100   -0.8000    0.7370 N.2     1  UNL1       -0.0146
      3  N3         4.7570   -1.2510    0.6330 N.2     1  UNL1        0.0789
      4  C1         3.8770   -0.6650   -0.3580 C.3     1  UNL1        0.1461
      5  C2         2.4250   -0.8770    0.0160 C.3     1  UNL1        0.0991
      6  O1         2.2000   -0.2770    1.2380 O.3     1  UNL1       -0.3880
      7  C3         1.4970   -0.3860   -1.0640 C.3     1  UNL1        0.0547
      8  N4         0.1010   -0.5480   -0.7590 N.ar    1  UNL1       -0.3044
      9  C4        -0.6240    0.3940   -0.1570 C.ar    1  UNL1        0.0642
     10  C5        -1.9810    0.1500    0.1000 C.ar    1  UNL1        0.0543
     11  C6        -2.6060   -1.0340   -0.2470 C.ar    1  UNL1        0.0001
     12  C7        -3.9380   -1.2770    0.0030 C.ar    1  UNL1       -0.0531
     13  C8        -4.5490   -2.4650   -0.3500 C.ar    1  UNL1       -0.0611
     14  C9        -3.7600   -3.4120   -0.9710 C.ar    1  UNL1       -0.0610
     15  C10       -2.4210   -3.1900   -1.2330 C.ar    1  UNL1       -0.0488
     16  C11       -1.8330   -1.9860   -0.8670 C.ar    1  UNL1        0.0474
     17  C12       -0.5110   -1.7180   -1.1030 C.ar    1  UNL1        0.2596
     18  O2         0.1550   -2.6310   -1.6780 O.2     1  UNL1       -0.2670
     19  C13       -2.5030    1.3220    0.7430 C.2     1  UNL1        0.1963
     20  O3        -3.6920    1.4770    1.1260 O.2     1  UNL1       -0.2865
     21  C14       -1.4150    2.2750    0.8650 C.ar    1  UNL1        0.0315
     22  C15       -1.3490    3.5430    1.3930 C.ar    1  UNL1       -0.0503
     23  C16       -0.1890    4.2850    1.4050 C.ar    1  UNL1       -0.0610
     24  C17        0.9630    3.7330    0.8630 C.ar    1  UNL1       -0.0611
     25  C18        0.9180    2.4710    0.3310 C.ar    1  UNL1       -0.0519
     26  C19       -0.2490    1.7270    0.3190 C.ar    1  UNL1        0.0101
     27 H           4.0646   -1.1220   -1.3071 H       1  UNL1        0.0605
     28 H           4.0678    0.3868   -0.4054 H       1  UNL1        0.0605
     29 H           2.2165   -1.9225    0.1070 H       1  UNL1        0.0632
     30 H           2.3852    0.6728    1.1709 H       1  UNL1        0.2099
     31 H           1.7097   -0.9283   -1.9615 H       1  UNL1        0.0519
     32 H           1.6703    0.6651   -1.1644 H       1  UNL1        0.0519
     33 H          -4.4989   -0.5473    0.4698 H       1  UNL1        0.0624
     34 H          -5.5485   -2.6362   -0.1583 H       1  UNL1        0.0618
     35 H          -4.1820   -4.3121   -1.2478 H       1  UNL1        0.0618
     36 H          -1.8586   -3.9183   -1.7002 H       1  UNL1        0.0625
     37 H          -2.2043    3.9557    1.7970 H       1  UNL1        0.0625
     38 H          -0.1766    5.2343    1.8097 H       1  UNL1        0.0618
     39 H           1.8455    4.2680    0.8606 H       1  UNL1        0.0618
     40 H           1.7770    2.0646   -0.0714 H       1  UNL1        0.0624
@<TRIPOS>UNITY_ATOM_ATTR
1 1
charge -1
2 1
charge 1
@<TRIPOS>BOND
     1     1     2    2
     2     2     3    2
     3     3     4    1
     4     4     5    1
     5     5     6    1
     6     5     7    1
     7     7     8    1
     8     8     9   ar
     9     8    17   ar
    10     9    10   ar
    11     9    26    1
    12    10    11   ar
    13    10    19    1
    14    11    12   ar
    15    11    16   ar
    16    12    13   ar
    17    13    14   ar
    18    14    15   ar
    19    15    16   ar
    20    16    17   ar
    21    17    18    2
    22    19    20    2
    23    19    21    1
    24    21    22   ar
    25    21    26   ar
    26    22    23   ar
    27    23    24   ar
    28    24    25   ar
    29    25    26   ar
    30     4    27    1
    31     4    28    1
    32     5    29    1
    33     6    30    1
    34     7    31    1
    35     7    32    1
    36    12    33    1
    37    13    34    1
    38    14    35    1
    39    15    36    1
    40    22    37    1
    41    23    38    1
    42    24    39    1
    43    25    40    1
@<TRIPOS>MOLECULE
../data/bude_mols_rdkit_confs/molecule_72.pdb
 40 43 0 0 0
SMALL
GASTEIGER

@<TRIPOS>ATOM
      1  N1         5.2470    0.9120   -2.7210 N.2     1  UNL1       -0.3282
      2  N2         4.6670    1.1210   -1.6400 N.2     1  UNL1       -0.0146
      3  N3         4.2550    1.1220   -0.4890 N.2     1  UNL1        0.0789
      4  C1         4.0580   -0.0770    0.3040 C.3     1  UNL1        0.1461
      5  C2         2.5880   -0.2670    0.6700 C.3     1  UNL1        0.0991
      6  O1         2.2000    0.8260    1.3900 O.3     1  UNL1       -0.3880
      7  C3         1.7550   -0.6190   -0.5210 C.3     1  UNL1        0.0547
      8  N4         0.3720   -0.8050   -0.2420 N.ar    1  UNL1       -0.3044
      9  C4        -0.5660    0.1430   -0.2690 C.ar    1  UNL1        0.0642
     10  C5        -1.8940   -0.1530    0.0110 C.ar    1  UNL1        0.0543
     11  C6        -2.3110   -1.4430    0.3320 C.ar    1  UNL1        0.0001
     12  C7        -3.6060   -1.7690    0.6120 C.ar    1  UNL1       -0.0531
     13  C8        -3.9920   -3.0760    0.9320 C.ar    1  UNL1       -0.0611
     14  C9        -3.0020   -4.0170    0.9490 C.ar    1  UNL1       -0.0610
     15  C10       -1.6880   -3.7180    0.6710 C.ar    1  UNL1       -0.0488
     16  C11       -1.3490   -2.4040    0.3580 C.ar    1  UNL1        0.0474
     17  C12       -0.0550   -2.0470    0.0710 C.ar    1  UNL1        0.2596
     18  O2         0.7880   -3.0090    0.1180 O.2     1  UNL1       -0.2670
     19  C13       -2.7020    1.0490   -0.0870 C.2     1  UNL1        0.1963
     20  O3        -3.9460    1.2180    0.0880 O.2     1  UNL1       -0.2865
     21  C14       -1.7740    2.1160   -0.4480 C.ar    1  UNL1        0.0315
     22  C15       -2.0290    3.4510   -0.6620 C.ar    1  UNL1       -0.0503
     23  C16       -0.9740    4.2720   -0.9940 C.ar    1  UNL1       -0.0610
     24  C17        0.2910    3.7340   -1.1010 C.ar    1  UNL1       -0.0611
     25  C18        0.5290    2.3790   -0.8810 C.ar    1  UNL1       -0.0519
     26  C19       -0.4930    1.5530   -0.5540 C.ar    1  UNL1        0.0101
     27 H           4.6333    0.0015    1.2028 H       1  UNL1        0.0605
     28 H           4.3726   -0.9197   -0.2755 H       1  UNL1        0.0605
     29 H           2.4377   -1.1196    1.2989 H       1  UNL1        0.0632
     30 H           2.3204    1.6256    0.8542 H       1  UNL1        0.2099
     31 H           2.1364   -1.5274   -0.9385 H       1  UNL1        0.0519
     32 H           1.8201    0.2112   -1.1929 H       1  UNL1        0.0519
     33 H          -4.3240   -1.0282    0.5871 H       1  UNL1        0.0624
     34 H          -4.9731   -3.3160    1.1439 H       1  UNL1        0.0618
     35 H          -3.2497   -4.9919    1.1797 H       1  UNL1        0.0618
     36 H          -0.9659   -4.4550    0.6940 H       1  UNL1        0.0625
     37 H          -2.9860    3.8275   -0.5760 H       1  UNL1        0.0625
     38 H          -1.1287    5.2786   -1.1608 H       1  UNL1        0.0618
     39 H           1.0807    4.3499   -1.3501 H       1  UNL1        0.0618
     40 H           1.4865    2.0039   -0.9675 H       1  UNL1        0.0624
@<TRIPOS>UNITY_ATOM_ATTR
1 1
charge -1
2 1
charge 1
@<TRIPOS>BOND
     1     1     2    2
     2     2     3    2
     3     3     4    1
     4     4     5    1
     5     5     6    1
     6     5     7    1
     7     7     8    1
     8     8     9   ar
     9     8    17   ar
    10     9    10   ar
    11     9    26    1
    12    10    11   ar
    13    10    19    1
    14    11    12   ar
    15    11    16   ar
    16    12    13   ar
    17    13    14   ar
    18    14    15   ar
    19    15    16   ar
    20    16    17   ar
    21    17    18    2
    22    19    20    2
    23    19    21    1
    24    21    22   ar
    25    21    26   ar
    26    22    23   ar
    27    23    24   ar
    28    24    25   ar
    29    25    26   ar
    30     4    27    1
    31     4    28    1
    32     5    29    1
    33     6    30    1
    34     7    31    1
    35     7    32    1
    36    12    33    1
    37    13    34    1
    38    14    35    1
    39    15    36    1
    40    22    37    1
    41    23    38    1
    42    24    39    1
    43    25    40    1
@<TRIPOS>MOLECULE
../data/bude_mols_rdkit_confs/molecule_72.pdb
 40 43 0 0 0
SMALL
GASTEIGER

@<TRIPOS>ATOM
      1  N1         6.0680    1.4580   -1.3670 N.2     1  UNL1       -0.3282
      2  N2         5.4520    0.3850   -1.2960 N.2     1  UNL1       -0.0146
      3  N3         4.9020   -0.6260   -0.8670 N.2     1  UNL1        0.0789
      4  C1         3.9460   -0.6220    0.2180 C.3     1  UNL1        0.1461
      5  C2         2.5960   -0.0750   -0.2560 C.3     1  UNL1        0.0991
      6  O1         2.0650   -0.8310   -1.2790 O.3     1  UNL1       -0.3880
      7  C3         1.6690    0.0390    0.9250 C.3     1  UNL1        0.0547
      8  N4         0.3610    0.5260    0.6180 N.ar    1  UNL1       -0.3044
      9  C4        -0.6490   -0.3010    0.2960 C.ar    1  UNL1        0.0642
     10  C5        -1.8920    0.2550    0.0270 C.ar    1  UNL1        0.0543
     11  C6        -2.1530    1.6140    0.0700 C.ar    1  UNL1        0.0001
     12  C7        -3.3810    2.1720   -0.1960 C.ar    1  UNL1       -0.0531
     13  C8        -3.5550    3.5500   -0.1300 C.ar    1  UNL1       -0.0611
     14  C9        -2.5120    4.3850    0.2000 C.ar    1  UNL1       -0.0610
     15  C10       -1.2980    3.7900    0.4590 C.ar    1  UNL1       -0.0488
     16  C11       -1.0870    2.4190    0.4030 C.ar    1  UNL1        0.0474
     17  C12        0.1470    1.8800    0.6720 C.ar    1  UNL1        0.2596
     18  O2         1.0870    2.6580    0.9710 O.2     1  UNL1       -0.2670
     19  C13       -2.7800   -0.8570   -0.2840 C.2     1  UNL1        0.1963
     20  O3        -4.0040   -0.7390   -0.5820 O.2     1  UNL1       -0.2865
     21  C14       -2.0190   -2.0920   -0.1900 C.ar    1  UNL1        0.0315
     22  C15       -2.3850   -3.4180   -0.3890 C.ar    1  UNL1       -0.0503
     23  C16       -1.4870   -4.4540   -0.2480 C.ar    1  UNL1       -0.0610
     24  C17       -0.1970   -4.1370    0.0990 C.ar    1  UNL1       -0.0611
     25  C18        0.1630   -2.8110    0.2960 C.ar    1  UNL1       -0.0519
     26  C19       -0.7240   -1.7680    0.1600 C.ar    1  UNL1        0.0101
     27 H           4.3163   -0.0062    1.0109 H       1  UNL1        0.0605
     28 H           3.8101   -1.6260    0.5622 H       1  UNL1        0.0605
     29 H           2.7367    0.9016   -0.6699 H       1  UNL1        0.0632
     30 H           1.9123   -1.7364   -0.9663 H       1  UNL1        0.2099
     31 H           2.1141    0.7056    1.6338 H       1  UNL1        0.0519
     32 H           1.5389   -0.9541    1.3015 H       1  UNL1        0.0519
     33 H          -4.1775    1.5652   -0.4459 H       1  UNL1        0.0624
     34 H          -4.4830    3.9538   -0.3321 H       1  UNL1        0.0618
     35 H          -2.6342    5.4085    0.2509 H       1  UNL1        0.0618
     36 H          -0.5010    4.3963    0.7085 H       1  UNL1        0.0625
     37 H          -3.3598   -3.6336   -0.6505 H       1  UNL1        0.0625
     38 H          -1.7742   -5.4338   -0.3980 H       1  UNL1        0.0618
     39 H           0.5051   -4.8847    0.2134 H       1  UNL1        0.0618
     40 H           1.1388   -2.5981    0.5559 H       1  UNL1        0.0624
@<TRIPOS>UNITY_ATOM_ATTR
1 1
charge -1
2 1
charge 1
@<TRIPOS>BOND
     1     1     2    2
     2     2     3    2
     3     3     4    1
     4     4     5    1
     5     5     6    1
     6     5     7    1
     7     7     8    1
     8     8     9   ar
     9     8    17   ar
    10     9    10   ar
    11     9    26    1
    12    10    11   ar
    13    10    19    1
    14    11    12   ar
    15    11    16   ar
    16    12    13   ar
    17    13    14   ar
    18    14    15   ar
    19    15    16   ar
    20    16    17   ar
    21    17    18    2
    22    19    20    2
    23    19    21    1
    24    21    22   ar
    25    21    26   ar
    26    22    23   ar
    27    23    24   ar
    28    24    25   ar
    29    25    26   ar
    30     4    27    1
    31     4    28    1
    32     5    29    1
    33     6    30    1
    34     7    31    1
    35     7    32    1
    36    12    33    1
    37    13    34    1
    38    14    35    1
    39    15    36    1
    40    22    37    1
    41    23    38    1
    42    24    39    1
    43    25    40    1
@<TRIPOS>MOLECULE
../data/bude_mols_rdkit_confs/molecule_72.pdb
 40 43 0 0 0
SMALL
GASTEIGER

@<TRIPOS>ATOM
      1  N1         4.5940    1.2360    2.2730 N.2     1  UNL1       -0.3282
      2  N2         4.6640    0.8990    1.0910 N.2     1  UNL1       -0.0146
      3  N3         4.6400    1.0270   -0.1430 N.2     1  UNL1        0.0789
      4  C1         4.0030   -0.0280   -0.9040 C.3     1  UNL1        0.1461
      5  C2         2.5200    0.1970   -1.0470 C.3     1  UNL1        0.0991
      6  O1         1.9820   -0.8410   -1.7800 O.3     1  UNL1       -0.3880
      7  C3         1.8600    0.4090    0.3100 C.3     1  UNL1        0.0547
      8  N4         0.4390    0.6170    0.2160 N.ar    1  UNL1       -0.3044
      9  C4        -0.5050   -0.3140    0.2600 C.ar    1  UNL1        0.0642
     10  C5        -1.8610   -0.0040    0.1690 C.ar    1  UNL1        0.0543
     11  C6        -2.2640    1.3030    0.0280 C.ar    1  UNL1        0.0001
     12  C7        -3.5980    1.6720   -0.0670 C.ar    1  UNL1       -0.0531
     13  C8        -3.9950    2.9840   -0.2080 C.ar    1  UNL1       -0.0611
     14  C9        -3.0080    3.9480   -0.2540 C.ar    1  UNL1       -0.0610
     15  C10       -1.6840    3.5960   -0.1600 C.ar    1  UNL1       -0.0488
     16  C11       -1.2910    2.2860   -0.0190 C.ar    1  UNL1        0.0474
     17  C12        0.0270    1.9110    0.0760 C.ar    1  UNL1        0.2596
     18  O2         0.8730    2.8660    0.0250 O.2     1  UNL1       -0.2670
     19  C13       -2.6640   -1.2030    0.2470 C.2     1  UNL1        0.1963
     20  O3        -3.9030   -1.3300    0.2040 O.2     1  UNL1       -0.2865
     21  C14       -1.7130   -2.3200    0.3960 C.ar    1  UNL1        0.0315
     22  C15       -1.9180   -3.6730    0.5140 C.ar    1  UNL1       -0.0503
     23  C16       -0.8550   -4.5280    0.6420 C.ar    1  UNL1       -0.0610
     24  C17        0.3970   -3.9720    0.6440 C.ar    1  UNL1       -0.0611
     25  C18        0.6550   -2.6120    0.5270 C.ar    1  UNL1       -0.0519
     26  C19       -0.4250   -1.7680    0.4010 C.ar    1  UNL1        0.0101
     27 H           4.1645   -0.9604   -0.4045 H       1  UNL1        0.0605
     28 H           4.4327   -0.0349   -1.8839 H       1  UNL1        0.0605
     29 H           2.3288    1.1014   -1.5858 H       1  UNL1        0.0632
     30 H           2.1388   -1.6789   -1.3172 H       1  UNL1        0.2099
     31 H           2.3006    1.2669    0.7735 H       1  UNL1        0.0519
     32 H           2.0168   -0.4794    0.8853 H       1  UNL1        0.0519
     33 H          -4.3204    0.9359   -0.0307 H       1  UNL1        0.0624
     34 H          -4.9933    3.2366   -0.2767 H       1  UNL1        0.0618
     35 H          -3.2672    4.9413   -0.3599 H       1  UNL1        0.0618
     36 H          -0.9644    4.3348   -0.1962 H       1  UNL1        0.0625
     37 H          -2.8793   -4.0482    0.5062 H       1  UNL1        0.0625
     38 H          -0.9916   -5.5469    0.7330 H       1  UNL1        0.0618
     39 H           1.2045   -4.6075    0.7390 H       1  UNL1        0.0618
     40 H           1.6206   -2.2480    0.5343 H       1  UNL1        0.0624
@<TRIPOS>UNITY_ATOM_ATTR
1 1
charge -1
2 1
charge 1
@<TRIPOS>BOND
     1     1     2    2
     2     2     3    2
     3     3     4    1
     4     4     5    1
     5     5     6    1
     6     5     7    1
     7     7     8    1
     8     8     9   ar
     9     8    17   ar
    10     9    10   ar
    11     9    26    1
    12    10    11   ar
    13    10    19    1
    14    11    12   ar
    15    11    16   ar
    16    12    13   ar
    17    13    14   ar
    18    14    15   ar
    19    15    16   ar
    20    16    17   ar
    21    17    18    2
    22    19    20    2
    23    19    21    1
    24    21    22   ar
    25    21    26   ar
    26    22    23   ar
    27    23    24   ar
    28    24    25   ar
    29    25    26   ar
    30     4    27    1
    31     4    28    1
    32     5    29    1
    33     6    30    1
    34     7    31    1
    35     7    32    1
    36    12    33    1
    37    13    34    1
    38    14    35    1
    39    15    36    1
    40    22    37    1
    41    23    38    1
    42    24    39    1
    43    25    40    1
@<TRIPOS>MOLECULE
../data/bude_mols_rdkit_confs/molecule_72.pdb
 40 43 0 0 0
SMALL
GASTEIGER

@<TRIPOS>ATOM
      1  N1         5.1050   -0.3980    1.7880 N.2     1  UNL1       -0.3282
      2  N2         4.4750   -1.3640    1.3100 N.2     1  UNL1       -0.0146
      3  N3         3.6500   -2.2820    1.1450 N.2     1  UNL1        0.0789
      4  C1         2.4870   -2.1350    0.2900 C.3     1  UNL1        0.1461
      5  C2         2.5960   -0.7880   -0.3860 C.3     1  UNL1        0.0991
      6  O1         3.7870   -0.8040   -1.1230 O.3     1  UNL1       -0.3880
      7  C3         1.4800   -0.5290   -1.3520 C.3     1  UNL1        0.0547
      8  N4         0.1690   -0.5370   -0.8070 N.ar    1  UNL1       -0.3044
      9  C4        -0.4070    0.5440   -0.2690 C.ar    1  UNL1        0.0642
     10  C5        -1.7260    0.4930    0.2150 C.ar    1  UNL1        0.0543
     11  C6        -2.4490   -0.6850    0.1400 C.ar    1  UNL1        0.0001
     12  C7        -3.7600   -0.7800    0.6080 C.ar    1  UNL1       -0.0531
     13  C8        -4.4850   -1.9590    0.5340 C.ar    1  UNL1       -0.0611
     14  C9        -3.8580   -3.0520   -0.0260 C.ar    1  UNL1       -0.0610
     15  C10       -2.5560   -2.9780   -0.4960 C.ar    1  UNL1       -0.0488
     16  C11       -1.8440   -1.7910   -0.4150 C.ar    1  UNL1        0.0474
     17  C12       -0.5500   -1.7020   -0.8780 C.ar    1  UNL1        0.2596
     18  O2        -0.0500   -2.7450   -1.3750 O.2     1  UNL1       -0.2670
     19  C13       -2.0920    1.7900    0.7480 C.2     1  UNL1        0.1963
     20  O3        -3.1950    2.1000    1.2580 O.2     1  UNL1       -0.2865
     21  C14       -0.9220    2.6370    0.5650 C.ar    1  UNL1        0.0315
     22  C15       -0.7170    3.9380    0.8920 C.ar    1  UNL1       -0.0503
     23  C16        0.4890    4.5480    0.6330 C.ar    1  UNL1       -0.0610
     24  C17        1.5080    3.8180    0.0290 C.ar    1  UNL1       -0.0611
     25  C18        1.3170    2.4910   -0.3130 C.ar    1  UNL1       -0.0519
     26  C19        0.1050    1.9130   -0.0430 C.ar    1  UNL1        0.0101
     27 H           1.5931   -2.1795    0.8764 H       1  UNL1        0.0605
     28 H           2.4468   -2.9212   -0.4347 H       1  UNL1        0.0605
     29 H           2.5612   -0.0284    0.3668 H       1  UNL1        0.0632
     30 H           3.7491   -1.5135   -1.7834 H       1  UNL1        0.2099
     31 H           1.5232   -1.2817   -2.1112 H       1  UNL1        0.0519
     32 H           1.6361    0.4665   -1.7120 H       1  UNL1        0.0519
     33 H          -4.2041    0.0543    1.0225 H       1  UNL1        0.0624
     34 H          -5.4543   -2.0165    0.8837 H       1  UNL1        0.0618
     35 H          -4.3697   -3.9454   -0.0968 H       1  UNL1        0.0618
     36 H          -2.1130   -3.8133   -0.9096 H       1  UNL1        0.0625
     37 H          -1.4747    4.4764    1.3403 H       1  UNL1        0.0625
     38 H           0.6363    5.5380    0.8845 H       1  UNL1        0.0618
     39 H           2.4148    4.2706   -0.1657 H       1  UNL1        0.0618
     40 H           2.0715    1.9485   -0.7618 H       1  UNL1        0.0624
@<TRIPOS>UNITY_ATOM_ATTR
1 1
charge -1
2 1
charge 1
@<TRIPOS>BOND
     1     1     2    2
     2     2     3    2
     3     3     4    1
     4     4     5    1
     5     5     6    1
     6     5     7    1
     7     7     8    1
     8     8     9   ar
     9     8    17   ar
    10     9    10   ar
    11     9    26    1
    12    10    11   ar
    13    10    19    1
    14    11    12   ar
    15    11    16   ar
    16    12    13   ar
    17    13    14   ar
    18    14    15   ar
    19    15    16   ar
    20    16    17   ar
    21    17    18    2
    22    19    20    2
    23    19    21    1
    24    21    22   ar
    25    21    26   ar
    26    22    23   ar
    27    23    24   ar
    28    24    25   ar
    29    25    26   ar
    30     4    27    1
    31     4    28    1
    32     5    29    1
    33     6    30    1
    34     7    31    1
    35     7    32    1
    36    12    33    1
    37    13    34    1
    38    14    35    1
    39    15    36    1
    40    22    37    1
    41    23    38    1
    42    24    39    1
    43    25    40    1
@<TRIPOS>MOLECULE
../data/bude_mols_rdkit_confs/molecule_72.pdb
 40 43 0 0 0
SMALL
GASTEIGER

@<TRIPOS>ATOM
      1  N1         6.1510    2.2560    0.9190 N.2     1  UNL1       -0.3282
      2  N2         5.0770    1.8790    0.4400 N.2     1  UNL1       -0.0146
      3  N3         4.1060    1.3500   -0.0750 N.2     1  UNL1        0.0789
      4  C1         3.9620   -0.0950   -0.0990 C.3     1  UNL1        0.1461
      5  C2         2.5100   -0.4610    0.1390 C.3     1  UNL1        0.0991
      6  O1         2.0350   -0.0120    1.3510 O.3     1  UNL1       -0.3880
      7  C3         1.6500   -0.1940   -1.0460 C.3     1  UNL1        0.0547
      8  N4         0.2910   -0.5590   -0.7380 N.ar    1  UNL1       -0.3044
      9  C4        -0.6400    0.2400   -0.2030 C.ar    1  UNL1        0.0642
     10  C5        -1.9420   -0.2070    0.0340 C.ar    1  UNL1        0.0543
     11  C6        -2.2690   -1.5140   -0.2950 C.ar    1  UNL1        0.0001
     12  C7        -3.5630   -1.9600   -0.0590 C.ar    1  UNL1       -0.0531
     13  C8        -3.8450   -3.2690   -0.4020 C.ar    1  UNL1       -0.0611
     14  C9        -2.9010   -4.1020   -0.9500 C.ar    1  UNL1       -0.0610
     15  C10       -1.6200   -3.6380   -1.1760 C.ar    1  UNL1       -0.0488
     16  C11       -1.3160   -2.3210   -0.8370 C.ar    1  UNL1        0.0474
     17  C12       -0.0530   -1.8200   -1.0460 C.ar    1  UNL1        0.2596
     18  O2         0.8150   -2.6250   -1.5630 O.2     1  UNL1       -0.2670
     19  C13       -2.7380    0.8610    0.6180 C.2     1  UNL1        0.1963
     20  O3        -3.9480    0.8420    0.9670 O.2     1  UNL1       -0.2865
     21  C14       -1.8140    1.9940    0.7180 C.ar    1  UNL1        0.0315
     22  C15       -2.0230    3.2610    1.1990 C.ar    1  UNL1       -0.0503
     23  C16       -1.0000    4.1860    1.2080 C.ar    1  UNL1       -0.0610
     24  C17        0.2370    3.8160    0.7250 C.ar    1  UNL1       -0.0611
     25  C18        0.4810    2.5320    0.2270 C.ar    1  UNL1       -0.0519
     26  C19       -0.5580    1.6380    0.2320 C.ar    1  UNL1        0.0101
     27 H           4.5694   -0.5270    0.6687 H       1  UNL1        0.0605
     28 H           4.2731   -0.4692   -1.0520 H       1  UNL1        0.0605
     29 H           2.4603   -1.5248    0.2430 H       1  UNL1        0.0632
     30 H           2.0390    0.9579    1.3606 H       1  UNL1        0.2099
     31 H           1.9962   -0.7725   -1.8769 H       1  UNL1        0.0519
     32 H           1.6949    0.8456   -1.2954 H       1  UNL1        0.0519
     33 H          -4.2803   -1.3430    0.3531 H       1  UNL1        0.0624
     34 H          -4.7973   -3.6325   -0.2407 H       1  UNL1        0.0618
     35 H          -3.1485   -5.0740   -1.1928 H       1  UNL1        0.0618
     36 H          -0.9021   -4.2545   -1.5878 H       1  UNL1        0.0625
     37 H          -2.9541    3.5248    1.5575 H       1  UNL1        0.0625
     38 H          -1.1580    5.1393    1.5703 H       1  UNL1        0.0618
     39 H           1.0046    4.5058    0.7310 H       1  UNL1        0.0618
     40 H           1.4115    2.2668   -0.1319 H       1  UNL1        0.0624
@<TRIPOS>UNITY_ATOM_ATTR
1 1
charge -1
2 1
charge 1
@<TRIPOS>BOND
     1     1     2    2
     2     2     3    2
     3     3     4    1
     4     4     5    1
     5     5     6    1
     6     5     7    1
     7     7     8    1
     8     8     9   ar
     9     8    17   ar
    10     9    10   ar
    11     9    26    1
    12    10    11   ar
    13    10    19    1
    14    11    12   ar
    15    11    16   ar
    16    12    13   ar
    17    13    14   ar
    18    14    15   ar
    19    15    16   ar
    20    16    17   ar
    21    17    18    2
    22    19    20    2
    23    19    21    1
    24    21    22   ar
    25    21    26   ar
    26    22    23   ar
    27    23    24   ar
    28    24    25   ar
    29    25    26   ar
    30     4    27    1
    31     4    28    1
    32     5    29    1
    33     6    30    1
    34     7    31    1
    35     7    32    1
    36    12    33    1
    37    13    34    1
    38    14    35    1
    39    15    36    1
    40    22    37    1
    41    23    38    1
    42    24    39    1
    43    25    40    1
@<TRIPOS>MOLECULE
../data/bude_mols_rdkit_confs/molecule_72.pdb
 40 43 0 0 0
SMALL
GASTEIGER

@<TRIPOS>ATOM
      1  N1         6.6480   -0.5780   -0.1720 N.2     1  UNL1       -0.3282
      2  N2         5.4330   -0.7390   -0.3030 N.2     1  UNL1       -0.0146
      3  N3         4.2210   -0.7140   -0.1050 N.2     1  UNL1        0.0789
      4  C1         3.5520   -1.8500    0.4470 C.3     1  UNL1        0.1461
      5  C2         2.1070   -1.5080    0.7360 C.3     1  UNL1        0.0991
      6  O1         2.0960   -0.4640    1.6420 O.3     1  UNL1       -0.3880
      7  C3         1.3360   -1.2170   -0.5240 C.3     1  UNL1        0.0547
      8  N4        -0.0240   -0.8770   -0.3480 N.ar    1  UNL1       -0.3044
      9  C4        -0.4590    0.3730   -0.1940 C.ar    1  UNL1        0.0642
     10  C5        -1.8220    0.6440   -0.0270 C.ar    1  UNL1        0.0543
     11  C6        -2.7340   -0.3790   -0.0190 C.ar    1  UNL1        0.0001
     12  C7        -4.1010   -0.1890    0.1410 C.ar    1  UNL1       -0.0531
     13  C8        -4.9750   -1.2430    0.1430 C.ar    1  UNL1       -0.0611
     14  C9        -4.5310   -2.5320   -0.0150 C.ar    1  UNL1       -0.0610
     15  C10       -3.1840   -2.7240   -0.1740 C.ar    1  UNL1       -0.0488
     16  C11       -2.2960   -1.6570   -0.1750 C.ar    1  UNL1        0.0474
     17  C12       -0.9430   -1.8710   -0.3360 C.ar    1  UNL1        0.2596
     18  O2        -0.5950   -3.0850   -0.4780 O.2     1  UNL1       -0.2670
     19  C13       -2.0650    2.0600    0.1180 C.2     1  UNL1        0.1963
     20  O3        -3.1560    2.6840    0.2850 O.2     1  UNL1       -0.2865
     21  C14       -0.7570    2.6920    0.0330 C.ar    1  UNL1        0.0315
     22  C15       -0.4060    4.0270    0.1090 C.ar    1  UNL1       -0.0503
     23  C16        0.9230    4.3600   -0.0010 C.ar    1  UNL1       -0.0610
     24  C17        1.8640    3.3750   -0.1830 C.ar    1  UNL1       -0.0611
     25  C18        1.5210    2.0200   -0.2610 C.ar    1  UNL1       -0.0519
     26  C19        0.1950    1.6820   -0.1520 C.ar    1  UNL1        0.0101
     27 H           4.0364   -2.1397    1.3560 H       1  UNL1        0.0605
     28 H           3.5889   -2.6559   -0.2559 H       1  UNL1        0.0605
     29 H           1.6020   -2.3464    1.1683 H       1  UNL1        0.0632
     30 H           2.5520    0.3015    1.2587 H       1  UNL1        0.2099
     31 H           1.3791   -2.0881   -1.1438 H       1  UNL1        0.0519
     32 H           1.7981   -0.3533   -0.9545 H       1  UNL1        0.0519
     33 H          -4.4661    0.7688    0.2611 H       1  UNL1        0.0624
     34 H          -5.9842   -1.0652    0.2653 H       1  UNL1        0.0618
     35 H          -5.1881   -3.3278   -0.0141 H       1  UNL1        0.0618
     36 H          -2.8216   -3.6826   -0.2957 H       1  UNL1        0.0625
     37 H          -1.1241    4.7556    0.2450 H       1  UNL1        0.0625
     38 H           1.2140    5.3487    0.0530 H       1  UNL1        0.0618
     39 H           2.8571    3.6433   -0.2649 H       1  UNL1        0.0618
     40 H           2.2440    1.2962   -0.3965 H       1  UNL1        0.0624
@<TRIPOS>UNITY_ATOM_ATTR
1 1
charge -1
2 1
charge 1
@<TRIPOS>BOND
     1     1     2    2
     2     2     3    2
     3     3     4    1
     4     4     5    1
     5     5     6    1
     6     5     7    1
     7     7     8    1
     8     8     9   ar
     9     8    17   ar
    10     9    10   ar
    11     9    26    1
    12    10    11   ar
    13    10    19    1
    14    11    12   ar
    15    11    16   ar
    16    12    13   ar
    17    13    14   ar
    18    14    15   ar
    19    15    16   ar
    20    16    17   ar
    21    17    18    2
    22    19    20    2
    23    19    21    1
    24    21    22   ar
    25    21    26   ar
    26    22    23   ar
    27    23    24   ar
    28    24    25   ar
    29    25    26   ar
    30     4    27    1
    31     4    28    1
    32     5    29    1
    33     6    30    1
    34     7    31    1
    35     7    32    1
    36    12    33    1
    37    13    34    1
    38    14    35    1
    39    15    36    1
    40    22    37    1
    41    23    38    1
    42    24    39    1
    43    25    40    1
@<TRIPOS>MOLECULE
../data/bude_mols_rdkit_confs/molecule_72.pdb
 40 43 0 0 0
SMALL
GASTEIGER

@<TRIPOS>ATOM
      1  N1         6.5190    0.5960   -1.3610 N.2     1  UNL1       -0.3282
      2  N2         5.4330    1.1680   -1.2680 N.2     1  UNL1       -0.0146
      3  N3         4.4940    1.9560   -1.1200 N.2     1  UNL1        0.0789
      4  C1         3.5410    1.7960   -0.0460 C.3     1  UNL1        0.1461
      5  C2         2.4540    0.7850   -0.4500 C.3     1  UNL1        0.0991
      6  O1         3.1870   -0.4010   -0.6960 O.3     1  UNL1       -0.3880
      7  C3         1.5440    0.6590    0.7080 C.3     1  UNL1        0.0547
      8  N4         0.4330   -0.2410    0.5710 N.ar    1  UNL1       -0.3044
      9  C4        -0.7290    0.1490    0.0190 C.ar    1  UNL1        0.0642
     10  C5        -1.8190   -0.7210   -0.0530 C.ar    1  UNL1        0.0543
     11  C6        -1.7270   -2.0120    0.4420 C.ar    1  UNL1        0.0001
     12  C7        -2.8000   -2.8790    0.3740 C.ar    1  UNL1       -0.0531
     13  C8        -2.6450   -4.1700    0.8910 C.ar    1  UNL1       -0.0611
     14  C9        -1.4570   -4.5640    1.4510 C.ar    1  UNL1       -0.0610
     15  C10       -0.3980   -3.6840    1.5100 C.ar    1  UNL1       -0.0488
     16  C11       -0.5200   -2.4010    1.0070 C.ar    1  UNL1        0.0474
     17  C12        0.5160   -1.5090    1.0540 C.ar    1  UNL1        0.2596
     18  O2         1.6270   -1.8430    1.5650 O.2     1  UNL1       -0.2670
     19  C13       -2.9490   -0.0900   -0.6900 C.2     1  UNL1        0.1963
     20  O3        -4.0920   -0.5510   -0.9290 O.2     1  UNL1       -0.2865
     21  C14       -2.5240    1.2430   -1.0280 C.ar    1  UNL1        0.0315
     22  C15       -3.2270    2.2530   -1.6610 C.ar    1  UNL1       -0.0503
     23  C16       -2.6070    3.4650   -1.8960 C.ar    1  UNL1       -0.0610
     24  C17       -1.3050    3.6230   -1.4900 C.ar    1  UNL1       -0.0611
     25  C18       -0.6010    2.5930   -0.8490 C.ar    1  UNL1       -0.0519
     26  C19       -1.2060    1.3970   -0.6130 C.ar    1  UNL1        0.0101
     27 H           3.0848    2.7404    0.1659 H       1  UNL1        0.0605
     28 H           4.0500    1.4344    0.8229 H       1  UNL1        0.0605
     29 H           1.8600    1.0444   -1.3013 H       1  UNL1        0.0632
     30 H           3.7187   -0.6204    0.0851 H       1  UNL1        0.2099
     31 H           1.1479    1.6313    0.9142 H       1  UNL1        0.0519
     32 H           2.1448    0.2410    1.4886 H       1  UNL1        0.0519
     33 H          -3.6939   -2.5820   -0.0477 H       1  UNL1        0.0624
     34 H          -3.4343   -4.8336    0.8503 H       1  UNL1        0.0618
     35 H          -1.3559   -5.5193    1.8282 H       1  UNL1        0.0618
     36 H           0.4939   -3.9848    1.9331 H       1  UNL1        0.0625
     37 H          -4.2048    2.1023   -1.9546 H       1  UNL1        0.0625
     38 H          -3.1107    4.2336   -2.3657 H       1  UNL1        0.0618
     39 H          -0.8315    4.5239   -1.6611 H       1  UNL1        0.0618
     40 H           0.3772    2.7423   -0.5559 H       1  UNL1        0.0624
@<TRIPOS>UNITY_ATOM_ATTR
1 1
charge -1
2 1
charge 1
@<TRIPOS>BOND
     1     1     2    2
     2     2     3    2
     3     3     4    1
     4     4     5    1
     5     5     6    1
     6     5     7    1
     7     7     8    1
     8     8     9   ar
     9     8    17   ar
    10     9    10   ar
    11     9    26    1
    12    10    11   ar
    13    10    19    1
    14    11    12   ar
    15    11    16   ar
    16    12    13   ar
    17    13    14   ar
    18    14    15   ar
    19    15    16   ar
    20    16    17   ar
    21    17    18    2
    22    19    20    2
    23    19    21    1
    24    21    22   ar
    25    21    26   ar
    26    22    23   ar
    27    23    24   ar
    28    24    25   ar
    29    25    26   ar
    30     4    27    1
    31     4    28    1
    32     5    29    1
    33     6    30    1
    34     7    31    1
    35     7    32    1
    36    12    33    1
    37    13    34    1
    38    14    35    1
    39    15    36    1
    40    22    37    1
    41    23    38    1
    42    24    39    1
    43    25    40    1
@<TRIPOS>MOLECULE
../data/bude_mols_rdkit_confs/molecule_72.pdb
 40 43 0 0 0
SMALL
GASTEIGER

@<TRIPOS>ATOM
      1  N1         6.6700   -0.0230    0.2410 N.2     1  UNL1       -0.3282
      2  N2         5.5460   -0.0210   -0.2790 N.2     1  UNL1       -0.0146
      3  N3         4.3150   -0.0670   -0.3670 N.2     1  UNL1        0.0789
      4  C1         3.6670   -1.3360   -0.5140 C.3     1  UNL1        0.1461
      5  C2         2.1720   -1.1910   -0.5400 C.3     1  UNL1        0.0991
      6  O1         1.6450   -2.4940   -0.6870 O.3     1  UNL1       -0.3880
      7  C3         1.6140   -0.6420    0.7420 C.3     1  UNL1        0.0547
      8  N4         0.1920   -0.5420    0.6180 N.ar    1  UNL1       -0.3044
      9  C4        -0.4980    0.4930    0.1140 C.ar    1  UNL1        0.0642
     10  C5        -1.8930    0.5150    0.0780 C.ar    1  UNL1        0.0543
     11  C6        -2.5990   -0.5740    0.5810 C.ar    1  UNL1        0.0001
     12  C7        -3.9740   -0.5710    0.5550 C.ar    1  UNL1       -0.0531
     13  C8        -4.6810   -1.6720    1.0630 C.ar    1  UNL1       -0.0611
     14  C9        -3.9840   -2.7280    1.5760 C.ar    1  UNL1       -0.0610
     15  C10       -2.6040   -2.7200    1.5970 C.ar    1  UNL1       -0.0488
     16  C11       -1.8980   -1.6400    1.0990 C.ar    1  UNL1        0.0474
     17  C12       -0.5450   -1.5870    1.0990 C.ar    1  UNL1        0.2596
     18  O2         0.0590   -2.5980    1.5890 O.2     1  UNL1       -0.2670
     19  C13       -2.3440    1.7570   -0.5290 C.2     1  UNL1        0.1963
     20  O3        -3.5290    2.1170   -0.7220 O.2     1  UNL1       -0.2865
     21  C14       -1.1290    2.4830   -0.8590 C.ar    1  UNL1        0.0315
     22  C15       -0.9890    3.7130   -1.4590 C.ar    1  UNL1       -0.0503
     23  C16        0.2600    4.2270   -1.6960 C.ar    1  UNL1       -0.0610
     24  C17        1.3570    3.4880   -1.3220 C.ar    1  UNL1       -0.0611
     25  C18        1.2630    2.2410   -0.7130 C.ar    1  UNL1       -0.0519
     26  C19        0.0030    1.7420   -0.4830 C.ar    1  UNL1        0.0101
     27 H           3.9412   -1.9637    0.3080 H       1  UNL1        0.0605
     28 H           3.9787   -1.7666   -1.4426 H       1  UNL1        0.0605
     29 H           1.9135   -0.5178   -1.3305 H       1  UNL1        0.0632
     30 H           1.9218   -3.0414    0.0644 H       1  UNL1        0.2099
     31 H           2.0281    0.3267    0.9292 H       1  UNL1        0.0519
     32 H           1.8642   -1.2903    1.5556 H       1  UNL1        0.0519
     33 H          -4.4835    0.2368    0.1639 H       1  UNL1        0.0624
     34 H          -5.7128   -1.6832    1.0489 H       1  UNL1        0.0618
     35 H          -4.4950   -3.5417    1.9525 H       1  UNL1        0.0618
     36 H          -2.0941   -3.5275    1.9880 H       1  UNL1        0.0625
     37 H          -1.8267    4.2506   -1.7316 H       1  UNL1        0.0625
     38 H           0.3739    5.1489   -2.1455 H       1  UNL1        0.0618
     39 H           2.2957    3.8772   -1.5017 H       1  UNL1        0.0618
     40 H           2.1067    1.7109   -0.4442 H       1  UNL1        0.0624
@<TRIPOS>UNITY_ATOM_ATTR
1 1
charge -1
2 1
charge 1
@<TRIPOS>BOND
     1     1     2    2
     2     2     3    2
     3     3     4    1
     4     4     5    1
     5     5     6    1
     6     5     7    1
     7     7     8    1
     8     8     9   ar
     9     8    17   ar
    10     9    10   ar
    11     9    26    1
    12    10    11   ar
    13    10    19    1
    14    11    12   ar
    15    11    16   ar
    16    12    13   ar
    17    13    14   ar
    18    14    15   ar
    19    15    16   ar
    20    16    17   ar
    21    17    18    2
    22    19    20    2
    23    19    21    1
    24    21    22   ar
    25    21    26   ar
    26    22    23   ar
    27    23    24   ar
    28    24    25   ar
    29    25    26   ar
    30     4    27    1
    31     4    28    1
    32     5    29    1
    33     6    30    1
    34     7    31    1
    35     7    32    1
    36    12    33    1
    37    13    34    1
    38    14    35    1
    39    15    36    1
    40    22    37    1
    41    23    38    1
    42    24    39    1
    43    25    40    1
@<TRIPOS>MOLECULE
../data/bude_mols_rdkit_confs/molecule_72.pdb
 40 43 0 0 0
SMALL
GASTEIGER

@<TRIPOS>ATOM
      1  N1        -4.5400   -2.6530    0.8950 N.2     1  UNL1       -0.3282
      2  N2        -4.6190   -1.5120    0.4210 N.2     1  UNL1       -0.0146
      3  N3        -4.6340   -0.2700    0.5700 N.2     1  UNL1        0.0789
      4  C1        -4.0710    0.5050   -0.4980 C.3     1  UNL1        0.1461
      5  C2        -2.6670   -0.0230   -0.8470 C.3     1  UNL1        0.0991
      6  O1        -2.1640    0.7420   -1.8700 O.3     1  UNL1       -0.3880
      7  C3        -1.8780    0.0380    0.3980 C.3     1  UNL1        0.0547
      8  N4        -0.5210   -0.3760    0.3840 N.ar    1  UNL1       -0.3044
      9  C4         0.5600    0.3970    0.1430 C.ar    1  UNL1        0.0642
     10  C5         1.8610   -0.1250    0.1610 C.ar    1  UNL1        0.0543
     11  C6         2.0680   -1.4740    0.4320 C.ar    1  UNL1        0.0001
     12  C7         3.3480   -2.0100    0.4550 C.ar    1  UNL1       -0.0531
     13  C8         3.5090   -3.3380    0.7250 C.ar    1  UNL1       -0.0611
     14  C9         2.4170   -4.1430    0.9730 C.ar    1  UNL1       -0.0610
     15  C10        1.1500   -3.6000    0.9480 C.ar    1  UNL1       -0.0488
     16  C11        0.9860   -2.2530    0.6740 C.ar    1  UNL1        0.0474
     17  C12       -0.2570   -1.6950    0.6440 C.ar    1  UNL1        0.2596
     18  O2        -1.2270   -2.4700    0.8770 O.2     1  UNL1       -0.2670
     19  C13        2.7880    0.9330   -0.1270 C.2     1  UNL1        0.1963
     20  O3         4.0410    0.8340   -0.1940 O.2     1  UNL1       -0.2865
     21  C14        1.9850    2.1320   -0.3230 C.ar    1  UNL1        0.0315
     22  C15        2.3930    3.4200   -0.6240 C.ar    1  UNL1       -0.0503
     23  C16        1.4640    4.4200   -0.7710 C.ar    1  UNL1       -0.0610
     24  C17        0.1250    4.1260   -0.6160 C.ar    1  UNL1       -0.0611
     25  C18       -0.3100    2.8340   -0.3130 C.ar    1  UNL1       -0.0519
     26  C19        0.6290    1.8450   -0.1680 C.ar    1  UNL1        0.0101
     27 H          -3.9995    1.5284   -0.1939 H       1  UNL1        0.0605
     28 H          -4.7006    0.4262   -1.3596 H       1  UNL1        0.0605
     29 H          -2.6558   -1.0342   -1.1965 H       1  UNL1        0.0632
     30 H          -2.1530    1.6740   -1.6015 H       1  UNL1        0.2099
     31 H          -2.3827   -0.5728    1.1170 H       1  UNL1        0.0519
     32 H          -1.8199    1.0854    0.6087 H       1  UNL1        0.0519
     33 H           4.1682   -1.4115    0.2701 H       1  UNL1        0.0624
     34 H           4.4576   -3.7440    0.7438 H       1  UNL1        0.0618
     35 H           2.5475   -5.1463    1.1762 H       1  UNL1        0.0618
     36 H           0.3274   -4.1952    1.1328 H       1  UNL1        0.0625
     37 H           3.3972    3.6289   -0.7381 H       1  UNL1        0.0625
     38 H           1.7641    5.3816   -0.9951 H       1  UNL1        0.0618
     39 H          -0.5720    4.8790   -0.7266 H       1  UNL1        0.0618
     40 H          -1.3150    2.6282   -0.2008 H       1  UNL1        0.0624
@<TRIPOS>UNITY_ATOM_ATTR
1 1
charge -1
2 1
charge 1
@<TRIPOS>BOND
     1     1     2    2
     2     2     3    2
     3     3     4    1
     4     4     5    1
     5     5     6    1
     6     5     7    1
     7     7     8    1
     8     8     9   ar
     9     8    17   ar
    10     9    10   ar
    11     9    26    1
    12    10    11   ar
    13    10    19    1
    14    11    12   ar
    15    11    16   ar
    16    12    13   ar
    17    13    14   ar
    18    14    15   ar
    19    15    16   ar
    20    16    17   ar
    21    17    18    2
    22    19    20    2
    23    19    21    1
    24    21    22   ar
    25    21    26   ar
    26    22    23   ar
    27    23    24   ar
    28    24    25   ar
    29    25    26   ar
    30     4    27    1
    31     4    28    1
    32     5    29    1
    33     6    30    1
    34     7    31    1
    35     7    32    1
    36    12    33    1
    37    13    34    1
    38    14    35    1
    39    15    36    1
    40    22    37    1
    41    23    38    1
    42    24    39    1
    43    25    40    1
@<TRIPOS>MOLECULE
../data/bude_mols_rdkit_confs/molecule_72.pdb
 40 43 0 0 0
SMALL
GASTEIGER

@<TRIPOS>ATOM
      1  N1         6.6630   -0.1920    1.0740 N.2     1  UNL1       -0.3282
      2  N2         5.6860   -0.1600    0.3410 N.2     1  UNL1       -0.0146
      3  N3         4.5430   -0.2940   -0.0880 N.2     1  UNL1        0.0789
      4  C1         3.8060    0.7970   -0.6550 C.3     1  UNL1        0.1461
      5  C2         2.4070    0.3060   -0.9750 C.3     1  UNL1        0.0991
      6  O1         2.4810   -0.7460   -1.8840 O.3     1  UNL1       -0.3880
      7  C3         1.7520   -0.0640    0.3110 C.3     1  UNL1        0.0547
      8  N4         0.4100   -0.5560    0.2200 N.ar    1  UNL1       -0.3044
      9  C4        -0.6680    0.2370    0.2270 C.ar    1  UNL1        0.0642
     10  C5        -1.9760   -0.2700    0.1760 C.ar    1  UNL1        0.0543
     11  C6        -2.1760   -1.6390    0.1150 C.ar    1  UNL1        0.0001
     12  C7        -3.4700   -2.1290    0.0650 C.ar    1  UNL1       -0.0531
     13  C8        -3.6270   -3.5190    0.0030 C.ar    1  UNL1       -0.0611
     14  C9        -2.5240   -4.3370   -0.0060 C.ar    1  UNL1       -0.0610
     15  C10       -1.2490   -3.8140    0.0450 C.ar    1  UNL1       -0.0488
     16  C11       -1.0690   -2.4460    0.1060 C.ar    1  UNL1        0.0474
     17  C12        0.1930   -1.9080    0.1570 C.ar    1  UNL1        0.2596
     18  O2         1.2140   -2.6560    0.1490 O.2     1  UNL1       -0.2670
     19  C13       -2.9410    0.8200    0.1900 C.2     1  UNL1        0.1963
     20  O3        -4.1900    0.7580    0.1580 O.2     1  UNL1       -0.2865
     21  C14       -2.1480    2.0390    0.2510 C.ar    1  UNL1        0.0315
     22  C15       -2.5040    3.3670    0.2800 C.ar    1  UNL1       -0.0503
     23  C16       -1.5600    4.3610    0.3280 C.ar    1  UNL1       -0.0610
     24  C17       -0.2290    4.0170    0.3480 C.ar    1  UNL1       -0.0611
     25  C18        0.1750    2.6770    0.3200 C.ar    1  UNL1       -0.0519
     26  C19       -0.7900    1.7150    0.2730 C.ar    1  UNL1        0.0101
     27 H           4.2862    1.1323   -1.5505 H       1  UNL1        0.0605
     28 H           3.7631    1.6134    0.0354 H       1  UNL1        0.0605
     29 H           1.8116    1.0618   -1.4431 H       1  UNL1        0.0632
     30 H           3.0139   -1.4630   -1.5060 H       1  UNL1        0.2099
     31 H           1.7387    0.8068    0.9327 H       1  UNL1        0.0519
     32 H           2.3283   -0.8764    0.7018 H       1  UNL1        0.0519
     33 H          -4.2850   -1.4960    0.0731 H       1  UNL1        0.0624
     34 H          -4.5731   -3.9294   -0.0360 H       1  UNL1        0.0618
     35 H          -2.6513   -5.3601   -0.0517 H       1  UNL1        0.0618
     36 H          -0.4312   -4.4434    0.0376 H       1  UNL1        0.0625
     37 H          -3.5040    3.6215    0.2653 H       1  UNL1        0.0625
     38 H          -1.8447    5.3527    0.3488 H       1  UNL1        0.0618
     39 H           0.4856    4.7606    0.3843 H       1  UNL1        0.0618
     40 H           1.1755    2.4243    0.3345 H       1  UNL1        0.0624
@<TRIPOS>UNITY_ATOM_ATTR
1 1
charge -1
2 1
charge 1
@<TRIPOS>BOND
     1     1     2    2
     2     2     3    2
     3     3     4    1
     4     4     5    1
     5     5     6    1
     6     5     7    1
     7     7     8    1
     8     8     9   ar
     9     8    17   ar
    10     9    10   ar
    11     9    26    1
    12    10    11   ar
    13    10    19    1
    14    11    12   ar
    15    11    16   ar
    16    12    13   ar
    17    13    14   ar
    18    14    15   ar
    19    15    16   ar
    20    16    17   ar
    21    17    18    2
    22    19    20    2
    23    19    21    1
    24    21    22   ar
    25    21    26   ar
    26    22    23   ar
    27    23    24   ar
    28    24    25   ar
    29    25    26   ar
    30     4    27    1
    31     4    28    1
    32     5    29    1
    33     6    30    1
    34     7    31    1
    35     7    32    1
    36    12    33    1
    37    13    34    1
    38    14    35    1
    39    15    36    1
    40    22    37    1
    41    23    38    1
    42    24    39    1
    43    25    40    1
@<TRIPOS>MOLECULE
../data/bude_mols_rdkit_confs/molecule_72.pdb
 40 43 0 0 0
SMALL
GASTEIGER

@<TRIPOS>ATOM
      1  N1         5.9010   -2.1800    0.1100 N.2     1  UNL1       -0.3282
      2  N2         4.6630   -2.2880    0.0700 N.2     1  UNL1       -0.0146
      3  N3         3.5140   -2.4130    0.5010 N.2     1  UNL1        0.0789
      4  C1         2.8200   -1.3280    1.1650 C.3     1  UNL1        0.1461
      5  C2         2.7110   -0.0930    0.3140 C.3     1  UNL1        0.0991
      6  O1         3.9830    0.3210   -0.0110 O.3     1  UNL1       -0.3880
      7  C3         1.7850   -0.1930   -0.8490 C.3     1  UNL1        0.0547
      8  N4         0.4060   -0.4640   -0.5150 N.ar    1  UNL1       -0.3044
      9  C4        -0.4830    0.5200   -0.2090 C.ar    1  UNL1        0.0642
     10  C5        -1.8160    0.2360    0.0810 C.ar    1  UNL1        0.0543
     11  C6        -2.2640   -1.0500    0.0650 C.ar    1  UNL1        0.0001
     12  C7        -3.5890   -1.3090    0.3550 C.ar    1  UNL1       -0.0531
     13  C8        -4.0370   -2.6150    0.3370 C.ar    1  UNL1       -0.0611
     14  C9        -3.1620   -3.6180    0.0320 C.ar    1  UNL1       -0.0610
     15  C10       -1.8290   -3.3470   -0.2590 C.ar    1  UNL1       -0.0488
     16  C11       -1.3750   -2.0500   -0.2430 C.ar    1  UNL1        0.0474
     17  C12       -0.0750   -1.7280   -0.5220 C.ar    1  UNL1        0.2596
     18  O2         0.7230   -2.6770   -0.8060 O.2     1  UNL1       -0.2670
     19  C13       -2.5180    1.4770    0.3690 C.2     1  UNL1        0.1963
     20  O3        -3.7340    1.6590    0.6760 O.2     1  UNL1       -0.2865
     21  C14       -1.5630    2.5550    0.2470 C.ar    1  UNL1        0.0315
     22  C15       -1.7020    3.9170    0.4150 C.ar    1  UNL1       -0.0503
     23  C16       -0.6290    4.7350    0.2420 C.ar    1  UNL1       -0.0610
     24  C17        0.5820    4.1690   -0.1000 C.ar    1  UNL1       -0.0611
     25  C18        0.7490    2.8120   -0.2740 C.ar    1  UNL1       -0.0519
     26  C19       -0.3340    1.9800   -0.1010 C.ar    1  UNL1        0.0101
     27 H           3.3518   -1.0799    2.0597 H       1  UNL1        0.0605
     28 H           1.8252   -1.6632    1.3720 H       1  UNL1        0.0605
     29 H           2.2276    0.6644    0.8950 H       1  UNL1        0.0632
     30 H           4.4217   -0.3653   -0.5377 H       1  UNL1        0.2099
     31 H           2.1333   -0.9816   -1.4828 H       1  UNL1        0.0519
     32 H           1.7935    0.7681   -1.3192 H       1  UNL1        0.0519
     33 H          -4.2354   -0.5372    0.5820 H       1  UNL1        0.0624
     34 H          -5.0230   -2.8309    0.5519 H       1  UNL1        0.0618
     35 H          -3.4956   -4.5945    0.0171 H       1  UNL1        0.0618
     36 H          -1.1823   -4.1184   -0.4865 H       1  UNL1        0.0625
     37 H          -2.6189    4.3150    0.6716 H       1  UNL1        0.0625
     38 H          -0.7187    5.7559    0.3638 H       1  UNL1        0.0618
     39 H           1.3973    4.7880   -0.2311 H       1  UNL1        0.0618
     40 H           1.6712    2.4258   -0.5299 H       1  UNL1        0.0624
@<TRIPOS>UNITY_ATOM_ATTR
1 1
charge -1
2 1
charge 1
@<TRIPOS>BOND
     1     1     2    2
     2     2     3    2
     3     3     4    1
     4     4     5    1
     5     5     6    1
     6     5     7    1
     7     7     8    1
     8     8     9   ar
     9     8    17   ar
    10     9    10   ar
    11     9    26    1
    12    10    11   ar
    13    10    19    1
    14    11    12   ar
    15    11    16   ar
    16    12    13   ar
    17    13    14   ar
    18    14    15   ar
    19    15    16   ar
    20    16    17   ar
    21    17    18    2
    22    19    20    2
    23    19    21    1
    24    21    22   ar
    25    21    26   ar
    26    22    23   ar
    27    23    24   ar
    28    24    25   ar
    29    25    26   ar
    30     4    27    1
    31     4    28    1
    32     5    29    1
    33     6    30    1
    34     7    31    1
    35     7    32    1
    36    12    33    1
    37    13    34    1
    38    14    35    1
    39    15    36    1
    40    22    37    1
    41    23    38    1
    42    24    39    1
    43    25    40    1
@<TRIPOS>MOLECULE
../data/bude_mols_rdkit_confs/molecule_72.pdb
 40 43 0 0 0
SMALL
GASTEIGER

@<TRIPOS>ATOM
      1  N1         4.4560    1.2910    2.3290 N.2     1  UNL1       -0.3282
      2  N2         4.3790    1.2730    1.1180 N.2     1  UNL1       -0.0146
      3  N3         4.1330    1.4050   -0.0790 N.2     1  UNL1        0.0789
      4  C1         3.9660    0.2050   -0.8690 C.3     1  UNL1        0.1461
      5  C2         2.5050   -0.1690   -1.0080 C.3     1  UNL1        0.0991
      6  O1         2.4130   -1.3290   -1.7760 O.3     1  UNL1       -0.3880
      7  C3         1.8590   -0.2990    0.3250 C.3     1  UNL1        0.0547
      8  N4         0.4580   -0.6580    0.2850 N.ar    1  UNL1       -0.3044
      9  C4        -0.5380    0.2290    0.1690 C.ar    1  UNL1        0.0642
     10  C5        -1.8820   -0.1700    0.1850 C.ar    1  UNL1        0.0543
     11  C6        -2.2170   -1.4980    0.3200 C.ar    1  UNL1        0.0001
     12  C7        -3.5410   -1.9350    0.3400 C.ar    1  UNL1       -0.0531
     13  C8        -3.7810   -3.2900    0.4800 C.ar    1  UNL1       -0.0611
     14  C9        -2.7820   -4.2270    0.5990 C.ar    1  UNL1       -0.0610
     15  C10       -1.4890   -3.7670    0.5760 C.ar    1  UNL1       -0.0488
     16  C11       -1.1970   -2.4110    0.4370 C.ar    1  UNL1        0.0474
     17  C12        0.1040   -1.9710    0.4170 C.ar    1  UNL1        0.2596
     18  O2         1.0400   -2.8070    0.5240 O.2     1  UNL1       -0.2670
     19  C13       -2.7440    0.9830    0.0350 C.2     1  UNL1        0.1963
     20  O3        -4.0060    0.9850    0.0090 O.2     1  UNL1       -0.2865
     21  C14       -1.8590    2.1300   -0.0780 C.ar    1  UNL1        0.0315
     22  C15       -2.1590    3.4570   -0.2440 C.ar    1  UNL1       -0.0503
     23  C16       -1.1470    4.3880   -0.3380 C.ar    1  UNL1       -0.0610
     24  C17        0.1530    3.9330   -0.2600 C.ar    1  UNL1       -0.0611
     25  C18        0.4830    2.6040   -0.0930 C.ar    1  UNL1       -0.0519
     26  C19       -0.5280    1.6870    0.0010 C.ar    1  UNL1        0.0101
     27 H           4.4872   -0.5996   -0.3937 H       1  UNL1        0.0605
     28 H           4.3600    0.3891   -1.8467 H       1  UNL1        0.0605
     29 H           1.9691    0.6073   -1.5129 H       1  UNL1        0.0632
     30 H           2.8933   -2.0474   -1.3354 H       1  UNL1        0.2099
     31 H           1.9484    0.6392    0.8317 H       1  UNL1        0.0519
     32 H           2.3618   -1.0985    0.8280 H       1  UNL1        0.0519
     33 H          -4.3212   -1.2652    0.2527 H       1  UNL1        0.0624
     34 H          -4.7606   -3.6144    0.4960 H       1  UNL1        0.0618
     35 H          -2.9948   -5.2316    0.7011 H       1  UNL1        0.0618
     36 H          -0.7134   -4.4421    0.6638 H       1  UNL1        0.0625
     37 H          -3.1441    3.7596   -0.2987 H       1  UNL1        0.0625
     38 H          -1.3547    5.3912   -0.4625 H       1  UNL1        0.0618
     39 H           0.9179    4.6222   -0.3302 H       1  UNL1        0.0618
     40 H           1.4703    2.3081   -0.0402 H       1  UNL1        0.0624
@<TRIPOS>UNITY_ATOM_ATTR
1 1
charge -1
2 1
charge 1
@<TRIPOS>BOND
     1     1     2    2
     2     2     3    2
     3     3     4    1
     4     4     5    1
     5     5     6    1
     6     5     7    1
     7     7     8    1
     8     8     9   ar
     9     8    17   ar
    10     9    10   ar
    11     9    26    1
    12    10    11   ar
    13    10    19    1
    14    11    12   ar
    15    11    16   ar
    16    12    13   ar
    17    13    14   ar
    18    14    15   ar
    19    15    16   ar
    20    16    17   ar
    21    17    18    2
    22    19    20    2
    23    19    21    1
    24    21    22   ar
    25    21    26   ar
    26    22    23   ar
    27    23    24   ar
    28    24    25   ar
    29    25    26   ar
    30     4    27    1
    31     4    28    1
    32     5    29    1
    33     6    30    1
    34     7    31    1
    35     7    32    1
    36    12    33    1
    37    13    34    1
    38    14    35    1
    39    15    36    1
    40    22    37    1
    41    23    38    1
    42    24    39    1
    43    25    40    1
@<TRIPOS>MOLECULE
../data/bude_mols_rdkit_confs/molecule_72.pdb
 40 43 0 0 0
SMALL
GASTEIGER

@<TRIPOS>ATOM
      1  N1         5.8570    0.3480   -0.9690 N.2     1  UNL1       -0.3282
      2  N2         4.6170    0.4390   -1.0400 N.2     1  UNL1       -0.0146
      3  N3         3.4030    0.3960   -1.1340 N.2     1  UNL1        0.0789
      4  C1         2.6270   -0.8070   -1.2080 C.3     1  UNL1        0.1461
      5  C2         2.4190   -1.5080    0.0650 C.3     1  UNL1        0.0991
      6  O1         3.6640   -1.8040    0.6450 O.3     1  UNL1       -0.3880
      7  C3         1.5170   -0.9670    1.1050 C.3     1  UNL1        0.0547
      8  N4         0.1640   -0.7950    0.7220 N.ar    1  UNL1       -0.3044
      9  C4        -0.3690    0.3510    0.3050 C.ar    1  UNL1        0.0642
     10  C5        -1.7090    0.4080   -0.1330 C.ar    1  UNL1        0.0543
     11  C6        -2.4770   -0.7280   -0.1290 C.ar    1  UNL1        0.0001
     12  C7        -3.7810   -0.6720   -0.5560 C.ar    1  UNL1       -0.0531
     13  C8        -4.5660   -1.8320   -0.5520 C.ar    1  UNL1       -0.0611
     14  C9        -4.0350   -3.0080   -0.1270 C.ar    1  UNL1       -0.0610
     15  C10       -2.7310   -3.0310    0.2920 C.ar    1  UNL1       -0.0488
     16  C11       -1.9290   -1.9100    0.3030 C.ar    1  UNL1        0.0474
     17  C12       -0.6170   -1.9140    0.7190 C.ar    1  UNL1        0.2596
     18  O2        -0.1190   -2.9730    1.1080 O.2     1  UNL1       -0.2670
     19  C13       -2.0690    1.7590   -0.5200 C.2     1  UNL1        0.1963
     20  O3        -3.1660    2.1800   -0.9570 O.2     1  UNL1       -0.2865
     21  C14       -0.8790    2.5540   -0.2990 C.ar    1  UNL1        0.0315
     22  C15       -0.6430    3.8990   -0.4820 C.ar    1  UNL1       -0.0503
     23  C16        0.5850    4.4460   -0.1850 C.ar    1  UNL1       -0.0610
     24  C17        1.5690    3.6130    0.2980 C.ar    1  UNL1       -0.0611
     25  C18        1.3630    2.2630    0.4910 C.ar    1  UNL1       -0.0519
     26  C19        0.1410    1.7270    0.1930 C.ar    1  UNL1        0.0101
     27 H           3.1243   -1.4787   -1.8761 H       1  UNL1        0.0605
     28 H           1.6546   -0.5077   -1.5392 H       1  UNL1        0.0605
     29 H           1.8585   -2.3562   -0.2686 H       1  UNL1        0.0632
     30 H           4.0985   -0.9802    0.9159 H       1  UNL1        0.2099
     31 H           1.8969   -0.0125    1.4042 H       1  UNL1        0.0519
     32 H           1.5060   -1.6971    1.8871 H       1  UNL1        0.0519
     33 H          -4.1816    0.2226   -0.8790 H       1  UNL1        0.0624
     34 H          -5.5465   -1.7934   -0.8715 H       1  UNL1        0.0618
     35 H          -4.6040   -3.8689   -0.1199 H       1  UNL1        0.0618
     36 H          -2.3317   -3.9267    0.6134 H       1  UNL1        0.0625
     37 H          -1.3958    4.5037   -0.8461 H       1  UNL1        0.0625
     38 H           0.7631    5.4534   -0.3208 H       1  UNL1        0.0618
     39 H           2.4933    4.0128    0.5236 H       1  UNL1        0.0618
     40 H           2.1212    1.6653    0.8555 H       1  UNL1        0.0624
@<TRIPOS>UNITY_ATOM_ATTR
1 1
charge -1
2 1
charge 1
@<TRIPOS>BOND
     1     1     2    2
     2     2     3    2
     3     3     4    1
     4     4     5    1
     5     5     6    1
     6     5     7    1
     7     7     8    1
     8     8     9   ar
     9     8    17   ar
    10     9    10   ar
    11     9    26    1
    12    10    11   ar
    13    10    19    1
    14    11    12   ar
    15    11    16   ar
    16    12    13   ar
    17    13    14   ar
    18    14    15   ar
    19    15    16   ar
    20    16    17   ar
    21    17    18    2
    22    19    20    2
    23    19    21    1
    24    21    22   ar
    25    21    26   ar
    26    22    23   ar
    27    23    24   ar
    28    24    25   ar
    29    25    26   ar
    30     4    27    1
    31     4    28    1
    32     5    29    1
    33     6    30    1
    34     7    31    1
    35     7    32    1
    36    12    33    1
    37    13    34    1
    38    14    35    1
    39    15    36    1
    40    22    37    1
    41    23    38    1
    42    24    39    1
    43    25    40    1
@<TRIPOS>MOLECULE
../data/bude_mols_rdkit_confs/molecule_72.pdb
 40 43 0 0 0
SMALL
GASTEIGER

@<TRIPOS>ATOM
      1  N1         6.8580    0.5340    1.6360 N.2     1  UNL1       -0.3282
      2  N2         5.6470    0.2760    1.5090 N.2     1  UNL1       -0.0146
      3  N3         4.4470    0.1580    1.2760 N.2     1  UNL1        0.0789
      4  C1         3.7940    0.8580    0.1800 C.3     1  UNL1        0.1461
      5  C2         2.4770    0.2050   -0.1290 C.3     1  UNL1        0.0991
      6  O1         2.7560   -1.1220   -0.4860 O.3     1  UNL1       -0.3880
      7  C3         1.5290    0.2600    1.0450 C.3     1  UNL1        0.0547
      8  N4         0.2600   -0.3700    0.7430 N.ar    1  UNL1       -0.3044
      9  C4        -0.7320    0.3170    0.1450 C.ar    1  UNL1        0.0642
     10  C5        -1.9390   -0.3510   -0.0520 C.ar    1  UNL1        0.0543
     11  C6        -2.1080   -1.6600    0.3470 C.ar    1  UNL1        0.0001
     12  C7        -3.2920   -2.3450    0.1630 C.ar    1  UNL1       -0.0531
     13  C8        -3.4280   -3.6710    0.5790 C.ar    1  UNL1       -0.0611
     14  C9        -2.3870   -4.3410    1.1860 C.ar    1  UNL1       -0.0610
     15  C10       -1.2030   -3.6640    1.3730 C.ar    1  UNL1       -0.0488
     16  C11       -1.0780   -2.3410    0.9540 C.ar    1  UNL1        0.0474
     17  C12        0.1000   -1.6670    1.1400 C.ar    1  UNL1        0.2596
     18  O2         1.0410   -2.2960    1.6970 O.2     1  UNL1       -0.2670
     19  C13       -2.8250    0.5990   -0.7140 C.2     1  UNL1        0.1963
     20  O3        -4.0190    0.3730   -1.0640 O.2     1  UNL1       -0.2865
     21  C14       -2.1380    1.8620   -0.9210 C.ar    1  UNL1        0.0315
     22  C15       -2.5350    3.0480   -1.5030 C.ar    1  UNL1       -0.0503
     23  C16       -1.6370    4.0750   -1.5610 C.ar    1  UNL1       -0.0610
     24  C17       -0.3680    3.9270   -1.0510 C.ar    1  UNL1       -0.0611
     25  C18        0.0330    2.7340   -0.4650 C.ar    1  UNL1       -0.0519
     26  C19       -0.8500    1.6870   -0.3930 C.ar    1  UNL1        0.0101
     27 H           4.4200    0.8226   -0.6871 H       1  UNL1        0.0605
     28 H           3.6255    1.8763    0.4621 H       1  UNL1        0.0605
     29 H           1.9872    0.7247   -0.9258 H       1  UNL1        0.0632
     30 H           3.1988   -1.5691    0.2522 H       1  UNL1        0.2099
     31 H           1.3547    1.2841    1.3015 H       1  UNL1        0.0519
     32 H           1.9775   -0.2700    1.8592 H       1  UNL1        0.0519
     33 H          -4.0889   -1.8699   -0.2889 H       1  UNL1        0.0624
     34 H          -4.3250   -4.1589    0.4292 H       1  UNL1        0.0618
     35 H          -2.4923   -5.3212    1.4912 H       1  UNL1        0.0618
     36 H          -0.4054   -4.1379    1.8250 H       1  UNL1        0.0625
     37 H          -3.4875    3.1564   -1.8852 H       1  UNL1        0.0625
     38 H          -1.9131    4.9712   -1.9918 H       1  UNL1        0.0618
     39 H           0.2962    4.7150   -1.1048 H       1  UNL1        0.0618
     40 H           0.9881    2.6358   -0.0865 H       1  UNL1        0.0624
@<TRIPOS>UNITY_ATOM_ATTR
1 1
charge -1
2 1
charge 1
@<TRIPOS>BOND
     1     1     2    2
     2     2     3    2
     3     3     4    1
     4     4     5    1
     5     5     6    1
     6     5     7    1
     7     7     8    1
     8     8     9   ar
     9     8    17   ar
    10     9    10   ar
    11     9    26    1
    12    10    11   ar
    13    10    19    1
    14    11    12   ar
    15    11    16   ar
    16    12    13   ar
    17    13    14   ar
    18    14    15   ar
    19    15    16   ar
    20    16    17   ar
    21    17    18    2
    22    19    20    2
    23    19    21    1
    24    21    22   ar
    25    21    26   ar
    26    22    23   ar
    27    23    24   ar
    28    24    25   ar
    29    25    26   ar
    30     4    27    1
    31     4    28    1
    32     5    29    1
    33     6    30    1
    34     7    31    1
    35     7    32    1
    36    12    33    1
    37    13    34    1
    38    14    35    1
    39    15    36    1
    40    22    37    1
    41    23    38    1
    42    24    39    1
    43    25    40    1
@<TRIPOS>MOLECULE
../data/bude_mols_rdkit_confs/molecule_72.pdb
 40 43 0 0 0
SMALL
GASTEIGER

@<TRIPOS>ATOM
      1  N1         5.8170   -2.3040    1.3970 N.2     1  UNL1       -0.3282
      2  N2         4.9320   -1.4280    1.2870 N.2     1  UNL1       -0.0146
      3  N3         4.2570   -0.4460    0.9070 N.2     1  UNL1        0.0789
      4  C1         3.0990   -0.7600    0.0910 C.3     1  UNL1        0.1461
      5  C2         2.6300    0.4080   -0.7120 C.3     1  UNL1        0.0991
      6  O1         3.6910    0.8090   -1.5430 O.3     1  UNL1       -0.3880
      7  C3         1.4250    0.0740   -1.5510 C.3     1  UNL1        0.0547
      8  N4         0.2780   -0.3640   -0.8190 N.ar    1  UNL1       -0.3044
      9  C4        -0.6360    0.4530   -0.2840 C.ar    1  UNL1        0.0642
     10  C5        -1.7430   -0.0370    0.3800 C.ar    1  UNL1        0.0543
     11  C6        -1.9620   -1.4030    0.5270 C.ar    1  UNL1        0.0001
     12  C7        -3.0460   -1.9300    1.1790 C.ar    1  UNL1       -0.0531
     13  C8        -3.2130   -3.3090    1.2960 C.ar    1  UNL1       -0.0611
     14  C9        -2.2610   -4.1410    0.7400 C.ar    1  UNL1       -0.0610
     15  C10       -1.1580   -3.6270    0.0770 C.ar    1  UNL1       -0.0488
     16  C11       -1.0230   -2.2430   -0.0210 C.ar    1  UNL1        0.0474
     17  C12        0.0390   -1.7040   -0.6610 C.ar    1  UNL1        0.2596
     18  O2         0.8840   -2.5270   -1.1560 O.2     1  UNL1       -0.2670
     19  C13       -2.5720    1.0510    0.8670 C.2     1  UNL1        0.1963
     20  O3        -3.6550    1.0420    1.5130 O.2     1  UNL1       -0.2865
     21  C14       -1.8820    2.2930    0.4460 C.ar    1  UNL1        0.0315
     22  C15       -2.1960    3.6180    0.6290 C.ar    1  UNL1       -0.0503
     23  C16       -1.3730    4.5930    0.1370 C.ar    1  UNL1       -0.0610
     24  C17       -0.2370    4.2090   -0.5380 C.ar    1  UNL1       -0.0611
     25  C18        0.0870    2.8660   -0.7260 C.ar    1  UNL1       -0.0519
     26  C19       -0.7380    1.9040   -0.2330 C.ar    1  UNL1        0.0101
     27 H           2.3033   -1.0768    0.7324 H       1  UNL1        0.0605
     28 H           3.3840   -1.5312   -0.5938 H       1  UNL1        0.0605
     29 H           2.3370    1.1925   -0.0460 H       1  UNL1        0.0632
     30 H           3.9331    0.0785   -2.1335 H       1  UNL1        0.2099
     31 H           1.7006   -0.7042   -2.2317 H       1  UNL1        0.0519
     32 H           1.1388    0.9837   -2.0363 H       1  UNL1        0.0519
     33 H          -3.7494   -1.2963    1.5897 H       1  UNL1        0.0624
     34 H          -4.0314   -3.7003    1.7881 H       1  UNL1        0.0618
     35 H          -2.3731   -5.1638    0.8197 H       1  UNL1        0.0618
     36 H          -0.4512   -4.2557   -0.3356 H       1  UNL1        0.0625
     37 H          -3.0548    3.8780    1.1388 H       1  UNL1        0.0625
     38 H          -1.5982    5.5915    0.2686 H       1  UNL1        0.0618
     39 H           0.3922    4.9348   -0.9153 H       1  UNL1        0.0618
     40 H           0.9457    2.6042   -1.2350 H       1  UNL1        0.0624
@<TRIPOS>UNITY_ATOM_ATTR
1 1
charge -1
2 1
charge 1
@<TRIPOS>BOND
     1     1     2    2
     2     2     3    2
     3     3     4    1
     4     4     5    1
     5     5     6    1
     6     5     7    1
     7     7     8    1
     8     8     9   ar
     9     8    17   ar
    10     9    10   ar
    11     9    26    1
    12    10    11   ar
    13    10    19    1
    14    11    12   ar
    15    11    16   ar
    16    12    13   ar
    17    13    14   ar
    18    14    15   ar
    19    15    16   ar
    20    16    17   ar
    21    17    18    2
    22    19    20    2
    23    19    21    1
    24    21    22   ar
    25    21    26   ar
    26    22    23   ar
    27    23    24   ar
    28    24    25   ar
    29    25    26   ar
    30     4    27    1
    31     4    28    1
    32     5    29    1
    33     6    30    1
    34     7    31    1
    35     7    32    1
    36    12    33    1
    37    13    34    1
    38    14    35    1
    39    15    36    1
    40    22    37    1
    41    23    38    1
    42    24    39    1
    43    25    40    1
@<TRIPOS>MOLECULE
../data/bude_mols_rdkit_confs/molecule_72.pdb
 40 43 0 0 0
SMALL
GASTEIGER

@<TRIPOS>ATOM
      1  N1         6.0950    2.2260   -1.0890 N.2     1  UNL1       -0.3282
      2  N2         4.9810    1.8650   -0.6640 N.2     1  UNL1       -0.0146
      3  N3         3.9980    1.3460   -0.1350 N.2     1  UNL1        0.0789
      4  C1         3.1490    0.4230   -0.8590 C.3     1  UNL1        0.1461
      5  C2         2.6340   -0.7030   -0.0540 C.3     1  UNL1        0.0991
      6  O1         3.7310   -1.4000    0.4550 O.3     1  UNL1       -0.3880
      7  C3         1.6840   -0.4210    1.0460 C.3     1  UNL1        0.0547
      8  N4         0.4320    0.2000    0.6530 N.ar    1  UNL1       -0.3044
      9  C4        -0.6600   -0.4720    0.2550 C.ar    1  UNL1        0.0642
     10  C5        -1.8460    0.1920   -0.0840 C.ar    1  UNL1        0.0543
     11  C6        -1.9240    1.5630   -0.0180 C.ar    1  UNL1        0.0001
     12  C7        -3.1000    2.2350   -0.3530 C.ar    1  UNL1       -0.0531
     13  C8        -3.0770    3.6160   -0.2530 C.ar    1  UNL1       -0.0611
     14  C9        -1.9660    4.3200    0.1530 C.ar    1  UNL1       -0.0610
     15  C10       -0.8100    3.6440    0.4810 C.ar    1  UNL1       -0.0488
     16  C11       -0.8000    2.2480    0.3920 C.ar    1  UNL1        0.0474
     17  C12        0.3430    1.5450    0.7140 C.ar    1  UNL1        0.2596
     18  O2         1.3230    2.2560    1.0810 O.2     1  UNL1       -0.2670
     19  C13       -2.8570   -0.8020   -0.4790 C.2     1  UNL1        0.1963
     20  O3        -4.0340   -0.5730   -0.8440 O.2     1  UNL1       -0.2865
     21  C14       -2.1870   -2.0970   -0.3510 C.ar    1  UNL1        0.0315
     22  C15       -2.6920   -3.3590   -0.6030 C.ar    1  UNL1       -0.0503
     23  C16       -1.9130   -4.4640   -0.4290 C.ar    1  UNL1       -0.0610
     24  C17       -0.6090   -4.2710    0.0050 C.ar    1  UNL1       -0.0611
     25  C18       -0.1070   -2.9910    0.2580 C.ar    1  UNL1       -0.0519
     26  C19       -0.8810   -1.8860    0.0860 C.ar    1  UNL1        0.0101
     27 H           3.7137    0.0196   -1.6735 H       1  UNL1        0.0605
     28 H           2.2945    0.9836   -1.1760 H       1  UNL1        0.0605
     29 H           2.0310   -1.2578   -0.7421 H       1  UNL1        0.0632
     30 H           4.2214   -0.8289    1.0668 H       1  UNL1        0.2099
     31 H           2.1703    0.2309    1.7413 H       1  UNL1        0.0519
     32 H           1.4209   -1.3739    1.4556 H       1  UNL1        0.0519
     33 H          -3.9449    1.7281   -0.6600 H       1  UNL1        0.0624
     34 H          -3.9319    4.1414   -0.4939 H       1  UNL1        0.0618
     35 H          -1.9982    5.3498    0.2116 H       1  UNL1        0.0618
     36 H           0.0314    4.1578    0.7862 H       1  UNL1        0.0625
     37 H          -3.6666   -3.4654   -0.9254 H       1  UNL1        0.0625
     38 H          -2.2800   -5.4107   -0.6135 H       1  UNL1        0.0618
     39 H           0.0033   -5.0900    0.1440 H       1  UNL1        0.0618
     40 H           0.8673   -2.8828    0.5807 H       1  UNL1        0.0624
@<TRIPOS>UNITY_ATOM_ATTR
1 1
charge -1
2 1
charge 1
@<TRIPOS>BOND
     1     1     2    2
     2     2     3    2
     3     3     4    1
     4     4     5    1
     5     5     6    1
     6     5     7    1
     7     7     8    1
     8     8     9   ar
     9     8    17   ar
    10     9    10   ar
    11     9    26    1
    12    10    11   ar
    13    10    19    1
    14    11    12   ar
    15    11    16   ar
    16    12    13   ar
    17    13    14   ar
    18    14    15   ar
    19    15    16   ar
    20    16    17   ar
    21    17    18    2
    22    19    20    2
    23    19    21    1
    24    21    22   ar
    25    21    26   ar
    26    22    23   ar
    27    23    24   ar
    28    24    25   ar
    29    25    26   ar
    30     4    27    1
    31     4    28    1
    32     5    29    1
    33     6    30    1
    34     7    31    1
    35     7    32    1
    36    12    33    1
    37    13    34    1
    38    14    35    1
    39    15    36    1
    40    22    37    1
    41    23    38    1
    42    24    39    1
    43    25    40    1
