@<TRIPOS>MOLECULE
../data/bude_mols_rdkit_confs/molecule_26.pdb
 32 33 0 0 0
SMALL
GASTEIGER

@<TRIPOS>ATOM
      1  N1        -5.0820   -0.9960   -0.0190 N.3     1  UNL1       -0.2035
      2  S1        -3.3990   -1.2130   -0.3630 S.O2    1  UNL1        0.0578
      3  O1        -3.2660   -1.4630   -1.8390 O.2     1  UNL1       -0.1532
      4  O2        -2.9250   -2.4220    0.3880 O.2     1  UNL1       -0.1532
      5  C1        -2.4800    0.2040    0.0880 C.ar    1  UNL1        0.1272
      6  C2        -3.1020    1.3250    0.6340 C.ar    1  UNL1       -0.0335
      7  C3        -2.3500    2.4270    0.9780 C.ar    1  UNL1       -0.0598
      8  C4        -0.9870    2.3980    0.7740 C.ar    1  UNL1       -0.0599
      9  C5        -0.3890    1.2610    0.2250 C.ar    1  UNL1       -0.0374
     10  C6        -1.1070    0.1590   -0.1240 C.ar    1  UNL1        0.0743
     11  N2        -0.4740   -0.9660   -0.6940 N.pl3   1  UNL1       -0.2142
     12  S2         0.9010   -1.7830   -0.1300 S.O2    1  UNL1        0.0781
     13  O3         0.6150   -2.3590    1.2360 O.2     1  UNL1       -0.1498
     14  O4         1.1690   -2.9710   -1.0390 O.2     1  UNL1       -0.1498
     15  C7         2.3590   -0.8760   -0.0420 C.ar    1  UNL1        0.1843
     16  C8         3.1790   -0.7430   -1.1380 C.ar    1  UNL1        0.1907
     17  F1         2.8350   -1.3090   -2.3200 F       1  UNL1       -0.2002
     18  C9         4.3510   -0.0360   -1.0360 C.ar    1  UNL1        0.1983
     19  F2         5.1950    0.1200   -2.0970 F       1  UNL1       -0.1993
     20  C10        4.7010    0.5380    0.1640 C.ar    1  UNL1        0.1992
     21  F3         5.8780    1.2390    0.2370 F       1  UNL1       -0.1993
     22  C11        3.8860    0.4120    1.2690 C.ar    1  UNL1        0.1983
     23  F4         4.2780    1.0010    2.4400 F       1  UNL1       -0.1993
     24  C12        2.7090   -0.2970    1.1690 C.ar    1  UNL1        0.1907
     25  F5         1.9370   -0.3980    2.2790 F       1  UNL1       -0.2002
     26 H          -5.5954   -1.8345   -0.2905 H       1  UNL1        0.1442
     27 H          -5.4358   -0.1960   -0.5435 H       1  UNL1        0.1442
     28 H          -4.1236    1.3298    0.7804 H       1  UNL1        0.0638
     29 H          -2.8008    3.2625    1.3827 H       1  UNL1        0.0618
     30 H          -0.4092    3.2150    1.0264 H       1  UNL1        0.0618
     31 H           0.6326    1.2567    0.0791 H       1  UNL1        0.0637
     32 H          -0.8795   -1.3193   -1.5186 H       1  UNL1        0.1737
@<TRIPOS>BOND
     1     1     2    1
     2     2     3    2
     3     2     4    2
     4     2     5    1
     5     5     6   ar
     6     5    10   ar
     7     6     7   ar
     8     7     8   ar
     9     8     9   ar
    10     9    10   ar
    11    10    11    1
    12    11    12    1
    13    12    13    2
    14    12    14    2
    15    12    15    1
    16    15    16   ar
    17    15    24   ar
    18    16    17    1
    19    16    18   ar
    20    18    19    1
    21    18    20   ar
    22    20    21    1
    23    20    22   ar
    24    22    23    1
    25    22    24   ar
    26    24    25    1
    27     1    26    1
    28     1    27    1
    29     6    28    1
    30     7    29    1
    31     8    30    1
    32     9    31    1
    33    11    32    1
@<TRIPOS>MOLECULE
../data/bude_mols_rdkit_confs/molecule_26.pdb
 32 33 0 0 0
SMALL
GASTEIGER

@<TRIPOS>ATOM
      1  N1        -3.2780    1.0110    1.7540 N.3     1  UNL1       -0.2035
      2  S1        -2.4380    1.6790    0.4270 S.O2    1  UNL1        0.0578
      3  O1        -3.2330    2.7780   -0.2110 O.2     1  UNL1       -0.1532
      4  O2        -1.1410    2.2650    0.9710 O.2     1  UNL1       -0.1532
      5  C1        -2.0930    0.4280   -0.7440 C.ar    1  UNL1        0.1272
      6  C2        -2.6310    0.5480   -2.0310 C.ar    1  UNL1       -0.0335
      7  C3        -2.3510   -0.4500   -2.9360 C.ar    1  UNL1       -0.0598
      8  C4        -1.5740   -1.5450   -2.6270 C.ar    1  UNL1       -0.0599
      9  C5        -1.0570   -1.6380   -1.3520 C.ar    1  UNL1       -0.0374
     10  C6        -1.3110   -0.6580   -0.4080 C.ar    1  UNL1        0.0743
     11  N2        -0.7840   -0.7560    0.9210 N.pl3   1  UNL1       -0.2142
     12  S2         0.7410   -1.3980    1.3250 S.O2    1  UNL1        0.0781
     13  O3         0.8540   -2.8610    0.9860 O.2     1  UNL1       -0.1498
     14  O4         0.9140   -1.3320    2.8340 O.2     1  UNL1       -0.1498
     15  C7         2.0480   -0.4980    0.6190 C.ar    1  UNL1        0.1843
     16  C8         2.5400    0.5890    1.3020 C.ar    1  UNL1        0.1907
     17  F1         2.0100    0.9510    2.4930 F       1  UNL1       -0.2002
     18  C9         3.5900    1.3230    0.7670 C.ar    1  UNL1        0.1983
     19  F2         4.1150    2.4070    1.3990 F       1  UNL1       -0.1993
     20  C10        4.1180    0.9410   -0.4460 C.ar    1  UNL1        0.1992
     21  F3         5.1530    1.6520   -0.9910 F       1  UNL1       -0.1993
     22  C11        3.6430   -0.1400   -1.1450 C.ar    1  UNL1        0.1983
     23  F4         4.1900   -0.4810   -2.3330 F       1  UNL1       -0.1993
     24  C12        2.5860   -0.8590   -0.5810 C.ar    1  UNL1        0.1907
     25  F5         2.1250   -1.9190   -1.2520 F       1  UNL1       -0.2002
     26 H          -3.4771    1.7443    2.4344 H       1  UNL1        0.1442
     27 H          -2.7050    0.2887    2.1904 H       1  UNL1        0.1442
     28 H          -3.2170    1.3565   -2.2917 H       1  UNL1        0.0638
     29 H          -2.7404   -0.3749   -3.8888 H       1  UNL1        0.0618
     30 H          -1.3841   -2.2757   -3.3306 H       1  UNL1        0.0618
     31 H          -0.4725   -2.4497   -1.0980 H       1  UNL1        0.0637
     32 H          -1.3474   -0.4265    1.6581 H       1  UNL1        0.1737
@<TRIPOS>BOND
     1     1     2    1
     2     2     3    2
     3     2     4    2
     4     2     5    1
     5     5     6   ar
     6     5    10   ar
     7     6     7   ar
     8     7     8   ar
     9     8     9   ar
    10     9    10   ar
    11    10    11    1
    12    11    12    1
    13    12    13    2
    14    12    14    2
    15    12    15    1
    16    15    16   ar
    17    15    24   ar
    18    16    17    1
    19    16    18   ar
    20    18    19    1
    21    18    20   ar
    22    20    21    1
    23    20    22   ar
    24    22    23    1
    25    22    24   ar
    26    24    25    1
    27     1    26    1
    28     1    27    1
    29     6    28    1
    30     7    29    1
    31     8    30    1
    32     9    31    1
    33    11    32    1
@<TRIPOS>MOLECULE
../data/bude_mols_rdkit_confs/molecule_26.pdb
 32 33 0 0 0
SMALL
GASTEIGER

@<TRIPOS>ATOM
      1  N1        -3.1800    1.0070    2.4320 N.3     1  UNL1       -0.2035
      2  S1        -3.4240   -0.3670    1.4230 S.O2    1  UNL1        0.0578
      3  O1        -3.0010   -1.5730    2.2130 O.2     1  UNL1       -0.1532
      4  O2        -4.8970   -0.4940    1.1930 O.2     1  UNL1       -0.1532
      5  C1        -2.6080   -0.2580   -0.1010 C.ar    1  UNL1        0.1272
      6  C2        -3.3520   -0.2820   -1.2600 C.ar    1  UNL1       -0.0335
      7  C3        -2.7590   -0.1970   -2.4860 C.ar    1  UNL1       -0.0598
      8  C4        -1.4010   -0.0840   -2.5690 C.ar    1  UNL1       -0.0599
      9  C5        -0.6650   -0.0610   -1.3960 C.ar    1  UNL1       -0.0374
     10  C6        -1.2040   -0.1440   -0.1410 C.ar    1  UNL1        0.0743
     11  N2        -0.5020   -0.1120    1.0670 N.pl3   1  UNL1       -0.2142
     12  S2         0.9680   -0.8670    1.4740 S.O2    1  UNL1        0.0781
     13  O3         0.7710   -2.3650    1.3260 O.2     1  UNL1       -0.1498
     14  O4         1.3220   -0.6440    2.9280 O.2     1  UNL1       -0.1498
     15  C7         2.3460   -0.3820    0.5430 C.ar    1  UNL1        0.1843
     16  C8         2.7760   -1.0880   -0.5560 C.ar    1  UNL1        0.1907
     17  F1         2.0810   -2.2140   -0.9180 F       1  UNL1       -0.2002
     18  C9         3.8770   -0.6710   -1.2730 C.ar    1  UNL1        0.1983
     19  F2         4.2880   -1.3790   -2.3550 F       1  UNL1       -0.1993
     20  C10        4.5480    0.4660   -0.8770 C.ar    1  UNL1        0.1992
     21  F3         5.6370    0.9020   -1.5640 F       1  UNL1       -0.1993
     22  C11        4.1310    1.1790    0.2160 C.ar    1  UNL1        0.1983
     23  F4         4.8180    2.2910    0.5730 F       1  UNL1       -0.1993
     24  C12        3.0400    0.7560    0.9160 C.ar    1  UNL1        0.1907
     25  F5         2.6290    1.4640    1.9990 F       1  UNL1       -0.2002
     26 H          -3.6850    0.8789    3.3089 H       1  UNL1        0.1442
     27 H          -3.5262    1.8418    1.9591 H       1  UNL1        0.1442
     28 H          -4.3788   -0.3660   -1.1999 H       1  UNL1        0.0638
     29 H          -3.3325   -0.2180   -3.3437 H       1  UNL1        0.0618
     30 H          -0.9328   -0.0171   -3.4863 H       1  UNL1        0.0618
     31 H           0.3605    0.0246   -1.4738 H       1  UNL1        0.0637
     32 H          -0.9158    0.4222    1.7830 H       1  UNL1        0.1737
@<TRIPOS>BOND
     1     1     2    1
     2     2     3    2
     3     2     4    2
     4     2     5    1
     5     5     6   ar
     6     5    10   ar
     7     6     7   ar
     8     7     8   ar
     9     8     9   ar
    10     9    10   ar
    11    10    11    1
    12    11    12    1
    13    12    13    2
    14    12    14    2
    15    12    15    1
    16    15    16   ar
    17    15    24   ar
    18    16    17    1
    19    16    18   ar
    20    18    19    1
    21    18    20   ar
    22    20    21    1
    23    20    22   ar
    24    22    23    1
    25    22    24   ar
    26    24    25    1
    27     1    26    1
    28     1    27    1
    29     6    28    1
    30     7    29    1
    31     8    30    1
    32     9    31    1
    33    11    32    1
@<TRIPOS>MOLECULE
../data/bude_mols_rdkit_confs/molecule_26.pdb
 32 33 0 0 0
SMALL
GASTEIGER

@<TRIPOS>ATOM
      1  N1        -2.9610    2.6480   -0.3180 N.3     1  UNL1       -0.2035
      2  S1        -2.4050    1.5840    0.9230 S.O2    1  UNL1        0.0578
      3  O1        -1.1360    2.1430    1.5010 O.2     1  UNL1       -0.1532
      4  O2        -3.4700    1.5900    1.9990 O.2     1  UNL1       -0.1532
      5  C1        -2.1810   -0.0290    0.3060 C.ar    1  UNL1        0.1272
      6  C2        -2.9080   -1.0650    0.8430 C.ar    1  UNL1       -0.0335
      7  C3        -2.7490   -2.3560    0.3680 C.ar    1  UNL1       -0.0598
      8  C4        -1.8560   -2.6040   -0.6480 C.ar    1  UNL1       -0.0599
      9  C5        -1.1410   -1.5510   -1.1680 C.ar    1  UNL1       -0.0374
     10  C6        -1.2640   -0.2380   -0.7260 C.ar    1  UNL1        0.0743
     11  N2        -0.5380    0.8410   -1.2730 N.pl3   1  UNL1       -0.2142
     12  S2         1.0740    0.6810   -1.7780 S.O2    1  UNL1        0.0781
     13  O3         1.2110   -0.3670   -2.8680 O.2     1  UNL1       -0.1498
     14  O4         1.5090    1.9770   -2.4340 O.2     1  UNL1       -0.1498
     15  C7         2.1890    0.2520   -0.5280 C.ar    1  UNL1        0.1843
     16  C8         2.7870    1.2470    0.2550 C.ar    1  UNL1        0.1907
     17  F1         2.4310    2.5310   -0.0260 F       1  UNL1       -0.2002
     18  C9         3.6870    0.9400    1.2560 C.ar    1  UNL1        0.1983
     19  F2         4.2440    1.9380    1.9910 F       1  UNL1       -0.1993
     20  C10        4.0340   -0.3680    1.5240 C.ar    1  UNL1        0.1992
     21  F3         4.9190   -0.6830    2.5060 F       1  UNL1       -0.1993
     22  C11        3.4540   -1.3570    0.7630 C.ar    1  UNL1        0.1983
     23  F4         3.7770   -2.6620    1.0040 F       1  UNL1       -0.1993
     24  C12        2.5400   -1.0440   -0.2540 C.ar    1  UNL1        0.1907
     25  F5         2.0020   -2.0580   -0.9830 F       1  UNL1       -0.2002
     26 H          -3.0844    3.5844    0.0671 H       1  UNL1        0.1442
     27 H          -3.8519    2.3099   -0.6818 H       1  UNL1        0.1442
     28 H          -3.5775   -0.8791    1.6061 H       1  UNL1        0.0638
     29 H          -3.2985   -3.1290    0.7749 H       1  UNL1        0.0618
     30 H          -1.7253   -3.5606   -1.0126 H       1  UNL1        0.0618
     31 H          -0.4740   -1.7463   -1.9309 H       1  UNL1        0.0637
     32 H          -0.9812    1.7153   -1.3647 H       1  UNL1        0.1737
@<TRIPOS>BOND
     1     1     2    1
     2     2     3    2
     3     2     4    2
     4     2     5    1
     5     5     6   ar
     6     5    10   ar
     7     6     7   ar
     8     7     8   ar
     9     8     9   ar
    10     9    10   ar
    11    10    11    1
    12    11    12    1
    13    12    13    2
    14    12    14    2
    15    12    15    1
    16    15    16   ar
    17    15    24   ar
    18    16    17    1
    19    16    18   ar
    20    18    19    1
    21    18    20   ar
    22    20    21    1
    23    20    22   ar
    24    22    23    1
    25    22    24   ar
    26    24    25    1
    27     1    26    1
    28     1    27    1
    29     6    28    1
    30     7    29    1
    31     8    30    1
    32     9    31    1
    33    11    32    1
@<TRIPOS>MOLECULE
../data/bude_mols_rdkit_confs/molecule_26.pdb
 32 33 0 0 0
SMALL
GASTEIGER

@<TRIPOS>ATOM
      1  N1         3.4110   -1.7720    0.4040 N.3     1  UNL1       -0.2035
      2  S1         3.6130   -0.1310    0.8970 S.O2    1  UNL1        0.0578
      3  O1         3.5960   -0.0220    2.3930 O.2     1  UNL1       -0.1532
      4  O2         4.9730    0.3060    0.4340 O.2     1  UNL1       -0.1532
      5  C1         2.4380    0.9180    0.1580 C.ar    1  UNL1        0.1272
      6  C2         2.8250    1.9690   -0.6480 C.ar    1  UNL1       -0.0335
      7  C3         1.9020    2.8020   -1.2350 C.ar    1  UNL1       -0.0598
      8  C4         0.5630    2.5790   -1.0110 C.ar    1  UNL1       -0.0599
      9  C5         0.2060    1.5210   -0.2000 C.ar    1  UNL1       -0.0374
     10  C6         1.0840    0.6640    0.4060 C.ar    1  UNL1        0.0743
     11  N2         0.7640   -0.3980    1.2440 N.pl3   1  UNL1       -0.2142
     12  S2        -0.3200   -1.6410    0.7820 S.O2    1  UNL1        0.0781
     13  O3         0.2930   -2.2680   -0.4660 O.2     1  UNL1       -0.1498
     14  O4        -0.4300   -2.7200    1.8320 O.2     1  UNL1       -0.1498
     15  C7        -1.9340   -1.1340    0.4330 C.ar    1  UNL1        0.1843
     16  C8        -2.3660   -0.8460   -0.8420 C.ar    1  UNL1        0.1907
     17  F1        -1.4980   -0.9600   -1.8880 F       1  UNL1       -0.2002
     18  C9        -3.6460   -0.4400   -1.1420 C.ar    1  UNL1        0.1983
     19  F2        -4.0120   -0.1700   -2.4220 F       1  UNL1       -0.1993
     20  C10       -4.5690   -0.3080   -0.1190 C.ar    1  UNL1        0.1992
     21  F3        -5.8380    0.0870   -0.3570 F       1  UNL1       -0.1993
     22  C11       -4.1720   -0.5890    1.1780 C.ar    1  UNL1        0.1983
     23  F4        -5.0370   -0.4740    2.2080 F       1  UNL1       -0.1993
     24  C12       -2.8850   -0.9920    1.4460 C.ar    1  UNL1        0.1907
     25  F5        -2.4720   -1.2740    2.7130 F       1  UNL1       -0.2002
     26 H           4.1164   -2.3526    0.8576 H       1  UNL1        0.1442
     27 H           3.5158   -1.8382   -0.6084 H       1  UNL1        0.1442
     28 H           3.8302    2.1336   -0.8140 H       1  UNL1        0.0638
     29 H           2.2092    3.5834   -1.8351 H       1  UNL1        0.0618
     30 H          -0.1544    3.1860   -1.4375 H       1  UNL1        0.0618
     31 H          -0.8010    1.3640   -0.0380 H       1  UNL1        0.0637
     32 H           1.1762   -0.4371    2.1372 H       1  UNL1        0.1737
@<TRIPOS>BOND
     1     1     2    1
     2     2     3    2
     3     2     4    2
     4     2     5    1
     5     5     6   ar
     6     5    10   ar
     7     6     7   ar
     8     7     8   ar
     9     8     9   ar
    10     9    10   ar
    11    10    11    1
    12    11    12    1
    13    12    13    2
    14    12    14    2
    15    12    15    1
    16    15    16   ar
    17    15    24   ar
    18    16    17    1
    19    16    18   ar
    20    18    19    1
    21    18    20   ar
    22    20    21    1
    23    20    22   ar
    24    22    23    1
    25    22    24   ar
    26    24    25    1
    27     1    26    1
    28     1    27    1
    29     6    28    1
    30     7    29    1
    31     8    30    1
    32     9    31    1
    33    11    32    1
@<TRIPOS>MOLECULE
../data/bude_mols_rdkit_confs/molecule_26.pdb
 32 33 0 0 0
SMALL
GASTEIGER

@<TRIPOS>ATOM
      1  N1        -3.6990   -0.8160   -2.3680 N.3     1  UNL1       -0.2035
      2  S1        -2.4840   -1.2530   -1.2110 S.O2    1  UNL1        0.0578
      3  O1        -1.2670   -1.6870   -1.9420 O.2     1  UNL1       -0.1532
      4  O2        -3.0790   -2.3920   -0.3960 O.2     1  UNL1       -0.1532
      5  C1        -2.2010    0.0840   -0.1310 C.ar    1  UNL1        0.1272
      6  C2        -2.8960    1.2560   -0.2730 C.ar    1  UNL1       -0.0335
      7  C3        -2.6890    2.3280    0.5700 C.ar    1  UNL1       -0.0598
      8  C4        -1.7520    2.1780    1.5670 C.ar    1  UNL1       -0.0599
      9  C5        -1.0520    1.0000    1.7130 C.ar    1  UNL1       -0.0374
     10  C6        -1.2490   -0.0810    0.8760 C.ar    1  UNL1        0.0743
     11  N2        -0.5430   -1.3000    1.0300 N.pl3   1  UNL1       -0.2142
     12  S2         1.0750   -1.4620    1.5740 S.O2    1  UNL1        0.0781
     13  O3         1.3870   -2.9460    1.7330 O.2     1  UNL1       -0.1498
     14  O4         1.1740   -0.9300    3.0040 O.2     1  UNL1       -0.1498
     15  C7         2.2540   -0.7010    0.5660 C.ar    1  UNL1        0.1843
     16  C8         2.6810    0.5720    0.7880 C.ar    1  UNL1        0.1907
     17  F1         2.1910    1.2650    1.8320 F       1  UNL1       -0.2002
     18  C9         3.6280    1.2000   -0.0260 C.ar    1  UNL1        0.1983
     19  F2         3.9990    2.4810    0.2710 F       1  UNL1       -0.1993
     20  C10        4.1600    0.5180   -1.0990 C.ar    1  UNL1        0.1992
     21  F3         5.0780    1.1830   -1.8550 F       1  UNL1       -0.1993
     22  C11        3.7530   -0.7600   -1.3490 C.ar    1  UNL1        0.1983
     23  F4         4.2930   -1.4100   -2.4130 F       1  UNL1       -0.1993
     24  C12        2.8180   -1.3610   -0.5340 C.ar    1  UNL1        0.1907
     25  F5         2.3980   -2.6270   -0.7590 F       1  UNL1       -0.2002
     26 H          -3.8641   -1.5994   -3.0000 H       1  UNL1        0.1442
     27 H          -3.3831   -0.0076   -2.9038 H       1  UNL1        0.1442
     28 H          -3.5923    1.3390   -1.0301 H       1  UNL1        0.0638
     29 H          -3.2161    3.2081    0.4576 H       1  UNL1        0.0618
     30 H          -1.5708    2.9601    2.2155 H       1  UNL1        0.0618
     31 H          -0.3578    0.9229    2.4727 H       1  UNL1        0.0637
     32 H          -1.0248   -2.1284    0.8044 H       1  UNL1        0.1737
@<TRIPOS>BOND
     1     1     2    1
     2     2     3    2
     3     2     4    2
     4     2     5    1
     5     5     6   ar
     6     5    10   ar
     7     6     7   ar
     8     7     8   ar
     9     8     9   ar
    10     9    10   ar
    11    10    11    1
    12    11    12    1
    13    12    13    2
    14    12    14    2
    15    12    15    1
    16    15    16   ar
    17    15    24   ar
    18    16    17    1
    19    16    18   ar
    20    18    19    1
    21    18    20   ar
    22    20    21    1
    23    20    22   ar
    24    22    23    1
    25    22    24   ar
    26    24    25    1
    27     1    26    1
    28     1    27    1
    29     6    28    1
    30     7    29    1
    31     8    30    1
    32     9    31    1
    33    11    32    1
@<TRIPOS>MOLECULE
../data/bude_mols_rdkit_confs/molecule_26.pdb
 32 33 0 0 0
SMALL
GASTEIGER

@<TRIPOS>ATOM
      1  N1        -1.7380   -0.3920    2.4210 N.3     1  UNL1       -0.2035
      2  S1        -3.0020   -0.3040    1.2580 S.O2    1  UNL1        0.0578
      3  O1        -4.1350    0.5410    1.7580 O.2     1  UNL1       -0.1532
      4  O2        -3.5050   -1.6830    0.9980 O.2     1  UNL1       -0.1532
      5  C1        -2.3840    0.3560   -0.2310 C.ar    1  UNL1        0.1272
      6  C2        -2.9510    1.5290   -0.7310 C.ar    1  UNL1       -0.0335
      7  C3        -2.5180    2.1110   -1.9050 C.ar    1  UNL1       -0.0598
      8  C4        -1.4950    1.5470   -2.6370 C.ar    1  UNL1       -0.0599
      9  C5        -0.9370    0.3870   -2.1400 C.ar    1  UNL1       -0.0374
     10  C6        -1.3610   -0.2140   -0.9570 C.ar    1  UNL1        0.0743
     11  N2        -0.7740   -1.3980   -0.4930 N.pl3   1  UNL1       -0.2142
     12  S2         0.8390   -1.9070   -0.6890 S.O2    1  UNL1        0.0781
     13  O3         1.1040   -2.0620   -2.1670 O.2     1  UNL1       -0.1498
     14  O4         0.9990   -3.2770   -0.0780 O.2     1  UNL1       -0.1498
     15  C7         2.0260   -0.8860    0.0250 C.ar    1  UNL1        0.1843
     16  C8         2.6420    0.1270   -0.6670 C.ar    1  UNL1        0.1907
     17  F1         2.3640    0.3870   -1.9810 F       1  UNL1       -0.2002
     18  C9         3.5910    0.9370   -0.0550 C.ar    1  UNL1        0.1983
     19  F2         4.1890    1.9300   -0.7480 F       1  UNL1       -0.1993
     20  C10        3.9410    0.7440    1.2650 C.ar    1  UNL1        0.1992
     21  F3         4.8770    1.5400    1.8750 F       1  UNL1       -0.1993
     22  C11        3.3170   -0.2740    1.9460 C.ar    1  UNL1        0.1983
     23  F4         3.6490   -0.4780    3.2470 F       1  UNL1       -0.1993
     24  C12        2.3750   -1.0800    1.3450 C.ar    1  UNL1        0.1907
     25  F5         1.7910   -2.0810    2.0900 F       1  UNL1       -0.2002
     26 H          -2.1031   -0.7787    3.2914 H       1  UNL1        0.1442
     27 H          -1.3685    0.5430    2.5930 H       1  UNL1        0.1442
     28 H          -3.7189    1.9757   -0.2059 H       1  UNL1        0.0638
     29 H          -2.9654    2.9789   -2.2390 H       1  UNL1        0.0618
     30 H          -1.1619    1.9727   -3.5161 H       1  UNL1        0.0618
     31 H          -0.1698   -0.0560   -2.6694 H       1  UNL1        0.0637
     32 H          -1.3640   -2.0083    0.0056 H       1  UNL1        0.1737
@<TRIPOS>BOND
     1     1     2    1
     2     2     3    2
     3     2     4    2
     4     2     5    1
     5     5     6   ar
     6     5    10   ar
     7     6     7   ar
     8     7     8   ar
     9     8     9   ar
    10     9    10   ar
    11    10    11    1
    12    11    12    1
    13    12    13    2
    14    12    14    2
    15    12    15    1
    16    15    16   ar
    17    15    24   ar
    18    16    17    1
    19    16    18   ar
    20    18    19    1
    21    18    20   ar
    22    20    21    1
    23    20    22   ar
    24    22    23    1
    25    22    24   ar
    26    24    25    1
    27     1    26    1
    28     1    27    1
    29     6    28    1
    30     7    29    1
    31     8    30    1
    32     9    31    1
    33    11    32    1
@<TRIPOS>MOLECULE
../data/bude_mols_rdkit_confs/molecule_26.pdb
 32 33 0 0 0
SMALL
GASTEIGER

@<TRIPOS>ATOM
      1  N1        -2.7030    2.9160   -0.8630 N.3     1  UNL1       -0.2035
      2  S1        -1.6310    1.5590   -1.0670 S.O2    1  UNL1        0.0578
      3  O1        -1.6770    1.1890   -2.5260 O.2     1  UNL1       -0.1532
      4  O2        -0.2400    1.8860   -0.6710 O.2     1  UNL1       -0.1532
      5  C1        -2.1850    0.2180   -0.1050 C.ar    1  UNL1        0.1272
      6  C2        -3.3330    0.3590    0.6380 C.ar    1  UNL1       -0.0335
      7  C3        -3.7460   -0.7220    1.3860 C.ar    1  UNL1       -0.0598
      8  C4        -3.0630   -1.9070    1.4100 C.ar    1  UNL1       -0.0599
      9  C5        -1.9030   -2.0130    0.6420 C.ar    1  UNL1       -0.0374
     10  C6        -1.4400   -0.9600   -0.1280 C.ar    1  UNL1        0.0743
     11  N2        -0.2810   -1.0120   -0.9350 N.pl3   1  UNL1       -0.2142
     12  S2         1.1110   -1.8240   -0.3450 S.O2    1  UNL1        0.0781
     13  O3         1.5480   -2.8620   -1.3340 O.2     1  UNL1       -0.1498
     14  O4         0.8090   -2.4070    0.9970 O.2     1  UNL1       -0.1498
     15  C7         2.3760   -0.6150   -0.1110 C.ar    1  UNL1        0.1843
     16  C8         3.2610   -0.3060   -1.1220 C.ar    1  UNL1        0.1907
     17  F1         3.1640   -0.9350   -2.3040 F       1  UNL1       -0.2002
     18  C9         4.2270    0.6480   -0.8840 C.ar    1  UNL1        0.1983
     19  F2         5.0830    0.9380   -1.8800 F       1  UNL1       -0.1993
     20  C10        4.3260    1.3000    0.3430 C.ar    1  UNL1        0.1992
     21  F3         5.2720    2.2370    0.5820 F       1  UNL1       -0.1993
     22  C11        3.4260    0.9680    1.3330 C.ar    1  UNL1        0.1983
     23  F4         3.4690    1.5650    2.5490 F       1  UNL1       -0.1993
     24  C12        2.4390    0.0030    1.1110 C.ar    1  UNL1        0.1907
     25  F5         1.5730   -0.2940    2.1100 F       1  UNL1       -0.2002
     26 H          -2.3732    3.6979   -1.4289 H       1  UNL1        0.1442
     27 H          -2.7207    3.1907    0.1192 H       1  UNL1        0.1442
     28 H          -3.8662    1.2426    0.6356 H       1  UNL1        0.0638
     29 H          -4.6052   -0.6341    1.9509 H       1  UNL1        0.0618
     30 H          -3.3963   -2.7001    1.9800 H       1  UNL1        0.0618
     31 H          -1.3760   -2.9003    0.6482 H       1  UNL1        0.0637
     32 H          -0.2723   -0.5882   -1.8236 H       1  UNL1        0.1737
@<TRIPOS>BOND
     1     1     2    1
     2     2     3    2
     3     2     4    2
     4     2     5    1
     5     5     6   ar
     6     5    10   ar
     7     6     7   ar
     8     7     8   ar
     9     8     9   ar
    10     9    10   ar
    11    10    11    1
    12    11    12    1
    13    12    13    2
    14    12    14    2
    15    12    15    1
    16    15    16   ar
    17    15    24   ar
    18    16    17    1
    19    16    18   ar
    20    18    19    1
    21    18    20   ar
    22    20    21    1
    23    20    22   ar
    24    22    23    1
    25    22    24   ar
    26    24    25    1
    27     1    26    1
    28     1    27    1
    29     6    28    1
    30     7    29    1
    31     8    30    1
    32     9    31    1
    33    11    32    1
@<TRIPOS>MOLECULE
../data/bude_mols_rdkit_confs/molecule_26.pdb
 32 33 0 0 0
SMALL
GASTEIGER

@<TRIPOS>ATOM
      1  N1        -3.4650   -2.5290   -0.8500 N.3     1  UNL1       -0.2035
      2  S1        -2.1960   -1.5120   -1.3910 S.O2    1  UNL1        0.0578
      3  O1        -0.9050   -2.2910   -1.2630 O.2     1  UNL1       -0.1532
      4  O2        -2.4740   -1.1830   -2.8450 O.2     1  UNL1       -0.1532
      5  C1        -2.1000   -0.0750   -0.4120 C.ar    1  UNL1        0.1272
      6  C2        -2.9650    0.1380    0.6340 C.ar    1  UNL1       -0.0335
      7  C3        -2.8940    1.2710    1.4100 C.ar    1  UNL1       -0.0598
      8  C4        -1.9380    2.2250    1.1450 C.ar    1  UNL1       -0.0599
      9  C5        -1.0800    2.0030    0.0990 C.ar    1  UNL1       -0.0374
     10  C6        -1.1130    0.8740   -0.7130 C.ar    1  UNL1        0.0743
     11  N2        -0.2480    0.6510   -1.7980 N.pl3   1  UNL1       -0.2142
     12  S2         1.4020    1.0860   -1.7080 S.O2    1  UNL1        0.0781
     13  O3         2.1110    0.7660   -3.0240 O.2     1  UNL1       -0.1498
     14  O4         1.5580    2.5770   -1.4800 O.2     1  UNL1       -0.1498
     15  C7         2.2890    0.2480   -0.4700 C.ar    1  UNL1        0.1843
     16  C8         2.4460    0.8130    0.7650 C.ar    1  UNL1        0.1907
     17  F1         1.9420    2.0470    1.0600 F       1  UNL1       -0.2002
     18  C9         3.1380    0.1710    1.7910 C.ar    1  UNL1        0.1983
     19  F2         3.2860    0.7420    3.0140 F       1  UNL1       -0.1993
     20  C10        3.6890   -1.0710    1.5720 C.ar    1  UNL1        0.1992
     21  F3         4.3710   -1.7110    2.5710 F       1  UNL1       -0.1993
     22  C11        3.5410   -1.6510    0.3390 C.ar    1  UNL1        0.1983
     23  F4         4.0840   -2.8800    0.1130 F       1  UNL1       -0.1993
     24  C12        2.8460   -0.9960   -0.6760 C.ar    1  UNL1        0.1907
     25  F5         2.7290   -1.6100   -1.8730 F       1  UNL1       -0.2002
     26 H          -3.5047   -3.3636   -1.4350 H       1  UNL1        0.1442
     27 H          -4.3516   -2.0283   -0.9112 H       1  UNL1        0.1442
     28 H          -3.6862   -0.5701    0.8425 H       1  UNL1        0.0638
     29 H          -3.5564    1.4057    2.1898 H       1  UNL1        0.0618
     30 H          -1.8691    3.0816    1.7164 H       1  UNL1        0.0618
     31 H          -0.3638    2.7193   -0.0986 H       1  UNL1        0.0637
     32 H          -0.5974    0.2387   -2.6209 H       1  UNL1        0.1737
@<TRIPOS>BOND
     1     1     2    1
     2     2     3    2
     3     2     4    2
     4     2     5    1
     5     5     6   ar
     6     5    10   ar
     7     6     7   ar
     8     7     8   ar
     9     8     9   ar
    10     9    10   ar
    11    10    11    1
    12    11    12    1
    13    12    13    2
    14    12    14    2
    15    12    15    1
    16    15    16   ar
    17    15    24   ar
    18    16    17    1
    19    16    18   ar
    20    18    19    1
    21    18    20   ar
    22    20    21    1
    23    20    22   ar
    24    22    23    1
    25    22    24   ar
    26    24    25    1
    27     1    26    1
    28     1    27    1
    29     6    28    1
    30     7    29    1
    31     8    30    1
    32     9    31    1
    33    11    32    1
@<TRIPOS>MOLECULE
../data/bude_mols_rdkit_confs/molecule_26.pdb
 32 33 0 0 0
SMALL
GASTEIGER

@<TRIPOS>ATOM
      1  N1        -1.0500   -2.0160    1.7300 N.3     1  UNL1       -0.2035
      2  S1        -2.5010   -1.1730    1.3520 S.O2    1  UNL1        0.0578
      3  O1        -3.0400   -0.4130    2.5520 O.2     1  UNL1       -0.1532
      4  O2        -3.5740   -2.1780    1.0080 O.2     1  UNL1       -0.1532
      5  C1        -2.3130   -0.0700    0.0410 C.ar    1  UNL1        0.1272
      6  C2        -3.0640   -0.2030   -1.0860 C.ar    1  UNL1       -0.0335
      7  C3        -2.9450    0.6620   -2.1610 C.ar    1  UNL1       -0.0598
      8  C4        -2.0410    1.6790   -2.0770 C.ar    1  UNL1       -0.0599
      9  C5        -1.2570    1.8610   -0.9620 C.ar    1  UNL1       -0.0374
     10  C6        -1.3920    0.9800    0.1070 C.ar    1  UNL1        0.0743
     11  N2        -0.6610    1.0710    1.3020 N.pl3   1  UNL1       -0.2142
     12  S2         0.9760    1.5660    1.3050 S.O2    1  UNL1        0.0781
     13  O3         1.1310    2.9360    0.6810 O.2     1  UNL1       -0.1498
     14  O4         1.5400    1.6380    2.6990 O.2     1  UNL1       -0.1498
     15  C7         2.0250    0.4920    0.4030 C.ar    1  UNL1        0.1843
     16  C8         2.3560    0.6720   -0.9190 C.ar    1  UNL1        0.1907
     17  F1         1.8610    1.7520   -1.5610 F       1  UNL1       -0.2002
     18  C9         3.1830   -0.2150   -1.5880 C.ar    1  UNL1        0.1983
     19  F2         3.4650    0.0260   -2.8860 F       1  UNL1       -0.1993
     20  C10        3.7120   -1.3130   -0.9690 C.ar    1  UNL1        0.1992
     21  F3         4.5330   -2.1930   -1.6340 F       1  UNL1       -0.1993
     22  C11        3.3950   -1.5160    0.3580 C.ar    1  UNL1        0.1983
     23  F4         3.9360   -2.6160    0.9470 F       1  UNL1       -0.1993
     24  C12        2.5770   -0.6400    1.0220 C.ar    1  UNL1        0.1907
     25  F5         2.2900   -0.8750    2.3260 F       1  UNL1       -0.2002
     26 H          -1.2193   -2.6517    2.5095 H       1  UNL1        0.1442
     27 H          -0.3253   -1.3464    1.9886 H       1  UNL1        0.1442
     28 H          -3.7461   -0.9755   -1.1416 H       1  UNL1        0.0638
     29 H          -3.5263    0.5397   -3.0049 H       1  UNL1        0.0618
     30 H          -1.9424    2.3299   -2.8717 H       1  UNL1        0.0618
     31 H          -0.5795    2.6383   -0.9186 H       1  UNL1        0.0637
     32 H          -1.0990    0.8456    2.1544 H       1  UNL1        0.1737
@<TRIPOS>BOND
     1     1     2    1
     2     2     3    2
     3     2     4    2
     4     2     5    1
     5     5     6   ar
     6     5    10   ar
     7     6     7   ar
     8     7     8   ar
     9     8     9   ar
    10     9    10   ar
    11    10    11    1
    12    11    12    1
    13    12    13    2
    14    12    14    2
    15    12    15    1
    16    15    16   ar
    17    15    24   ar
    18    16    17    1
    19    16    18   ar
    20    18    19    1
    21    18    20   ar
    22    20    21    1
    23    20    22   ar
    24    22    23    1
    25    22    24   ar
    26    24    25    1
    27     1    26    1
    28     1    27    1
    29     6    28    1
    30     7    29    1
    31     8    30    1
    32     9    31    1
    33    11    32    1
@<TRIPOS>MOLECULE
../data/bude_mols_rdkit_confs/molecule_26.pdb
 32 33 0 0 0
SMALL
GASTEIGER

@<TRIPOS>ATOM
      1  N1        -4.8690   -1.6560    0.1040 N.3     1  UNL1       -0.2035
      2  S1        -3.1510   -1.6610    0.4550 S.O2    1  UNL1        0.0578
      3  O1        -2.6420   -2.9760   -0.0860 O.2     1  UNL1       -0.1532
      4  O2        -3.0190   -1.5460    1.9230 O.2     1  UNL1       -0.1532
      5  C1        -2.4770   -0.2920   -0.3970 C.ar    1  UNL1        0.1272
      6  C2        -3.2660    0.5120   -1.1900 C.ar    1  UNL1       -0.0335
      7  C3        -2.7460    1.5850   -1.8700 C.ar    1  UNL1       -0.0598
      8  C4        -1.4060    1.8540   -1.7500 C.ar    1  UNL1       -0.0599
      9  C5        -0.6070    1.0350   -0.9420 C.ar    1  UNL1       -0.0374
     10  C6        -1.1010   -0.0470   -0.2490 C.ar    1  UNL1        0.0743
     11  N2        -0.3690   -0.9070    0.5720 N.pl3   1  UNL1       -0.2142
     12  S2         0.9820   -0.6060    1.5380 S.O2    1  UNL1        0.0781
     13  O3         1.3660   -1.8330    2.3610 O.2     1  UNL1       -0.1498
     14  O4         0.5820    0.4920    2.5270 O.2     1  UNL1       -0.1498
     15  C7         2.4220   -0.0750    0.7840 C.ar    1  UNL1        0.1843
     16  C8         2.7600    1.2550    0.6950 C.ar    1  UNL1        0.1907
     17  F1         1.8860    2.1330    1.2440 F       1  UNL1       -0.2002
     18  C9         3.9320    1.6550    0.0770 C.ar    1  UNL1        0.1983
     19  F2         4.2090    2.9620    0.0190 F       1  UNL1       -0.1993
     20  C10        4.7580    0.6740   -0.4520 C.ar    1  UNL1        0.1992
     21  F3         5.9010    1.0700   -1.0550 F       1  UNL1       -0.1993
     22  C11        4.4470   -0.6720   -0.3790 C.ar    1  UNL1        0.1983
     23  F4         5.3060   -1.5920   -0.9220 F       1  UNL1       -0.1993
     24  C12        3.2710   -1.0510    0.2430 C.ar    1  UNL1        0.1907
     25  F5         2.9600   -2.3750    0.3180 F       1  UNL1       -0.2002
     26 H          -5.3155   -2.4400    0.5797 H       1  UNL1        0.1442
     27 H          -5.0107   -1.7436   -0.9023 H       1  UNL1        0.1442
     28 H          -4.2729    0.3024   -1.2749 H       1  UNL1        0.0638
     29 H          -3.3510    2.1776   -2.4598 H       1  UNL1        0.0618
     30 H          -0.9897    2.6541   -2.2515 H       1  UNL1        0.0618
     31 H           0.3986    1.2528   -0.8625 H       1  UNL1        0.0637
     32 H          -0.6922   -1.8367    0.5904 H       1  UNL1        0.1737
@<TRIPOS>BOND
     1     1     2    1
     2     2     3    2
     3     2     4    2
     4     2     5    1
     5     5     6   ar
     6     5    10   ar
     7     6     7   ar
     8     7     8   ar
     9     8     9   ar
    10     9    10   ar
    11    10    11    1
    12    11    12    1
    13    12    13    2
    14    12    14    2
    15    12    15    1
    16    15    16   ar
    17    15    24   ar
    18    16    17    1
    19    16    18   ar
    20    18    19    1
    21    18    20   ar
    22    20    21    1
    23    20    22   ar
    24    22    23    1
    25    22    24   ar
    26    24    25    1
    27     1    26    1
    28     1    27    1
    29     6    28    1
    30     7    29    1
    31     8    30    1
    32     9    31    1
    33    11    32    1
@<TRIPOS>MOLECULE
../data/bude_mols_rdkit_confs/molecule_26.pdb
 32 33 0 0 0
SMALL
GASTEIGER

@<TRIPOS>ATOM
      1  N1        -0.8570    2.5820    0.4680 N.3     1  UNL1       -0.2035
      2  S1        -2.3550    1.7970    0.8910 S.O2    1  UNL1        0.0578
      3  O1        -3.4260    2.5580    0.1290 O.2     1  UNL1       -0.1532
      4  O2        -2.6160    2.0100    2.3260 O.2     1  UNL1       -0.1532
      5  C1        -2.3110    0.1910    0.3370 C.ar    1  UNL1        0.1272
      6  C2        -3.2420   -0.2740   -0.5650 C.ar    1  UNL1       -0.0335
      7  C3        -3.2100   -1.5940   -1.0210 C.ar    1  UNL1       -0.0598
      8  C4        -2.2200   -2.4390   -0.5500 C.ar    1  UNL1       -0.0599
      9  C5        -1.2760   -1.9910    0.3560 C.ar    1  UNL1       -0.0374
     10  C6        -1.3280   -0.6760    0.7940 C.ar    1  UNL1        0.0743
     11  N2        -0.4100   -0.1770    1.7220 N.pl3   1  UNL1       -0.2142
     12  S2         1.2410   -0.6550    1.7590 S.O2    1  UNL1        0.0781
     13  O3         1.4010   -2.1290    1.9780 O.2     1  UNL1       -0.1498
     14  O4         2.0090    0.0080    2.8830 O.2     1  UNL1       -0.1498
     15  C7         2.0180   -0.2060    0.2580 C.ar    1  UNL1        0.1843
     16  C8         2.5280    1.0870    0.1790 C.ar    1  UNL1        0.1907
     17  F1         2.4270    1.9720    1.2020 F       1  UNL1       -0.2002
     18  C9         3.1640    1.5220   -0.9590 C.ar    1  UNL1        0.1983
     19  F2         3.6640    2.7780   -1.0490 F       1  UNL1       -0.1993
     20  C10        3.2810    0.6500   -2.0060 C.ar    1  UNL1        0.1992
     21  F3         3.9050    1.0460   -3.1500 F       1  UNL1       -0.1993
     22  C11        2.7920   -0.6310   -1.9650 C.ar    1  UNL1        0.1983
     23  F4         2.9180   -1.4890   -3.0200 F       1  UNL1       -0.1993
     24  C12        2.1450   -1.0670   -0.8020 C.ar    1  UNL1        0.1907
     25  F5         1.6730   -2.3340   -0.7530 F       1  UNL1       -0.2002
     26 H          -0.8744    3.5474    0.7969 H       1  UNL1        0.1442
     27 H          -0.7412    2.5700   -0.5453 H       1  UNL1        0.1442
     28 H          -3.9762    0.3639   -0.9101 H       1  UNL1        0.0638
     29 H          -3.9121   -1.9332   -1.6971 H       1  UNL1        0.0618
     30 H          -2.1858   -3.4164   -0.8793 H       1  UNL1        0.0618
     31 H          -0.5414   -2.6278    0.7022 H       1  UNL1        0.0637
     32 H          -0.7234    0.4791    2.3857 H       1  UNL1        0.1737
@<TRIPOS>BOND
     1     1     2    1
     2     2     3    2
     3     2     4    2
     4     2     5    1
     5     5     6   ar
     6     5    10   ar
     7     6     7   ar
     8     7     8   ar
     9     8     9   ar
    10     9    10   ar
    11    10    11    1
    12    11    12    1
    13    12    13    2
    14    12    14    2
    15    12    15    1
    16    15    16   ar
    17    15    24   ar
    18    16    17    1
    19    16    18   ar
    20    18    19    1
    21    18    20   ar
    22    20    21    1
    23    20    22   ar
    24    22    23    1
    25    22    24   ar
    26    24    25    1
    27     1    26    1
    28     1    27    1
    29     6    28    1
    30     7    29    1
    31     8    30    1
    32     9    31    1
    33    11    32    1
@<TRIPOS>MOLECULE
../data/bude_mols_rdkit_confs/molecule_26.pdb
 32 33 0 0 0
SMALL
GASTEIGER

@<TRIPOS>ATOM
      1  N1        -4.9920   -0.7090   -0.8110 N.3     1  UNL1       -0.2035
      2  S1        -3.3300   -1.1130   -0.6070 S.O2    1  UNL1        0.0578
      3  O1        -3.3040   -2.3440    0.2900 O.2     1  UNL1       -0.1532
      4  O2        -2.7110   -1.5100   -1.9140 O.2     1  UNL1       -0.1532
      5  C1        -2.4370    0.1870    0.1400 C.ar    1  UNL1        0.1272
      6  C2        -3.0670    1.3740    0.4990 C.ar    1  UNL1       -0.0335
      7  C3        -2.3390    2.3920    1.0910 C.ar    1  UNL1       -0.0598
      8  C4        -0.9900    2.2020    1.3120 C.ar    1  UNL1       -0.0599
      9  C5        -0.3550    1.0080    0.9510 C.ar    1  UNL1       -0.0374
     10  C6        -1.0710   -0.0090    0.3620 C.ar    1  UNL1        0.0743
     11  N2        -0.5320   -1.2640   -0.0220 N.pl3   1  UNL1       -0.2142
     12  S2         0.8210   -1.4060   -1.0430 S.O2    1  UNL1        0.0781
     13  O3         0.5250   -0.7450   -2.3900 O.2     1  UNL1       -0.1498
     14  O4         1.0430   -2.8700   -1.4040 O.2     1  UNL1       -0.1498
     15  C7         2.2820   -0.7140   -0.4600 C.ar    1  UNL1        0.1843
     16  C8         2.7150    0.5730   -0.7750 C.ar    1  UNL1        0.1907
     17  F1         1.8810    1.2740   -1.6010 F       1  UNL1       -0.2002
     18  C9         3.8710    1.1200   -0.3130 C.ar    1  UNL1        0.1983
     19  F2         4.2240    2.3820   -0.6660 F       1  UNL1       -0.1993
     20  C10        4.6890    0.3890    0.5180 C.ar    1  UNL1        0.1992
     21  F3         5.8560    0.8930    1.0050 F       1  UNL1       -0.1993
     22  C11        4.2950   -0.8880    0.8520 C.ar    1  UNL1        0.1983
     23  F4         5.0760   -1.6400    1.6690 F       1  UNL1       -0.1993
     24  C12        3.1220   -1.4380    0.3810 C.ar    1  UNL1        0.1907
     25  F5         2.8000   -2.7090    0.7570 F       1  UNL1       -0.2002
     26 H          -5.4805   -1.4900   -1.2490 H       1  UNL1        0.1442
     27 H          -5.0708    0.1170   -1.4042 H       1  UNL1        0.1442
     28 H          -4.0768    1.4958    0.3241 H       1  UNL1        0.0638
     29 H          -2.7966    3.2764    1.3620 H       1  UNL1        0.0618
     30 H          -0.4386    2.9551    1.7521 H       1  UNL1        0.0618
     31 H           0.6549    0.8898    1.1274 H       1  UNL1        0.0637
     32 H          -0.9578   -2.0849    0.3158 H       1  UNL1        0.1737
@<TRIPOS>BOND
     1     1     2    1
     2     2     3    2
     3     2     4    2
     4     2     5    1
     5     5     6   ar
     6     5    10   ar
     7     6     7   ar
     8     7     8   ar
     9     8     9   ar
    10     9    10   ar
    11    10    11    1
    12    11    12    1
    13    12    13    2
    14    12    14    2
    15    12    15    1
    16    15    16   ar
    17    15    24   ar
    18    16    17    1
    19    16    18   ar
    20    18    19    1
    21    18    20   ar
    22    20    21    1
    23    20    22   ar
    24    22    23    1
    25    22    24   ar
    26    24    25    1
    27     1    26    1
    28     1    27    1
    29     6    28    1
    30     7    29    1
    31     8    30    1
    32     9    31    1
    33    11    32    1
@<TRIPOS>MOLECULE
../data/bude_mols_rdkit_confs/molecule_26.pdb
 32 33 0 0 0
SMALL
GASTEIGER

@<TRIPOS>ATOM
      1  N1        -3.3900    0.2980   -2.4130 N.3     1  UNL1       -0.2035
      2  S1        -3.4050   -0.8450   -1.1170 S.O2    1  UNL1        0.0578
      3  O1        -4.8440   -1.1280   -0.8010 O.2     1  UNL1       -0.1532
      4  O2        -2.8160   -2.1170   -1.6490 O.2     1  UNL1       -0.1532
      5  C1        -2.5410   -0.2500    0.2680 C.ar    1  UNL1        0.1272
      6  C2        -3.1590   -0.0780    1.4790 C.ar    1  UNL1       -0.0335
      7  C3        -2.5150    0.3900    2.6020 C.ar    1  UNL1       -0.0598
      8  C4        -1.1770    0.7080    2.5210 C.ar    1  UNL1       -0.0599
      9  C5        -0.5310    0.5420    1.3040 C.ar    1  UNL1       -0.0374
     10  C6        -1.1770    0.0710    0.1790 C.ar    1  UNL1        0.0743
     11  N2        -0.5670   -0.0970   -1.0880 N.pl3   1  UNL1       -0.2142
     12  S2         0.8730   -0.9400   -1.4270 S.O2    1  UNL1        0.0781
     13  O3         0.7760   -2.3890   -0.9630 O.2     1  UNL1       -0.1498
     14  O4         1.1000   -0.9240   -2.9290 O.2     1  UNL1       -0.1498
     15  C7         2.2720   -0.2790   -0.6280 C.ar    1  UNL1        0.1843
     16  C8         2.9830    0.7660   -1.1900 C.ar    1  UNL1        0.1907
     17  F1         2.5790    1.3120   -2.3690 F       1  UNL1       -0.2002
     18  C9         4.0930    1.2320   -0.5370 C.ar    1  UNL1        0.1983
     19  F2         4.8050    2.2460   -1.0560 F       1  UNL1       -0.1993
     20  C10        4.5290    0.6910    0.6710 C.ar    1  UNL1        0.1992
     21  F3         5.6230    1.1680    1.2940 F       1  UNL1       -0.1993
     22  C11        3.8200   -0.3520    1.2350 C.ar    1  UNL1        0.1983
     23  F4         4.2290   -0.9020    2.4230 F       1  UNL1       -0.1993
     24  C12        2.7120   -0.8060    0.5660 C.ar    1  UNL1        0.1907
     25  F5         2.0070   -1.8300    1.1080 F       1  UNL1       -0.2002
     26 H          -3.9044   -0.0821   -3.2075 H       1  UNL1        0.1442
     27 H          -2.4264    0.4853   -2.6900 H       1  UNL1        0.1442
     28 H          -4.1614   -0.3120    1.5530 H       1  UNL1        0.0638
     29 H          -3.0268    0.5010    3.4912 H       1  UNL1        0.0618
     30 H          -0.6672    1.0613    3.3458 H       1  UNL1        0.0618
     31 H           0.4710    0.7799    1.2377 H       1  UNL1        0.0637
     32 H          -1.0244    0.3180   -1.8547 H       1  UNL1        0.1737
@<TRIPOS>BOND
     1     1     2    1
     2     2     3    2
     3     2     4    2
     4     2     5    1
     5     5     6   ar
     6     5    10   ar
     7     6     7   ar
     8     7     8   ar
     9     8     9   ar
    10     9    10   ar
    11    10    11    1
    12    11    12    1
    13    12    13    2
    14    12    14    2
    15    12    15    1
    16    15    16   ar
    17    15    24   ar
    18    16    17    1
    19    16    18   ar
    20    18    19    1
    21    18    20   ar
    22    20    21    1
    23    20    22   ar
    24    22    23    1
    25    22    24   ar
    26    24    25    1
    27     1    26    1
    28     1    27    1
    29     6    28    1
    30     7    29    1
    31     8    30    1
    32     9    31    1
    33    11    32    1
