@<TRIPOS>MOLECULE
../data/bude_mols_rdkit_confs/molecule_5.pdb
 28 29 0 0 0
SMALL
GASTEIGER

@<TRIPOS>ATOM
      1 O           0.8790   -1.7970   -1.8740 O.2     1  UNL1       -0.2866
      2 C           0.7610   -0.9330   -0.9600 C.2     1  UNL1        0.1962
      3 C          -0.6000   -0.5930   -0.5440 C.ar    1  UNL1        0.0324
      4 C          -1.6290   -1.5200   -0.6570 C.ar    1  UNL1       -0.0053
      5 C          -2.9220   -1.2310   -0.2870 C.ar    1  UNL1        0.1659
      6 O          -3.9290   -2.1730   -0.4100 O.3     1  UNL1       -0.5031
      7 C          -3.2510    0.0050    0.2180 C.ar    1  UNL1        0.2370
      8 O          -4.5690    0.3120    0.6020 O.3     1  UNL1       -0.4989
      9 C          -2.2410    0.9340    0.3360 C.ar    1  UNL1        0.3184
     10 N          -2.6070    2.2150    0.8610 N.pl3   1  UNL1        0.0836
     11 O          -3.5250    2.3250    1.6970 O.2     1  UNL1        0.0416
     12 O          -1.9240    3.3130    0.4200 O.co2   1  UNL1       -0.5759
     13 C          -0.9420    0.6410   -0.0380 C.ar    1  UNL1        0.0304
     14 C           1.9570   -0.3560   -0.4010 C.ar    1  UNL1        0.0574
     15 C           2.0370    0.1420    0.8880 C.ar    1  UNL1       -0.0481
     16 C           3.2020    0.6820    1.4000 C.ar    1  UNL1       -0.0609
     17 C           4.3460    0.7390    0.6180 C.ar    1  UNL1       -0.0590
     18 C           4.2960    0.2540   -0.6610 C.ar    1  UNL1       -0.0257
     19 C           3.1200   -0.2820   -1.1550 C.ar    1  UNL1        0.1342
     20 F           3.1360   -0.7450   -2.4300 F       1  UNL1       -0.2047
     21 H          -1.4158   -2.4577   -1.0315 H       1  UNL1        0.0662
     22 H          -3.7353   -3.0240   -0.7509 H       1  UNL1        0.2923
     23 H          -5.2443   -0.3317    0.5151 H       1  UNL1        0.2925
     24 H          -0.2125    1.3638    0.0645 H       1  UNL1        0.0694
     25 H           1.1978    0.1090    1.4877 H       1  UNL1        0.0625
     26 H           3.2205    1.0436    2.3664 H       1  UNL1        0.0618
     27 H           5.2195    1.1400    0.9938 H       1  UNL1        0.0618
     28 H           5.1371    0.2882   -1.2580 H       1  UNL1        0.0646
@<TRIPOS>UNITY_ATOM_ATTR
10 1
charge 1
12 1
charge -1
@<TRIPOS>BOND
     1     1     2    2
     2     2     3    1
     3     2    14    1
     4     3     4   ar
     5     3    13   ar
     6     4     5   ar
     7     5     6    1
     8     5     7   ar
     9     7     8    1
    10     7     9   ar
    11     9    10    1
    12     9    13   ar
    13    10    11    2
    14    10    12    1
    15    14    15   ar
    16    14    19   ar
    17    15    16   ar
    18    16    17   ar
    19    17    18   ar
    20    18    19   ar
    21    19    20    1
    22     4    21    1
    23     6    22    1
    24     8    23    1
    25    13    24    1
    26    15    25    1
    27    16    26    1
    28    17    27    1
    29    18    28    1
@<TRIPOS>MOLECULE
../data/bude_mols_rdkit_confs/molecule_5.pdb
 28 29 0 0 0
SMALL
GASTEIGER

@<TRIPOS>ATOM
      1 O           0.7460   -2.3940    1.1540 O.2     1  UNL1       -0.2866
      2 C           0.6570   -1.2730    0.5890 C.2     1  UNL1        0.1962
      3 C          -0.6680   -0.7570    0.2900 C.ar    1  UNL1        0.0324
      4 C          -1.7120   -1.6580    0.0700 C.ar    1  UNL1       -0.0053
      5 C          -2.9570   -1.1370   -0.2010 C.ar    1  UNL1        0.1659
      6 O          -4.0330   -1.9810   -0.4280 O.3     1  UNL1       -0.5031
      7 C          -3.1410    0.2240   -0.2480 C.ar    1  UNL1        0.2370
      8 O          -4.4060    0.7590   -0.5220 O.3     1  UNL1       -0.4989
      9 C          -2.1200    1.1220   -0.0330 C.ar    1  UNL1        0.3184
     10 N          -2.3470    2.5320   -0.0920 N.pl3   1  UNL1        0.0836
     11 O          -3.2060    3.0330   -0.8480 O.2     1  UNL1        0.0416
     12 O          -1.5890    3.3410    0.7140 O.co2   1  UNL1       -0.5759
     13 C          -0.8550    0.6010    0.2430 C.ar    1  UNL1        0.0304
     14 C           1.8860   -0.5690    0.2740 C.ar    1  UNL1        0.0574
     15 C           2.0340    0.3110   -0.7730 C.ar    1  UNL1       -0.0481
     16 C           3.2360    0.9640   -1.0530 C.ar    1  UNL1       -0.0609
     17 C           4.3350    0.7210   -0.2470 C.ar    1  UNL1       -0.0590
     18 C           4.2050   -0.1580    0.8060 C.ar    1  UNL1       -0.0257
     19 C           3.0140   -0.7950    1.0720 C.ar    1  UNL1        0.1342
     20 F           2.8860   -1.6710    2.1180 F       1  UNL1       -0.2047
     21 H          -1.5558   -2.6774    0.1092 H       1  UNL1        0.0662
     22 H          -3.9144   -2.9100   -0.3974 H       1  UNL1        0.2923
     23 H          -5.1329    0.1880   -0.6754 H       1  UNL1        0.2925
     24 H          -0.0604    1.2375    0.4117 H       1  UNL1        0.0694
     25 H           1.2196    0.4970   -1.3790 H       1  UNL1        0.0625
     26 H           3.3041    1.6178   -1.8486 H       1  UNL1        0.0618
     27 H           5.2356    1.1899   -0.4316 H       1  UNL1        0.0618
     28 H           5.0207   -0.3434    1.4103 H       1  UNL1        0.0646
@<TRIPOS>UNITY_ATOM_ATTR
10 1
charge 1
12 1
charge -1
@<TRIPOS>BOND
     1     1     2    2
     2     2     3    1
     3     2    14    1
     4     3     4   ar
     5     3    13   ar
     6     4     5   ar
     7     5     6    1
     8     5     7   ar
     9     7     8    1
    10     7     9   ar
    11     9    10    1
    12     9    13   ar
    13    10    11    2
    14    10    12    1
    15    14    15   ar
    16    14    19   ar
    17    15    16   ar
    18    16    17   ar
    19    17    18   ar
    20    18    19   ar
    21    19    20    1
    22     4    21    1
    23     6    22    1
    24     8    23    1
    25    13    24    1
    26    15    25    1
    27    16    26    1
    28    17    27    1
    29    18    28    1
@<TRIPOS>MOLECULE
../data/bude_mols_rdkit_confs/molecule_5.pdb
 28 29 0 0 0
SMALL
GASTEIGER

@<TRIPOS>ATOM
      1 O           0.4060    1.7220    1.6710 O.2     1  UNL1       -0.2866
      2 C           0.5550    0.7340    0.8230 C.2     1  UNL1        0.1962
      3 C          -0.6520    0.2150    0.2410 C.ar    1  UNL1        0.0324
      4 C          -0.8320   -1.0080   -0.3340 C.ar    1  UNL1       -0.0053
      5 C          -2.0620   -1.4230   -0.8720 C.ar    1  UNL1        0.1659
      6 O          -2.1960   -2.6690   -1.4430 O.3     1  UNL1       -0.5031
      7 C          -3.1650   -0.5930   -0.8400 C.ar    1  UNL1        0.2370
      8 O          -4.3520   -1.0510   -1.3780 O.3     1  UNL1       -0.4989
      9 C          -3.0090    0.6510   -0.2630 C.ar    1  UNL1        0.3184
     10 N          -4.1120    1.5550   -0.2130 N.pl3   1  UNL1        0.0836
     11 O          -5.2600    1.1800   -0.0810 O.2     1  UNL1        0.0416
     12 O          -3.8610    2.9070   -0.3030 O.co2   1  UNL1       -0.5759
     13 C          -1.7880    1.0360    0.2590 C.ar    1  UNL1        0.0304
     14 C           1.9180    0.3340    0.6110 C.ar    1  UNL1        0.0574
     15 C           2.7750    1.3240    0.0560 C.ar    1  UNL1       -0.0481
     16 C           4.0990    1.0660   -0.1800 C.ar    1  UNL1       -0.0609
     17 C           4.6540   -0.1770    0.1130 C.ar    1  UNL1       -0.0590
     18 C           3.8390   -1.1410    0.6430 C.ar    1  UNL1       -0.0257
     19 C           2.4760   -0.8760    0.8890 C.ar    1  UNL1        0.1342
     20 F           1.7510   -1.8710    1.4470 F       1  UNL1       -0.2047
     21 H          -0.0305   -1.6568   -0.3759 H       1  UNL1        0.0662
     22 H          -1.4619   -3.2503   -1.4766 H       1  UNL1        0.2923
     23 H          -4.3953   -1.9070   -1.7566 H       1  UNL1        0.2925
     24 H          -1.7091    1.9737    0.6826 H       1  UNL1        0.0694
     25 H           2.3918    2.2544   -0.1732 H       1  UNL1        0.0625
     26 H           4.6959    1.8057   -0.5820 H       1  UNL1        0.0618
     27 H           5.6528   -0.3665   -0.0646 H       1  UNL1        0.0618
     28 H           4.2263   -2.0715    0.8648 H       1  UNL1        0.0646
@<TRIPOS>UNITY_ATOM_ATTR
10 1
charge 1
12 1
charge -1
@<TRIPOS>BOND
     1     1     2    2
     2     2     3    1
     3     2    14    1
     4     3     4   ar
     5     3    13   ar
     6     4     5   ar
     7     5     6    1
     8     5     7   ar
     9     7     8    1
    10     7     9   ar
    11     9    10    1
    12     9    13   ar
    13    10    11    2
    14    10    12    1
    15    14    15   ar
    16    14    19   ar
    17    15    16   ar
    18    16    17   ar
    19    17    18   ar
    20    18    19   ar
    21    19    20    1
    22     4    21    1
    23     6    22    1
    24     8    23    1
    25    13    24    1
    26    15    25    1
    27    16    26    1
    28    17    27    1
    29    18    28    1
@<TRIPOS>MOLECULE
../data/bude_mols_rdkit_confs/molecule_5.pdb
 28 29 0 0 0
SMALL
GASTEIGER

@<TRIPOS>ATOM
      1 O           0.0290    1.4030    2.3010 O.2     1  UNL1       -0.2866
      2 C           0.2470    0.9280    1.1550 C.2     1  UNL1        0.1962
      3 C          -0.6750   -0.0370    0.5200 C.ar    1  UNL1        0.0324
      4 C          -0.7100   -0.1390   -0.8550 C.ar    1  UNL1       -0.0053
      5 C          -1.5750   -1.0800   -1.4750 C.ar    1  UNL1        0.1659
      6 O          -1.5780   -1.1480   -2.8450 O.3     1  UNL1       -0.5031
      7 C          -2.3590   -1.8680   -0.7120 C.ar    1  UNL1        0.2370
      8 O          -3.2260   -2.8110   -1.2340 O.3     1  UNL1       -0.4989
      9 C          -2.3210   -1.7610    0.6650 C.ar    1  UNL1        0.3184
     10 N          -3.1450   -2.5940    1.4610 N.pl3   1  UNL1        0.0836
     11 O          -2.7550   -2.8630    2.6120 O.2     1  UNL1        0.0416
     12 O          -4.3220   -3.1130    1.0480 O.co2   1  UNL1       -0.5759
     13 C          -1.4740   -0.8390    1.2920 C.ar    1  UNL1        0.0304
     14 C           1.4470    1.3530    0.4590 C.ar    1  UNL1        0.0574
     15 C           2.1850    0.5240   -0.3620 C.ar    1  UNL1       -0.0481
     16 C           3.3410    0.9580   -0.9890 C.ar    1  UNL1       -0.0609
     17 C           3.7840    2.2400   -0.8070 C.ar    1  UNL1       -0.0590
     18 C           3.0470    3.0930    0.0230 C.ar    1  UNL1       -0.0257
     19 C           1.8970    2.6350    0.6370 C.ar    1  UNL1        0.1342
     20 F           1.2120    3.5150    1.4430 F       1  UNL1       -0.2047
     21 H          -0.1081    0.4680   -1.4332 H       1  UNL1        0.0662
     22 H          -1.0194   -0.5844   -3.3433 H       1  UNL1        0.2923
     23 H          -3.2911   -2.9248   -2.1618 H       1  UNL1        0.2925
     24 H          -1.4518   -0.7645    2.3211 H       1  UNL1        0.0694
     25 H           1.8664   -0.4460   -0.5126 H       1  UNL1        0.0625
     26 H           3.8703    0.3124   -1.5957 H       1  UNL1        0.0618
     27 H           4.6437    2.5711   -1.2721 H       1  UNL1        0.0618
     28 H           3.3625    4.0636    0.1762 H       1  UNL1        0.0646
@<TRIPOS>UNITY_ATOM_ATTR
10 1
charge 1
12 1
charge -1
@<TRIPOS>BOND
     1     1     2    2
     2     2     3    1
     3     2    14    1
     4     3     4   ar
     5     3    13   ar
     6     4     5   ar
     7     5     6    1
     8     5     7   ar
     9     7     8    1
    10     7     9   ar
    11     9    10    1
    12     9    13   ar
    13    10    11    2
    14    10    12    1
    15    14    15   ar
    16    14    19   ar
    17    15    16   ar
    18    16    17   ar
    19    17    18   ar
    20    18    19   ar
    21    19    20    1
    22     4    21    1
    23     6    22    1
    24     8    23    1
    25    13    24    1
    26    15    25    1
    27    16    26    1
    28    17    27    1
    29    18    28    1
@<TRIPOS>MOLECULE
../data/bude_mols_rdkit_confs/molecule_5.pdb
 28 29 0 0 0
SMALL
GASTEIGER

@<TRIPOS>ATOM
      1 O           0.8770   -1.9210   -1.6000 O.2     1  UNL1       -0.2866
      2 C           0.7540   -0.9240   -0.7870 C.2     1  UNL1        0.1962
      3 C          -0.5940   -0.4920   -0.5050 C.ar    1  UNL1        0.0324
      4 C          -1.6530   -1.4000   -0.7220 C.ar    1  UNL1       -0.0053
      5 C          -2.9530   -1.0960   -0.4760 C.ar    1  UNL1        0.1659
      6 O          -3.9630   -2.0370   -0.7100 O.3     1  UNL1       -0.5031
      7 C          -3.3210    0.1400    0.0090 C.ar    1  UNL1        0.2370
      8 O          -4.6540    0.4470    0.2600 O.3     1  UNL1       -0.4989
      9 C          -2.3030    1.0450    0.2300 C.ar    1  UNL1        0.3184
     10 N          -2.6550    2.3420    0.7310 N.pl3   1  UNL1        0.0836
     11 O          -3.7540    2.8460    0.4190 O.2     1  UNL1        0.0416
     12 O          -1.8070    3.0240    1.5400 O.co2   1  UNL1       -0.5759
     13 C          -0.9780    0.7180   -0.0270 C.ar    1  UNL1        0.0304
     14 C           1.9830   -0.3760   -0.2640 C.ar    1  UNL1        0.0574
     15 C           2.3380    0.9470   -0.3580 C.ar    1  UNL1       -0.0481
     16 C           3.5670    1.3900    0.1370 C.ar    1  UNL1       -0.0609
     17 C           4.4590    0.5250    0.7280 C.ar    1  UNL1       -0.0590
     18 C           4.1290   -0.8020    0.8330 C.ar    1  UNL1       -0.0257
     19 C           2.9230   -1.2290    0.3470 C.ar    1  UNL1        0.1342
     20 F           2.6130   -2.5370    0.4560 F       1  UNL1       -0.2047
     21 H          -1.4282   -2.3396   -1.0849 H       1  UNL1        0.0662
     22 H          -3.7446   -2.8865   -1.0397 H       1  UNL1        0.2923
     23 H          -5.3203   -0.1917    0.0986 H       1  UNL1        0.2925
     24 H          -0.2518    1.4285    0.1541 H       1  UNL1        0.0694
     25 H           1.6913    1.6201   -0.7982 H       1  UNL1        0.0625
     26 H           3.8116    2.3894    0.0575 H       1  UNL1        0.0618
     27 H           5.3631    0.8697    1.0870 H       1  UNL1        0.0618
     28 H           4.7815   -1.4698    1.2727 H       1  UNL1        0.0646
@<TRIPOS>UNITY_ATOM_ATTR
10 1
charge 1
12 1
charge -1
@<TRIPOS>BOND
     1     1     2    2
     2     2     3    1
     3     2    14    1
     4     3     4   ar
     5     3    13   ar
     6     4     5   ar
     7     5     6    1
     8     5     7   ar
     9     7     8    1
    10     7     9   ar
    11     9    10    1
    12     9    13   ar
    13    10    11    2
    14    10    12    1
    15    14    15   ar
    16    14    19   ar
    17    15    16   ar
    18    16    17   ar
    19    17    18   ar
    20    18    19   ar
    21    19    20    1
    22     4    21    1
    23     6    22    1
    24     8    23    1
    25    13    24    1
    26    15    25    1
    27    16    26    1
    28    17    27    1
    29    18    28    1
@<TRIPOS>MOLECULE
../data/bude_mols_rdkit_confs/molecule_5.pdb
 28 29 0 0 0
SMALL
GASTEIGER

@<TRIPOS>ATOM
      1 O          -0.9690    2.4290    0.2440 O.2     1  UNL1       -0.2866
      2 C          -0.8130    1.1500    0.1880 C.2     1  UNL1        0.1962
      3 C           0.5440    0.6370    0.0970 C.ar    1  UNL1        0.0324
      4 C           0.8700   -0.6950   -0.0280 C.ar    1  UNL1       -0.0053
      5 C           2.1970   -1.1250   -0.0950 C.ar    1  UNL1        0.1659
      6 O           2.5170   -2.4740   -0.2230 O.3     1  UNL1       -0.5031
      7 C           3.2210   -0.2370   -0.0380 C.ar    1  UNL1        0.2370
      8 O           4.5360   -0.6680   -0.1040 O.3     1  UNL1       -0.4989
      9 C           2.9380    1.1120    0.0870 C.ar    1  UNL1        0.3184
     10 N           4.0150    2.0380    0.1550 N.pl3   1  UNL1        0.0836
     11 O           5.1070    1.8750   -0.4210 O.2     1  UNL1        0.0416
     12 O           3.8870    3.2000    0.8970 O.co2   1  UNL1       -0.5759
     13 C           1.6240    1.5140    0.1510 C.ar    1  UNL1        0.0304
     14 C          -2.0190    0.3590    0.2330 C.ar    1  UNL1        0.0574
     15 C          -2.3440   -0.6360   -0.6560 C.ar    1  UNL1       -0.0481
     16 C          -3.5330   -1.3420   -0.5580 C.ar    1  UNL1       -0.0609
     17 C          -4.4550   -1.0940    0.4280 C.ar    1  UNL1       -0.0590
     18 C          -4.1400   -0.0870    1.3370 C.ar    1  UNL1       -0.0257
     19 C          -2.9640    0.6120    1.2390 C.ar    1  UNL1        0.1342
     20 F          -2.6650    1.5900    2.1290 F       1  UNL1       -0.2047
     21 H           0.1129   -1.3948   -0.0734 H       1  UNL1        0.0662
     22 H           1.8351   -3.1153   -0.2654 H       1  UNL1        0.2923
     23 H           4.7259   -1.5816   -0.1886 H       1  UNL1        0.2925
     24 H           1.4276    2.5228    0.2443 H       1  UNL1        0.0694
     25 H          -1.6856   -0.8642   -1.4172 H       1  UNL1        0.0625
     26 H          -3.7320   -2.0803   -1.2511 H       1  UNL1        0.0618
     27 H          -5.3366   -1.6265    0.4925 H       1  UNL1        0.0618
     28 H          -4.8020    0.1368    2.0964 H       1  UNL1        0.0646
@<TRIPOS>UNITY_ATOM_ATTR
10 1
charge 1
12 1
charge -1
@<TRIPOS>BOND
     1     1     2    2
     2     2     3    1
     3     2    14    1
     4     3     4   ar
     5     3    13   ar
     6     4     5   ar
     7     5     6    1
     8     5     7   ar
     9     7     8    1
    10     7     9   ar
    11     9    10    1
    12     9    13   ar
    13    10    11    2
    14    10    12    1
    15    14    15   ar
    16    14    19   ar
    17    15    16   ar
    18    16    17   ar
    19    17    18   ar
    20    18    19   ar
    21    19    20    1
    22     4    21    1
    23     6    22    1
    24     8    23    1
    25    13    24    1
    26    15    25    1
    27    16    26    1
    28    17    27    1
    29    18    28    1
@<TRIPOS>MOLECULE
../data/bude_mols_rdkit_confs/molecule_5.pdb
 28 29 0 0 0
SMALL
GASTEIGER

@<TRIPOS>ATOM
      1 O           0.9290   -1.2750   -2.2040 O.2     1  UNL1       -0.2866
      2 C           0.7530   -0.5940   -1.1320 C.2     1  UNL1        0.1962
      3 C          -0.5910   -0.4120   -0.6410 C.ar    1  UNL1        0.0324
      4 C          -1.5780   -1.2980   -1.1000 C.ar    1  UNL1       -0.0053
      5 C          -2.8750   -1.2010   -0.6670 C.ar    1  UNL1        0.1659
      6 O          -3.8580   -2.0850   -1.1260 O.3     1  UNL1       -0.5031
      7 C          -3.2410   -0.2150    0.2430 C.ar    1  UNL1        0.2370
      8 O          -4.5440   -0.0830    0.7070 O.3     1  UNL1       -0.4989
      9 C          -2.2420    0.6480    0.6800 C.ar    1  UNL1        0.3184
     10 N          -2.6160    1.6600    1.6140 N.pl3   1  UNL1        0.0836
     11 O          -1.8120    2.1410    2.4260 O.2     1  UNL1        0.0416
     12 O          -3.9060    2.1310    1.6280 O.co2   1  UNL1       -0.5759
     13 C          -0.9370    0.5660    0.2580 C.ar    1  UNL1        0.0304
     14 C           1.9730   -0.0840   -0.5410 C.ar    1  UNL1        0.0574
     15 C           2.8650   -0.9940    0.0380 C.ar    1  UNL1       -0.0481
     16 C           4.0260   -0.6100    0.6420 C.ar    1  UNL1       -0.0609
     17 C           4.3760    0.7230    0.7070 C.ar    1  UNL1       -0.0590
     18 C           3.4970    1.6160    0.1360 C.ar    1  UNL1       -0.0257
     19 C           2.3120    1.2430   -0.4820 C.ar    1  UNL1        0.1342
     20 F           1.5000    2.1830   -1.0510 F       1  UNL1       -0.2047
     21 H          -1.3228   -2.0354   -1.7753 H       1  UNL1        0.0662
     22 H          -3.6342   -2.7571   -1.7393 H       1  UNL1        0.2923
     23 H          -5.2100   -0.6696    0.4064 H       1  UNL1        0.2925
     24 H          -0.2288    1.2285    0.6110 H       1  UNL1        0.0694
     25 H           2.6342   -1.9994    0.0065 H       1  UNL1        0.0625
     26 H           4.6482   -1.3228    1.0541 H       1  UNL1        0.0618
     27 H           5.2498    1.0342    1.1594 H       1  UNL1        0.0618
     28 H           3.7331    2.6201    0.1696 H       1  UNL1        0.0646
@<TRIPOS>UNITY_ATOM_ATTR
10 1
charge 1
12 1
charge -1
@<TRIPOS>BOND
     1     1     2    2
     2     2     3    1
     3     2    14    1
     4     3     4   ar
     5     3    13   ar
     6     4     5   ar
     7     5     6    1
     8     5     7   ar
     9     7     8    1
    10     7     9   ar
    11     9    10    1
    12     9    13   ar
    13    10    11    2
    14    10    12    1
    15    14    15   ar
    16    14    19   ar
    17    15    16   ar
    18    16    17   ar
    19    17    18   ar
    20    18    19   ar
    21    19    20    1
    22     4    21    1
    23     6    22    1
    24     8    23    1
    25    13    24    1
    26    15    25    1
    27    16    26    1
    28    17    27    1
    29    18    28    1
@<TRIPOS>MOLECULE
../data/bude_mols_rdkit_confs/molecule_5.pdb
 28 29 0 0 0
SMALL
GASTEIGER

@<TRIPOS>ATOM
      1 O           1.0860   -2.1850   -0.6980 O.2     1  UNL1       -0.2866
      2 C           0.8510   -0.9900   -0.2870 C.2     1  UNL1        0.1962
      3 C          -0.5350   -0.6440   -0.0800 C.ar    1  UNL1        0.0324
      4 C          -0.9710    0.3330    0.7780 C.ar    1  UNL1       -0.0053
      5 C          -2.3180    0.6250    0.8800 C.ar    1  UNL1        0.1659
      6 O          -2.7270    1.6190    1.7550 O.3     1  UNL1       -0.5031
      7 C          -3.2280   -0.0670    0.1190 C.ar    1  UNL1        0.2370
      8 O          -4.5910    0.2060    0.1990 O.3     1  UNL1       -0.4989
      9 C          -2.8330   -1.0640   -0.7600 C.ar    1  UNL1        0.3184
     10 N          -3.7960   -1.7620   -1.5300 N.pl3   1  UNL1        0.0836
     11 O          -3.5690   -2.9210   -1.9030 O.2     1  UNL1        0.0416
     12 O          -4.9730   -1.1600   -1.8600 O.co2   1  UNL1       -0.5759
     13 C          -1.4920   -1.3360   -0.8440 C.ar    1  UNL1        0.0304
     14 C           2.0060   -0.1610   -0.0940 C.ar    1  UNL1        0.0574
     15 C           2.0250    1.2240   -0.1130 C.ar    1  UNL1       -0.0481
     16 C           3.1860    1.9720    0.0580 C.ar    1  UNL1       -0.0609
     17 C           4.3770    1.3260    0.2560 C.ar    1  UNL1       -0.0590
     18 C           4.4180   -0.0500    0.2850 C.ar    1  UNL1       -0.0257
     19 C           3.2620   -0.7480    0.1140 C.ar    1  UNL1        0.1342
     20 F           3.3250   -2.1120    0.1410 F       1  UNL1       -0.2047
     21 H          -0.2888    0.8536    1.3512 H       1  UNL1        0.0662
     22 H          -2.0936    2.0820    2.2673 H       1  UNL1        0.2923
     23 H          -4.9021    0.8720    0.7801 H       1  UNL1        0.2925
     24 H          -1.1734   -2.0745   -1.4906 H       1  UNL1        0.0694
     25 H           1.1352    1.7253   -0.2611 H       1  UNL1        0.0625
     26 H           3.1497    3.0031    0.0358 H       1  UNL1        0.0618
     27 H           5.2442    1.8707    0.3835 H       1  UNL1        0.0618
     28 H           5.3115   -0.5445    0.4341 H       1  UNL1        0.0646
@<TRIPOS>UNITY_ATOM_ATTR
10 1
charge 1
12 1
charge -1
@<TRIPOS>BOND
     1     1     2    2
     2     2     3    1
     3     2    14    1
     4     3     4   ar
     5     3    13   ar
     6     4     5   ar
     7     5     6    1
     8     5     7   ar
     9     7     8    1
    10     7     9   ar
    11     9    10    1
    12     9    13   ar
    13    10    11    2
    14    10    12    1
    15    14    15   ar
    16    14    19   ar
    17    15    16   ar
    18    16    17   ar
    19    17    18   ar
    20    18    19   ar
    21    19    20    1
    22     4    21    1
    23     6    22    1
    24     8    23    1
    25    13    24    1
    26    15    25    1
    27    16    26    1
    28    17    27    1
    29    18    28    1
@<TRIPOS>MOLECULE
../data/bude_mols_rdkit_confs/molecule_5.pdb
 28 29 0 0 0
SMALL
GASTEIGER

@<TRIPOS>ATOM
      1 O           0.8120   -2.3780    1.1450 O.2     1  UNL1       -0.2866
      2 C           0.7470   -1.2200    0.6360 C.2     1  UNL1        0.1962
      3 C          -0.5680   -0.6200    0.3640 C.ar    1  UNL1        0.0324
      4 C          -0.7140    0.7240    0.1120 C.ar    1  UNL1       -0.0053
      5 C          -1.9640    1.2510   -0.1430 C.ar    1  UNL1        0.1659
      6 O          -2.1820    2.5990   -0.4060 O.3     1  UNL1       -0.5031
      7 C          -3.0950    0.4310   -0.1470 C.ar    1  UNL1        0.2370
      8 O          -4.3630    0.9180   -0.3970 O.3     1  UNL1       -0.4989
      9 C          -2.9630   -0.9290    0.1060 C.ar    1  UNL1        0.3184
     10 N          -4.1250   -1.7460    0.0960 N.pl3   1  UNL1        0.0836
     11 O          -5.2170   -1.2900    0.4420 O.2     1  UNL1        0.0416
     12 O          -4.0680   -3.0590   -0.2970 O.co2   1  UNL1       -0.5759
     13 C          -1.7030   -1.3960    0.3520 C.ar    1  UNL1        0.0304
     14 C           1.9840   -0.5320    0.3420 C.ar    1  UNL1        0.0574
     15 C           2.9420   -0.3400    1.3060 C.ar    1  UNL1       -0.0481
     16 C           4.1220    0.3190    1.0020 C.ar    1  UNL1       -0.0609
     17 C           4.3750    0.8020   -0.2700 C.ar    1  UNL1       -0.0590
     18 C           3.4140    0.6080   -1.2320 C.ar    1  UNL1       -0.0257
     19 C           2.2220   -0.0580   -0.9220 C.ar    1  UNL1        0.1342
     20 F           1.2950   -0.2280   -1.9080 F       1  UNL1       -0.2047
     21 H           0.1136    1.3405    0.1135 H       1  UNL1        0.0662
     22 H          -1.4606    3.1969   -0.4165 H       1  UNL1        0.2923
     23 H          -4.4886    1.8300   -0.5715 H       1  UNL1        0.2925
     24 H          -1.5952   -2.4045    0.5427 H       1  UNL1        0.0694
     25 H           2.7821   -0.6890    2.2640 H       1  UNL1        0.0625
     26 H           4.8292    0.4529    1.7416 H       1  UNL1        0.0618
     27 H           5.2567    1.2918   -0.4885 H       1  UNL1        0.0618
     28 H           3.5717    0.9558   -2.1907 H       1  UNL1        0.0646
@<TRIPOS>UNITY_ATOM_ATTR
10 1
charge 1
12 1
charge -1
@<TRIPOS>BOND
     1     1     2    2
     2     2     3    1
     3     2    14    1
     4     3     4   ar
     5     3    13   ar
     6     4     5   ar
     7     5     6    1
     8     5     7   ar
     9     7     8    1
    10     7     9   ar
    11     9    10    1
    12     9    13   ar
    13    10    11    2
    14    10    12    1
    15    14    15   ar
    16    14    19   ar
    17    15    16   ar
    18    16    17   ar
    19    17    18   ar
    20    18    19   ar
    21    19    20    1
    22     4    21    1
    23     6    22    1
    24     8    23    1
    25    13    24    1
    26    15    25    1
    27    16    26    1
    28    17    27    1
    29    18    28    1
@<TRIPOS>MOLECULE
../data/bude_mols_rdkit_confs/molecule_5.pdb
 28 29 0 0 0
SMALL
GASTEIGER

@<TRIPOS>ATOM
      1 O          -0.5400    2.4520    0.5450 O.2     1  UNL1       -0.2866
      2 C          -0.6420    1.1900    0.2950 C.2     1  UNL1        0.1962
      3 C           0.5990    0.4830    0.0800 C.ar    1  UNL1        0.0324
      4 C           0.6430   -0.6770   -0.6550 C.ar    1  UNL1       -0.0053
      5 C           1.8650   -1.3070   -0.8090 C.ar    1  UNL1        0.1659
      6 O           1.9390   -2.4800   -1.5440 O.3     1  UNL1       -0.5031
      7 C           3.0500   -0.8020   -0.2460 C.ar    1  UNL1        0.2370
      8 O           4.2380   -1.4650   -0.4290 O.3     1  UNL1       -0.4989
      9 C           3.0090    0.3570    0.4870 C.ar    1  UNL1        0.3184
     10 N           4.1340    0.9490    1.1030 N.pl3   1  UNL1        0.0836
     11 O           3.9670    1.6370    2.1570 O.2     1  UNL1        0.0416
     12 O           5.4220    0.8590    0.6800 O.co2   1  UNL1       -0.5759
     13 C           1.7680    0.9810    0.6360 C.ar    1  UNL1        0.0304
     14 C          -1.9750    0.6380    0.2650 C.ar    1  UNL1        0.0574
     15 C          -2.3170   -0.6500    0.5840 C.ar    1  UNL1       -0.0481
     16 C          -3.6100   -1.1420    0.5740 C.ar    1  UNL1       -0.0609
     17 C          -4.6330   -0.3070    0.2260 C.ar    1  UNL1       -0.0590
     18 C          -4.3530    1.0090   -0.1100 C.ar    1  UNL1       -0.0257
     19 C          -3.0560    1.4600   -0.0870 C.ar    1  UNL1        0.1342
     20 F          -2.8210    2.7520   -0.4240 F       1  UNL1       -0.2047
     21 H          -0.2122   -1.0677   -1.0806 H       1  UNL1        0.0662
     22 H           1.1653   -2.8400   -1.9310 H       1  UNL1        0.2923
     23 H           4.2606   -2.2562   -0.9305 H       1  UNL1        0.2925
     24 H           1.7188    1.8532    1.1854 H       1  UNL1        0.0694
     25 H          -1.5583   -1.2971    0.8498 H       1  UNL1        0.0625
     26 H          -3.7985   -2.1249    0.8257 H       1  UNL1        0.0618
     27 H          -5.6055   -0.6521    0.2132 H       1  UNL1        0.0618
     28 H          -5.1179    1.6483   -0.3769 H       1  UNL1        0.0646
@<TRIPOS>UNITY_ATOM_ATTR
10 1
charge 1
12 1
charge -1
@<TRIPOS>BOND
     1     1     2    2
     2     2     3    1
     3     2    14    1
     4     3     4   ar
     5     3    13   ar
     6     4     5   ar
     7     5     6    1
     8     5     7   ar
     9     7     8    1
    10     7     9   ar
    11     9    10    1
    12     9    13   ar
    13    10    11    2
    14    10    12    1
    15    14    15   ar
    16    14    19   ar
    17    15    16   ar
    18    16    17   ar
    19    17    18   ar
    20    18    19   ar
    21    19    20    1
    22     4    21    1
    23     6    22    1
    24     8    23    1
    25    13    24    1
    26    15    25    1
    27    16    26    1
    28    17    27    1
    29    18    28    1
@<TRIPOS>MOLECULE
../data/bude_mols_rdkit_confs/molecule_5.pdb
 28 29 0 0 0
SMALL
GASTEIGER

@<TRIPOS>ATOM
      1 O          -0.7470    2.6010   -0.2360 O.2     1  UNL1       -0.2866
      2 C          -0.6740    1.3160   -0.0910 C.2     1  UNL1        0.1962
      3 C           0.6440    0.7500   -0.1130 C.ar    1  UNL1        0.0324
      4 C           1.6670    1.4890   -0.7350 C.ar    1  UNL1       -0.0053
      5 C           2.9500    1.0030   -0.8170 C.ar    1  UNL1        0.1659
      6 O           3.9900    1.7220   -1.4330 O.3     1  UNL1       -0.5031
      7 C           3.2610   -0.2320   -0.2820 C.ar    1  UNL1        0.2370
      8 O           4.5600   -0.6550   -0.3990 O.3     1  UNL1       -0.4989
      9 C           2.2400   -0.9480    0.3290 C.ar    1  UNL1        0.3184
     10 N           2.5010   -2.2080    0.8950 N.pl3   1  UNL1        0.0836
     11 O           1.5450   -3.0340    0.9420 O.2     1  UNL1        0.0416
     12 O           3.7290   -2.5160    1.3730 O.co2   1  UNL1       -0.5759
     13 C           0.9300   -0.4670    0.4180 C.ar    1  UNL1        0.0304
     14 C          -1.9350    0.6150    0.0680 C.ar    1  UNL1        0.0574
     15 C          -2.2410   -0.1070    1.1800 C.ar    1  UNL1       -0.0481
     16 C          -3.4730   -0.7650    1.3470 C.ar    1  UNL1       -0.0609
     17 C          -4.4120   -0.6810    0.3540 C.ar    1  UNL1       -0.0590
     18 C          -4.1190    0.0480   -0.7790 C.ar    1  UNL1       -0.0257
     19 C          -2.9120    0.6880   -0.9340 C.ar    1  UNL1        0.1342
     20 F          -2.5990    1.4130   -2.0400 F       1  UNL1       -0.2047
     21 H           1.4498    2.4141   -1.1375 H       1  UNL1        0.0662
     22 H           3.8196    2.5636   -1.8080 H       1  UNL1        0.2923
     23 H           5.1928   -0.1122   -0.8267 H       1  UNL1        0.2925
     24 H           0.1946   -1.0259    0.8783 H       1  UNL1        0.0694
     25 H          -1.5389   -0.1748    1.9334 H       1  UNL1        0.0625
     26 H          -3.6664   -1.3035    2.2059 H       1  UNL1        0.0618
     27 H          -5.3234   -1.1552    0.4519 H       1  UNL1        0.0618
     28 H          -4.8237    0.1150   -1.5300 H       1  UNL1        0.0646
@<TRIPOS>UNITY_ATOM_ATTR
10 1
charge 1
12 1
charge -1
@<TRIPOS>BOND
     1     1     2    2
     2     2     3    1
     3     2    14    1
     4     3     4   ar
     5     3    13   ar
     6     4     5   ar
     7     5     6    1
     8     5     7   ar
     9     7     8    1
    10     7     9   ar
    11     9    10    1
    12     9    13   ar
    13    10    11    2
    14    10    12    1
    15    14    15   ar
    16    14    19   ar
    17    15    16   ar
    18    16    17   ar
    19    17    18   ar
    20    18    19   ar
    21    19    20    1
    22     4    21    1
    23     6    22    1
    24     8    23    1
    25    13    24    1
    26    15    25    1
    27    16    26    1
    28    17    27    1
    29    18    28    1
@<TRIPOS>MOLECULE
../data/bude_mols_rdkit_confs/molecule_5.pdb
 28 29 0 0 0
SMALL
GASTEIGER

@<TRIPOS>ATOM
      1 O          -0.4110    2.5570    0.5590 O.2     1  UNL1       -0.2866
      2 C          -0.5400    1.2890    0.3000 C.2     1  UNL1        0.1962
      3 C           0.6400    0.5260   -0.0600 C.ar    1  UNL1        0.0324
      4 C           0.6710   -0.6850   -0.6940 C.ar    1  UNL1       -0.0053
      5 C           1.8590   -1.3400   -1.0000 C.ar    1  UNL1        0.1659
      6 O           1.8280   -2.5790   -1.6500 O.3     1  UNL1       -0.5031
      7 C           3.0890   -0.8150   -0.6860 C.ar    1  UNL1        0.2370
      8 O           4.2990   -1.4340   -0.9770 O.3     1  UNL1       -0.4989
      9 C           3.0790    0.4240   -0.0350 C.ar    1  UNL1        0.3184
     10 N           4.3610    0.9380    0.3500 N.pl3   1  UNL1        0.0836
     11 O           4.4800    1.6310    1.3980 O.2     1  UNL1        0.0416
     12 O           5.4370    0.6360   -0.4340 O.co2   1  UNL1       -0.5759
     13 C           1.9070    1.0590    0.2600 C.ar    1  UNL1        0.0304
     14 C          -1.8910    0.7760    0.4120 C.ar    1  UNL1        0.0574
     15 C          -2.4990    0.7050    1.6890 C.ar    1  UNL1       -0.0481
     16 C          -3.7710    0.2300    1.8600 C.ar    1  UNL1       -0.0609
     17 C          -4.5350   -0.2080    0.8090 C.ar    1  UNL1       -0.0590
     18 C          -3.9610   -0.1500   -0.4560 C.ar    1  UNL1       -0.0257
     19 C          -2.6660    0.3350   -0.6280 C.ar    1  UNL1        0.1342
     20 F          -2.1450    0.3990   -1.8940 F       1  UNL1       -0.2047
     21 H          -0.2223   -1.1305   -0.9558 H       1  UNL1        0.0662
     22 H           1.0067   -2.9673   -1.8794 H       1  UNL1        0.2923
     23 H           4.3080   -2.2635   -1.4128 H       1  UNL1        0.2925
     24 H           1.9495    1.9718    0.7396 H       1  UNL1        0.0694
     25 H          -1.9671    1.0208    2.5151 H       1  UNL1        0.0625
     26 H          -4.1685    0.2005    2.8119 H       1  UNL1        0.0618
     27 H          -5.4930   -0.5647    0.9506 H       1  UNL1        0.0618
     28 H          -4.4997   -0.4695   -1.2762 H       1  UNL1        0.0646
@<TRIPOS>UNITY_ATOM_ATTR
10 1
charge 1
12 1
charge -1
@<TRIPOS>BOND
     1     1     2    2
     2     2     3    1
     3     2    14    1
     4     3     4   ar
     5     3    13   ar
     6     4     5   ar
     7     5     6    1
     8     5     7   ar
     9     7     8    1
    10     7     9   ar
    11     9    10    1
    12     9    13   ar
    13    10    11    2
    14    10    12    1
    15    14    15   ar
    16    14    19   ar
    17    15    16   ar
    18    16    17   ar
    19    17    18   ar
    20    18    19   ar
    21    19    20    1
    22     4    21    1
    23     6    22    1
    24     8    23    1
    25    13    24    1
    26    15    25    1
    27    16    26    1
    28    17    27    1
    29    18    28    1
@<TRIPOS>MOLECULE
../data/bude_mols_rdkit_confs/molecule_5.pdb
 28 29 0 0 0
SMALL
GASTEIGER

@<TRIPOS>ATOM
      1 O          -1.1420   -2.6030   -0.1330 O.2     1  UNL1       -0.2866
      2 C          -0.8660   -1.3760   -0.0800 C.2     1  UNL1        0.1962
      3 C           0.5310   -0.9330   -0.0720 C.ar    1  UNL1        0.0324
      4 C           1.5040   -1.7260   -0.6770 C.ar    1  UNL1       -0.0053
      5 C           2.8210   -1.3630   -0.6890 C.ar    1  UNL1        0.1659
      6 O           3.8160   -2.1350   -1.2870 O.3     1  UNL1       -0.5031
      7 C           3.2090   -0.1620   -0.0790 C.ar    1  UNL1        0.2370
      8 O           4.5520    0.1440   -0.1260 O.3     1  UNL1       -0.4989
      9 C           2.2420    0.6160    0.5160 C.ar    1  UNL1        0.3184
     10 N           2.5680    1.8280    1.1480 N.pl3   1  UNL1        0.0836
     11 O           1.8370    2.1930    2.1080 O.2     1  UNL1        0.0416
     12 O           3.6360    2.5620    0.7330 O.co2   1  UNL1       -0.5759
     13 C           0.8960    0.2420    0.5280 C.ar    1  UNL1        0.0304
     14 C          -2.0000   -0.4490   -0.0290 C.ar    1  UNL1        0.0574
     15 C          -2.9630   -0.5050    0.9470 C.ar    1  UNL1       -0.0481
     16 C          -4.0400    0.3770    0.9910 C.ar    1  UNL1       -0.0609
     17 C          -4.1610    1.3600    0.0160 C.ar    1  UNL1       -0.0590
     18 C          -3.1940    1.4210   -0.9700 C.ar    1  UNL1       -0.0257
     19 C          -2.1310    0.5390   -0.9990 C.ar    1  UNL1        0.1342
     20 F          -1.1860    0.6030   -1.9670 F       1  UNL1       -0.2047
     21 H           1.2224   -2.6106   -1.1278 H       1  UNL1        0.0662
     22 H           3.5939   -2.9440   -1.7044 H       1  UNL1        0.2923
     23 H           5.1506   -0.4383   -0.5509 H       1  UNL1        0.2925
     24 H           0.1889    0.8414    0.9815 H       1  UNL1        0.0694
     25 H          -2.8861   -1.2297    1.6777 H       1  UNL1        0.0625
     26 H          -4.7433    0.3011    1.7424 H       1  UNL1        0.0618
     27 H          -4.9499    2.0252    0.0278 H       1  UNL1        0.0618
     28 H          -3.2680    2.1437   -1.7030 H       1  UNL1        0.0646
@<TRIPOS>UNITY_ATOM_ATTR
10 1
charge 1
12 1
charge -1
@<TRIPOS>BOND
     1     1     2    2
     2     2     3    1
     3     2    14    1
     4     3     4   ar
     5     3    13   ar
     6     4     5   ar
     7     5     6    1
     8     5     7   ar
     9     7     8    1
    10     7     9   ar
    11     9    10    1
    12     9    13   ar
    13    10    11    2
    14    10    12    1
    15    14    15   ar
    16    14    19   ar
    17    15    16   ar
    18    16    17   ar
    19    17    18   ar
    20    18    19   ar
    21    19    20    1
    22     4    21    1
    23     6    22    1
    24     8    23    1
    25    13    24    1
    26    15    25    1
    27    16    26    1
    28    17    27    1
    29    18    28    1
@<TRIPOS>MOLECULE
../data/bude_mols_rdkit_confs/molecule_5.pdb
 28 29 0 0 0
SMALL
GASTEIGER

@<TRIPOS>ATOM
      1 O           1.0940   -1.7590   -1.7720 O.2     1  UNL1       -0.2866
      2 C           0.8930   -0.8750   -0.9040 C.2     1  UNL1        0.1962
      3 C          -0.4520   -0.4420   -0.5850 C.ar    1  UNL1        0.0324
      4 C          -0.7170    0.7930   -0.0370 C.ar    1  UNL1       -0.0053
      5 C          -2.0300    1.1350    0.2630 C.ar    1  UNL1        0.1659
      6 O          -2.2830    2.3760    0.8130 O.3     1  UNL1       -0.5031
      7 C          -3.0690    0.2660    0.0240 C.ar    1  UNL1        0.2370
      8 O          -4.3860    0.5780    0.3120 O.3     1  UNL1       -0.4989
      9 C          -2.8220   -0.9890   -0.5310 C.ar    1  UNL1        0.3184
     10 N          -3.8830   -1.8970   -0.7810 N.pl3   1  UNL1        0.0836
     11 O          -3.7580   -2.7370   -1.6830 O.2     1  UNL1        0.0416
     12 O          -5.0340   -1.8680   -0.0530 O.co2   1  UNL1       -0.5759
     13 C          -1.5080   -1.3000   -0.8190 C.ar    1  UNL1        0.0304
     14 C           2.0560   -0.3010   -0.2300 C.ar    1  UNL1        0.0574
     15 C           1.9980    0.0890    1.1050 C.ar    1  UNL1       -0.0481
     16 C           3.1210    0.6070    1.7010 C.ar    1  UNL1       -0.0609
     17 C           4.3060    0.7540    1.0230 C.ar    1  UNL1       -0.0590
     18 C           4.3700    0.3650   -0.3120 C.ar    1  UNL1       -0.0257
     19 C           3.2570   -0.1580   -0.9350 C.ar    1  UNL1        0.1342
     20 F           3.2790   -0.5480   -2.2340 F       1  UNL1       -0.2047
     21 H           0.0508    1.4571    0.1488 H       1  UNL1        0.0662
     22 H          -1.5761    2.9690    0.9763 H       1  UNL1        0.2923
     23 H          -4.5993    1.4102    0.6860 H       1  UNL1        0.2925
     24 H          -1.3042   -2.2238   -1.2315 H       1  UNL1        0.0694
     25 H           1.1213   -0.0101    1.6403 H       1  UNL1        0.0625
     26 H           3.0730    0.8953    2.6908 H       1  UNL1        0.0618
     27 H           5.1354    1.1464    1.4954 H       1  UNL1        0.0618
     28 H           5.2527    0.4684   -0.8366 H       1  UNL1        0.0646
@<TRIPOS>UNITY_ATOM_ATTR
10 1
charge 1
12 1
charge -1
@<TRIPOS>BOND
     1     1     2    2
     2     2     3    1
     3     2    14    1
     4     3     4   ar
     5     3    13   ar
     6     4     5   ar
     7     5     6    1
     8     5     7   ar
     9     7     8    1
    10     7     9   ar
    11     9    10    1
    12     9    13   ar
    13    10    11    2
    14    10    12    1
    15    14    15   ar
    16    14    19   ar
    17    15    16   ar
    18    16    17   ar
    19    17    18   ar
    20    18    19   ar
    21    19    20    1
    22     4    21    1
    23     6    22    1
    24     8    23    1
    25    13    24    1
    26    15    25    1
    27    16    26    1
    28    17    27    1
    29    18    28    1
@<TRIPOS>MOLECULE
../data/bude_mols_rdkit_confs/molecule_5.pdb
 28 29 0 0 0
SMALL
GASTEIGER

@<TRIPOS>ATOM
      1 O           0.6080   -2.7340   -0.0560 O.2     1  UNL1       -0.2866
      2 C           0.6370   -1.4430   -0.0170 C.2     1  UNL1        0.1962
      3 C          -0.6630   -0.8100   -0.0710 C.ar    1  UNL1        0.0324
      4 C          -1.7090   -1.4550   -0.7150 C.ar    1  UNL1       -0.0053
      5 C          -2.9540   -0.8830   -0.7740 C.ar    1  UNL1        0.1659
      6 O          -3.9580   -1.5770   -1.4310 O.3     1  UNL1       -0.5031
      7 C          -3.1920    0.3710   -0.1790 C.ar    1  UNL1        0.2370
      8 O          -4.4610    0.8710   -0.2840 O.3     1  UNL1       -0.4989
      9 C          -2.1720    1.0350    0.4680 C.ar    1  UNL1        0.3184
     10 N          -2.3640    2.3000    1.0780 N.pl3   1  UNL1        0.0836
     11 O          -3.4170    2.6590    1.6140 O.2     1  UNL1        0.0416
     12 O          -1.2990    3.1830    1.0870 O.co2   1  UNL1       -0.5759
     13 C          -0.9290    0.4070    0.4960 C.ar    1  UNL1        0.0304
     14 C           1.9150   -0.7570    0.0720 C.ar    1  UNL1        0.0574
     15 C           2.1240    0.5240   -0.3810 C.ar    1  UNL1       -0.0481
     16 C           3.3920    1.1080   -0.2660 C.ar    1  UNL1       -0.0609
     17 C           4.4500    0.4210    0.2980 C.ar    1  UNL1       -0.0590
     18 C           4.2470   -0.8790    0.7600 C.ar    1  UNL1       -0.0257
     19 C           2.9870   -1.4340    0.6350 C.ar    1  UNL1        0.1342
     20 F           2.7560   -2.7080    1.0800 F       1  UNL1       -0.2047
     21 H          -1.5485   -2.3749   -1.1543 H       1  UNL1        0.0662
     22 H          -3.7751   -2.4100   -1.8191 H       1  UNL1        0.2923
     23 H          -5.1215    0.3820   -0.7341 H       1  UNL1        0.2925
     24 H          -0.1558    0.8925    0.9771 H       1  UNL1        0.0694
     25 H           1.3474    1.0549   -0.8054 H       1  UNL1        0.0625
     26 H           3.5389    2.0701   -0.6092 H       1  UNL1        0.0618
     27 H           5.3786    0.8644    0.3763 H       1  UNL1        0.0618
     28 H           5.0197   -1.4146    1.1855 H       1  UNL1        0.0646
@<TRIPOS>UNITY_ATOM_ATTR
10 1
charge 1
12 1
charge -1
@<TRIPOS>BOND
     1     1     2    2
     2     2     3    1
     3     2    14    1
     4     3     4   ar
     5     3    13   ar
     6     4     5   ar
     7     5     6    1
     8     5     7   ar
     9     7     8    1
    10     7     9   ar
    11     9    10    1
    12     9    13   ar
    13    10    11    2
    14    10    12    1
    15    14    15   ar
    16    14    19   ar
    17    15    16   ar
    18    16    17   ar
    19    17    18   ar
    20    18    19   ar
    21    19    20    1
    22     4    21    1
    23     6    22    1
    24     8    23    1
    25    13    24    1
    26    15    25    1
    27    16    26    1
    28    17    27    1
    29    18    28    1
@<TRIPOS>MOLECULE
../data/bude_mols_rdkit_confs/molecule_5.pdb
 28 29 0 0 0
SMALL
GASTEIGER

@<TRIPOS>ATOM
      1 O           0.9000    1.3630   -2.4930 O.2     1  UNL1       -0.2866
      2 C           0.7580    0.7160   -1.4360 C.2     1  UNL1        0.1962
      3 C          -0.5430    0.5860   -0.7790 C.ar    1  UNL1        0.0324
      4 C          -0.7030   -0.5530    0.0220 C.ar    1  UNL1       -0.0053
      5 C          -1.8920   -0.7640    0.6830 C.ar    1  UNL1        0.1659
      6 O          -2.0450   -1.8920    1.4740 O.3     1  UNL1       -0.5031
      7 C          -2.9060    0.1410    0.5510 C.ar    1  UNL1        0.2370
      8 O          -4.1450   -0.0190    1.1950 O.3     1  UNL1       -0.4989
      9 C          -2.7500    1.2840   -0.2470 C.ar    1  UNL1        0.3184
     10 N          -3.8290    2.1940   -0.3230 N.pl3   1  UNL1        0.0836
     11 O          -5.0300    1.7970   -0.2620 O.2     1  UNL1        0.0416
     12 O          -3.5700    3.5520   -0.4700 O.co2   1  UNL1       -0.5759
     13 C          -1.5400    1.4920   -0.9170 C.ar    1  UNL1        0.0304
     14 C           1.9060    0.0350   -0.7770 C.ar    1  UNL1        0.0574
     15 C           2.0580    0.1900    0.6070 C.ar    1  UNL1       -0.0481
     16 C           3.1060   -0.4470    1.2130 C.ar    1  UNL1       -0.0609
     17 C           4.0010   -1.2220    0.5210 C.ar    1  UNL1       -0.0590
     18 C           3.8340   -1.3650   -0.8670 C.ar    1  UNL1       -0.0257
     19 C           2.7930   -0.7330   -1.4820 C.ar    1  UNL1        0.1342
     20 F           2.5940   -0.8560   -2.8470 F       1  UNL1       -0.2047
     21 H           0.0686   -1.2318    0.1160 H       1  UNL1        0.0662
     22 H          -1.3415   -2.5054    1.5563 H       1  UNL1        0.2923
     23 H          -4.2972   -0.7666    1.7389 H       1  UNL1        0.2925
     24 H          -1.4085    2.3265   -1.5098 H       1  UNL1        0.0694
     25 H           1.3993    0.7673    1.1528 H       1  UNL1        0.0625
     26 H           3.2280   -0.3400    2.2322 H       1  UNL1        0.0618
     27 H           4.7805   -1.6902    1.0091 H       1  UNL1        0.0618
     28 H           4.4915   -1.9416   -1.4150 H       1  UNL1        0.0646
@<TRIPOS>UNITY_ATOM_ATTR
10 1
charge 1
12 1
charge -1
@<TRIPOS>BOND
     1     1     2    2
     2     2     3    1
     3     2    14    1
     4     3     4   ar
     5     3    13   ar
     6     4     5   ar
     7     5     6    1
     8     5     7   ar
     9     7     8    1
    10     7     9   ar
    11     9    10    1
    12     9    13   ar
    13    10    11    2
    14    10    12    1
    15    14    15   ar
    16    14    19   ar
    17    15    16   ar
    18    16    17   ar
    19    17    18   ar
    20    18    19   ar
    21    19    20    1
    22     4    21    1
    23     6    22    1
    24     8    23    1
    25    13    24    1
    26    15    25    1
    27    16    26    1
    28    17    27    1
    29    18    28    1
@<TRIPOS>MOLECULE
../data/bude_mols_rdkit_confs/molecule_5.pdb
 28 29 0 0 0
SMALL
GASTEIGER

@<TRIPOS>ATOM
      1 O           0.8610    0.7690    2.4980 O.2     1  UNL1       -0.2866
      2 C           0.7310    0.4120    1.2930 C.2     1  UNL1        0.1962
      3 C          -0.5540    0.3330    0.6380 C.ar    1  UNL1        0.0324
      4 C          -0.6120    0.4440   -0.7330 C.ar    1  UNL1       -0.0053
      5 C          -1.8370    0.3580   -1.3370 C.ar    1  UNL1        0.1659
      6 O          -1.9800    0.4600   -2.7100 O.3     1  UNL1       -0.5031
      7 C          -3.0080    0.1590   -0.5710 C.ar    1  UNL1        0.2370
      8 O          -4.2230    0.0800   -1.2190 O.3     1  UNL1       -0.4989
      9 C          -2.9390    0.0480    0.7910 C.ar    1  UNL1        0.3184
     10 N          -4.0730   -0.1530    1.6160 N.pl3   1  UNL1        0.0836
     11 O          -5.0680   -0.8110    1.2770 O.2     1  UNL1        0.0416
     12 O          -4.1270    0.3810    2.9040 O.co2   1  UNL1       -0.5759
     13 C          -1.6980    0.1370    1.4030 C.ar    1  UNL1        0.0304
     14 C           1.9370    0.0730    0.5770 C.ar    1  UNL1        0.0574
     15 C           1.9020   -0.9430   -0.3630 C.ar    1  UNL1       -0.0481
     16 C           3.0560   -1.2940   -1.0390 C.ar    1  UNL1       -0.0609
     17 C           4.2560   -0.6670   -0.8180 C.ar    1  UNL1       -0.0590
     18 C           4.3160    0.3490    0.1140 C.ar    1  UNL1       -0.0257
     19 C           3.1530    0.6950    0.7890 C.ar    1  UNL1        0.1342
     20 F           3.1830    1.7040    1.7220 F       1  UNL1       -0.2047
     21 H           0.2448    0.5881   -1.2900 H       1  UNL1        0.0662
     22 H          -1.2265    0.5922   -3.2510 H       1  UNL1        0.2923
     23 H          -4.2622    0.1569   -2.1520 H       1  UNL1        0.2925
     24 H          -1.6234    0.0575    2.4292 H       1  UNL1        0.0694
     25 H           1.0172   -1.4369   -0.5585 H       1  UNL1        0.0625
     26 H           3.0130   -2.0550   -1.7348 H       1  UNL1        0.0618
     27 H           5.0999   -0.9504   -1.3401 H       1  UNL1        0.0618
     28 H           5.2037    0.8397    0.3046 H       1  UNL1        0.0646
@<TRIPOS>UNITY_ATOM_ATTR
10 1
charge 1
12 1
charge -1
@<TRIPOS>BOND
     1     1     2    2
     2     2     3    1
     3     2    14    1
     4     3     4   ar
     5     3    13   ar
     6     4     5   ar
     7     5     6    1
     8     5     7   ar
     9     7     8    1
    10     7     9   ar
    11     9    10    1
    12     9    13   ar
    13    10    11    2
    14    10    12    1
    15    14    15   ar
    16    14    19   ar
    17    15    16   ar
    18    16    17   ar
    19    17    18   ar
    20    18    19   ar
    21    19    20    1
    22     4    21    1
    23     6    22    1
    24     8    23    1
    25    13    24    1
    26    15    25    1
    27    16    26    1
    28    17    27    1
    29    18    28    1
@<TRIPOS>MOLECULE
../data/bude_mols_rdkit_confs/molecule_5.pdb
 28 29 0 0 0
SMALL
GASTEIGER

@<TRIPOS>ATOM
      1 O          -0.8470    1.6860    1.8510 O.2     1  UNL1       -0.2866
      2 C          -0.7580    0.7730    0.9490 C.2     1  UNL1        0.1962
      3 C           0.5570    0.2950    0.5380 C.ar    1  UNL1        0.0324
      4 C           0.7520   -0.7500   -0.3110 C.ar    1  UNL1       -0.0053
      5 C           2.0540   -1.1270   -0.6690 C.ar    1  UNL1        0.1659
      6 O           2.2170   -2.1910   -1.5260 O.3     1  UNL1       -0.5031
      7 C           3.1170   -0.4350   -0.1590 C.ar    1  UNL1        0.2370
      8 O           4.4220   -0.7610   -0.4800 O.3     1  UNL1       -0.4989
      9 C           2.9450    0.6530    0.7230 C.ar    1  UNL1        0.3184
     10 N           4.0720    1.3410    1.2110 N.pl3   1  UNL1        0.0836
     11 O           5.1350    0.7430    1.4010 O.2     1  UNL1        0.0416
     12 O           4.0320    2.6940    1.4920 O.co2   1  UNL1       -0.5759
     13 C           1.6490    0.9790    1.0410 C.ar    1  UNL1        0.0304
     14 C          -2.0260    0.3240    0.4350 C.ar    1  UNL1        0.0574
     15 C          -2.4150   -0.9900    0.3500 C.ar    1  UNL1       -0.0481
     16 C          -3.6810   -1.3110   -0.1550 C.ar    1  UNL1       -0.0609
     17 C          -4.5600   -0.3340   -0.5750 C.ar    1  UNL1       -0.0590
     18 C          -4.1430    0.9730   -0.4760 C.ar    1  UNL1       -0.0257
     19 C          -2.9110    1.3320    0.0130 C.ar    1  UNL1        0.1342
     20 F          -2.5920    2.6430    0.0720 F       1  UNL1       -0.2047
     21 H          -0.0577   -1.2647   -0.6911 H       1  UNL1        0.0662
     22 H           1.4672   -2.6443   -1.8579 H       1  UNL1        0.2923
     23 H           4.5972   -1.4747   -1.0614 H       1  UNL1        0.2925
     24 H           1.4827    1.7692    1.6836 H       1  UNL1        0.0694
     25 H          -1.7757   -1.7395    0.6576 H       1  UNL1        0.0625
     26 H          -3.9632   -2.3019   -0.2144 H       1  UNL1        0.0618
     27 H          -5.4918   -0.5739   -0.9480 H       1  UNL1        0.0618
     28 H          -4.7863    1.7190   -0.7837 H       1  UNL1        0.0646
@<TRIPOS>UNITY_ATOM_ATTR
10 1
charge 1
12 1
charge -1
@<TRIPOS>BOND
     1     1     2    2
     2     2     3    1
     3     2    14    1
     4     3     4   ar
     5     3    13   ar
     6     4     5   ar
     7     5     6    1
     8     5     7   ar
     9     7     8    1
    10     7     9   ar
    11     9    10    1
    12     9    13   ar
    13    10    11    2
    14    10    12    1
    15    14    15   ar
    16    14    19   ar
    17    15    16   ar
    18    16    17   ar
    19    17    18   ar
    20    18    19   ar
    21    19    20    1
    22     4    21    1
    23     6    22    1
    24     8    23    1
    25    13    24    1
    26    15    25    1
    27    16    26    1
    28    17    27    1
    29    18    28    1
@<TRIPOS>MOLECULE
../data/bude_mols_rdkit_confs/molecule_5.pdb
 28 29 0 0 0
SMALL
GASTEIGER

@<TRIPOS>ATOM
      1 O          -0.8880   -2.5820    1.1800 O.2     1  UNL1       -0.2866
      2 C          -0.7230   -1.4440    0.6730 C.2     1  UNL1        0.1962
      3 C           0.5790   -0.9260    0.2690 C.ar    1  UNL1        0.0324
      4 C           1.6330   -1.7170   -0.1030 C.ar    1  UNL1       -0.0053
      5 C           2.8720   -1.1960   -0.4800 C.ar    1  UNL1        0.1659
      6 O           3.9260   -2.0110   -0.8530 O.3     1  UNL1       -0.5031
      7 C           3.0620    0.1690   -0.4850 C.ar    1  UNL1        0.2370
      8 O           4.2980    0.7280   -0.8610 O.3     1  UNL1       -0.4989
      9 C           2.0180    0.9920   -0.1150 C.ar    1  UNL1        0.3184
     10 N           2.2290    2.3920   -0.1200 N.pl3   1  UNL1        0.0836
     11 O           1.2810    3.1670   -0.2960 O.2     1  UNL1        0.0416
     12 O           3.4950    2.8790    0.0720 O.co2   1  UNL1       -0.5759
     13 C           0.8020    0.4550    0.2530 C.ar    1  UNL1        0.0304
     14 C          -1.8870   -0.6000    0.4760 C.ar    1  UNL1        0.0574
     15 C          -2.7200   -0.2750    1.5190 C.ar    1  UNL1       -0.0481
     16 C          -3.8260    0.5260    1.3290 C.ar    1  UNL1       -0.0609
     17 C          -4.1140    1.0200    0.0610 C.ar    1  UNL1       -0.0590
     18 C          -3.2910    0.7020   -0.9860 C.ar    1  UNL1       -0.0257
     19 C          -2.1880   -0.1010   -0.7700 C.ar    1  UNL1        0.1342
     20 F          -1.3800   -0.4120   -1.8030 F       1  UNL1       -0.2047
     21 H           1.5061   -2.7412   -0.1047 H       1  UNL1        0.0662
     22 H           3.8197   -2.9419   -0.8571 H       1  UNL1        0.2923
     23 H           5.0075    0.1700   -1.1124 H       1  UNL1        0.2925
     24 H           0.0350    1.0899    0.5242 H       1  UNL1        0.0694
     25 H          -2.5139   -0.6374    2.4630 H       1  UNL1        0.0625
     26 H          -4.4390    0.7586    2.1260 H       1  UNL1        0.0618
     27 H          -4.9399    1.6203   -0.0891 H       1  UNL1        0.0618
     28 H          -3.4938    1.0606   -1.9322 H       1  UNL1        0.0646
@<TRIPOS>UNITY_ATOM_ATTR
10 1
charge 1
12 1
charge -1
@<TRIPOS>BOND
     1     1     2    2
     2     2     3    1
     3     2    14    1
     4     3     4   ar
     5     3    13   ar
     6     4     5   ar
     7     5     6    1
     8     5     7   ar
     9     7     8    1
    10     7     9   ar
    11     9    10    1
    12     9    13   ar
    13    10    11    2
    14    10    12    1
    15    14    15   ar
    16    14    19   ar
    17    15    16   ar
    18    16    17   ar
    19    17    18   ar
    20    18    19   ar
    21    19    20    1
    22     4    21    1
    23     6    22    1
    24     8    23    1
    25    13    24    1
    26    15    25    1
    27    16    26    1
    28    17    27    1
    29    18    28    1
@<TRIPOS>MOLECULE
../data/bude_mols_rdkit_confs/molecule_5.pdb
 28 29 0 0 0
SMALL
GASTEIGER

@<TRIPOS>ATOM
      1 O          -0.6830    2.5610   -0.7860 O.2     1  UNL1       -0.2866
      2 C          -0.7000    1.3220   -0.4420 C.2     1  UNL1        0.1962
      3 C           0.6000    0.7180   -0.1850 C.ar    1  UNL1        0.0324
      4 C           0.7670   -0.6710   -0.3060 C.ar    1  UNL1       -0.0053
      5 C           1.9380   -1.3180   -0.0870 C.ar    1  UNL1        0.1659
      6 O           2.1340   -2.7010   -0.2060 O.3     1  UNL1       -0.5031
      7 C           3.0210   -0.5720    0.2750 C.ar    1  UNL1        0.2370
      8 O           4.2560   -1.2020    0.5120 O.3     1  UNL1       -0.4989
      9 C           2.9260    0.8120    0.4160 C.ar    1  UNL1        0.3184
     10 N           4.1000    1.5100    0.8020 N.pl3   1  UNL1        0.0836
     11 O           4.0400    2.5890    1.4280 O.2     1  UNL1        0.0416
     12 O           5.3500    1.0290    0.5010 O.co2   1  UNL1       -0.5759
     13 C           1.7020    1.4530    0.1800 C.ar    1  UNL1        0.0304
     14 C          -1.9570    0.6270   -0.3320 C.ar    1  UNL1        0.0574
     15 C          -2.1760   -0.1240    0.8270 C.ar    1  UNL1       -0.0481
     16 C          -3.3740   -0.7860    0.9980 C.ar    1  UNL1       -0.0609
     17 C          -4.3220   -0.6730   -0.0100 C.ar    1  UNL1       -0.0590
     18 C          -4.1100    0.0650   -1.1560 C.ar    1  UNL1       -0.0257
     19 C          -2.9350    0.7190   -1.3320 C.ar    1  UNL1        0.1342
     20 F          -2.6390    1.4750   -2.4310 F       1  UNL1       -0.2047
     21 H          -0.0533   -1.2347   -0.5788 H       1  UNL1        0.0662
     22 H           1.4202   -3.2559   -0.4523 H       1  UNL1        0.2923
     23 H           4.3330   -2.1314    0.4207 H       1  UNL1        0.2925
     24 H           1.6285    2.4775    0.2804 H       1  UNL1        0.0694
     25 H          -1.4439   -0.1828    1.5519 H       1  UNL1        0.0625
     26 H          -3.5591   -1.3455    1.8452 H       1  UNL1        0.0618
     27 H          -5.2238   -1.1620    0.1029 H       1  UNL1        0.0618
     28 H          -4.8447    0.1194   -1.8787 H       1  UNL1        0.0646
@<TRIPOS>UNITY_ATOM_ATTR
10 1
charge 1
12 1
charge -1
@<TRIPOS>BOND
     1     1     2    2
     2     2     3    1
     3     2    14    1
     4     3     4   ar
     5     3    13   ar
     6     4     5   ar
     7     5     6    1
     8     5     7   ar
     9     7     8    1
    10     7     9   ar
    11     9    10    1
    12     9    13   ar
    13    10    11    2
    14    10    12    1
    15    14    15   ar
    16    14    19   ar
    17    15    16   ar
    18    16    17   ar
    19    17    18   ar
    20    18    19   ar
    21    19    20    1
    22     4    21    1
    23     6    22    1
    24     8    23    1
    25    13    24    1
    26    15    25    1
    27    16    26    1
    28    17    27    1
    29    18    28    1
@<TRIPOS>MOLECULE
../data/bude_mols_rdkit_confs/molecule_5.pdb
 28 29 0 0 0
SMALL
GASTEIGER

@<TRIPOS>ATOM
      1 O          -0.8320   -2.7080   -0.1650 O.2     1  UNL1       -0.2866
      2 C          -0.7520   -1.4400   -0.0360 C.2     1  UNL1        0.1962
      3 C           0.5820   -0.8640   -0.1410 C.ar    1  UNL1        0.0324
      4 C           1.5990   -1.6030   -0.7650 C.ar    1  UNL1       -0.0053
      5 C           2.8480   -1.0500   -0.8800 C.ar    1  UNL1        0.1659
      6 O           3.8880   -1.7490   -1.4930 O.3     1  UNL1       -0.5031
      7 C           3.1590    0.2070   -0.4100 C.ar    1  UNL1        0.2370
      8 O           4.4260    0.7880   -0.5190 O.3     1  UNL1       -0.4989
      9 C           2.1750    0.9470    0.2040 C.ar    1  UNL1        0.3184
     10 N           2.4250    2.2690    0.7200 N.pl3   1  UNL1        0.0836
     11 O           1.7250    2.6660    1.6730 O.2     1  UNL1        0.0416
     12 O           3.4120    3.0610    0.1720 O.co2   1  UNL1       -0.5759
     13 C           0.8970    0.3920    0.3270 C.ar    1  UNL1        0.0304
     14 C          -1.9380   -0.6420    0.1970 C.ar    1  UNL1        0.0574
     15 C          -2.8300   -0.4200   -0.8620 C.ar    1  UNL1       -0.0481
     16 C          -3.9550    0.3600   -0.6840 C.ar    1  UNL1       -0.0609
     17 C          -4.2460    0.9520    0.5410 C.ar    1  UNL1       -0.0590
     18 C          -3.3750    0.7390    1.5890 C.ar    1  UNL1       -0.0257
     19 C          -2.2520   -0.0460    1.3950 C.ar    1  UNL1        0.1342
     20 F          -1.4260   -0.2600    2.4580 F       1  UNL1       -0.2047
     21 H           1.4093   -2.5488   -1.1318 H       1  UNL1        0.0662
     22 H           3.7379   -2.6092   -1.8328 H       1  UNL1        0.2923
     23 H           5.1236    0.3169   -0.9305 H       1  UNL1        0.2925
     24 H           0.1592    0.9472    0.7879 H       1  UNL1        0.0694
     25 H          -2.6435   -0.8442   -1.7841 H       1  UNL1        0.0625
     26 H          -4.5960    0.5076   -1.4792 H       1  UNL1        0.0618
     27 H          -5.0896    1.5340    0.6620 H       1  UNL1        0.0618
     28 H          -3.5596    1.1623    2.5119 H       1  UNL1        0.0646
@<TRIPOS>UNITY_ATOM_ATTR
10 1
charge 1
12 1
charge -1
@<TRIPOS>BOND
     1     1     2    2
     2     2     3    1
     3     2    14    1
     4     3     4   ar
     5     3    13   ar
     6     4     5   ar
     7     5     6    1
     8     5     7   ar
     9     7     8    1
    10     7     9   ar
    11     9    10    1
    12     9    13   ar
    13    10    11    2
    14    10    12    1
    15    14    15   ar
    16    14    19   ar
    17    15    16   ar
    18    16    17   ar
    19    17    18   ar
    20    18    19   ar
    21    19    20    1
    22     4    21    1
    23     6    22    1
    24     8    23    1
    25    13    24    1
    26    15    25    1
    27    16    26    1
    28    17    27    1
    29    18    28    1
@<TRIPOS>MOLECULE
../data/bude_mols_rdkit_confs/molecule_5.pdb
 28 29 0 0 0
SMALL
GASTEIGER

@<TRIPOS>ATOM
      1 O           1.2140    2.0160   -2.0270 O.2     1  UNL1       -0.2866
      2 C           0.9780    1.0780   -1.2070 C.2     1  UNL1        0.1962
      3 C          -0.4100    0.8610   -0.7400 C.ar    1  UNL1        0.0324
      4 C          -1.3000    1.9100   -0.6690 C.ar    1  UNL1       -0.0053
      5 C          -2.6060    1.8060   -0.2630 C.ar    1  UNL1        0.1659
      6 O          -3.4710    2.8830   -0.2050 O.3     1  UNL1       -0.5031
      7 C          -3.0590    0.5250    0.1070 C.ar    1  UNL1        0.2370
      8 O          -4.3700    0.4470    0.5080 O.3     1  UNL1       -0.4989
      9 C          -2.1910   -0.5390    0.0460 C.ar    1  UNL1        0.3184
     10 N          -2.6140   -1.8350    0.4030 N.pl3   1  UNL1        0.0836
     11 O          -2.0500   -2.8090   -0.1630 O.2     1  UNL1        0.0416
     12 O          -3.5860   -2.0340    1.3150 O.co2   1  UNL1       -0.5759
     13 C          -0.8590   -0.3760   -0.3790 C.ar    1  UNL1        0.0304
     14 C           2.0250    0.2180   -0.7190 C.ar    1  UNL1        0.0574
     15 C           1.9110   -0.2990    0.5550 C.ar    1  UNL1       -0.0481
     16 C           2.8870   -1.1160    1.0820 C.ar    1  UNL1       -0.0609
     17 C           3.9870   -1.4150    0.3190 C.ar    1  UNL1       -0.0590
     18 C           4.1190   -0.9100   -0.9520 C.ar    1  UNL1       -0.0257
     19 C           3.1420   -0.0970   -1.4690 C.ar    1  UNL1        0.1342
     20 F           3.2400    0.4160   -2.7160 F       1  UNL1       -0.2047
     21 H          -0.9583    2.8448   -0.9419 H       1  UNL1        0.0662
     22 H          -3.1732    3.7368   -0.4504 H       1  UNL1        0.2923
     23 H          -4.9019    1.2183    0.5235 H       1  UNL1        0.2925
     24 H          -0.2244   -1.1889   -0.4174 H       1  UNL1        0.0694
     25 H           1.0804   -0.0698    1.1229 H       1  UNL1        0.0625
     26 H           2.7920   -1.4973    2.0363 H       1  UNL1        0.0618
     27 H           4.7239   -2.0263    0.7040 H       1  UNL1        0.0618
     28 H           4.9512   -1.1417   -1.5166 H       1  UNL1        0.0646
@<TRIPOS>UNITY_ATOM_ATTR
10 1
charge 1
12 1
charge -1
@<TRIPOS>BOND
     1     1     2    2
     2     2     3    1
     3     2    14    1
     4     3     4   ar
     5     3    13   ar
     6     4     5   ar
     7     5     6    1
     8     5     7   ar
     9     7     8    1
    10     7     9   ar
    11     9    10    1
    12     9    13   ar
    13    10    11    2
    14    10    12    1
    15    14    15   ar
    16    14    19   ar
    17    15    16   ar
    18    16    17   ar
    19    17    18   ar
    20    18    19   ar
    21    19    20    1
    22     4    21    1
    23     6    22    1
    24     8    23    1
    25    13    24    1
    26    15    25    1
    27    16    26    1
    28    17    27    1
    29    18    28    1
