@<TRIPOS>MOLECULE
../data/bude_mols_rdkit_confs/molecule_25.pdb
 49 52 0 0 0
SMALL
GASTEIGER

@<TRIPOS>ATOM
      1  O1        -2.0930    0.2860    1.3320 O.2     1  UNL1       -0.2752
      2  C1        -1.5940   -0.3710    0.3980 C.2     1  UNL1        0.2216
      3  C2        -2.4260   -1.3490   -0.3340 C.3     1  UNL1        0.0687
      4  C3        -3.7720   -1.3640    0.2540 C.ar    1  UNL1        0.0780
      5  N1        -4.1110   -2.4240    1.0070 N.ar    1  UNL1       -0.1748
      6  N2        -5.3100   -2.4690    1.5390 N.ar    1  UNL1       -0.2425
      7  C4        -6.2350   -1.5090    1.3760 C.ar    1  UNL1        0.2725
      8  O2        -7.3770   -1.6050    1.9130 O.2     1  UNL1       -0.2658
      9  C5        -5.9270   -0.4110    0.6140 C.ar    1  UNL1        0.0496
     10  C6        -6.8620    0.6060    0.4300 C.ar    1  UNL1       -0.0487
     11  C7        -6.4940    1.6880   -0.3410 C.ar    1  UNL1       -0.0610
     12  C8        -5.2350    1.7460   -0.9050 C.ar    1  UNL1       -0.0611
     13  C9        -4.3010    0.7350   -0.7250 C.ar    1  UNL1       -0.0521
     14  C10       -4.6750   -0.3410    0.0450 C.ar    1  UNL1        0.0108
     15  N3        -0.2110   -0.1420    0.0690 N.am    1  UNL1       -0.2982
     16  C11        0.4120   -0.8890   -0.9900 C.3     1  UNL1        0.0304
     17  C12        1.6270   -0.1850   -1.4970 C.3     1  UNL1        0.0280
     18  N4         2.5350    0.2060   -0.4600 N.pl3   1  UNL1       -0.3269
     19  C13        3.9350    0.1970   -0.6460 C.ar    1  UNL1        0.0303
     20  C14        4.5690   -0.1260   -1.8250 C.ar    1  UNL1       -0.0406
     21  C15        5.9350   -0.1290   -1.9790 C.ar    1  UNL1       -0.0595
     22  C16        6.7170    0.2080   -0.9000 C.ar    1  UNL1       -0.0500
     23  C17        6.1570    0.5450    0.3160 C.ar    1  UNL1        0.0566
     24  C18        7.0260    0.9200    1.4880 C.3     1  UNL1        0.4175
     25  F1         6.7430    2.2110    1.9010 F       1  UNL1       -0.1659
     26  F2         8.3320    0.9000    1.0610 F       1  UNL1       -0.1659
     27  F3         6.8950    0.0430    2.5280 F       1  UNL1       -0.1659
     28  C19        4.7900    0.5330    0.4170 C.ar    1  UNL1       -0.0290
     29  C20        2.0210    0.6330    0.8320 C.3     1  UNL1        0.0280
     30  C21        0.5490    0.8340    0.8050 C.3     1  UNL1        0.0304
     31 H          -1.9889   -2.3225   -0.2552 H       1  UNL1        0.0423
     32 H          -2.4847   -1.0739   -1.3664 H       1  UNL1        0.0423
     33 H          -5.5447   -3.2511    2.0889 H       1  UNL1        0.1921
     34 H          -7.7998    0.5509    0.8572 H       1  UNL1        0.0625
     35 H          -7.1627    2.4583   -0.4974 H       1  UNL1        0.0618
     36 H          -4.9807    2.5659   -1.4778 H       1  UNL1        0.0618
     37 H          -3.3631    0.7888   -1.1522 H       1  UNL1        0.0624
     38 H          -0.2854   -1.0061   -1.7930 H       1  UNL1        0.0480
     39 H           0.7058   -1.8439   -0.6070 H       1  UNL1        0.0480
     40 H           1.3150    0.6931   -2.0229 H       1  UNL1        0.0479
     41 H           2.1485   -0.8728   -2.1294 H       1  UNL1        0.0479
     42 H           3.9863   -0.3799   -2.6380 H       1  UNL1        0.0636
     43 H           6.3636   -0.3786   -2.8840 H       1  UNL1        0.0618
     44 H           7.7440    0.2091   -1.0010 H       1  UNL1        0.0623
     45 H           4.3657    0.7845    1.3235 H       1  UNL1        0.0641
     46 H           2.4909    1.5552    1.1034 H       1  UNL1        0.0479
     47 H           2.2373   -0.1352    1.5447 H       1  UNL1        0.0479
     48 H           0.1995    0.8254    1.8163 H       1  UNL1        0.0480
     49 H           0.3954    1.7617    0.2945 H       1  UNL1        0.0480
@<TRIPOS>BOND
     1     1     2    2
     2     2     3    1
     3     2    15   am
     4     3     4    1
     5     4     5   ar
     6     4    14   ar
     7     5     6   ar
     8     6     7   ar
     9     7     8    2
    10     7     9   ar
    11     9    10   ar
    12     9    14   ar
    13    10    11   ar
    14    11    12   ar
    15    12    13   ar
    16    13    14   ar
    17    15    16    1
    18    15    30    1
    19    16    17    1
    20    17    18    1
    21    18    19    1
    22    18    29    1
    23    19    20   ar
    24    19    28   ar
    25    20    21   ar
    26    21    22   ar
    27    22    23   ar
    28    23    24    1
    29    23    28   ar
    30    24    25    1
    31    24    26    1
    32    24    27    1
    33    29    30    1
    34     3    31    1
    35     3    32    1
    36     6    33    1
    37    10    34    1
    38    11    35    1
    39    12    36    1
    40    13    37    1
    41    16    38    1
    42    16    39    1
    43    17    40    1
    44    17    41    1
    45    20    42    1
    46    21    43    1
    47    22    44    1
    48    28    45    1
    49    29    46    1
    50    29    47    1
    51    30    48    1
    52    30    49    1
@<TRIPOS>MOLECULE
../data/bude_mols_rdkit_confs/molecule_25.pdb
 49 52 0 0 0
SMALL
GASTEIGER

@<TRIPOS>ATOM
      1  O1        -1.5790    1.6300   -1.6610 O.2     1  UNL1       -0.2752
      2  C1        -1.2710    0.5890   -1.0030 C.2     1  UNL1        0.2216
      3  C2        -2.3730   -0.2800   -0.5260 C.3     1  UNL1        0.0687
      4  C3        -3.6740    0.2480   -0.9090 C.ar    1  UNL1        0.0780
      5  N1        -3.7940    1.2410   -1.8000 N.ar    1  UNL1       -0.1748
      6  N2        -4.9860    1.7050   -2.1340 N.ar    1  UNL1       -0.2425
      7  C4        -6.1300    1.2480   -1.6340 C.ar    1  UNL1        0.2725
      8  O2        -7.2570    1.7170   -1.9780 O.2     1  UNL1       -0.2658
      9  C5        -6.0850    0.2250   -0.7110 C.ar    1  UNL1        0.0496
     10  C6        -7.2020   -0.3270   -0.1250 C.ar    1  UNL1       -0.0487
     11  C7        -7.1360   -1.3560    0.8060 C.ar    1  UNL1       -0.0610
     12  C8        -5.9010   -1.8350    1.1490 C.ar    1  UNL1       -0.0611
     13  C9        -4.7700   -1.2880    0.5670 C.ar    1  UNL1       -0.0521
     14  C10       -4.8240   -0.2690   -0.3560 C.ar    1  UNL1        0.0108
     15  N3         0.0930    0.3400   -0.7740 N.am    1  UNL1       -0.2982
     16  C11        0.4760   -0.8640   -0.0440 C.3     1  UNL1        0.0304
     17  C12        1.4080   -0.3630    1.0680 C.3     1  UNL1        0.0280
     18  N4         2.5890    0.1750    0.4320 N.pl3   1  UNL1       -0.3269
     19  C13        3.9190   -0.2190    0.7790 C.ar    1  UNL1        0.0303
     20  C14        4.1520   -1.3380    1.5200 C.ar    1  UNL1       -0.0406
     21  C15        5.4730   -1.6920    1.8700 C.ar    1  UNL1       -0.0595
     22  C16        6.5210   -0.8990    1.4570 C.ar    1  UNL1       -0.0500
     23  C17        6.2730    0.2360    0.7040 C.ar    1  UNL1        0.0566
     24  C18        7.4130    1.0850    0.2720 C.3     1  UNL1        0.4175
     25  F1         8.3270    0.3680   -0.4710 F       1  UNL1       -0.1659
     26  F2         8.0860    1.6400    1.3500 F       1  UNL1       -0.1659
     27  F3         6.9130    2.0860   -0.5540 F       1  UNL1       -0.1659
     28  C19        4.9680    0.5680    0.3690 C.ar    1  UNL1       -0.0290
     29  C20        2.4210    1.1700   -0.6130 C.3     1  UNL1        0.0280
     30  C21        1.0860    1.2740   -1.2380 C.3     1  UNL1        0.0304
     31 H          -2.3256   -0.3472    0.5408 H       1  UNL1        0.0423
     32 H          -2.2574   -1.2446   -0.9745 H       1  UNL1        0.0423
     33 H          -5.0292    2.4342   -2.7940 H       1  UNL1        0.1921
     34 H          -8.1296    0.0400   -0.3892 H       1  UNL1        0.0625
     35 H          -7.9932   -1.7476    1.2265 H       1  UNL1        0.0618
     36 H          -5.8131   -2.5991    1.8371 H       1  UNL1        0.0618
     37 H          -3.8464   -1.6608    0.8372 H       1  UNL1        0.0624
     38 H           0.9890   -1.5484   -0.6870 H       1  UNL1        0.0480
     39 H          -0.3713   -1.3903    0.3433 H       1  UNL1        0.0480
     40 H           1.6768   -1.1735    1.7128 H       1  UNL1        0.0479
     41 H           0.9229    0.3855    1.6590 H       1  UNL1        0.0479
     42 H           3.3621   -1.9275    1.8258 H       1  UNL1        0.0636
     43 H           5.6524   -2.5391    2.4315 H       1  UNL1        0.0618
     44 H           7.4897   -1.1507    1.7086 H       1  UNL1        0.0623
     45 H           4.7837    1.4136   -0.1931 H       1  UNL1        0.0641
     46 H           3.1228    0.9440   -1.3885 H       1  UNL1        0.0479
     47 H           2.5712    2.1104   -0.1252 H       1  UNL1        0.0479
     48 H           0.7161    2.2613   -1.0557 H       1  UNL1        0.0480
     49 H           1.2350    1.0438   -2.2723 H       1  UNL1        0.0480
@<TRIPOS>BOND
     1     1     2    2
     2     2     3    1
     3     2    15   am
     4     3     4    1
     5     4     5   ar
     6     4    14   ar
     7     5     6   ar
     8     6     7   ar
     9     7     8    2
    10     7     9   ar
    11     9    10   ar
    12     9    14   ar
    13    10    11   ar
    14    11    12   ar
    15    12    13   ar
    16    13    14   ar
    17    15    16    1
    18    15    30    1
    19    16    17    1
    20    17    18    1
    21    18    19    1
    22    18    29    1
    23    19    20   ar
    24    19    28   ar
    25    20    21   ar
    26    21    22   ar
    27    22    23   ar
    28    23    24    1
    29    23    28   ar
    30    24    25    1
    31    24    26    1
    32    24    27    1
    33    29    30    1
    34     3    31    1
    35     3    32    1
    36     6    33    1
    37    10    34    1
    38    11    35    1
    39    12    36    1
    40    13    37    1
    41    16    38    1
    42    16    39    1
    43    17    40    1
    44    17    41    1
    45    20    42    1
    46    21    43    1
    47    22    44    1
    48    28    45    1
    49    29    46    1
    50    29    47    1
    51    30    48    1
    52    30    49    1
@<TRIPOS>MOLECULE
../data/bude_mols_rdkit_confs/molecule_25.pdb
 49 52 0 0 0
SMALL
GASTEIGER

@<TRIPOS>ATOM
      1  O1        -1.7550    0.8610   -1.5260 O.2     1  UNL1       -0.2752
      2  C1        -1.3930    0.5900   -0.3630 C.2     1  UNL1        0.2216
      3  C2        -2.2450    1.1350    0.7660 C.3     1  UNL1        0.0687
      4  C3        -3.4900    0.3430    0.7400 C.ar    1  UNL1        0.0780
      5  N1        -3.5020   -0.7280    1.6040 N.ar    1  UNL1       -0.1748
      6  N2        -4.5220   -1.5580    1.6020 N.ar    1  UNL1       -0.2425
      7  C4        -5.5100   -1.3360    0.7790 C.ar    1  UNL1        0.2725
      8  O2        -6.5150   -2.1230    0.7560 O.2     1  UNL1       -0.2658
      9  C5        -5.5890   -0.2750   -0.1280 C.ar    1  UNL1        0.0496
     10  C6        -6.6420   -0.0780   -0.9740 C.ar    1  UNL1       -0.0487
     11  C7        -6.6660    1.0160   -1.8690 C.ar    1  UNL1       -0.0610
     12  C8        -5.6030    1.8660   -1.8560 C.ar    1  UNL1       -0.0611
     13  C9        -4.5280    1.6570   -0.9840 C.ar    1  UNL1       -0.0521
     14  C10       -4.5070    0.5810   -0.1100 C.ar    1  UNL1        0.0108
     15  N3        -0.2390   -0.1850   -0.0780 N.am    1  UNL1       -0.2982
     16  C11        0.2320   -0.6170    1.1970 C.3     1  UNL1        0.0304
     17  C12        1.6200    0.0220    1.4780 C.3     1  UNL1        0.0280
     18  N4         2.3910    0.0170    0.2850 N.pl3   1  UNL1       -0.3269
     19  C13        3.7370   -0.4120    0.1480 C.ar    1  UNL1        0.0303
     20  C14        4.0090   -1.6740   -0.3540 C.ar    1  UNL1       -0.0406
     21  C15        5.3010   -2.1160   -0.5840 C.ar    1  UNL1       -0.0595
     22  C16        6.3210   -1.2460   -0.2960 C.ar    1  UNL1       -0.0500
     23  C17        6.0640    0.0150    0.2090 C.ar    1  UNL1        0.0566
     24  C18        7.1650    0.9850    0.4890 C.3     1  UNL1        0.4175
     25  F1         8.2850    0.6020   -0.2400 F       1  UNL1       -0.1659
     26  F2         6.7860    2.2680    0.3010 F       1  UNL1       -0.1659
     27  F3         7.4990    0.8000    1.8390 F       1  UNL1       -0.1659
     28  C19        4.7660    0.4520    0.4390 C.ar    1  UNL1       -0.0290
     29  C20        1.7940    0.4640   -0.9650 C.3     1  UNL1        0.0280
     30  C21        0.6390   -0.5520   -1.2000 C.3     1  UNL1        0.0304
     31 H          -2.4580    2.1714    0.6067 H       1  UNL1        0.0423
     32 H          -1.7471    1.0600    1.7101 H       1  UNL1        0.0423
     33 H          -4.5399   -2.3322    2.2099 H       1  UNL1        0.1921
     34 H          -7.4343   -0.7391   -0.9600 H       1  UNL1        0.0625
     35 H          -7.4613    1.1649   -2.5095 H       1  UNL1        0.0618
     36 H          -5.5894    2.6747   -2.4970 H       1  UNL1        0.0618
     37 H          -3.7350    2.3173   -0.9919 H       1  UNL1        0.0624
     38 H           0.3223   -1.6832    1.2017 H       1  UNL1        0.0480
     39 H          -0.4604   -0.3152    1.9549 H       1  UNL1        0.0480
     40 H           2.1266   -0.5421    2.2330 H       1  UNL1        0.0479
     41 H           1.4886    1.0291    1.8149 H       1  UNL1        0.0479
     42 H           3.2213   -2.3069   -0.5639 H       1  UNL1        0.0636
     43 H           5.4883   -3.0601   -0.9564 H       1  UNL1        0.0618
     44 H           7.2974   -1.5376   -0.4591 H       1  UNL1        0.0623
     45 H           4.5800    1.3945    0.8160 H       1  UNL1        0.0641
     46 H           2.5052    0.4260   -1.7636 H       1  UNL1        0.0479
     47 H           1.4552    1.4782   -0.9257 H       1  UNL1        0.0479
     48 H           0.1618   -0.4021   -2.1459 H       1  UNL1        0.0480
     49 H           0.9353   -1.5797   -1.2292 H       1  UNL1        0.0480
@<TRIPOS>BOND
     1     1     2    2
     2     2     3    1
     3     2    15   am
     4     3     4    1
     5     4     5   ar
     6     4    14   ar
     7     5     6   ar
     8     6     7   ar
     9     7     8    2
    10     7     9   ar
    11     9    10   ar
    12     9    14   ar
    13    10    11   ar
    14    11    12   ar
    15    12    13   ar
    16    13    14   ar
    17    15    16    1
    18    15    30    1
    19    16    17    1
    20    17    18    1
    21    18    19    1
    22    18    29    1
    23    19    20   ar
    24    19    28   ar
    25    20    21   ar
    26    21    22   ar
    27    22    23   ar
    28    23    24    1
    29    23    28   ar
    30    24    25    1
    31    24    26    1
    32    24    27    1
    33    29    30    1
    34     3    31    1
    35     3    32    1
    36     6    33    1
    37    10    34    1
    38    11    35    1
    39    12    36    1
    40    13    37    1
    41    16    38    1
    42    16    39    1
    43    17    40    1
    44    17    41    1
    45    20    42    1
    46    21    43    1
    47    22    44    1
    48    28    45    1
    49    29    46    1
    50    29    47    1
    51    30    48    1
    52    30    49    1
@<TRIPOS>MOLECULE
../data/bude_mols_rdkit_confs/molecule_25.pdb
 49 52 0 0 0
SMALL
GASTEIGER

@<TRIPOS>ATOM
      1  O1         2.0070   -0.1790   -1.0900 O.2     1  UNL1       -0.2752
      2  C1         1.4860    0.0330    0.0300 C.2     1  UNL1        0.2216
      3  C2         2.0940    1.0820    0.9490 C.3     1  UNL1        0.0687
      4  C3         3.2940    1.5770    0.1620 C.ar    1  UNL1        0.0780
      5  N1         3.2610    2.6620   -0.5820 N.ar    1  UNL1       -0.1748
      6  N2         4.3080    2.9770   -1.3570 N.ar    1  UNL1       -0.2425
      7  C4         5.3940    2.2180   -1.3940 C.ar    1  UNL1        0.2725
      8  O2         6.3950    2.5260   -2.1410 O.2     1  UNL1       -0.2658
      9  C5         5.4720    1.0610   -0.6190 C.ar    1  UNL1        0.0496
     10  C6         6.6160    0.2930   -0.6800 C.ar    1  UNL1       -0.0487
     11  C7         6.6570   -0.8570    0.0980 C.ar    1  UNL1       -0.0610
     12  C8         5.5700   -1.1660    0.8800 C.ar    1  UNL1       -0.0611
     13  C9         4.4170   -0.3930    0.9480 C.ar    1  UNL1       -0.0521
     14  C10        4.3920    0.7400    0.1720 C.ar    1  UNL1        0.0108
     15  N3         0.3700   -0.6750    0.4130 N.am    1  UNL1       -0.2982
     16  C11       -0.2970   -1.5160   -0.6270 C.3     1  UNL1        0.0304
     17  C12       -1.5760   -0.7090   -0.9340 C.3     1  UNL1        0.0280
     18  N4        -2.3000   -0.4490    0.3270 N.pl3   1  UNL1       -0.3269
     19  C13       -3.7330   -0.6700    0.1780 C.ar    1  UNL1        0.0303
     20  C14       -4.1240   -1.9050   -0.2760 C.ar    1  UNL1       -0.0406
     21  C15       -5.4690   -2.1560   -0.5540 C.ar    1  UNL1       -0.0595
     22  C16       -6.4000   -1.1390   -0.3650 C.ar    1  UNL1       -0.0500
     23  C17       -6.0090    0.0990    0.0920 C.ar    1  UNL1        0.0566
     24  C18       -6.9910    1.2080    0.2670 C.3     1  UNL1        0.4175
     25  F1        -7.3390    1.4210    1.5660 F       1  UNL1       -0.1659
     26  F2        -8.0660    1.0300   -0.5600 F       1  UNL1       -0.1659
     27  F3        -6.3690    2.3940   -0.1760 F       1  UNL1       -0.1659
     28  C19       -4.6510    0.3110    0.3600 C.ar    1  UNL1       -0.0290
     29  C20       -1.6640   -0.0290    1.5030 C.3     1  UNL1        0.0280
     30  C21       -0.2940   -0.7050    1.6780 C.3     1  UNL1        0.0304
     31 H           2.3972    0.6483    1.8790 H       1  UNL1        0.0423
     32 H           1.4092    1.8628    1.2063 H       1  UNL1        0.0423
     33 H           4.2697    3.7900   -1.9110 H       1  UNL1        0.1921
     34 H           7.4109    0.5624   -1.2805 H       1  UNL1        0.0625
     35 H           7.4885   -1.4682    0.0889 H       1  UNL1        0.0618
     36 H           5.6125   -2.0242    1.4515 H       1  UNL1        0.0618
     37 H           3.6213   -0.6565    1.5500 H       1  UNL1        0.0624
     38 H          -0.5341   -2.4873   -0.2460 H       1  UNL1        0.0480
     39 H           0.3127   -1.6955   -1.4878 H       1  UNL1        0.0480
     40 H          -2.2019   -1.2687   -1.5973 H       1  UNL1        0.0479
     41 H          -1.3132    0.2197   -1.3959 H       1  UNL1        0.0479
     42 H          -3.4224   -2.6495   -0.4121 H       1  UNL1        0.0636
     43 H          -5.7686   -3.0828   -0.8949 H       1  UNL1        0.0618
     44 H          -7.3959   -1.3153   -0.5701 H       1  UNL1        0.0623
     45 H          -4.3423    1.2339    0.7035 H       1  UNL1        0.0641
     46 H          -2.2829   -0.2767    2.3400 H       1  UNL1        0.0479
     47 H          -1.5102    1.0281    1.4411 H       1  UNL1        0.0479
     48 H           0.2839   -0.1744    2.4056 H       1  UNL1        0.0480
     49 H          -0.4140   -1.7136    2.0144 H       1  UNL1        0.0480
@<TRIPOS>BOND
     1     1     2    2
     2     2     3    1
     3     2    15   am
     4     3     4    1
     5     4     5   ar
     6     4    14   ar
     7     5     6   ar
     8     6     7   ar
     9     7     8    2
    10     7     9   ar
    11     9    10   ar
    12     9    14   ar
    13    10    11   ar
    14    11    12   ar
    15    12    13   ar
    16    13    14   ar
    17    15    16    1
    18    15    30    1
    19    16    17    1
    20    17    18    1
    21    18    19    1
    22    18    29    1
    23    19    20   ar
    24    19    28   ar
    25    20    21   ar
    26    21    22   ar
    27    22    23   ar
    28    23    24    1
    29    23    28   ar
    30    24    25    1
    31    24    26    1
    32    24    27    1
    33    29    30    1
    34     3    31    1
    35     3    32    1
    36     6    33    1
    37    10    34    1
    38    11    35    1
    39    12    36    1
    40    13    37    1
    41    16    38    1
    42    16    39    1
    43    17    40    1
    44    17    41    1
    45    20    42    1
    46    21    43    1
    47    22    44    1
    48    28    45    1
    49    29    46    1
    50    29    47    1
    51    30    48    1
    52    30    49    1
@<TRIPOS>MOLECULE
../data/bude_mols_rdkit_confs/molecule_25.pdb
 49 52 0 0 0
SMALL
GASTEIGER

@<TRIPOS>ATOM
      1  O1        -1.8980    0.8020   -2.0530 O.2     1  UNL1       -0.2752
      2  C1        -1.3670    0.4680   -0.9820 C.2     1  UNL1        0.2216
      3  C2        -2.2340   -0.3170   -0.0250 C.3     1  UNL1        0.0687
      4  C3        -3.5040    0.2820    0.3420 C.ar    1  UNL1        0.0780
      5  N1        -3.5120    1.4990    0.9560 N.ar    1  UNL1       -0.1748
      6  N2        -4.5820    2.1460    1.3340 N.ar    1  UNL1       -0.2425
      7  C4        -5.8030    1.6210    1.1280 C.ar    1  UNL1        0.2725
      8  O2        -6.8580    2.2020    1.4630 O.2     1  UNL1       -0.2658
      9  C5        -5.8710    0.3740    0.5080 C.ar    1  UNL1        0.0496
     10  C6        -7.0940   -0.2460    0.3490 C.ar    1  UNL1       -0.0487
     11  C7        -7.1870   -1.5100   -0.1850 C.ar    1  UNL1       -0.0610
     12  C8        -6.0500   -2.1900   -0.5790 C.ar    1  UNL1       -0.0611
     13  C9        -4.8190   -1.5710   -0.4300 C.ar    1  UNL1       -0.0521
     14  C10       -4.7200   -0.3060    0.1050 C.ar    1  UNL1        0.0108
     15  N3        -0.0330    0.7490   -0.5760 N.am    1  UNL1       -0.2982
     16  C11        0.3430    0.2480    0.7560 C.3     1  UNL1        0.0304
     17  C12        1.7600    0.6830    1.1030 C.3     1  UNL1        0.0280
     18  N4         2.6230    0.3080   -0.0260 N.pl3   1  UNL1       -0.3269
     19  C13        3.8660   -0.3150    0.2790 C.ar    1  UNL1        0.0303
     20  C14        3.9320   -1.4520    1.0430 C.ar    1  UNL1       -0.0406
     21  C15        5.1900   -1.9620    1.3390 C.ar    1  UNL1       -0.0595
     22  C16        6.3450   -1.3360    0.8750 C.ar    1  UNL1       -0.0500
     23  C17        6.2320   -0.2180    0.1270 C.ar    1  UNL1        0.0566
     24  C18        7.4550    0.4640   -0.3450 C.3     1  UNL1        0.4175
     25  F1         7.5760    0.1820   -1.6890 F       1  UNL1       -0.1659
     26  F2         8.5040    0.1190    0.4370 F       1  UNL1       -0.1659
     27  F3         7.1990    1.8430   -0.3050 F       1  UNL1       -0.1659
     28  C19        5.0180    0.2940   -0.1780 C.ar    1  UNL1       -0.0290
     29  C20        2.1880    0.5480   -1.3770 C.3     1  UNL1        0.0280
     30  C21        0.9430    1.4640   -1.3330 C.3     1  UNL1        0.0304
     31 H          -1.6731   -0.4653    0.8741 H       1  UNL1        0.0423
     32 H          -2.4866   -1.2166   -0.5463 H       1  UNL1        0.0423
     33 H          -4.4941    3.0232    1.7723 H       1  UNL1        0.1921
     34 H          -7.9537    0.2476    0.6359 H       1  UNL1        0.0625
     35 H          -8.1124   -1.9540   -0.2923 H       1  UNL1        0.0618
     36 H          -6.1164   -3.1401   -0.9764 H       1  UNL1        0.0618
     37 H          -3.9628   -2.0660   -0.7247 H       1  UNL1        0.0624
     38 H           0.2911   -0.8207    0.7588 H       1  UNL1        0.0480
     39 H          -0.3323    0.6495    1.4824 H       1  UNL1        0.0480
     40 H           2.0869    0.1881    1.9935 H       1  UNL1        0.0479
     41 H           1.8001    1.7383    1.2753 H       1  UNL1        0.0479
     42 H           3.0754   -1.9136    1.3867 H       1  UNL1        0.0636
     43 H           5.2701   -2.8172    1.9110 H       1  UNL1        0.0618
     44 H           7.2751   -1.7222    1.1003 H       1  UNL1        0.0623
     45 H           4.9521    1.1461   -0.7565 H       1  UNL1        0.0641
     46 H           1.9373   -0.3803   -1.8463 H       1  UNL1        0.0479
     47 H           2.9698    1.0167   -1.9374 H       1  UNL1        0.0479
     48 H           1.1790    2.3923   -0.8561 H       1  UNL1        0.0480
     49 H           0.5887    1.6980   -2.3152 H       1  UNL1        0.0480
@<TRIPOS>BOND
     1     1     2    2
     2     2     3    1
     3     2    15   am
     4     3     4    1
     5     4     5   ar
     6     4    14   ar
     7     5     6   ar
     8     6     7   ar
     9     7     8    2
    10     7     9   ar
    11     9    10   ar
    12     9    14   ar
    13    10    11   ar
    14    11    12   ar
    15    12    13   ar
    16    13    14   ar
    17    15    16    1
    18    15    30    1
    19    16    17    1
    20    17    18    1
    21    18    19    1
    22    18    29    1
    23    19    20   ar
    24    19    28   ar
    25    20    21   ar
    26    21    22   ar
    27    22    23   ar
    28    23    24    1
    29    23    28   ar
    30    24    25    1
    31    24    26    1
    32    24    27    1
    33    29    30    1
    34     3    31    1
    35     3    32    1
    36     6    33    1
    37    10    34    1
    38    11    35    1
    39    12    36    1
    40    13    37    1
    41    16    38    1
    42    16    39    1
    43    17    40    1
    44    17    41    1
    45    20    42    1
    46    21    43    1
    47    22    44    1
    48    28    45    1
    49    29    46    1
    50    29    47    1
    51    30    48    1
    52    30    49    1
@<TRIPOS>MOLECULE
../data/bude_mols_rdkit_confs/molecule_25.pdb
 49 52 0 0 0
SMALL
GASTEIGER

@<TRIPOS>ATOM
      1  O1        -2.2610   -1.7490    0.7780 O.2     1  UNL1       -0.2752
      2  C1        -1.6630   -0.8670    0.0570 C.2     1  UNL1        0.2216
      3  C2        -2.4640   -0.4590   -1.1300 C.3     1  UNL1        0.0687
      4  C3        -3.9090   -0.3380   -0.7710 C.ar    1  UNL1        0.0780
      5  N1        -4.8450   -1.2490   -1.0330 N.ar    1  UNL1       -0.1748
      6  N2        -6.1180   -1.1320   -0.6960 N.ar    1  UNL1       -0.2425
      7  C4        -6.5190   -0.0240   -0.0460 C.ar    1  UNL1        0.2725
      8  O2        -7.7030    0.1490    0.3040 O.2     1  UNL1       -0.2658
      9  C5        -5.6070    0.9730    0.2620 C.ar    1  UNL1        0.0496
     10  C6        -5.9740    2.1210    0.9230 C.ar    1  UNL1       -0.0487
     11  C7        -5.0440    3.1090    1.2220 C.ar    1  UNL1       -0.0610
     12  C8        -3.7280    2.9330    0.8470 C.ar    1  UNL1       -0.0611
     13  C9        -3.3540    1.7850    0.1850 C.ar    1  UNL1       -0.0521
     14  C10       -4.2920    0.8100   -0.1050 C.ar    1  UNL1        0.0108
     15  N3        -0.3990   -0.3950    0.4160 N.am    1  UNL1       -0.2982
     16  C11        0.2920    0.6130   -0.3220 C.3     1  UNL1        0.0304
     17  C12        1.7620    0.6760   -0.0270 C.3     1  UNL1        0.0280
     18  N4         2.3000   -0.6080    0.3960 N.pl3   1  UNL1       -0.3269
     19  C13        3.6210   -0.9130   -0.0160 C.ar    1  UNL1        0.0303
     20  C14        3.8670   -2.1400   -0.5720 C.ar    1  UNL1       -0.0406
     21  C15        5.1590   -2.4480   -0.9780 C.ar    1  UNL1       -0.0595
     22  C16        6.1910   -1.5510   -0.8370 C.ar    1  UNL1       -0.0500
     23  C17        5.9400   -0.3200   -0.2770 C.ar    1  UNL1        0.0566
     24  C18        7.0380    0.6390   -0.1100 C.3     1  UNL1        0.4175
     25  F1         8.0860    0.0580    0.5850 F       1  UNL1       -0.1659
     26  F2         7.4810    1.0220   -1.3280 F       1  UNL1       -0.1659
     27  F3         6.5970    1.7830    0.5850 F       1  UNL1       -0.1659
     28  C19        4.6450   -0.0060    0.1340 C.ar    1  UNL1       -0.0290
     29  C20        1.5700   -1.5310    1.2080 C.3     1  UNL1        0.0280
     30  C21        0.2560   -0.9450    1.5940 C.3     1  UNL1        0.0304
     31 H          -2.3529   -1.1944   -1.8992 H       1  UNL1        0.0423
     32 H          -2.1126    0.4913   -1.4740 H       1  UNL1        0.0423
     33 H          -6.7617   -1.8434   -0.9168 H       1  UNL1        0.1921
     34 H          -6.9588    2.2515    1.2024 H       1  UNL1        0.0625
     35 H          -5.3345    3.9654    1.7193 H       1  UNL1        0.0618
     36 H          -3.0266    3.6589    1.0618 H       1  UNL1        0.0618
     37 H          -2.3700    1.6512   -0.0960 H       1  UNL1        0.0624
     38 H          -0.1411    1.5622   -0.0845 H       1  UNL1        0.0480
     39 H           0.1914    0.3660   -1.3582 H       1  UNL1        0.0480
     40 H           1.9254    1.3904    0.7527 H       1  UNL1        0.0479
     41 H           2.2633    0.9577   -0.9294 H       1  UNL1        0.0479
     42 H           3.1041   -2.8253   -0.6876 H       1  UNL1        0.0636
     43 H           5.3488   -3.3725   -1.3956 H       1  UNL1        0.0618
     44 H           7.1435   -1.7984   -1.1478 H       1  UNL1        0.0623
     45 H           4.4525    0.9163    0.5551 H       1  UNL1        0.0641
     46 H           2.1338   -1.7482    2.0911 H       1  UNL1        0.0479
     47 H           1.4029   -2.4301    0.6525 H       1  UNL1        0.0479
     48 H          -0.3617   -1.7069    2.0217 H       1  UNL1        0.0480
     49 H           0.4115   -0.1655    2.3103 H       1  UNL1        0.0480
@<TRIPOS>BOND
     1     1     2    2
     2     2     3    1
     3     2    15   am
     4     3     4    1
     5     4     5   ar
     6     4    14   ar
     7     5     6   ar
     8     6     7   ar
     9     7     8    2
    10     7     9   ar
    11     9    10   ar
    12     9    14   ar
    13    10    11   ar
    14    11    12   ar
    15    12    13   ar
    16    13    14   ar
    17    15    16    1
    18    15    30    1
    19    16    17    1
    20    17    18    1
    21    18    19    1
    22    18    29    1
    23    19    20   ar
    24    19    28   ar
    25    20    21   ar
    26    21    22   ar
    27    22    23   ar
    28    23    24    1
    29    23    28   ar
    30    24    25    1
    31    24    26    1
    32    24    27    1
    33    29    30    1
    34     3    31    1
    35     3    32    1
    36     6    33    1
    37    10    34    1
    38    11    35    1
    39    12    36    1
    40    13    37    1
    41    16    38    1
    42    16    39    1
    43    17    40    1
    44    17    41    1
    45    20    42    1
    46    21    43    1
    47    22    44    1
    48    28    45    1
    49    29    46    1
    50    29    47    1
    51    30    48    1
    52    30    49    1
@<TRIPOS>MOLECULE
../data/bude_mols_rdkit_confs/molecule_25.pdb
 49 52 0 0 0
SMALL
GASTEIGER

@<TRIPOS>ATOM
      1  O1        -2.1780   -0.0720   -1.9880 O.2     1  UNL1       -0.2752
      2  C1        -1.6990   -0.7470   -1.0010 C.2     1  UNL1        0.2216
      3  C2        -2.5710   -1.6500   -0.2080 C.3     1  UNL1        0.0687
      4  C3        -3.3140   -0.7930    0.7680 C.ar    1  UNL1        0.0780
      5  N1        -2.7870   -0.6510    2.0200 N.ar    1  UNL1       -0.1748
      6  N2        -3.3650    0.1640    2.8620 N.ar    1  UNL1       -0.2425
      7  C4        -4.4620    0.8690    2.5410 C.ar    1  UNL1        0.2725
      8  O2        -5.0370    1.6680    3.3420 O.2     1  UNL1       -0.2658
      9  C5        -5.0410    0.7630    1.2910 C.ar    1  UNL1        0.0496
     10  C6        -6.1510    1.4560    0.9280 C.ar    1  UNL1       -0.0487
     11  C7        -6.7090    1.3250   -0.3340 C.ar    1  UNL1       -0.0610
     12  C8        -6.1510    0.4800   -1.2640 C.ar    1  UNL1       -0.0611
     13  C9        -5.0100   -0.2280   -0.8830 C.ar    1  UNL1       -0.0521
     14  C10       -4.4280   -0.1090    0.3770 C.ar    1  UNL1        0.0108
     15  N3        -0.3040   -0.5960   -0.6870 N.am    1  UNL1       -0.2982
     16  C11        0.4330    0.3210   -1.5420 C.3     1  UNL1        0.0304
     17  C12        1.8530   -0.0260   -1.7710 C.3     1  UNL1        0.0280
     18  N4         2.4520   -0.7450   -0.6630 N.pl3   1  UNL1       -0.3269
     19  C13        3.7760   -0.4410   -0.2340 C.ar    1  UNL1        0.0303
     20  C14        4.5590   -1.4200    0.3160 C.ar    1  UNL1       -0.0406
     21  C15        5.8470   -1.1490    0.7260 C.ar    1  UNL1       -0.0595
     22  C16        6.3800    0.1200    0.5910 C.ar    1  UNL1       -0.0500
     23  C17        5.5790    1.1040    0.0330 C.ar    1  UNL1        0.0566
     24  C18        6.1540    2.4760   -0.1180 C.3     1  UNL1        0.4175
     25  F1         7.2390    2.4450   -0.9620 F       1  UNL1       -0.1659
     26  F2         6.5110    3.0250    1.0990 F       1  UNL1       -0.1659
     27  F3         5.2070    3.3140   -0.7270 F       1  UNL1       -0.1659
     28  C19        4.3030    0.8290   -0.3720 C.ar    1  UNL1       -0.0290
     29  C20        1.7010   -1.7580   -0.0070 C.3     1  UNL1        0.0280
     30  C21        0.3430   -1.2370    0.3920 C.3     1  UNL1        0.0304
     31 H          -1.9764   -2.3706    0.3137 H       1  UNL1        0.0423
     32 H          -3.2485   -2.1819   -0.8428 H       1  UNL1        0.0423
     33 H          -2.9828    0.2648    3.7637 H       1  UNL1        0.1921
     34 H          -6.5898    2.0959    1.6084 H       1  UNL1        0.0625
     35 H          -7.5523    1.8675   -0.5782 H       1  UNL1        0.0618
     36 H          -6.5593    0.3735   -2.2058 H       1  UNL1        0.0618
     37 H          -4.5776   -0.8692   -1.5663 H       1  UNL1        0.0624
     38 H           0.3988    1.2912   -1.0921 H       1  UNL1        0.0480
     39 H          -0.0399    0.2742   -2.5007 H       1  UNL1        0.0480
     40 H           2.4032    0.8785   -1.9265 H       1  UNL1        0.0479
     41 H           1.8889   -0.6704   -2.6244 H       1  UNL1        0.0479
     42 H           4.1800   -2.3737    0.4252 H       1  UNL1        0.0636
     43 H           6.4200   -1.9017    1.1384 H       1  UNL1        0.0618
     44 H           7.3437    0.3278    0.8961 H       1  UNL1        0.0623
     45 H           3.7264    1.5783   -0.7856 H       1  UNL1        0.0641
     46 H           2.2276   -2.0747    0.8690 H       1  UNL1        0.0479
     47 H           1.5714   -2.5810   -0.6784 H       1  UNL1        0.0479
     48 H          -0.2606   -2.0567    0.7217 H       1  UNL1        0.0480
     49 H           0.4757   -0.5213    1.1763 H       1  UNL1        0.0480
@<TRIPOS>BOND
     1     1     2    2
     2     2     3    1
     3     2    15   am
     4     3     4    1
     5     4     5   ar
     6     4    14   ar
     7     5     6   ar
     8     6     7   ar
     9     7     8    2
    10     7     9   ar
    11     9    10   ar
    12     9    14   ar
    13    10    11   ar
    14    11    12   ar
    15    12    13   ar
    16    13    14   ar
    17    15    16    1
    18    15    30    1
    19    16    17    1
    20    17    18    1
    21    18    19    1
    22    18    29    1
    23    19    20   ar
    24    19    28   ar
    25    20    21   ar
    26    21    22   ar
    27    22    23   ar
    28    23    24    1
    29    23    28   ar
    30    24    25    1
    31    24    26    1
    32    24    27    1
    33    29    30    1
    34     3    31    1
    35     3    32    1
    36     6    33    1
    37    10    34    1
    38    11    35    1
    39    12    36    1
    40    13    37    1
    41    16    38    1
    42    16    39    1
    43    17    40    1
    44    17    41    1
    45    20    42    1
    46    21    43    1
    47    22    44    1
    48    28    45    1
    49    29    46    1
    50    29    47    1
    51    30    48    1
    52    30    49    1
@<TRIPOS>MOLECULE
../data/bude_mols_rdkit_confs/molecule_25.pdb
 49 52 0 0 0
SMALL
GASTEIGER

@<TRIPOS>ATOM
      1  O1        -2.2090    1.4310    1.0580 O.2     1  UNL1       -0.2752
      2  C1        -1.5240    0.8820    0.1530 C.2     1  UNL1        0.2216
      3  C2        -2.2230    0.4740   -1.1070 C.3     1  UNL1        0.0687
      4  C3        -3.6650    0.7690   -1.0190 C.ar    1  UNL1        0.0780
      5  N1        -4.1880    1.8900   -1.5550 N.ar    1  UNL1       -0.1748
      6  N2        -5.4820    2.1620   -1.4420 N.ar    1  UNL1       -0.2425
      7  C4        -6.3310    1.3460   -0.7970 C.ar    1  UNL1        0.2725
      8  O2        -7.5690    1.6560   -0.7190 O.2     1  UNL1       -0.2658
      9  C5        -5.8560    0.1780   -0.2260 C.ar    1  UNL1        0.0496
     10  C6        -6.7090   -0.6960    0.4380 C.ar    1  UNL1       -0.0487
     11  C7        -6.2070   -1.8620    0.9870 C.ar    1  UNL1       -0.0610
     12  C8        -4.8780   -2.1680    0.8840 C.ar    1  UNL1       -0.0611
     13  C9        -4.0390   -1.2890    0.2220 C.ar    1  UNL1       -0.0521
     14  C10       -4.4860   -0.1040   -0.3480 C.ar    1  UNL1        0.0108
     15  N3        -0.1500    0.6430    0.2650 N.am    1  UNL1       -0.2982
     16  C11        0.5780   -0.0500   -0.7590 C.3     1  UNL1        0.0304
     17  C12        1.6850   -0.9220   -0.1330 C.3     1  UNL1        0.0280
     18  N4         2.5040   -0.0110    0.6230 N.pl3   1  UNL1       -0.3269
     19  C13        3.8830    0.1260    0.3100 C.ar    1  UNL1        0.0303
     20  C14        4.5500    1.3070    0.5480 C.ar    1  UNL1       -0.0406
     21  C15        5.9110    1.4760    0.2780 C.ar    1  UNL1       -0.0595
     22  C16        6.6310    0.4440   -0.2440 C.ar    1  UNL1       -0.0500
     23  C17        5.9870   -0.7550   -0.4940 C.ar    1  UNL1        0.0566
     24  C18        6.7020   -1.9320   -1.0620 C.3     1  UNL1        0.4175
     25  F1         6.6280   -2.9460   -0.1370 F       1  UNL1       -0.1659
     26  F2         5.9980   -2.2960   -2.2030 F       1  UNL1       -0.1659
     27  F3         7.9700   -1.6360   -1.4490 F       1  UNL1       -0.1659
     28  C19        4.6320   -0.9120   -0.2200 C.ar    1  UNL1       -0.0290
     29  C20        1.8770    0.7090    1.6960 C.3     1  UNL1        0.0280
     30  C21        0.4840    1.1680    1.4530 C.3     1  UNL1        0.0304
     31 H          -2.0876   -0.5763   -1.2600 H       1  UNL1        0.0423
     32 H          -1.8076    1.0238   -1.9256 H       1  UNL1        0.0423
     33 H          -5.8311    2.9898   -1.8446 H       1  UNL1        0.1921
     34 H          -7.7137   -0.4755    0.5211 H       1  UNL1        0.0625
     35 H          -6.8426   -2.5085    1.4800 H       1  UNL1        0.0618
     36 H          -4.5071   -3.0398    1.2931 H       1  UNL1        0.0618
     37 H          -3.0369   -1.5244    0.1486 H       1  UNL1        0.0624
     38 H           1.0229    0.6639   -1.4203 H       1  UNL1        0.0480
     39 H          -0.0970   -0.6801   -1.2996 H       1  UNL1        0.0480
     40 H           2.2625   -1.3998   -0.8966 H       1  UNL1        0.0479
     41 H           1.2810   -1.6992    0.4815 H       1  UNL1        0.0479
     42 H           4.0224    2.1013    0.9426 H       1  UNL1        0.0636
     43 H           6.3691    2.3799    0.4735 H       1  UNL1        0.0618
     44 H           7.6364    0.5542   -0.4489 H       1  UNL1        0.0623
     45 H           4.1769   -1.8175   -0.4150 H       1  UNL1        0.0641
     46 H           2.4740    1.5727    1.9022 H       1  UNL1        0.0479
     47 H           1.8120    0.0144    2.5073 H       1  UNL1        0.0479
     48 H          -0.1087    0.8808    2.2963 H       1  UNL1        0.0480
     49 H           0.5466    2.2262    1.3072 H       1  UNL1        0.0480
@<TRIPOS>BOND
     1     1     2    2
     2     2     3    1
     3     2    15   am
     4     3     4    1
     5     4     5   ar
     6     4    14   ar
     7     5     6   ar
     8     6     7   ar
     9     7     8    2
    10     7     9   ar
    11     9    10   ar
    12     9    14   ar
    13    10    11   ar
    14    11    12   ar
    15    12    13   ar
    16    13    14   ar
    17    15    16    1
    18    15    30    1
    19    16    17    1
    20    17    18    1
    21    18    19    1
    22    18    29    1
    23    19    20   ar
    24    19    28   ar
    25    20    21   ar
    26    21    22   ar
    27    22    23   ar
    28    23    24    1
    29    23    28   ar
    30    24    25    1
    31    24    26    1
    32    24    27    1
    33    29    30    1
    34     3    31    1
    35     3    32    1
    36     6    33    1
    37    10    34    1
    38    11    35    1
    39    12    36    1
    40    13    37    1
    41    16    38    1
    42    16    39    1
    43    17    40    1
    44    17    41    1
    45    20    42    1
    46    21    43    1
    47    22    44    1
    48    28    45    1
    49    29    46    1
    50    29    47    1
    51    30    48    1
    52    30    49    1
@<TRIPOS>MOLECULE
../data/bude_mols_rdkit_confs/molecule_25.pdb
 49 52 0 0 0
SMALL
GASTEIGER

@<TRIPOS>ATOM
      1  O1        -2.2020   -1.0620   -1.2550 O.2     1  UNL1       -0.2752
      2  C1        -1.5480   -0.4030   -0.4080 C.2     1  UNL1        0.2216
      3  C2        -2.2270    0.6280    0.4160 C.3     1  UNL1        0.0687
      4  C3        -3.5520    1.0420   -0.0750 C.ar    1  UNL1        0.0780
      5  N1        -3.7030    2.2380   -0.6720 N.ar    1  UNL1       -0.1748
      6  N2        -4.8460    2.7200   -1.1020 N.ar    1  UNL1       -0.2425
      7  C4        -5.9360    1.9390   -0.9240 C.ar    1  UNL1        0.2725
      8  O2        -7.0460    2.3510   -1.3130 O.2     1  UNL1       -0.2658
      9  C5        -5.8710    0.6810   -0.3180 C.ar    1  UNL1        0.0496
     10  C6        -7.0060   -0.0780   -0.1680 C.ar    1  UNL1       -0.0487
     11  C7        -6.9300   -1.3380    0.4250 C.ar    1  UNL1       -0.0610
     12  C8        -5.7010   -1.8160    0.8550 C.ar    1  UNL1       -0.0611
     13  C9        -4.5680   -1.0090    0.6900 C.ar    1  UNL1       -0.0521
     14  C10       -4.6430    0.2380    0.1120 C.ar    1  UNL1        0.0108
     15  N3        -0.1660   -0.6220   -0.2180 N.am    1  UNL1       -0.2982
     16  C11        0.6040    0.2170    0.6830 C.3     1  UNL1        0.0304
     17  C12        1.7430    0.7160   -0.2870 C.3     1  UNL1        0.0280
     18  N4         2.6070   -0.4690   -0.2740 N.pl3   1  UNL1       -0.3269
     19  C13        3.9130   -0.2580    0.1650 C.ar    1  UNL1        0.0303
     20  C14        4.1770   -0.6160    1.5060 C.ar    1  UNL1       -0.0406
     21  C15        5.4090   -0.3880    2.0420 C.ar    1  UNL1       -0.0595
     22  C16        6.4130    0.1840    1.3010 C.ar    1  UNL1       -0.0500
     23  C17        6.1770    0.5390   -0.0110 C.ar    1  UNL1        0.0566
     24  C18        7.3240    1.1000   -0.7890 C.3     1  UNL1        0.4175
     25  F1         7.4240    0.4430   -2.0230 F       1  UNL1       -0.1659
     26  F2         8.5140    0.7580   -0.1190 F       1  UNL1       -0.1659
     27  F3         7.2620    2.4460   -0.9480 F       1  UNL1       -0.1659
     28  C19        4.9350    0.3150   -0.5540 C.ar    1  UNL1       -0.0290
     29  C20        2.0200   -1.7260   -0.6400 C.3     1  UNL1        0.0280
     30  C21        0.5240   -1.6680   -0.9120 C.3     1  UNL1        0.0304
     31 H          -1.5992    1.4939    0.4481 H       1  UNL1        0.0423
     32 H          -2.3884    0.1852    1.3766 H       1  UNL1        0.0423
     33 H          -4.9066    3.6038   -1.5316 H       1  UNL1        0.1921
     34 H          -7.9155    0.2844   -0.4943 H       1  UNL1        0.0625
     35 H          -7.7810   -1.9099    0.5429 H       1  UNL1        0.0618
     36 H          -5.6227   -2.7492    1.2886 H       1  UNL1        0.0618
     37 H          -3.6517   -1.3591    1.0107 H       1  UNL1        0.0624
     38 H           1.0015   -0.3448    1.5023 H       1  UNL1        0.0480
     39 H           0.0434    0.9994    1.1504 H       1  UNL1        0.0480
     40 H           2.2443    1.5799    0.0968 H       1  UNL1        0.0479
     41 H           1.4124    1.0285   -1.2555 H       1  UNL1        0.0479
     42 H           3.4370   -1.0501    2.0795 H       1  UNL1        0.0636
     43 H           5.5906   -0.6503    3.0235 H       1  UNL1        0.0618
     44 H           7.3402    0.3477    1.7235 H       1  UNL1        0.0623
     45 H           4.7635    0.5861   -1.5349 H       1  UNL1        0.0641
     46 H           2.1880   -2.4184    0.1583 H       1  UNL1        0.0479
     47 H           2.4848   -2.0237   -1.5566 H       1  UNL1        0.0479
     48 H           0.3807   -1.5232   -1.9624 H       1  UNL1        0.0480
     49 H           0.1142   -2.5905   -0.5570 H       1  UNL1        0.0480
@<TRIPOS>BOND
     1     1     2    2
     2     2     3    1
     3     2    15   am
     4     3     4    1
     5     4     5   ar
     6     4    14   ar
     7     5     6   ar
     8     6     7   ar
     9     7     8    2
    10     7     9   ar
    11     9    10   ar
    12     9    14   ar
    13    10    11   ar
    14    11    12   ar
    15    12    13   ar
    16    13    14   ar
    17    15    16    1
    18    15    30    1
    19    16    17    1
    20    17    18    1
    21    18    19    1
    22    18    29    1
    23    19    20   ar
    24    19    28   ar
    25    20    21   ar
    26    21    22   ar
    27    22    23   ar
    28    23    24    1
    29    23    28   ar
    30    24    25    1
    31    24    26    1
    32    24    27    1
    33    29    30    1
    34     3    31    1
    35     3    32    1
    36     6    33    1
    37    10    34    1
    38    11    35    1
    39    12    36    1
    40    13    37    1
    41    16    38    1
    42    16    39    1
    43    17    40    1
    44    17    41    1
    45    20    42    1
    46    21    43    1
    47    22    44    1
    48    28    45    1
    49    29    46    1
    50    29    47    1
    51    30    48    1
    52    30    49    1
@<TRIPOS>MOLECULE
../data/bude_mols_rdkit_confs/molecule_25.pdb
 49 52 0 0 0
SMALL
GASTEIGER

@<TRIPOS>ATOM
      1  O1         0.5030   -2.5740   -0.8560 O.2     1  UNL1       -0.2752
      2  C1        -0.4420   -1.7410   -0.5000 C.2     1  UNL1        0.2216
      3  C2        -1.6490   -1.9390   -1.2400 C.3     1  UNL1        0.0687
      4  C3        -2.6520   -0.9370   -1.4900 C.ar    1  UNL1        0.0780
      5  N1        -2.6930   -0.3520   -2.7370 N.ar    1  UNL1       -0.1748
      6  N2        -3.6240    0.5600   -3.0190 N.ar    1  UNL1       -0.2425
      7  C4        -4.5720    0.9880   -2.1710 C.ar    1  UNL1        0.2725
      8  O2        -5.4390    1.8370   -2.4030 O.2     1  UNL1       -0.2658
      9  C5        -4.5240    0.3780   -0.9030 C.ar    1  UNL1        0.0496
     10  C6        -5.4740    0.7400    0.0490 C.ar    1  UNL1       -0.0487
     11  C7        -5.4630    0.1600    1.2870 C.ar    1  UNL1       -0.0610
     12  C8        -4.5040   -0.8070    1.6220 C.ar    1  UNL1       -0.0611
     13  C9        -3.5830   -1.1470    0.6840 C.ar    1  UNL1       -0.0521
     14  C10       -3.5830   -0.5610   -0.5740 C.ar    1  UNL1        0.0108
     15  N3        -0.0600   -0.8570    0.5210 N.am    1  UNL1       -0.2982
     16  C11       -0.6300    0.3350    1.0000 C.3     1  UNL1        0.0304
     17  C12        0.3880    1.5570    0.9410 C.3     1  UNL1        0.0280
     18  N4         1.6890    0.9960    1.1200 N.pl3   1  UNL1       -0.3269
     19  C13        2.8410    1.3500    0.4150 C.ar    1  UNL1        0.0303
     20  C14        3.0130    2.4980   -0.3220 C.ar    1  UNL1       -0.0406
     21  C15        4.1790    2.7590   -1.0330 C.ar    1  UNL1       -0.0595
     22  C16        5.1900    1.8440   -1.0040 C.ar    1  UNL1       -0.0500
     23  C17        5.0880    0.6850   -0.2970 C.ar    1  UNL1        0.0566
     24  C18        6.1770   -0.3220   -0.2960 C.3     1  UNL1        0.4175
     25  F1         7.3660    0.2990   -0.1210 F       1  UNL1       -0.1659
     26  F2         5.9330   -1.2920    0.6890 F       1  UNL1       -0.1659
     27  F3         6.1170   -1.0010   -1.4920 F       1  UNL1       -0.1659
     28  C19        3.9350    0.4480    0.3970 C.ar    1  UNL1       -0.0290
     29  C20        1.6750   -0.1140    2.0970 C.3     1  UNL1        0.0280
     30  C21        1.1220   -1.3090    1.3680 C.3     1  UNL1        0.0304
     31 H          -2.1615   -2.7325   -0.7375 H       1  UNL1        0.0423
     32 H          -1.2476   -2.0515   -2.2255 H       1  UNL1        0.0423
     33 H          -3.6152    0.9510   -3.9225 H       1  UNL1        0.1921
     34 H          -6.1885    1.4483   -0.1808 H       1  UNL1        0.0625
     35 H          -6.1705    0.4377    1.9850 H       1  UNL1        0.0618
     36 H          -4.4985   -1.2477    2.5551 H       1  UNL1        0.0618
     37 H          -2.8682   -1.8558    0.9113 H       1  UNL1        0.0624
     38 H          -0.9327    0.1879    2.0157 H       1  UNL1        0.0480
     39 H          -1.4647    0.5735    0.3744 H       1  UNL1        0.0480
     40 H           0.1744    2.2566    1.7219 H       1  UNL1        0.0479
     41 H           0.3134    2.0842    0.0129 H       1  UNL1        0.0479
     42 H           2.2488    3.1911   -0.3484 H       1  UNL1        0.0636
     43 H           4.2780    3.6319   -1.5745 H       1  UNL1        0.0618
     44 H           6.0557    2.0354   -1.5322 H       1  UNL1        0.0623
     45 H           3.8566   -0.4298    0.9340 H       1  UNL1        0.0641
     46 H           1.0511    0.1334    2.9303 H       1  UNL1        0.0479
     47 H           2.6553   -0.3097    2.4785 H       1  UNL1        0.0479
     48 H           1.8780   -1.7282    0.7374 H       1  UNL1        0.0480
     49 H           0.8057   -2.0516    2.0704 H       1  UNL1        0.0480
@<TRIPOS>BOND
     1     1     2    2
     2     2     3    1
     3     2    15   am
     4     3     4    1
     5     4     5   ar
     6     4    14   ar
     7     5     6   ar
     8     6     7   ar
     9     7     8    2
    10     7     9   ar
    11     9    10   ar
    12     9    14   ar
    13    10    11   ar
    14    11    12   ar
    15    12    13   ar
    16    13    14   ar
    17    15    16    1
    18    15    30    1
    19    16    17    1
    20    17    18    1
    21    18    19    1
    22    18    29    1
    23    19    20   ar
    24    19    28   ar
    25    20    21   ar
    26    21    22   ar
    27    22    23   ar
    28    23    24    1
    29    23    28   ar
    30    24    25    1
    31    24    26    1
    32    24    27    1
    33    29    30    1
    34     3    31    1
    35     3    32    1
    36     6    33    1
    37    10    34    1
    38    11    35    1
    39    12    36    1
    40    13    37    1
    41    16    38    1
    42    16    39    1
    43    17    40    1
    44    17    41    1
    45    20    42    1
    46    21    43    1
    47    22    44    1
    48    28    45    1
    49    29    46    1
    50    29    47    1
    51    30    48    1
    52    30    49    1
@<TRIPOS>MOLECULE
../data/bude_mols_rdkit_confs/molecule_25.pdb
 49 52 0 0 0
SMALL
GASTEIGER

@<TRIPOS>ATOM
      1  O1         1.9030   -0.0250   -1.7240 O.2     1  UNL1       -0.2752
      2  C1         1.5550   -0.6010   -0.6600 C.2     1  UNL1        0.2216
      3  C2         2.4800   -1.1190    0.3480 C.3     1  UNL1        0.0687
      4  C3         3.9050   -0.9100    0.0440 C.ar    1  UNL1        0.0780
      5  N1         4.7600   -1.9370   -0.2000 N.ar    1  UNL1       -0.1748
      6  N2         6.0670   -1.7520   -0.4110 N.ar    1  UNL1       -0.2425
      7  C4         6.6460   -0.5370   -0.3990 C.ar    1  UNL1        0.2725
      8  O2         7.8890   -0.4460   -0.5960 O.2     1  UNL1       -0.2658
      9  C5         5.8320    0.5360   -0.1610 C.ar    1  UNL1        0.0496
     10  C6         6.4300    1.7780   -0.1630 C.ar    1  UNL1       -0.0487
     11  C7         5.6110    2.8630    0.0670 C.ar    1  UNL1       -0.0610
     12  C8         4.2530    2.7180    0.2900 C.ar    1  UNL1       -0.0611
     13  C9         3.6450    1.4680    0.2920 C.ar    1  UNL1       -0.0521
     14  C10        4.4580    0.3680    0.0630 C.ar    1  UNL1        0.0108
     15  N3         0.1580   -0.7520   -0.4320 N.am    1  UNL1       -0.2982
     16  C11       -0.3260   -1.4920    0.6920 C.3     1  UNL1        0.0304
     17  C12       -1.7850   -1.3700    0.9980 C.3     1  UNL1        0.0280
     18  N4        -2.6050   -1.0230   -0.1150 N.pl3   1  UNL1       -0.3269
     19  C13       -3.9550   -0.6410   -0.0170 C.ar    1  UNL1        0.0303
     20  C14       -4.9380   -1.6230   -0.1140 C.ar    1  UNL1       -0.0406
     21  C15       -6.2820   -1.2260   -0.0670 C.ar    1  UNL1       -0.0595
     22  C16       -6.6690    0.0910    0.0700 C.ar    1  UNL1       -0.0500
     23  C17       -5.6790    1.0730    0.1690 C.ar    1  UNL1        0.0566
     24  C18       -6.0730    2.4930    0.2820 C.3     1  UNL1        0.4175
     25  F1        -6.9730    2.6840    1.3320 F       1  UNL1       -0.1659
     26  F2        -4.9430    3.2570    0.5200 F       1  UNL1       -0.1659
     27  F3        -6.5890    2.9480   -0.9200 F       1  UNL1       -0.1659
     28  C19       -4.3610    0.6700    0.1210 C.ar    1  UNL1       -0.0290
     29  C20       -1.9850   -1.0690   -1.4220 C.3     1  UNL1        0.0280
     30  C21       -0.7960   -0.0990   -1.3250 C.3     1  UNL1        0.0304
     31 H           2.3113   -2.1711    0.4452 H       1  UNL1        0.0423
     32 H           2.2810   -0.5745    1.2474 H       1  UNL1        0.0423
     33 H           6.6315   -2.5400   -0.5829 H       1  UNL1        0.1921
     34 H           7.4424    1.8903   -0.3287 H       1  UNL1        0.0625
     35 H           6.0221    3.8096    0.0730 H       1  UNL1        0.0618
     36 H           3.6778    3.5581    0.4589 H       1  UNL1        0.0618
     37 H           2.6317    1.3630    0.4569 H       1  UNL1        0.0624
     38 H           0.2149   -1.1626    1.5544 H       1  UNL1        0.0480
     39 H          -0.1769   -2.5205    0.4372 H       1  UNL1        0.0480
     40 H          -1.9054   -0.6158    1.7474 H       1  UNL1        0.0479
     41 H          -2.1067   -2.3394    1.3168 H       1  UNL1        0.0479
     42 H          -4.6836   -2.6177   -0.2178 H       1  UNL1        0.0636
     43 H          -7.0134   -1.9505   -0.1380 H       1  UNL1        0.0618
     44 H          -7.6686    0.3460    0.0988 H       1  UNL1        0.0623
     45 H          -3.6313    1.3962    0.1930 H       1  UNL1        0.0641
     46 H          -2.6723   -0.7490   -2.1770 H       1  UNL1        0.0479
     47 H          -1.6790   -2.0586   -1.6900 H       1  UNL1        0.0479
     48 H          -0.3603    0.0583   -2.2895 H       1  UNL1        0.0480
     49 H          -1.0924    0.8623   -0.9603 H       1  UNL1        0.0480
@<TRIPOS>BOND
     1     1     2    2
     2     2     3    1
     3     2    15   am
     4     3     4    1
     5     4     5   ar
     6     4    14   ar
     7     5     6   ar
     8     6     7   ar
     9     7     8    2
    10     7     9   ar
    11     9    10   ar
    12     9    14   ar
    13    10    11   ar
    14    11    12   ar
    15    12    13   ar
    16    13    14   ar
    17    15    16    1
    18    15    30    1
    19    16    17    1
    20    17    18    1
    21    18    19    1
    22    18    29    1
    23    19    20   ar
    24    19    28   ar
    25    20    21   ar
    26    21    22   ar
    27    22    23   ar
    28    23    24    1
    29    23    28   ar
    30    24    25    1
    31    24    26    1
    32    24    27    1
    33    29    30    1
    34     3    31    1
    35     3    32    1
    36     6    33    1
    37    10    34    1
    38    11    35    1
    39    12    36    1
    40    13    37    1
    41    16    38    1
    42    16    39    1
    43    17    40    1
    44    17    41    1
    45    20    42    1
    46    21    43    1
    47    22    44    1
    48    28    45    1
    49    29    46    1
    50    29    47    1
    51    30    48    1
    52    30    49    1
@<TRIPOS>MOLECULE
../data/bude_mols_rdkit_confs/molecule_25.pdb
 49 52 0 0 0
SMALL
GASTEIGER

@<TRIPOS>ATOM
      1  O1        -2.0670    1.9280    0.6670 O.2     1  UNL1       -0.2752
      2  C1        -1.6580    1.1710   -0.2450 C.2     1  UNL1        0.2216
      3  C2        -2.5860    0.6700   -1.2670 C.3     1  UNL1        0.0687
      4  C3        -3.9930    0.6120   -0.9430 C.ar    1  UNL1        0.0780
      5  N1        -4.9840    1.2690   -1.5560 N.ar    1  UNL1       -0.1748
      6  N2        -6.2600    1.0680   -1.2520 N.ar    1  UNL1       -0.2425
      7  C4        -6.6670    0.2050   -0.3200 C.ar    1  UNL1        0.2725
      8  O2        -7.8760   -0.0060   -0.0110 O.2     1  UNL1       -0.2658
      9  C5        -5.7200   -0.5150    0.3630 C.ar    1  UNL1        0.0496
     10  C6        -6.0750   -1.4150    1.3570 C.ar    1  UNL1       -0.0487
     11  C7        -5.0720   -2.1110    2.0450 C.ar    1  UNL1       -0.0610
     12  C8        -3.7530   -1.9080    1.7430 C.ar    1  UNL1       -0.0611
     13  C9        -3.4110   -0.9960    0.7340 C.ar    1  UNL1       -0.0521
     14  C10       -4.3820   -0.3090    0.0520 C.ar    1  UNL1        0.0108
     15  N3        -0.2980    0.7840   -0.2840 N.am    1  UNL1       -0.2982
     16  C11        0.1750    0.0050   -1.4160 C.3     1  UNL1        0.0304
     17  C12        1.6460    0.1770   -1.5860 C.3     1  UNL1        0.0280
     18  N4         2.3510   -0.1590   -0.3850 N.pl3   1  UNL1       -0.3269
     19  C13        3.7210   -0.5150   -0.3000 C.ar    1  UNL1        0.0303
     20  C14        4.2610   -1.7160   -0.6590 C.ar    1  UNL1       -0.0406
     21  C15        5.6110   -2.0150   -0.5540 C.ar    1  UNL1       -0.0595
     22  C16        6.4520   -1.0410   -0.0550 C.ar    1  UNL1       -0.0500
     23  C17        5.9170    0.1680    0.3120 C.ar    1  UNL1        0.0566
     24  C18        6.8000    1.2410    0.8720 C.3     1  UNL1        0.4175
     25  F1         7.0260    2.2000   -0.1020 F       1  UNL1       -0.1659
     26  F2         6.1160    1.8850    1.9210 F       1  UNL1       -0.1659
     27  F3         7.9880    0.6950    1.2940 F       1  UNL1       -0.1659
     28  C19        4.5830    0.4670    0.2090 C.ar    1  UNL1       -0.0290
     29  C20        1.6070   -0.1480    0.8870 C.3     1  UNL1        0.0280
     30  C21        0.6270    1.0240    0.8070 C.3     1  UNL1        0.0304
     31 H          -2.2768   -0.3235   -1.5164 H       1  UNL1        0.0423
     32 H          -2.5254    1.3904   -2.0558 H       1  UNL1        0.0423
     33 H          -6.9423    1.5831   -1.7402 H       1  UNL1        0.1921
     34 H          -7.0688   -1.5706    1.5878 H       1  UNL1        0.0625
     35 H          -5.3302   -2.7820    2.7853 H       1  UNL1        0.0618
     36 H          -3.0169   -2.4211    2.2528 H       1  UNL1        0.0618
     37 H          -2.4175   -0.8403    0.5023 H       1  UNL1        0.0624
     38 H          -0.3235    0.3343   -2.3037 H       1  UNL1        0.0480
     39 H          -0.0356   -1.0289   -1.2385 H       1  UNL1        0.0480
     40 H           1.8511    1.1967   -1.8370 H       1  UNL1        0.0479
     41 H           1.9750   -0.4780   -2.3655 H       1  UNL1        0.0479
     42 H           3.6288   -2.4427   -1.0296 H       1  UNL1        0.0636
     43 H           5.9755   -2.9371   -0.8401 H       1  UNL1        0.0618
     44 H           7.4641   -1.2187    0.0403 H       1  UNL1        0.0623
     45 H           4.2229    1.3899    0.4983 H       1  UNL1        0.0641
     46 H           2.2799   -0.0118    1.7077 H       1  UNL1        0.0479
     47 H           1.0920   -1.0730    1.0420 H       1  UNL1        0.0479
     48 H           0.0859    1.1041    1.7266 H       1  UNL1        0.0480
     49 H           1.1618    1.9351    0.6374 H       1  UNL1        0.0480
@<TRIPOS>BOND
     1     1     2    2
     2     2     3    1
     3     2    15   am
     4     3     4    1
     5     4     5   ar
     6     4    14   ar
     7     5     6   ar
     8     6     7   ar
     9     7     8    2
    10     7     9   ar
    11     9    10   ar
    12     9    14   ar
    13    10    11   ar
    14    11    12   ar
    15    12    13   ar
    16    13    14   ar
    17    15    16    1
    18    15    30    1
    19    16    17    1
    20    17    18    1
    21    18    19    1
    22    18    29    1
    23    19    20   ar
    24    19    28   ar
    25    20    21   ar
    26    21    22   ar
    27    22    23   ar
    28    23    24    1
    29    23    28   ar
    30    24    25    1
    31    24    26    1
    32    24    27    1
    33    29    30    1
    34     3    31    1
    35     3    32    1
    36     6    33    1
    37    10    34    1
    38    11    35    1
    39    12    36    1
    40    13    37    1
    41    16    38    1
    42    16    39    1
    43    17    40    1
    44    17    41    1
    45    20    42    1
    46    21    43    1
    47    22    44    1
    48    28    45    1
    49    29    46    1
    50    29    47    1
    51    30    48    1
    52    30    49    1
@<TRIPOS>MOLECULE
../data/bude_mols_rdkit_confs/molecule_25.pdb
 49 52 0 0 0
SMALL
GASTEIGER

@<TRIPOS>ATOM
      1  O1         2.3270    0.2610   -1.3370 O.2     1  UNL1       -0.2752
      2  C1         1.5690   -0.3590   -0.5160 C.2     1  UNL1        0.2216
      3  C2         2.1840   -1.1100    0.5730 C.3     1  UNL1        0.0687
      4  C3         3.6610   -1.1710    0.5130 C.ar    1  UNL1        0.0780
      5  N1         4.2810   -2.3380    0.2970 N.ar    1  UNL1       -0.1748
      6  N2         5.5520   -2.4690    0.2450 N.ar    1  UNL1       -0.2425
      7  C4         6.3710   -1.4170    0.4100 C.ar    1  UNL1        0.2725
      8  O2         7.6370   -1.5810    0.3550 O.2     1  UNL1       -0.2658
      9  C5         5.8330   -0.1690    0.6430 C.ar    1  UNL1        0.0496
     10  C6         6.6640    0.9350    0.7820 C.ar    1  UNL1       -0.0487
     11  C7         6.0650    2.1600    0.9750 C.ar    1  UNL1       -0.0610
     12  C8         4.6950    2.3110    1.0370 C.ar    1  UNL1       -0.0611
     13  C9         3.8810    1.1740    0.8950 C.ar    1  UNL1       -0.0521
     14  C10        4.4530   -0.0500    0.6950 C.ar    1  UNL1        0.0108
     15  N3         0.1650   -0.2940   -0.6830 N.am    1  UNL1       -0.2982
     16  C11       -0.6690   -1.1440    0.1070 C.3     1  UNL1        0.0304
     17  C12       -2.0160   -1.3720   -0.5980 C.3     1  UNL1        0.0280
     18  N4        -2.5600   -0.0370   -0.8170 N.pl3   1  UNL1       -0.3269
     19  C13       -3.7610    0.3860   -0.2190 C.ar    1  UNL1        0.0303
     20  C14       -3.8980    1.6980    0.1960 C.ar    1  UNL1       -0.0406
     21  C15       -5.0910    2.1010    0.7730 C.ar    1  UNL1       -0.0595
     22  C16       -6.1710    1.2330    0.9510 C.ar    1  UNL1       -0.0500
     23  C17       -6.0130   -0.0610    0.5280 C.ar    1  UNL1        0.0566
     24  C18       -7.1100   -1.0370    0.6410 C.3     1  UNL1        0.4175
     25  F1        -6.5970   -2.2600    1.0600 F       1  UNL1       -0.1659
     26  F2        -8.1580   -0.5980    1.4000 F       1  UNL1       -0.1659
     27  F3        -7.5550   -1.2500   -0.6680 F       1  UNL1       -0.1659
     28  C19       -4.8370   -0.4650   -0.0360 C.ar    1  UNL1       -0.0290
     29  C20       -1.8090    0.7730   -1.7290 C.3     1  UNL1        0.0280
     30  C21       -0.3400    0.6900   -1.5820 C.3     1  UNL1        0.0304
     31 H           1.8060   -2.1106    0.5452 H       1  UNL1        0.0423
     32 H           1.9353   -0.5962    1.4780 H       1  UNL1        0.0423
     33 H           5.9384   -3.3595    0.0806 H       1  UNL1        0.1921
     34 H           7.6909    0.8410    0.7422 H       1  UNL1        0.0625
     35 H           6.6625    2.9952    1.0769 H       1  UNL1        0.0618
     36 H           4.2754    3.2422    1.1850 H       1  UNL1        0.0618
     37 H           2.8540    1.2638    0.9417 H       1  UNL1        0.0624
     38 H          -0.8413   -0.6849    1.0580 H       1  UNL1        0.0480
     39 H          -0.1805   -2.0868    0.2390 H       1  UNL1        0.0480
     40 H          -2.6715   -1.9480    0.0213 H       1  UNL1        0.0479
     41 H          -1.9030   -1.9143   -1.5134 H       1  UNL1        0.0479
     42 H          -3.1219    2.3678    0.0774 H       1  UNL1        0.0636
     43 H          -5.1857    3.0806    1.0835 H       1  UNL1        0.0618
     44 H          -7.0517    1.5530    1.3833 H       1  UNL1        0.0623
     45 H          -4.7466   -1.4474   -0.3389 H       1  UNL1        0.0641
     46 H          -2.0992    1.7924   -1.5825 H       1  UNL1        0.0479
     47 H          -2.0309    0.4018   -2.7077 H       1  UNL1        0.0479
     48 H           0.0702    0.4851   -2.5488 H       1  UNL1        0.0480
     49 H          -0.0492    1.6288   -1.1589 H       1  UNL1        0.0480
@<TRIPOS>BOND
     1     1     2    2
     2     2     3    1
     3     2    15   am
     4     3     4    1
     5     4     5   ar
     6     4    14   ar
     7     5     6   ar
     8     6     7   ar
     9     7     8    2
    10     7     9   ar
    11     9    10   ar
    12     9    14   ar
    13    10    11   ar
    14    11    12   ar
    15    12    13   ar
    16    13    14   ar
    17    15    16    1
    18    15    30    1
    19    16    17    1
    20    17    18    1
    21    18    19    1
    22    18    29    1
    23    19    20   ar
    24    19    28   ar
    25    20    21   ar
    26    21    22   ar
    27    22    23   ar
    28    23    24    1
    29    23    28   ar
    30    24    25    1
    31    24    26    1
    32    24    27    1
    33    29    30    1
    34     3    31    1
    35     3    32    1
    36     6    33    1
    37    10    34    1
    38    11    35    1
    39    12    36    1
    40    13    37    1
    41    16    38    1
    42    16    39    1
    43    17    40    1
    44    17    41    1
    45    20    42    1
    46    21    43    1
    47    22    44    1
    48    28    45    1
    49    29    46    1
    50    29    47    1
    51    30    48    1
    52    30    49    1
@<TRIPOS>MOLECULE
../data/bude_mols_rdkit_confs/molecule_25.pdb
 49 52 0 0 0
SMALL
GASTEIGER

@<TRIPOS>ATOM
      1  O1        -2.2120    1.0000    0.8090 O.2     1  UNL1       -0.2752
      2  C1        -1.6470   -0.1210    0.4780 C.2     1  UNL1        0.2216
      3  C2        -2.5360   -1.2730    0.3390 C.3     1  UNL1        0.0687
      4  C3        -3.9360   -0.8570    0.6260 C.ar    1  UNL1        0.0780
      5  N1        -4.4770   -1.2340    1.8160 N.ar    1  UNL1       -0.1748
      6  N2        -5.7170   -0.8730    2.0730 N.ar    1  UNL1       -0.2425
      7  C4        -6.4720   -0.1580    1.2300 C.ar    1  UNL1        0.2725
      8  O2        -7.6470    0.1580    1.5170 O.2     1  UNL1       -0.2658
      9  C5        -5.9510    0.2380    0.0200 C.ar    1  UNL1        0.0496
     10  C6        -6.6650    0.9710   -0.8890 C.ar    1  UNL1       -0.0487
     11  C7        -6.0670    1.3230   -2.0740 C.ar    1  UNL1       -0.0610
     12  C8        -4.7770    0.9710   -2.3920 C.ar    1  UNL1       -0.0611
     13  C9        -4.0400    0.2260   -1.4730 C.ar    1  UNL1       -0.0521
     14  C10       -4.6360   -0.1260   -0.2920 C.ar    1  UNL1        0.0108
     15  N3        -0.2430   -0.0830    0.2890 N.am    1  UNL1       -0.2982
     16  C11        0.4090    1.2000    0.5090 C.3     1  UNL1        0.0304
     17  C12        1.8280    0.9880    0.9170 C.3     1  UNL1        0.0280
     18  N4         2.5180   -0.0340    0.1480 N.pl3   1  UNL1       -0.3269
     19  C13        3.8980    0.2080   -0.0960 C.ar    1  UNL1        0.0303
     20  C14        4.2690    1.4540   -0.6260 C.ar    1  UNL1       -0.0406
     21  C15        5.5750    1.7630   -0.8400 C.ar    1  UNL1       -0.0595
     22  C16        6.5970    0.8820   -0.5500 C.ar    1  UNL1       -0.0500
     23  C17        6.2420   -0.3320   -0.0340 C.ar    1  UNL1        0.0566
     24  C18        7.3150   -1.3030    0.3060 C.3     1  UNL1        0.4175
     25  F1         6.8500   -2.3020    1.1500 F       1  UNL1       -0.1659
     26  F2         8.3400   -0.6330    0.9720 F       1  UNL1       -0.1659
     27  F3         7.8640   -1.8490   -0.8380 F       1  UNL1       -0.1659
     28  C19        4.9070   -0.6910    0.2010 C.ar    1  UNL1       -0.0290
     29  C20        1.8850   -1.1990   -0.3650 C.3     1  UNL1        0.0280
     30  C21        0.4200   -1.2860   -0.1230 C.3     1  UNL1        0.0304
     31 H          -2.2420   -2.0358    1.0294 H       1  UNL1        0.0423
     32 H          -2.4744   -1.6526   -0.6595 H       1  UNL1        0.0423
     33 H          -6.1110   -1.1442    2.9335 H       1  UNL1        0.1921
     34 H          -7.6366    1.2544   -0.6872 H       1  UNL1        0.0625
     35 H          -6.6099    1.8760   -2.7555 H       1  UNL1        0.0618
     36 H          -4.3621    1.2529   -3.2939 H       1  UNL1        0.0618
     37 H          -3.0680   -0.0536   -1.6781 H       1  UNL1        0.0624
     38 H          -0.1062    1.7314    1.2817 H       1  UNL1        0.0480
     39 H           0.3854    1.7661   -0.3987 H       1  UNL1        0.0480
     40 H           1.8424    0.7006    1.9476 H       1  UNL1        0.0479
     41 H           2.3422    1.9093    0.7388 H       1  UNL1        0.0479
     42 H           3.5388    2.1458   -0.8566 H       1  UNL1        0.0636
     43 H           5.8105    2.6878   -1.2327 H       1  UNL1        0.0618
     44 H           7.5852    1.1293   -0.7156 H       1  UNL1        0.0623
     45 H           4.6789   -1.6183    0.5923 H       1  UNL1        0.0641
     46 H           2.3459   -2.0520    0.0876 H       1  UNL1        0.0479
     47 H           2.0072   -1.1584   -1.4272 H       1  UNL1        0.0479
     48 H          -0.0389   -1.6124   -1.0328 H       1  UNL1        0.0480
     49 H           0.3135   -1.9592    0.7018 H       1  UNL1        0.0480
@<TRIPOS>BOND
     1     1     2    2
     2     2     3    1
     3     2    15   am
     4     3     4    1
     5     4     5   ar
     6     4    14   ar
     7     5     6   ar
     8     6     7   ar
     9     7     8    2
    10     7     9   ar
    11     9    10   ar
    12     9    14   ar
    13    10    11   ar
    14    11    12   ar
    15    12    13   ar
    16    13    14   ar
    17    15    16    1
    18    15    30    1
    19    16    17    1
    20    17    18    1
    21    18    19    1
    22    18    29    1
    23    19    20   ar
    24    19    28   ar
    25    20    21   ar
    26    21    22   ar
    27    22    23   ar
    28    23    24    1
    29    23    28   ar
    30    24    25    1
    31    24    26    1
    32    24    27    1
    33    29    30    1
    34     3    31    1
    35     3    32    1
    36     6    33    1
    37    10    34    1
    38    11    35    1
    39    12    36    1
    40    13    37    1
    41    16    38    1
    42    16    39    1
    43    17    40    1
    44    17    41    1
    45    20    42    1
    46    21    43    1
    47    22    44    1
    48    28    45    1
    49    29    46    1
    50    29    47    1
    51    30    48    1
    52    30    49    1
@<TRIPOS>MOLECULE
../data/bude_mols_rdkit_confs/molecule_25.pdb
 49 52 0 0 0
SMALL
GASTEIGER

@<TRIPOS>ATOM
      1  O1         1.7020    1.6360   -1.6240 O.2     1  UNL1       -0.2752
      2  C1         1.4230    1.1960   -0.4850 C.2     1  UNL1        0.2216
      3  C2         2.3530    1.4130    0.6200 C.3     1  UNL1        0.0687
      4  C3         3.7790    1.4550    0.2410 C.ar    1  UNL1        0.0780
      5  N1         4.5130    2.5510    0.0570 N.ar    1  UNL1       -0.1748
      6  N2         5.7990    2.5190   -0.2580 N.ar    1  UNL1       -0.2425
      7  C4         6.4360    1.3440   -0.4080 C.ar    1  UNL1        0.2725
      8  O2         7.6570    1.3480   -0.7020 O.2     1  UNL1       -0.2658
      9  C5         5.7830    0.1480   -0.2440 C.ar    1  UNL1        0.0496
     10  C6         6.4030   -1.0980   -0.3810 C.ar    1  UNL1       -0.0487
     11  C7         5.6960   -2.2580   -0.1940 C.ar    1  UNL1       -0.0610
     12  C8         4.3540   -2.2050    0.1350 C.ar    1  UNL1       -0.0611
     13  C9         3.7750   -0.9550    0.2600 C.ar    1  UNL1       -0.0521
     14  C10        4.4440    0.2200    0.0820 C.ar    1  UNL1        0.0108
     15  N3         0.1860    0.4980   -0.3460 N.am    1  UNL1       -0.2982
     16  C11       -0.2050   -0.1940    0.8610 C.3     1  UNL1        0.0304
     17  C12       -1.5480    0.3000    1.3520 C.3     1  UNL1        0.0280
     18  N4        -2.4970    0.3690    0.2220 N.pl3   1  UNL1       -0.3269
     19  C13       -3.7170   -0.3150    0.1990 C.ar    1  UNL1        0.0303
     20  C14       -3.9770   -1.3760    1.0570 C.ar    1  UNL1       -0.0406
     21  C15       -5.1780   -2.0430    1.0410 C.ar    1  UNL1       -0.0595
     22  C16       -6.1800   -1.6570    0.1420 C.ar    1  UNL1       -0.0500
     23  C17       -5.9570   -0.6100   -0.7230 C.ar    1  UNL1        0.0566
     24  C18       -6.9900   -0.1460   -1.7100 C.3     1  UNL1        0.4175
     25  F1        -7.3830    1.1360   -1.3180 F       1  UNL1       -0.1659
     26  F2        -6.4320   -0.0140   -2.9790 F       1  UNL1       -0.1659
     27  F3        -8.0640   -0.9820   -1.6590 F       1  UNL1       -0.1659
     28  C19       -4.7140    0.0400   -0.6680 C.ar    1  UNL1       -0.0290
     29  C20       -2.0100    1.2090   -0.8430 C.3     1  UNL1        0.0280
     30  C21       -0.7990    0.4770   -1.4300 C.3     1  UNL1        0.0304
     31 H           2.2209    0.6189    1.3249 H       1  UNL1        0.0423
     32 H           2.1223    2.3793    1.0174 H       1  UNL1        0.0423
     33 H           6.2924    3.3617   -0.3833 H       1  UNL1        0.1921
     34 H           7.4045   -1.1451   -0.6257 H       1  UNL1        0.0625
     35 H           6.1657   -3.1709   -0.2989 H       1  UNL1        0.0618
     36 H           3.8047   -3.0662    0.2819 H       1  UNL1        0.0618
     37 H           2.7732   -0.9086    0.5034 H       1  UNL1        0.0624
     38 H           0.5307   -0.0212    1.6185 H       1  UNL1        0.0480
     39 H          -0.2812   -1.2397    0.6476 H       1  UNL1        0.0480
     40 H          -1.4338    1.2738    1.7804 H       1  UNL1        0.0479
     41 H          -1.9255   -0.3757    2.0908 H       1  UNL1        0.0479
     42 H          -3.2479   -1.6714    1.7249 H       1  UNL1        0.0636
     43 H          -5.3416   -2.8278    1.6909 H       1  UNL1        0.0618
     44 H          -7.0831   -2.1562    0.1282 H       1  UNL1        0.0623
     45 H          -4.5435    0.8259   -1.3147 H       1  UNL1        0.0641
     46 H          -1.7184    2.1647   -0.4603 H       1  UNL1        0.0479
     47 H          -2.7626    1.3828   -1.5835 H       1  UNL1        0.0479
     48 H          -1.0532   -0.5283   -1.6938 H       1  UNL1        0.0480
     49 H          -0.4354    0.9345   -2.3263 H       1  UNL1        0.0480
@<TRIPOS>BOND
     1     1     2    2
     2     2     3    1
     3     2    15   am
     4     3     4    1
     5     4     5   ar
     6     4    14   ar
     7     5     6   ar
     8     6     7   ar
     9     7     8    2
    10     7     9   ar
    11     9    10   ar
    12     9    14   ar
    13    10    11   ar
    14    11    12   ar
    15    12    13   ar
    16    13    14   ar
    17    15    16    1
    18    15    30    1
    19    16    17    1
    20    17    18    1
    21    18    19    1
    22    18    29    1
    23    19    20   ar
    24    19    28   ar
    25    20    21   ar
    26    21    22   ar
    27    22    23   ar
    28    23    24    1
    29    23    28   ar
    30    24    25    1
    31    24    26    1
    32    24    27    1
    33    29    30    1
    34     3    31    1
    35     3    32    1
    36     6    33    1
    37    10    34    1
    38    11    35    1
    39    12    36    1
    40    13    37    1
    41    16    38    1
    42    16    39    1
    43    17    40    1
    44    17    41    1
    45    20    42    1
    46    21    43    1
    47    22    44    1
    48    28    45    1
    49    29    46    1
    50    29    47    1
    51    30    48    1
    52    30    49    1
@<TRIPOS>MOLECULE
../data/bude_mols_rdkit_confs/molecule_25.pdb
 49 52 0 0 0
SMALL
GASTEIGER

@<TRIPOS>ATOM
      1  O1        -2.1100    0.2800   -1.5320 O.2     1  UNL1       -0.2752
      2  C1        -1.5350   -0.3840   -0.7690 C.2     1  UNL1        0.2216
      3  C2        -2.2940   -1.3130    0.2260 C.3     1  UNL1        0.0687
      4  C3        -3.7120   -1.2460   -0.1320 C.ar    1  UNL1        0.0780
      5  N1        -4.2720   -2.3100   -0.7090 N.ar    1  UNL1       -0.1748
      6  N2        -5.5190   -2.3500   -1.0550 N.ar    1  UNL1       -0.2425
      7  C4        -6.3430   -1.2920   -0.8410 C.ar    1  UNL1        0.2725
      8  O2        -7.5550   -1.3570   -1.1800 O.2     1  UNL1       -0.2658
      9  C5        -5.8380   -0.1560   -0.2460 C.ar    1  UNL1        0.0496
     10  C6        -6.6100    0.9490    0.0080 C.ar    1  UNL1       -0.0487
     11  C7        -6.0590    2.0660    0.6120 C.ar    1  UNL1       -0.0610
     12  C8        -4.7210    2.0830    0.9720 C.ar    1  UNL1       -0.0611
     13  C9        -3.9620    0.9710    0.7130 C.ar    1  UNL1       -0.0521
     14  C10       -4.5000   -0.1350    0.1130 C.ar    1  UNL1        0.0108
     15  N3        -0.1080   -0.4690   -0.6240 N.am    1  UNL1       -0.2982
     16  C11        0.5420   -1.3460    0.2700 C.3     1  UNL1        0.0304
     17  C12        1.7810   -0.7790    0.8930 C.3     1  UNL1        0.0280
     18  N4         2.3120    0.3740    0.2450 N.pl3   1  UNL1       -0.3269
     19  C13        3.7290    0.5930    0.1480 C.ar    1  UNL1        0.0303
     20  C14        4.2390    1.8870    0.0330 C.ar    1  UNL1       -0.0406
     21  C15        5.5840    2.1620   -0.0840 C.ar    1  UNL1       -0.0595
     22  C16        6.4950    1.1240   -0.0970 C.ar    1  UNL1       -0.0500
     23  C17        6.0320   -0.1740    0.0120 C.ar    1  UNL1        0.0566
     24  C18        6.9890   -1.3030   -0.0430 C.3     1  UNL1        0.4175
     25  F1         6.7410   -2.2210    0.9270 F       1  UNL1       -0.1659
     26  F2         8.2630   -0.7930    0.1100 F       1  UNL1       -0.1659
     27  F3         6.9780   -1.8670   -1.3110 F       1  UNL1       -0.1659
     28  C19        4.6570   -0.4160    0.1340 C.ar    1  UNL1       -0.0290
     29  C20        1.3810    1.3330   -0.3740 C.3     1  UNL1        0.0280
     30  C21        0.6770    0.4570   -1.4470 C.3     1  UNL1        0.0304
     31 H          -2.1510   -0.9725    1.2302 H       1  UNL1        0.0423
     32 H          -1.9300   -2.3175    0.1678 H       1  UNL1        0.0423
     33 H          -5.8764   -3.1624   -1.4811 H       1  UNL1        0.1921
     34 H          -7.6085    0.9476   -0.2530 H       1  UNL1        0.0625
     35 H          -6.6492    2.8924    0.7956 H       1  UNL1        0.0618
     36 H          -4.3059    2.9126    1.4241 H       1  UNL1        0.0618
     37 H          -2.9641    0.9680    0.9760 H       1  UNL1        0.0624
     38 H           0.8109   -2.2326   -0.2653 H       1  UNL1        0.0480
     39 H          -0.1446   -1.5365    1.0683 H       1  UNL1        0.0480
     40 H           2.5336   -1.5395    0.8849 H       1  UNL1        0.0479
     41 H           1.5020   -0.4649    1.8771 H       1  UNL1        0.0479
     42 H           3.5755    2.6774    0.0357 H       1  UNL1        0.0636
     43 H           5.9090    3.1384   -0.1615 H       1  UNL1        0.0618
     44 H           7.5053    1.3144   -0.1867 H       1  UNL1        0.0623
     45 H           4.3304   -1.3915    0.2165 H       1  UNL1        0.0641
     46 H           1.9065    2.1497   -0.8231 H       1  UNL1        0.0479
     47 H           0.7063    1.7877    0.3209 H       1  UNL1        0.0479
     48 H           0.0450    1.0478   -2.0766 H       1  UNL1        0.0480
     49 H           1.3550   -0.0313   -2.1154 H       1  UNL1        0.0480
@<TRIPOS>BOND
     1     1     2    2
     2     2     3    1
     3     2    15   am
     4     3     4    1
     5     4     5   ar
     6     4    14   ar
     7     5     6   ar
     8     6     7   ar
     9     7     8    2
    10     7     9   ar
    11     9    10   ar
    12     9    14   ar
    13    10    11   ar
    14    11    12   ar
    15    12    13   ar
    16    13    14   ar
    17    15    16    1
    18    15    30    1
    19    16    17    1
    20    17    18    1
    21    18    19    1
    22    18    29    1
    23    19    20   ar
    24    19    28   ar
    25    20    21   ar
    26    21    22   ar
    27    22    23   ar
    28    23    24    1
    29    23    28   ar
    30    24    25    1
    31    24    26    1
    32    24    27    1
    33    29    30    1
    34     3    31    1
    35     3    32    1
    36     6    33    1
    37    10    34    1
    38    11    35    1
    39    12    36    1
    40    13    37    1
    41    16    38    1
    42    16    39    1
    43    17    40    1
    44    17    41    1
    45    20    42    1
    46    21    43    1
    47    22    44    1
    48    28    45    1
    49    29    46    1
    50    29    47    1
    51    30    48    1
    52    30    49    1
@<TRIPOS>MOLECULE
../data/bude_mols_rdkit_confs/molecule_25.pdb
 49 52 0 0 0
SMALL
GASTEIGER

@<TRIPOS>ATOM
      1  O1        -1.8960   -1.1030   -0.5210 O.2     1  UNL1       -0.2752
      2  C1        -1.4040   -0.2650    0.3770 C.2     1  UNL1        0.2216
      3  C2        -2.4170    0.7770    0.8360 C.3     1  UNL1        0.0687
      4  C3        -3.6300    0.6090   -0.0450 C.ar    1  UNL1        0.0780
      5  N1        -3.5140    1.0930   -1.3340 N.ar    1  UNL1       -0.1748
      6  N2        -4.3920    0.8990   -2.2670 N.ar    1  UNL1       -0.2425
      7  C4        -5.5130    0.1960   -2.0360 C.ar    1  UNL1        0.2725
      8  O2        -6.3700   -0.0060   -2.9340 O.2     1  UNL1       -0.2658
      9  C5        -5.6680   -0.3010   -0.7470 C.ar    1  UNL1        0.0496
     10  C6        -6.8180   -0.9900   -0.4620 C.ar    1  UNL1       -0.0487
     11  C7        -7.0520   -1.4750    0.8190 C.ar    1  UNL1       -0.0610
     12  C8        -6.1210   -1.2670    1.7970 C.ar    1  UNL1       -0.0611
     13  C9        -4.9780   -0.5890    1.5060 C.ar    1  UNL1       -0.0521
     14  C10       -4.7240   -0.0940    0.2370 C.ar    1  UNL1        0.0108
     15  N3        -0.1120   -0.4490    0.7240 N.am    1  UNL1       -0.2982
     16  C11        0.6270   -1.5280   -0.0810 C.3     1  UNL1        0.0304
     17  C12        1.5040   -0.5800   -0.9410 C.3     1  UNL1        0.0280
     18  N4         2.4970   -0.0790   -0.0260 N.pl3   1  UNL1       -0.3269
     19  C13        3.8530    0.0620   -0.4600 C.ar    1  UNL1        0.0303
     20  C14        4.0920    0.1010   -1.8140 C.ar    1  UNL1       -0.0406
     21  C15        5.4090    0.2230   -2.2840 C.ar    1  UNL1       -0.0595
     22  C16        6.4270    0.3000   -1.3570 C.ar    1  UNL1       -0.0500
     23  C17        6.1650    0.2520    0.0120 C.ar    1  UNL1        0.0566
     24  C18        7.3230    0.2910    0.9190 C.3     1  UNL1        0.4175
     25  F1         8.1760    1.2880    0.3930 F       1  UNL1       -0.1659
     26  F2         6.8730    0.6570    2.1680 F       1  UNL1       -0.1659
     27  F3         8.0020   -0.8880    0.9500 F       1  UNL1       -0.1659
     28  C19        4.8460    0.1310    0.4680 C.ar    1  UNL1       -0.0290
     29  C20        2.1420    0.2690    1.3130 C.3     1  UNL1        0.0280
     30  C21        0.6760    0.2310    1.6800 C.3     1  UNL1        0.0304
     31 H          -2.0120    1.7611    0.7244 H       1  UNL1        0.0423
     32 H          -2.6665    0.6470    1.8684 H       1  UNL1        0.0423
     33 H          -4.2343    1.2745   -3.1633 H       1  UNL1        0.1921
     34 H          -7.5161   -1.1500   -1.2051 H       1  UNL1        0.0625
     35 H          -7.9221   -1.9882    1.0299 H       1  UNL1        0.0618
     36 H          -6.2840   -1.6225    2.7520 H       1  UNL1        0.0618
     37 H          -4.2803   -0.4391    2.2515 H       1  UNL1        0.0624
     38 H          -0.0380   -2.1183   -0.6761 H       1  UNL1        0.0480
     39 H           1.1492   -2.2682    0.4885 H       1  UNL1        0.0480
     40 H           0.9171    0.2216   -1.3384 H       1  UNL1        0.0479
     41 H           1.9397   -1.0791   -1.7812 H       1  UNL1        0.0479
     42 H           3.3069    0.0409   -2.4811 H       1  UNL1        0.0636
     43 H           5.6100    0.2542   -3.2958 H       1  UNL1        0.0618
     44 H           7.4017    0.3950   -1.6826 H       1  UNL1        0.0623
     45 H           4.6337    0.0953    1.4773 H       1  UNL1        0.0641
     46 H           2.4902    1.2655    1.4879 H       1  UNL1        0.0479
     47 H           2.5940   -0.4877    1.9197 H       1  UNL1        0.0479
     48 H           0.5726   -0.2646    2.6227 H       1  UNL1        0.0480
     49 H           0.3288    1.2422    1.7221 H       1  UNL1        0.0480
@<TRIPOS>BOND
     1     1     2    2
     2     2     3    1
     3     2    15   am
     4     3     4    1
     5     4     5   ar
     6     4    14   ar
     7     5     6   ar
     8     6     7   ar
     9     7     8    2
    10     7     9   ar
    11     9    10   ar
    12     9    14   ar
    13    10    11   ar
    14    11    12   ar
    15    12    13   ar
    16    13    14   ar
    17    15    16    1
    18    15    30    1
    19    16    17    1
    20    17    18    1
    21    18    19    1
    22    18    29    1
    23    19    20   ar
    24    19    28   ar
    25    20    21   ar
    26    21    22   ar
    27    22    23   ar
    28    23    24    1
    29    23    28   ar
    30    24    25    1
    31    24    26    1
    32    24    27    1
    33    29    30    1
    34     3    31    1
    35     3    32    1
    36     6    33    1
    37    10    34    1
    38    11    35    1
    39    12    36    1
    40    13    37    1
    41    16    38    1
    42    16    39    1
    43    17    40    1
    44    17    41    1
    45    20    42    1
    46    21    43    1
    47    22    44    1
    48    28    45    1
    49    29    46    1
    50    29    47    1
    51    30    48    1
    52    30    49    1
@<TRIPOS>MOLECULE
../data/bude_mols_rdkit_confs/molecule_25.pdb
 49 52 0 0 0
SMALL
GASTEIGER

@<TRIPOS>ATOM
      1  O1        -2.2470   -0.9240   -0.9530 O.2     1  UNL1       -0.2752
      2  C1        -1.6190   -0.5930    0.1180 C.2     1  UNL1        0.2216
      3  C2        -2.3480   -0.2200    1.3340 C.3     1  UNL1        0.0687
      4  C3        -3.7830   -0.5200    1.0410 C.ar    1  UNL1        0.0780
      5  N1        -4.3650   -1.5810    1.6130 N.ar    1  UNL1       -0.1748
      6  N2        -5.6250   -1.8950    1.3590 N.ar    1  UNL1       -0.2425
      7  C4        -6.3490   -1.1500    0.5120 C.ar    1  UNL1        0.2725
      8  O2        -7.5750   -1.4550    0.2590 O.2     1  UNL1       -0.2658
      9  C5        -5.8390   -0.0480   -0.1150 C.ar    1  UNL1        0.0496
     10  C6        -6.5760    0.7230   -0.9840 C.ar    1  UNL1       -0.0487
     11  C7        -5.9520    1.8070   -1.5460 C.ar    1  UNL1       -0.0610
     12  C8        -4.6280    2.1400   -1.2720 C.ar    1  UNL1       -0.0611
     13  C9        -3.9000    1.3680   -0.4110 C.ar    1  UNL1       -0.0521
     14  C10       -4.4850    0.2610    0.1810 C.ar    1  UNL1        0.0108
     15  N3        -0.2250   -0.6230    0.0510 N.am    1  UNL1       -0.2982
     16  C11        0.4540   -0.9650   -1.2140 C.3     1  UNL1        0.0304
     17  C12        1.6020    0.0340   -1.3470 C.3     1  UNL1        0.0280
     18  N4         2.4510   -0.1730   -0.1820 N.pl3   1  UNL1       -0.3269
     19  C13        3.7660    0.3110   -0.1430 C.ar    1  UNL1        0.0303
     20  C14        3.9760    1.6410   -0.1090 C.ar    1  UNL1       -0.0406
     21  C15        5.2560    2.1420   -0.0580 C.ar    1  UNL1       -0.0595
     22  C16        6.3380    1.2550   -0.0440 C.ar    1  UNL1       -0.0500
     23  C17        6.0860   -0.0840   -0.0830 C.ar    1  UNL1        0.0566
     24  C18        7.2540   -1.0500   -0.0810 C.3     1  UNL1        0.4175
     25  F1         6.7450   -2.2910   -0.3290 F       1  UNL1       -0.1659
     26  F2         7.9140   -1.0490    1.1170 F       1  UNL1       -0.1659
     27  F3         8.0500   -0.6960   -1.1500 F       1  UNL1       -0.1659
     28  C19        4.7980   -0.5750   -0.1340 C.ar    1  UNL1       -0.0290
     29  C20        1.9530   -0.8920    0.9890 C.3     1  UNL1        0.0280
     30  C21        0.5590   -0.3360    1.2350 C.3     1  UNL1        0.0304
     31 H          -2.2181    0.8210    1.5445 H       1  UNL1        0.0423
     32 H          -1.9953   -0.7553    2.1907 H       1  UNL1        0.0423
     33 H          -6.0323   -2.6788    1.7938 H       1  UNL1        0.1921
     34 H          -7.5582    0.4949   -1.2039 H       1  UNL1        0.0625
     35 H          -6.4861    2.4010   -2.1995 H       1  UNL1        0.0618
     36 H          -4.1985    2.9661   -1.7171 H       1  UNL1        0.0618
     37 H          -2.9183    1.6088   -0.2027 H       1  UNL1        0.0624
     38 H          -0.2216   -0.8695   -2.0382 H       1  UNL1        0.0480
     39 H           0.8063   -1.9753   -1.2137 H       1  UNL1        0.0480
     40 H           1.2243    1.0350   -1.3587 H       1  UNL1        0.0479
     41 H           2.1443   -0.1110   -2.2580 H       1  UNL1        0.0479
     42 H           3.1720    2.2878   -0.1213 H       1  UNL1        0.0636
     43 H           5.4165    3.1611   -0.0304 H       1  UNL1        0.0618
     44 H           7.3072    1.6074   -0.0049 H       1  UNL1        0.0623
     45 H           4.6214   -1.5913   -0.1646 H       1  UNL1        0.0641
     46 H           2.5830   -0.7131    1.8351 H       1  UNL1        0.0479
     47 H           1.9396   -1.9504    0.8327 H       1  UNL1        0.0479
     48 H           0.1206   -0.8076    2.0896 H       1  UNL1        0.0480
     49 H           0.5950    0.7166    1.4240 H       1  UNL1        0.0480
@<TRIPOS>BOND
     1     1     2    2
     2     2     3    1
     3     2    15   am
     4     3     4    1
     5     4     5   ar
     6     4    14   ar
     7     5     6   ar
     8     6     7   ar
     9     7     8    2
    10     7     9   ar
    11     9    10   ar
    12     9    14   ar
    13    10    11   ar
    14    11    12   ar
    15    12    13   ar
    16    13    14   ar
    17    15    16    1
    18    15    30    1
    19    16    17    1
    20    17    18    1
    21    18    19    1
    22    18    29    1
    23    19    20   ar
    24    19    28   ar
    25    20    21   ar
    26    21    22   ar
    27    22    23   ar
    28    23    24    1
    29    23    28   ar
    30    24    25    1
    31    24    26    1
    32    24    27    1
    33    29    30    1
    34     3    31    1
    35     3    32    1
    36     6    33    1
    37    10    34    1
    38    11    35    1
    39    12    36    1
    40    13    37    1
    41    16    38    1
    42    16    39    1
    43    17    40    1
    44    17    41    1
    45    20    42    1
    46    21    43    1
    47    22    44    1
    48    28    45    1
    49    29    46    1
    50    29    47    1
    51    30    48    1
    52    30    49    1
@<TRIPOS>MOLECULE
../data/bude_mols_rdkit_confs/molecule_25.pdb
 49 52 0 0 0
SMALL
GASTEIGER

@<TRIPOS>ATOM
      1  O1         1.5680    0.5900    2.0800 O.2     1  UNL1       -0.2752
      2  C1         1.2610    0.1300    1.0180 C.2     1  UNL1        0.2216
      3  C2         2.2970    0.1170   -0.1640 C.3     1  UNL1        0.0687
      4  C3         3.5250    0.7800    0.2600 C.ar    1  UNL1        0.0780
      5  N1         3.5330    2.0410    0.7010 N.ar    1  UNL1       -0.1748
      6  N2         4.6100    2.6790    1.1560 N.ar    1  UNL1       -0.2425
      7  C4         5.7750    2.0620    1.1850 C.ar    1  UNL1        0.2725
      8  O2         6.8590    2.5780    1.6020 O.2     1  UNL1       -0.2658
      9  C5         5.9070    0.7450    0.7550 C.ar    1  UNL1        0.0496
     10  C6         7.1450    0.1180    0.7530 C.ar    1  UNL1       -0.0487
     11  C7         7.2700   -1.1660    0.2810 C.ar    1  UNL1       -0.0610
     12  C8         6.1410   -1.8100   -0.1830 C.ar    1  UNL1       -0.0611
     13  C9         4.9090   -1.1570   -0.1660 C.ar    1  UNL1       -0.0521
     14  C10        4.7600    0.1310    0.3010 C.ar    1  UNL1        0.0108
     15  N3         0.0080   -0.4430    0.5910 N.am    1  UNL1       -0.2982
     16  C11       -0.2310   -1.0250   -0.6950 C.3     1  UNL1        0.0304
     17  C12       -1.4740   -0.5760   -1.3870 C.3     1  UNL1        0.0280
     18  N4        -2.5030   -0.1330   -0.5110 N.pl3   1  UNL1       -0.3269
     19  C13       -3.9090   -0.1670   -0.8670 C.ar    1  UNL1        0.0303
     20  C14       -4.3720   -0.9040   -1.8920 C.ar    1  UNL1       -0.0406
     21  C15       -5.7190   -0.9470   -2.2390 C.ar    1  UNL1       -0.0595
     22  C16       -6.6310   -0.2100   -1.4880 C.ar    1  UNL1       -0.0500
     23  C17       -6.2070    0.5450   -0.4330 C.ar    1  UNL1        0.0566
     24  C18       -7.1260    1.3280    0.4550 C.3     1  UNL1        0.4175
     25  F1        -6.8510    0.9670    1.7840 F       1  UNL1       -0.1659
     26  F2        -6.9130    2.6660    0.3660 F       1  UNL1       -0.1659
     27  F3        -8.4100    0.9360    0.2350 F       1  UNL1       -0.1659
     28  C19       -4.8440    0.5760   -0.1110 C.ar    1  UNL1       -0.0290
     29  C20       -2.1940    0.3890    0.8250 C.3     1  UNL1        0.0280
     30  C21       -1.1120   -0.4310    1.5180 C.3     1  UNL1        0.0304
     31 H           1.8848    0.6336   -1.0055 H       1  UNL1        0.0423
     32 H           2.5135   -0.8944   -0.4381 H       1  UNL1        0.0423
     33 H           4.5364    3.6092    1.4700 H       1  UNL1        0.1921
     34 H           7.9751    0.6183    1.1075 H       1  UNL1        0.0625
     35 H           8.1875   -1.6384    0.2735 H       1  UNL1        0.0618
     36 H           6.2085   -2.7750   -0.5426 H       1  UNL1        0.0618
     37 H           4.0772   -1.6573   -0.5165 H       1  UNL1        0.0624
     38 H          -0.2892   -2.0861   -0.5700 H       1  UNL1        0.0480
     39 H           0.5801   -0.7052   -1.3153 H       1  UNL1        0.0480
     40 H          -1.8525   -1.3955   -1.9615 H       1  UNL1        0.0479
     41 H          -1.2024    0.2644   -1.9910 H       1  UNL1        0.0479
     42 H          -3.7008   -1.4606   -2.4440 H       1  UNL1        0.0636
     43 H          -6.0367   -1.5156   -3.0395 H       1  UNL1        0.0618
     44 H          -7.6338   -0.2348   -1.7306 H       1  UNL1        0.0623
     45 H          -4.5196    1.1465    0.6854 H       1  UNL1        0.0641
     46 H          -3.0825    0.3634    1.4206 H       1  UNL1        0.0479
     47 H          -1.8327    1.3901    0.7150 H       1  UNL1        0.0479
     48 H          -0.8289    0.0264    2.4429 H       1  UNL1        0.0480
     49 H          -1.4477   -1.4194    1.7532 H       1  UNL1        0.0480
@<TRIPOS>BOND
     1     1     2    2
     2     2     3    1
     3     2    15   am
     4     3     4    1
     5     4     5   ar
     6     4    14   ar
     7     5     6   ar
     8     6     7   ar
     9     7     8    2
    10     7     9   ar
    11     9    10   ar
    12     9    14   ar
    13    10    11   ar
    14    11    12   ar
    15    12    13   ar
    16    13    14   ar
    17    15    16    1
    18    15    30    1
    19    16    17    1
    20    17    18    1
    21    18    19    1
    22    18    29    1
    23    19    20   ar
    24    19    28   ar
    25    20    21   ar
    26    21    22   ar
    27    22    23   ar
    28    23    24    1
    29    23    28   ar
    30    24    25    1
    31    24    26    1
    32    24    27    1
    33    29    30    1
    34     3    31    1
    35     3    32    1
    36     6    33    1
    37    10    34    1
    38    11    35    1
    39    12    36    1
    40    13    37    1
    41    16    38    1
    42    16    39    1
    43    17    40    1
    44    17    41    1
    45    20    42    1
    46    21    43    1
    47    22    44    1
    48    28    45    1
    49    29    46    1
    50    29    47    1
    51    30    48    1
    52    30    49    1
@<TRIPOS>MOLECULE
../data/bude_mols_rdkit_confs/molecule_25.pdb
 49 52 0 0 0
SMALL
GASTEIGER

@<TRIPOS>ATOM
      1  O1        -2.3700    0.8040   -0.8560 O.2     1  UNL1       -0.2752
      2  C1        -1.5400   -0.0840   -0.4530 C.2     1  UNL1        0.2216
      3  C2        -1.8640   -0.7810    0.8160 C.3     1  UNL1        0.0687
      4  C3        -2.9160   -0.1420    1.5500 C.ar    1  UNL1        0.0780
      5  N1        -2.6000    0.5490    2.6840 N.ar    1  UNL1       -0.1748
      6  N2        -3.5110    1.1460    3.4380 N.ar    1  UNL1       -0.2425
      7  C4        -4.8060    1.0930    3.1110 C.ar    1  UNL1        0.2725
      8  O2        -5.6010    1.6900    3.8930 O.2     1  UNL1       -0.2658
      9  C5        -5.2210    0.4290    1.9980 C.ar    1  UNL1        0.0496
     10  C6        -6.5540    0.3960    1.6740 C.ar    1  UNL1       -0.0487
     11  C7        -6.9360   -0.2720    0.5450 C.ar    1  UNL1       -0.0610
     12  C8        -6.0110   -0.9150   -0.2800 C.ar    1  UNL1       -0.0611
     13  C9        -4.6830   -0.8490    0.0950 C.ar    1  UNL1       -0.0521
     14  C10       -4.2420   -0.1960    1.2110 C.ar    1  UNL1        0.0108
     15  N3        -0.3980   -0.3500   -1.1890 N.am    1  UNL1       -0.2982
     16  C11        0.0140    0.2090   -2.4160 C.3     1  UNL1        0.0304
     17  C12        1.4660    0.5640   -2.4460 C.3     1  UNL1        0.0280
     18  N4         2.2390    0.2280   -1.3050 N.pl3   1  UNL1       -0.3269
     19  C13        3.6650    0.3090   -1.2730 C.ar    1  UNL1        0.0303
     20  C14        4.4570    0.1700   -2.3830 C.ar    1  UNL1       -0.0406
     21  C15        5.8310    0.2600   -2.2540 C.ar    1  UNL1       -0.0595
     22  C16        6.4680    0.4880   -1.0470 C.ar    1  UNL1       -0.0500
     23  C17        5.6830    0.6290    0.0740 C.ar    1  UNL1        0.0566
     24  C18        6.2760    0.8710    1.4240 C.3     1  UNL1        0.4175
     25  F1         5.2300    1.0120    2.3370 F       1  UNL1       -0.1659
     26  F2         6.9880   -0.2290    1.8020 F       1  UNL1       -0.1659
     27  F3         7.0020    2.0270    1.4940 F       1  UNL1       -0.1659
     28  C19        4.3150    0.5390   -0.0580 C.ar    1  UNL1       -0.0290
     29  C20        1.6360   -0.2570   -0.0790 C.3     1  UNL1        0.0280
     30  C21        0.5780   -1.2770   -0.5700 C.3     1  UNL1        0.0304
     31 H          -0.9860   -0.8033    1.4271 H       1  UNL1        0.0423
     32 H          -2.1995   -1.7656    0.5651 H       1  UNL1        0.0423
     33 H          -3.2317    1.6332    4.2466 H       1  UNL1        0.1921
     34 H          -7.2531    0.8657    2.2704 H       1  UNL1        0.0625
     35 H          -7.9368   -0.3022    0.2948 H       1  UNL1        0.0618
     36 H          -6.3062   -1.4171   -1.1319 H       1  UNL1        0.0618
     37 H          -3.9847   -1.3196   -0.5016 H       1  UNL1        0.0624
     38 H          -0.5564    1.0967   -2.5934 H       1  UNL1        0.0480
     39 H          -0.1470   -0.5313   -3.1716 H       1  UNL1        0.0480
     40 H           1.5358    1.6231   -2.5816 H       1  UNL1        0.0479
     41 H           1.8772   -0.0230   -3.2405 H       1  UNL1        0.0479
     42 H           4.0314   -0.0004   -3.3076 H       1  UNL1        0.0636
     43 H           6.4106    0.1516   -3.1009 H       1  UNL1        0.0618
     44 H           7.4965    0.5501   -0.9896 H       1  UNL1        0.0623
     45 H           3.7366    0.6478    0.7898 H       1  UNL1        0.0641
     46 H           1.1736    0.5425    0.4613 H       1  UNL1        0.0479
     47 H           2.3491   -0.6889    0.5918 H       1  UNL1        0.0479
     48 H           0.9861   -1.9606   -1.2849 H       1  UNL1        0.0480
     49 H           0.1772   -1.9146    0.1901 H       1  UNL1        0.0480
@<TRIPOS>BOND
     1     1     2    2
     2     2     3    1
     3     2    15   am
     4     3     4    1
     5     4     5   ar
     6     4    14   ar
     7     5     6   ar
     8     6     7   ar
     9     7     8    2
    10     7     9   ar
    11     9    10   ar
    12     9    14   ar
    13    10    11   ar
    14    11    12   ar
    15    12    13   ar
    16    13    14   ar
    17    15    16    1
    18    15    30    1
    19    16    17    1
    20    17    18    1
    21    18    19    1
    22    18    29    1
    23    19    20   ar
    24    19    28   ar
    25    20    21   ar
    26    21    22   ar
    27    22    23   ar
    28    23    24    1
    29    23    28   ar
    30    24    25    1
    31    24    26    1
    32    24    27    1
    33    29    30    1
    34     3    31    1
    35     3    32    1
    36     6    33    1
    37    10    34    1
    38    11    35    1
    39    12    36    1
    40    13    37    1
    41    16    38    1
    42    16    39    1
    43    17    40    1
    44    17    41    1
    45    20    42    1
    46    21    43    1
    47    22    44    1
    48    28    45    1
    49    29    46    1
    50    29    47    1
    51    30    48    1
    52    30    49    1
@<TRIPOS>MOLECULE
../data/bude_mols_rdkit_confs/molecule_25.pdb
 49 52 0 0 0
SMALL
GASTEIGER

@<TRIPOS>ATOM
      1  O1        -1.9640    1.6400    0.0460 O.2     1  UNL1       -0.2752
      2  C1        -1.4660    0.5180   -0.2100 C.2     1  UNL1        0.2216
      3  C2        -2.2660   -0.4140   -1.0520 C.3     1  UNL1        0.0687
      4  C3        -3.5800   -0.6330   -0.3780 C.ar    1  UNL1        0.0780
      5  N1        -3.7080   -1.6940    0.4600 N.ar    1  UNL1       -0.1748
      6  N2        -4.7890   -1.9360    1.1400 N.ar    1  UNL1       -0.2425
      7  C4        -5.8440   -1.1240    1.0330 C.ar    1  UNL1        0.2725
      8  O2        -6.9020   -1.3370    1.6870 O.2     1  UNL1       -0.2658
      9  C5        -5.8210   -0.0270    0.2140 C.ar    1  UNL1        0.0496
     10  C6        -6.9310    0.8130    0.0970 C.ar    1  UNL1       -0.0487
     11  C7        -6.8250    1.8840   -0.7570 C.ar    1  UNL1       -0.0610
     12  C8        -5.6610    2.1250   -1.4780 C.ar    1  UNL1       -0.0611
     13  C9        -4.5860    1.2850   -1.3410 C.ar    1  UNL1       -0.0521
     14  C10       -4.6440    0.2190   -0.5110 C.ar    1  UNL1        0.0108
     15  N3        -0.2040    0.0780    0.2550 N.am    1  UNL1       -0.2982
     16  C11        0.5990    0.9110    1.1020 C.3     1  UNL1        0.0304
     17  C12        1.9540    1.0720    0.4290 C.3     1  UNL1        0.0280
     18  N4         2.5150   -0.2540    0.2700 N.pl3   1  UNL1       -0.3269
     19  C13        3.9040   -0.4070   -0.0600 C.ar    1  UNL1        0.0303
     20  C14        4.2540   -1.4540   -0.8640 C.ar    1  UNL1       -0.0406
     21  C15        5.6080   -1.6160   -1.1530 C.ar    1  UNL1       -0.0595
     22  C16        6.5730   -0.7760   -0.6650 C.ar    1  UNL1       -0.0500
     23  C17        6.2150    0.2830    0.1520 C.ar    1  UNL1        0.0566
     24  C18        7.1790    1.2130    0.7250 C.3     1  UNL1        0.4175
     25  F1         8.2240    1.4640   -0.1400 F       1  UNL1       -0.1659
     26  F2         7.7170    0.7750    1.9220 F       1  UNL1       -0.1659
     27  F3         6.5920    2.4510    1.0420 F       1  UNL1       -0.1659
     28  C19        4.8680    0.4510    0.4390 C.ar    1  UNL1       -0.0290
     29  C20        1.7030   -1.4250    0.4430 C.3     1  UNL1        0.0280
     30  C21        0.2980   -1.2180   -0.0940 C.3     1  UNL1        0.0304
     31 H          -1.7500   -1.3459   -1.1528 H       1  UNL1        0.0423
     32 H          -2.4133    0.0002   -2.0275 H       1  UNL1        0.0423
     33 H          -4.8302   -2.7193    1.7350 H       1  UNL1        0.1921
     34 H          -7.7963    0.6361    0.6308 H       1  UNL1        0.0625
     35 H          -7.6273    2.5239   -0.8657 H       1  UNL1        0.0618
     36 H          -5.6062    2.9348   -2.1153 H       1  UNL1        0.0618
     37 H          -3.7234    1.4683   -1.8770 H       1  UNL1        0.0624
     38 H           0.7190    0.4505    2.0603 H       1  UNL1        0.0480
     39 H           0.1333    1.8634    1.2465 H       1  UNL1        0.0480
     40 H           2.5972    1.6712    1.0391 H       1  UNL1        0.0479
     41 H           1.8512    1.5566   -0.5194 H       1  UNL1        0.0479
     42 H           3.5439   -2.1000   -1.2428 H       1  UNL1        0.0636
     43 H           5.8946   -2.4005   -1.7591 H       1  UNL1        0.0618
     44 H           7.5644   -0.9318   -0.9055 H       1  UNL1        0.0623
     45 H           4.5772    1.2372    1.0410 H       1  UNL1        0.0641
     46 H           1.6451   -1.6559    1.4862 H       1  UNL1        0.0479
     47 H           2.1540   -2.2274   -0.1026 H       1  UNL1        0.0479
     48 H           0.3145   -1.3106   -1.1599 H       1  UNL1        0.0480
     49 H          -0.3427   -1.9576    0.3389 H       1  UNL1        0.0480
@<TRIPOS>BOND
     1     1     2    2
     2     2     3    1
     3     2    15   am
     4     3     4    1
     5     4     5   ar
     6     4    14   ar
     7     5     6   ar
     8     6     7   ar
     9     7     8    2
    10     7     9   ar
    11     9    10   ar
    12     9    14   ar
    13    10    11   ar
    14    11    12   ar
    15    12    13   ar
    16    13    14   ar
    17    15    16    1
    18    15    30    1
    19    16    17    1
    20    17    18    1
    21    18    19    1
    22    18    29    1
    23    19    20   ar
    24    19    28   ar
    25    20    21   ar
    26    21    22   ar
    27    22    23   ar
    28    23    24    1
    29    23    28   ar
    30    24    25    1
    31    24    26    1
    32    24    27    1
    33    29    30    1
    34     3    31    1
    35     3    32    1
    36     6    33    1
    37    10    34    1
    38    11    35    1
    39    12    36    1
    40    13    37    1
    41    16    38    1
    42    16    39    1
    43    17    40    1
    44    17    41    1
    45    20    42    1
    46    21    43    1
    47    22    44    1
    48    28    45    1
    49    29    46    1
    50    29    47    1
    51    30    48    1
    52    30    49    1
@<TRIPOS>MOLECULE
../data/bude_mols_rdkit_confs/molecule_25.pdb
 49 52 0 0 0
SMALL
GASTEIGER

@<TRIPOS>ATOM
      1  O1        -1.3930   -2.4210   -0.2610 O.2     1  UNL1       -0.2752
      2  C1        -1.1280   -1.2420   -0.6380 C.2     1  UNL1        0.2216
      3  C2        -2.2960   -0.2980   -0.8120 C.3     1  UNL1        0.0687
      4  C3        -3.4880   -0.9110   -0.2430 C.ar    1  UNL1        0.0780
      5  N1        -3.4940   -2.2260   -0.0060 N.ar    1  UNL1       -0.1748
      6  N2        -4.5210   -2.8730    0.5570 N.ar    1  UNL1       -0.2425
      7  C4        -5.6160   -2.1770    0.9150 C.ar    1  UNL1        0.2725
      8  O2        -6.5950   -2.7830    1.4460 O.2     1  UNL1       -0.2658
      9  C5        -5.7100   -0.8160    0.7120 C.ar    1  UNL1        0.0496
     10  C6        -6.8380   -0.1030    1.0760 C.ar    1  UNL1       -0.0487
     11  C7        -6.8320    1.2730    0.8230 C.ar    1  UNL1       -0.0610
     12  C8        -5.7460    1.8830    0.2410 C.ar    1  UNL1       -0.0611
     13  C9        -4.6290    1.1480   -0.1110 C.ar    1  UNL1       -0.0521
     14  C10       -4.6060   -0.1960    0.1170 C.ar    1  UNL1        0.0108
     15  N3         0.1420   -0.7520   -0.8860 N.am    1  UNL1       -0.2982
     16  C11        0.4410    0.5470   -1.4100 C.3     1  UNL1        0.0304
     17  C12        1.3180    1.3340   -0.4490 C.3     1  UNL1        0.0280
     18  N4         2.2830    0.5140    0.2010 N.pl3   1  UNL1       -0.3269
     19  C13        3.6610    0.8520    0.3930 C.ar    1  UNL1        0.0303
     20  C14        4.0310    1.7600    1.3520 C.ar    1  UNL1       -0.0406
     21  C15        5.4090    1.9770    1.4800 C.ar    1  UNL1       -0.0595
     22  C16        6.3470    1.3330    0.7100 C.ar    1  UNL1       -0.0500
     23  C17        5.9380    0.4090   -0.2630 C.ar    1  UNL1        0.0566
     24  C18        6.9420   -0.3020   -1.0810 C.3     1  UNL1        0.4175
     25  F1         6.3000   -0.7370   -2.2560 F       1  UNL1       -0.1659
     26  F2         8.0670    0.4400   -1.3480 F       1  UNL1       -0.1659
     27  F3         7.2980   -1.4430   -0.3780 F       1  UNL1       -0.1659
     28  C19        4.5930    0.2000   -0.3890 C.ar    1  UNL1       -0.0290
     29  C20        1.8800   -0.7910    0.7390 C.3     1  UNL1        0.0280
     30  C21        1.2660   -1.5990   -0.4230 C.3     1  UNL1        0.0304
     31 H          -2.4522   -0.1082   -1.8534 H       1  UNL1        0.0423
     32 H          -2.0915    0.6267   -0.3140 H       1  UNL1        0.0423
     33 H          -4.4763   -3.8449    0.7073 H       1  UNL1        0.1921
     34 H          -7.6490   -0.5660    1.5152 H       1  UNL1        0.0625
     35 H          -7.6563    1.8394    1.0774 H       1  UNL1        0.0618
     36 H          -5.7647    2.8997    0.0651 H       1  UNL1        0.0618
     37 H          -3.8167    1.6144   -0.5442 H       1  UNL1        0.0624
     38 H          -0.4734    1.0804   -1.5658 H       1  UNL1        0.0480
     39 H           0.9683    0.4288   -2.3335 H       1  UNL1        0.0480
     40 H           0.6943    1.7854    0.2941 H       1  UNL1        0.0479
     41 H           1.8460    2.0704   -1.0180 H       1  UNL1        0.0479
     42 H           3.3399    2.2510    1.9405 H       1  UNL1        0.0636
     43 H           5.7356    2.6538    2.1874 H       1  UNL1        0.0618
     44 H           7.3509    1.5287    0.8472 H       1  UNL1        0.0623
     45 H           4.2609   -0.4727   -1.0977 H       1  UNL1        0.0641
     46 H           1.1557   -0.6587    1.5154 H       1  UNL1        0.0479
     47 H           2.7218   -1.3052    1.1535 H       1  UNL1        0.0479
     48 H           1.9810   -1.7450   -1.2055 H       1  UNL1        0.0480
     49 H           0.9520   -2.5779   -0.1263 H       1  UNL1        0.0480
@<TRIPOS>BOND
     1     1     2    2
     2     2     3    1
     3     2    15   am
     4     3     4    1
     5     4     5   ar
     6     4    14   ar
     7     5     6   ar
     8     6     7   ar
     9     7     8    2
    10     7     9   ar
    11     9    10   ar
    12     9    14   ar
    13    10    11   ar
    14    11    12   ar
    15    12    13   ar
    16    13    14   ar
    17    15    16    1
    18    15    30    1
    19    16    17    1
    20    17    18    1
    21    18    19    1
    22    18    29    1
    23    19    20   ar
    24    19    28   ar
    25    20    21   ar
    26    21    22   ar
    27    22    23   ar
    28    23    24    1
    29    23    28   ar
    30    24    25    1
    31    24    26    1
    32    24    27    1
    33    29    30    1
    34     3    31    1
    35     3    32    1
    36     6    33    1
    37    10    34    1
    38    11    35    1
    39    12    36    1
    40    13    37    1
    41    16    38    1
    42    16    39    1
    43    17    40    1
    44    17    41    1
    45    20    42    1
    46    21    43    1
    47    22    44    1
    48    28    45    1
    49    29    46    1
    50    29    47    1
    51    30    48    1
    52    30    49    1
@<TRIPOS>MOLECULE
../data/bude_mols_rdkit_confs/molecule_25.pdb
 49 52 0 0 0
SMALL
GASTEIGER

@<TRIPOS>ATOM
      1  O1        -2.0330    1.2050   -0.5220 O.2     1  UNL1       -0.2752
      2  C1        -1.4850    0.0900   -0.2940 C.2     1  UNL1        0.2216
      3  C2        -2.2240   -1.0090    0.4390 C.3     1  UNL1        0.0687
      4  C3        -3.4280   -0.4470    1.0480 C.ar    1  UNL1        0.0780
      5  N1        -3.3170   -0.1430    2.3830 N.ar    1  UNL1       -0.1748
      6  N2        -4.3010    0.3920    3.0510 N.ar    1  UNL1       -0.2425
      7  C4        -5.5100    0.6960    2.5120 C.ar    1  UNL1        0.2725
      8  O2        -6.4480    1.2090    3.1620 O.2     1  UNL1       -0.2658
      9  C5        -5.6490    0.4000    1.1780 C.ar    1  UNL1        0.0496
     10  C6        -6.8520    0.6830    0.5860 C.ar    1  UNL1       -0.0487
     11  C7        -7.0350    0.3960   -0.7440 C.ar    1  UNL1       -0.0610
     12  C8        -5.9940   -0.1780   -1.4820 C.ar    1  UNL1       -0.0611
     13  C9        -4.7810   -0.4690   -0.9130 C.ar    1  UNL1       -0.0521
     14  C10       -4.6140   -0.1740    0.4320 C.ar    1  UNL1        0.0108
     15  N3        -0.1470   -0.0860   -0.7560 N.am    1  UNL1       -0.2982
     16  C11        0.4950   -1.3330   -0.4710 C.3     1  UNL1        0.0304
     17  C12        1.7430   -1.4270   -1.3390 C.3     1  UNL1        0.0280
     18  N4         2.5540   -0.2950   -1.0110 N.pl3   1  UNL1       -0.3269
     19  C13        3.8660   -0.4020   -0.4680 C.ar    1  UNL1        0.0303
     20  C14        4.4270   -1.5920   -0.0720 C.ar    1  UNL1       -0.0406
     21  C15        5.7220   -1.7010    0.4580 C.ar    1  UNL1       -0.0595
     22  C16        6.4620   -0.5440    0.5820 C.ar    1  UNL1       -0.0500
     23  C17        5.9550    0.6860    0.2020 C.ar    1  UNL1        0.0566
     24  C18        6.7940    1.9030    0.3520 C.3     1  UNL1        0.4175
     25  F1         6.1120    2.9020    1.0390 F       1  UNL1       -0.1659
     26  F2         7.2850    2.3350   -0.8490 F       1  UNL1       -0.1659
     27  F3         7.8840    1.5810    1.1310 F       1  UNL1       -0.1659
     28  C19        4.6700    0.7180   -0.3120 C.ar    1  UNL1       -0.0290
     29  C20        1.9900    1.0100   -1.2540 C.3     1  UNL1        0.0280
     30  C21        0.4960    0.9690   -1.4500 C.3     1  UNL1        0.0304
     31 H          -1.5942   -1.4188    1.2008 H       1  UNL1        0.0423
     32 H          -2.4936   -1.7842   -0.2475 H       1  UNL1        0.0423
     33 H          -4.1586    0.5877    4.0053 H       1  UNL1        0.1921
     34 H          -7.6146    1.1086    1.1358 H       1  UNL1        0.0625
     35 H          -7.9382    0.6031   -1.1984 H       1  UNL1        0.0618
     36 H          -6.1432   -0.3879   -2.4813 H       1  UNL1        0.0618
     37 H          -4.0193   -0.8925   -1.4658 H       1  UNL1        0.0624
     38 H          -0.1669   -2.1426   -0.6974 H       1  UNL1        0.0480
     39 H           0.7568   -1.3889    0.5650 H       1  UNL1        0.0480
     40 H           1.4753   -1.4020   -2.3747 H       1  UNL1        0.0479
     41 H           2.2681   -2.3425   -1.1627 H       1  UNL1        0.0479
     42 H           3.8657   -2.4525   -0.1696 H       1  UNL1        0.0636
     43 H           6.1068   -2.6146    0.7448 H       1  UNL1        0.0618
     44 H           7.4177   -0.5969    0.9678 H       1  UNL1        0.0623
     45 H           4.2859    1.6324   -0.5971 H       1  UNL1        0.0641
     46 H           2.4399    1.4192   -2.1344 H       1  UNL1        0.0479
     47 H           2.1872    1.6135   -0.3927 H       1  UNL1        0.0479
     48 H           0.0860    1.8962   -1.1076 H       1  UNL1        0.0480
     49 H           0.3248    0.8034   -2.4931 H       1  UNL1        0.0480
@<TRIPOS>BOND
     1     1     2    2
     2     2     3    1
     3     2    15   am
     4     3     4    1
     5     4     5   ar
     6     4    14   ar
     7     5     6   ar
     8     6     7   ar
     9     7     8    2
    10     7     9   ar
    11     9    10   ar
    12     9    14   ar
    13    10    11   ar
    14    11    12   ar
    15    12    13   ar
    16    13    14   ar
    17    15    16    1
    18    15    30    1
    19    16    17    1
    20    17    18    1
    21    18    19    1
    22    18    29    1
    23    19    20   ar
    24    19    28   ar
    25    20    21   ar
    26    21    22   ar
    27    22    23   ar
    28    23    24    1
    29    23    28   ar
    30    24    25    1
    31    24    26    1
    32    24    27    1
    33    29    30    1
    34     3    31    1
    35     3    32    1
    36     6    33    1
    37    10    34    1
    38    11    35    1
    39    12    36    1
    40    13    37    1
    41    16    38    1
    42    16    39    1
    43    17    40    1
    44    17    41    1
    45    20    42    1
    46    21    43    1
    47    22    44    1
    48    28    45    1
    49    29    46    1
    50    29    47    1
    51    30    48    1
    52    30    49    1
@<TRIPOS>MOLECULE
../data/bude_mols_rdkit_confs/molecule_25.pdb
 49 52 0 0 0
SMALL
GASTEIGER

@<TRIPOS>ATOM
      1  O1        -2.1950   -1.1150    1.2470 O.2     1  UNL1       -0.2752
      2  C1        -1.5220   -0.4310    0.4080 C.2     1  UNL1        0.2216
      3  C2        -2.1150   -0.0620   -0.8880 C.3     1  UNL1        0.0687
      4  C3        -3.5040   -0.4430   -0.9270 C.ar    1  UNL1        0.0780
      5  N1        -3.9090   -1.5590   -1.5410 N.ar    1  UNL1       -0.1748
      6  N2        -5.1930   -1.9280   -1.5730 N.ar    1  UNL1       -0.2425
      7  C4        -6.1720   -1.2050   -0.9880 C.ar    1  UNL1        0.2725
      8  O2        -7.3790   -1.5490   -1.0180 O.2     1  UNL1       -0.2658
      9  C5        -5.8390   -0.0470   -0.3390 C.ar    1  UNL1        0.0496
     10  C6        -6.8100    0.7300    0.2770 C.ar    1  UNL1       -0.0487
     11  C7        -6.4530    1.8880    0.9250 C.ar    1  UNL1       -0.0610
     12  C8        -5.1080    2.2380    0.9360 C.ar    1  UNL1       -0.0611
     13  C9        -4.1530    1.4630    0.3240 C.ar    1  UNL1       -0.0521
     14  C10       -4.5090    0.3170   -0.3170 C.ar    1  UNL1        0.0108
     15  N3        -0.2150   -0.0680    0.7840 N.am    1  UNL1       -0.2982
     16  C11        0.4360   -0.5480    2.0010 C.3     1  UNL1        0.0304
     17  C12        1.6680   -1.3050    1.4730 C.3     1  UNL1        0.0280
     18  N4         2.5140   -0.3270    0.8120 N.pl3   1  UNL1       -0.3269
     19  C13        3.8200   -0.6040    0.3890 C.ar    1  UNL1        0.0303
     20  C14        4.2500   -1.8980    0.1280 C.ar    1  UNL1       -0.0406
     21  C15        5.5480   -2.1750   -0.2980 C.ar    1  UNL1       -0.0595
     22  C16        6.3950   -1.1100   -0.4530 C.ar    1  UNL1       -0.0500
     23  C17        6.0330    0.1860   -0.2120 C.ar    1  UNL1        0.0566
     24  C18        6.9300    1.3500   -0.3720 C.3     1  UNL1        0.4175
     25  F1         8.1750    1.0160   -0.8400 F       1  UNL1       -0.1659
     26  F2         6.3550    2.2250   -1.2480 F       1  UNL1       -0.1659
     27  F3         7.0300    1.9880    0.8670 F       1  UNL1       -0.1659
     28  C19        4.7530    0.4280    0.2060 C.ar    1  UNL1       -0.0290
     29  C20        1.9840    1.0200    0.5430 C.3     1  UNL1        0.0280
     30  C21        0.5700    0.8790   -0.0180 C.3     1  UNL1        0.0304
     31 H          -1.5888   -0.5638   -1.6730 H       1  UNL1        0.0423
     32 H          -2.0402    0.9976   -1.0168 H       1  UNL1        0.0423
     33 H          -5.4346   -2.7595   -2.0414 H       1  UNL1        0.1921
     34 H          -7.7995    0.4383    0.2484 H       1  UNL1        0.0625
     35 H          -7.1609    2.4788    1.3886 H       1  UNL1        0.0618
     36 H          -4.8188    3.1039    1.4172 H       1  UNL1        0.0618
     37 H          -3.1624    1.7510    0.3506 H       1  UNL1        0.0624
     38 H          -0.2100   -1.2026    2.5479 H       1  UNL1        0.0480
     39 H           0.6894    0.2411    2.6778 H       1  UNL1        0.0480
     40 H           1.3657   -2.0597    0.7774 H       1  UNL1        0.0479
     41 H           2.1923   -1.7868    2.2717 H       1  UNL1        0.0479
     42 H           3.5877   -2.6795    0.2533 H       1  UNL1        0.0636
     43 H           5.8574   -3.1409   -0.4884 H       1  UNL1        0.0618
     44 H           7.3596   -1.2961   -0.7691 H       1  UNL1        0.0623
     45 H           4.4643    1.4010    0.3928 H       1  UNL1        0.0641
     46 H           2.6076    1.5179   -0.1699 H       1  UNL1        0.0479
     47 H           1.9658    1.5947    1.4454 H       1  UNL1        0.0479
     48 H           0.0893    1.8348   -0.0029 H       1  UNL1        0.0480
     49 H           0.6330    0.5107   -1.0207 H       1  UNL1        0.0480
@<TRIPOS>BOND
     1     1     2    2
     2     2     3    1
     3     2    15   am
     4     3     4    1
     5     4     5   ar
     6     4    14   ar
     7     5     6   ar
     8     6     7   ar
     9     7     8    2
    10     7     9   ar
    11     9    10   ar
    12     9    14   ar
    13    10    11   ar
    14    11    12   ar
    15    12    13   ar
    16    13    14   ar
    17    15    16    1
    18    15    30    1
    19    16    17    1
    20    17    18    1
    21    18    19    1
    22    18    29    1
    23    19    20   ar
    24    19    28   ar
    25    20    21   ar
    26    21    22   ar
    27    22    23   ar
    28    23    24    1
    29    23    28   ar
    30    24    25    1
    31    24    26    1
    32    24    27    1
    33    29    30    1
    34     3    31    1
    35     3    32    1
    36     6    33    1
    37    10    34    1
    38    11    35    1
    39    12    36    1
    40    13    37    1
    41    16    38    1
    42    16    39    1
    43    17    40    1
    44    17    41    1
    45    20    42    1
    46    21    43    1
    47    22    44    1
    48    28    45    1
    49    29    46    1
    50    29    47    1
    51    30    48    1
    52    30    49    1
@<TRIPOS>MOLECULE
../data/bude_mols_rdkit_confs/molecule_25.pdb
 49 52 0 0 0
SMALL
GASTEIGER

@<TRIPOS>ATOM
      1  O1         1.5870   -0.0260   -2.5690 O.2     1  UNL1       -0.2752
      2  C1         1.3170    0.4390   -1.4110 C.2     1  UNL1        0.2216
      3  C2         2.1460    1.4830   -0.8660 C.3     1  UNL1        0.0687
      4  C3         3.1140    1.2770    0.1730 C.ar    1  UNL1        0.0780
      5  N1         2.9190    1.9290    1.3680 N.ar    1  UNL1       -0.1748
      6  N2         3.7530    1.9080    2.3810 N.ar    1  UNL1       -0.2425
      7  C4         4.8930    1.2140    2.3180 C.ar    1  UNL1        0.2725
      8  O2         5.7040    1.1800    3.3030 O.2     1  UNL1       -0.2658
      9  C5         5.1840    0.5300    1.1780 C.ar    1  UNL1        0.0496
     10  C6         6.3550   -0.2020    1.0240 C.ar    1  UNL1       -0.0487
     11  C7         6.6220   -0.8680   -0.1550 C.ar    1  UNL1       -0.0610
     12  C8         5.7530   -0.8360   -1.2090 C.ar    1  UNL1       -0.0611
     13  C9         4.5960   -0.0940   -1.0220 C.ar    1  UNL1       -0.0521
     14  C10        4.2720    0.5830    0.1130 C.ar    1  UNL1        0.0108
     15  N3         0.1900   -0.1580   -0.7700 N.am    1  UNL1       -0.2982
     16  C11       -0.5930   -1.1360   -1.5370 C.3     1  UNL1        0.0304
     17  C12       -1.5080   -1.9290   -0.6660 C.3     1  UNL1        0.0280
     18  N4        -2.2170   -1.0110    0.1730 N.pl3   1  UNL1       -0.3269
     19  C13       -3.6480   -0.9250    0.1990 C.ar    1  UNL1        0.0303
     20  C14       -4.4630   -2.0340    0.2410 C.ar    1  UNL1       -0.0406
     21  C15       -5.8350   -1.9000    0.1720 C.ar    1  UNL1       -0.0595
     22  C16       -6.4630   -0.6800    0.0660 C.ar    1  UNL1       -0.0500
     23  C17       -5.6590    0.4520    0.0280 C.ar    1  UNL1        0.0566
     24  C18       -6.3020    1.8110   -0.0890 C.3     1  UNL1        0.4175
     25  F1        -7.6060    1.6960   -0.4900 F       1  UNL1       -0.1659
     26  F2        -5.5250    2.4830   -1.0080 F       1  UNL1       -0.1659
     27  F3        -6.1870    2.4160    1.1560 F       1  UNL1       -0.1659
     28  C19       -4.2930    0.3190    0.0950 C.ar    1  UNL1       -0.0290
     29  C20       -1.4590   -0.1400    1.0360 C.3     1  UNL1        0.0280
     30  C21       -0.0910    0.1880    0.5860 C.3     1  UNL1        0.0304
     31 H           1.4710    2.2238   -0.4912 H       1  UNL1        0.0423
     32 H           2.7830    1.6939   -1.6995 H       1  UNL1        0.0423
     33 H           3.5356    2.4108    3.1990 H       1  UNL1        0.1921
     34 H           7.0332   -0.2482    1.8005 H       1  UNL1        0.0625
     35 H           7.4998   -1.4035   -0.2427 H       1  UNL1        0.0618
     36 H           5.9460   -1.3343   -2.0919 H       1  UNL1        0.0618
     37 H           3.9272   -0.0521   -1.8068 H       1  UNL1        0.0624
     38 H           0.0798   -1.8056   -2.0308 H       1  UNL1        0.0480
     39 H          -1.1925   -0.5984   -2.2417 H       1  UNL1        0.0480
     40 H          -0.9405   -2.6082   -0.0647 H       1  UNL1        0.0479
     41 H          -2.1922   -2.4968   -1.2612 H       1  UNL1        0.0479
     42 H          -4.0444   -2.9736    0.3248 H       1  UNL1        0.0636
     43 H          -6.4157   -2.7526    0.2012 H       1  UNL1        0.0618
     44 H          -7.4914   -0.6090    0.0167 H       1  UNL1        0.0623
     45 H          -3.7137    1.1727    0.0677 H       1  UNL1        0.0641
     46 H          -1.3842   -0.6120    1.9933 H       1  UNL1        0.0479
     47 H          -1.9897    0.7891    1.0458 H       1  UNL1        0.0479
     48 H           0.0527    1.2424    0.6975 H       1  UNL1        0.0480
     49 H           0.5734   -0.3937    1.1902 H       1  UNL1        0.0480
@<TRIPOS>BOND
     1     1     2    2
     2     2     3    1
     3     2    15   am
     4     3     4    1
     5     4     5   ar
     6     4    14   ar
     7     5     6   ar
     8     6     7   ar
     9     7     8    2
    10     7     9   ar
    11     9    10   ar
    12     9    14   ar
    13    10    11   ar
    14    11    12   ar
    15    12    13   ar
    16    13    14   ar
    17    15    16    1
    18    15    30    1
    19    16    17    1
    20    17    18    1
    21    18    19    1
    22    18    29    1
    23    19    20   ar
    24    19    28   ar
    25    20    21   ar
    26    21    22   ar
    27    22    23   ar
    28    23    24    1
    29    23    28   ar
    30    24    25    1
    31    24    26    1
    32    24    27    1
    33    29    30    1
    34     3    31    1
    35     3    32    1
    36     6    33    1
    37    10    34    1
    38    11    35    1
    39    12    36    1
    40    13    37    1
    41    16    38    1
    42    16    39    1
    43    17    40    1
    44    17    41    1
    45    20    42    1
    46    21    43    1
    47    22    44    1
    48    28    45    1
    49    29    46    1
    50    29    47    1
    51    30    48    1
    52    30    49    1
@<TRIPOS>MOLECULE
../data/bude_mols_rdkit_confs/molecule_25.pdb
 49 52 0 0 0
SMALL
GASTEIGER

@<TRIPOS>ATOM
      1  O1         1.7910    1.8990   -2.2080 O.2     1  UNL1       -0.2752
      2  C1         1.4870    1.6700   -0.9970 C.2     1  UNL1        0.2216
      3  C2         2.6120    1.4600   -0.0300 C.3     1  UNL1        0.0687
      4  C3         3.1610    0.1110   -0.2580 C.ar    1  UNL1        0.0780
      5  N1         2.5350   -0.8570   -0.9750 N.ar    1  UNL1       -0.1748
      6  N2         3.0350   -2.0710   -1.1380 N.ar    1  UNL1       -0.2425
      7  C4         4.2190   -2.3880   -0.5760 C.ar    1  UNL1        0.2725
      8  O2         4.7430   -3.5350   -0.6980 O.2     1  UNL1       -0.2658
      9  C5         4.9230   -1.4720    0.1680 C.ar    1  UNL1        0.0496
     10  C6         6.1350   -1.7430    0.7560 C.ar    1  UNL1       -0.0487
     11  C7         6.8220   -0.8020    1.4930 C.ar    1  UNL1       -0.0610
     12  C8         6.2760    0.4680    1.6520 C.ar    1  UNL1       -0.0611
     13  C9         5.0520    0.7660    1.0660 C.ar    1  UNL1       -0.0521
     14  C10        4.3880   -0.2010    0.3300 C.ar    1  UNL1        0.0108
     15  N3         0.1300    1.6230   -0.6250 N.am    1  UNL1       -0.2982
     16  C11       -0.2910    1.2660    0.7020 C.3     1  UNL1        0.0304
     17  C12       -1.2090    0.0570    0.5360 C.3     1  UNL1        0.0280
     18  N4        -2.2460    0.4020   -0.3890 N.pl3   1  UNL1       -0.3269
     19  C13       -3.6390    0.2890   -0.0240 C.ar    1  UNL1        0.0303
     20  C14       -4.4240    1.4000    0.1250 C.ar    1  UNL1       -0.0406
     21  C15       -5.7800    1.2600    0.4740 C.ar    1  UNL1       -0.0595
     22  C16       -6.3110    0.0090    0.6620 C.ar    1  UNL1       -0.0500
     23  C17       -5.5370   -1.1240    0.5160 C.ar    1  UNL1        0.0566
     24  C18       -6.1180   -2.4720    0.7150 C.3     1  UNL1        0.4175
     25  F1        -5.3150   -3.3290   -0.0610 F       1  UNL1       -0.1659
     26  F2        -7.3930   -2.5610    0.2120 F       1  UNL1       -0.1659
     27  F3        -6.0240   -2.9250    1.9960 F       1  UNL1       -0.1659
     28  C19       -4.2050   -0.9460    0.1740 C.ar    1  UNL1       -0.0290
     29  C20       -1.8770    0.8420   -1.7150 C.3     1  UNL1        0.0280
     30  C21       -0.9000    1.9760   -1.5910 C.3     1  UNL1        0.0304
     31 H           2.2485    1.5396    0.9732 H       1  UNL1        0.0423
     32 H           3.3709    2.2002   -0.1753 H       1  UNL1        0.0423
     33 H           2.5445   -2.7404   -1.6676 H       1  UNL1        0.1921
     34 H           6.5450   -2.6832    0.6420 H       1  UNL1        0.0625
     35 H           7.7308   -1.0368    1.9219 H       1  UNL1        0.0618
     36 H           6.7768    1.1837    2.2015 H       1  UNL1        0.0618
     37 H           4.6390    1.7050    1.1789 H       1  UNL1        0.0624
     38 H          -0.8214    2.0771    1.1555 H       1  UNL1        0.0480
     39 H           0.5436    1.0431    1.3334 H       1  UNL1        0.0480
     40 H          -1.6389   -0.2030    1.4807 H       1  UNL1        0.0479
     41 H          -0.6525   -0.7802    0.1696 H       1  UNL1        0.0479
     42 H          -4.0219    2.3396   -0.0184 H       1  UNL1        0.0636
     43 H          -6.3737    2.0964    0.5883 H       1  UNL1        0.0618
     44 H          -7.3064   -0.0863    0.9170 H       1  UNL1        0.0623
     45 H          -3.6105   -1.7822    0.0630 H       1  UNL1        0.0641
     46 H          -2.7485    1.1732   -2.2401 H       1  UNL1        0.0479
     47 H          -1.4312    0.0340   -2.2566 H       1  UNL1        0.0479
     48 H          -0.4479    2.1634   -2.5425 H       1  UNL1        0.0480
     49 H          -1.4129    2.8554   -1.2615 H       1  UNL1        0.0480
@<TRIPOS>BOND
     1     1     2    2
     2     2     3    1
     3     2    15   am
     4     3     4    1
     5     4     5   ar
     6     4    14   ar
     7     5     6   ar
     8     6     7   ar
     9     7     8    2
    10     7     9   ar
    11     9    10   ar
    12     9    14   ar
    13    10    11   ar
    14    11    12   ar
    15    12    13   ar
    16    13    14   ar
    17    15    16    1
    18    15    30    1
    19    16    17    1
    20    17    18    1
    21    18    19    1
    22    18    29    1
    23    19    20   ar
    24    19    28   ar
    25    20    21   ar
    26    21    22   ar
    27    22    23   ar
    28    23    24    1
    29    23    28   ar
    30    24    25    1
    31    24    26    1
    32    24    27    1
    33    29    30    1
    34     3    31    1
    35     3    32    1
    36     6    33    1
    37    10    34    1
    38    11    35    1
    39    12    36    1
    40    13    37    1
    41    16    38    1
    42    16    39    1
    43    17    40    1
    44    17    41    1
    45    20    42    1
    46    21    43    1
    47    22    44    1
    48    28    45    1
    49    29    46    1
    50    29    47    1
    51    30    48    1
    52    30    49    1
@<TRIPOS>MOLECULE
../data/bude_mols_rdkit_confs/molecule_25.pdb
 49 52 0 0 0
SMALL
GASTEIGER

@<TRIPOS>ATOM
      1  O1        -2.1350   -0.1160    1.3910 O.2     1  UNL1       -0.2752
      2  C1        -1.5110    0.0650    0.3080 C.2     1  UNL1        0.2216
      3  C2        -2.3130    0.2280   -0.9100 C.3     1  UNL1        0.0687
      4  C3        -3.6550   -0.3450   -0.8130 C.ar    1  UNL1        0.0780
      5  N1        -3.8610   -1.5640   -1.4060 N.ar    1  UNL1       -0.1748
      6  N2        -5.0090   -2.2130   -1.3840 N.ar    1  UNL1       -0.2425
      7  C4        -6.0860   -1.7220   -0.7640 C.ar    1  UNL1        0.2725
      8  O2        -7.1880   -2.2970   -0.7180 O.2     1  UNL1       -0.2658
      9  C5        -5.9570   -0.5030   -0.1450 C.ar    1  UNL1        0.0496
     10  C6        -7.0330    0.0450    0.5290 C.ar    1  UNL1       -0.0487
     11  C7        -6.9280    1.2570    1.1800 C.ar    1  UNL1       -0.0610
     12  C8        -5.7090    1.9040    1.1320 C.ar    1  UNL1       -0.0611
     13  C9        -4.6230    1.3730    0.4650 C.ar    1  UNL1       -0.0521
     14  C10       -4.7480    0.1800   -0.1710 C.ar    1  UNL1        0.0108
     15  N3        -0.1220    0.1020    0.3430 N.am    1  UNL1       -0.2982
     16  C11        0.6370    0.2350   -0.9100 C.3     1  UNL1        0.0304
     17  C12        1.7650   -0.8070   -0.7440 C.3     1  UNL1        0.0280
     18  N4         2.6150   -0.2480    0.2970 N.pl3   1  UNL1       -0.3269
     19  C13        3.9450    0.0570   -0.0890 C.ar    1  UNL1        0.0303
     20  C14        4.1130    0.7780   -1.2470 C.ar    1  UNL1       -0.0406
     21  C15        5.3780    1.0630   -1.7210 C.ar    1  UNL1       -0.0595
     22  C16        6.4740    0.6230   -1.0370 C.ar    1  UNL1       -0.0500
     23  C17        6.3310   -0.1040    0.1320 C.ar    1  UNL1        0.0566
     24  C18        7.5260   -0.5820    0.8570 C.3     1  UNL1        0.4175
     25  F1         8.0040   -1.7500    0.2960 F       1  UNL1       -0.1659
     26  F2         7.2320   -0.7610    2.1750 F       1  UNL1       -0.1659
     27  F3         8.4800    0.4450    0.7650 F       1  UNL1       -0.1659
     28  C19        5.0550   -0.3810    0.5970 C.ar    1  UNL1       -0.0290
     29  C20        2.0280   -0.0410    1.5810 C.3     1  UNL1        0.0280
     30  C21        0.5520   -0.0000    1.6200 C.3     1  UNL1        0.0304
     31 H          -1.7998   -0.2494   -1.7185 H       1  UNL1        0.0423
     32 H          -2.4333    1.2797   -1.0660 H       1  UNL1        0.0423
     33 H          -5.0743   -3.0844   -1.8375 H       1  UNL1        0.1921
     34 H          -7.9316   -0.4622    0.5454 H       1  UNL1        0.0625
     35 H          -7.7308    1.6649    1.6841 H       1  UNL1        0.0618
     36 H          -5.6065    2.8130    1.6097 H       1  UNL1        0.0618
     37 H          -3.7236    1.8788    0.4500 H       1  UNL1        0.0624
     38 H           1.0372    1.2218   -1.0145 H       1  UNL1        0.0480
     39 H           0.0404    0.0755   -1.7838 H       1  UNL1        0.0480
     40 H           2.3104   -0.9249   -1.6570 H       1  UNL1        0.0479
     41 H           1.3929   -1.7782   -0.4926 H       1  UNL1        0.0479
     42 H           3.2856    1.1095   -1.7672 H       1  UNL1        0.0636
     43 H           5.4945    1.6072   -2.5901 H       1  UNL1        0.0618
     44 H           7.4186    0.8344   -1.3949 H       1  UNL1        0.0623
     45 H           4.9358   -0.9220    1.4677 H       1  UNL1        0.0641
     46 H           2.3914    0.8911    1.9605 H       1  UNL1        0.0479
     47 H           2.3082   -0.8917    2.1664 H       1  UNL1        0.0479
     48 H           0.2137   -0.8965    2.0962 H       1  UNL1        0.0480
     49 H           0.3059    0.8996    2.1445 H       1  UNL1        0.0480
@<TRIPOS>BOND
     1     1     2    2
     2     2     3    1
     3     2    15   am
     4     3     4    1
     5     4     5   ar
     6     4    14   ar
     7     5     6   ar
     8     6     7   ar
     9     7     8    2
    10     7     9   ar
    11     9    10   ar
    12     9    14   ar
    13    10    11   ar
    14    11    12   ar
    15    12    13   ar
    16    13    14   ar
    17    15    16    1
    18    15    30    1
    19    16    17    1
    20    17    18    1
    21    18    19    1
    22    18    29    1
    23    19    20   ar
    24    19    28   ar
    25    20    21   ar
    26    21    22   ar
    27    22    23   ar
    28    23    24    1
    29    23    28   ar
    30    24    25    1
    31    24    26    1
    32    24    27    1
    33    29    30    1
    34     3    31    1
    35     3    32    1
    36     6    33    1
    37    10    34    1
    38    11    35    1
    39    12    36    1
    40    13    37    1
    41    16    38    1
    42    16    39    1
    43    17    40    1
    44    17    41    1
    45    20    42    1
    46    21    43    1
    47    22    44    1
    48    28    45    1
    49    29    46    1
    50    29    47    1
    51    30    48    1
    52    30    49    1
@<TRIPOS>MOLECULE
../data/bude_mols_rdkit_confs/molecule_25.pdb
 49 52 0 0 0
SMALL
GASTEIGER

@<TRIPOS>ATOM
      1  O1         1.3050    1.3560    2.3500 O.2     1  UNL1       -0.2752
      2  C1         1.3010    0.3980    1.4050 C.2     1  UNL1        0.2216
      3  C2         2.5040   -0.4070    1.3580 C.3     1  UNL1        0.0687
      4  C3         3.4020   -0.2160    0.2110 C.ar    1  UNL1        0.0780
      5  N1         2.9040   -0.1840   -1.0420 N.ar    1  UNL1       -0.1748
      6  N2         3.6180   -0.0300   -2.1300 N.ar    1  UNL1       -0.2425
      7  C4         4.9750    0.1140   -2.0700 C.ar    1  UNL1        0.2725
      8  O2         5.6620    0.2610   -3.1180 O.2     1  UNL1       -0.2658
      9  C5         5.5260    0.0840   -0.7970 C.ar    1  UNL1        0.0496
     10  C6         6.9060    0.1850   -0.7670 C.ar    1  UNL1       -0.0487
     11  C7         7.5570    0.1230    0.4370 C.ar    1  UNL1       -0.0610
     12  C8         6.7970   -0.0390    1.5860 C.ar    1  UNL1       -0.0611
     13  C9         5.4520   -0.1350    1.5330 C.ar    1  UNL1       -0.0521
     14  C10        4.7490   -0.0790    0.3570 C.ar    1  UNL1        0.0108
     15  N3         0.1130    0.4140    0.6750 N.am    1  UNL1       -0.2982
     16  C11       -0.9360    1.3520    1.0530 C.3     1  UNL1        0.0304
     17  C12       -2.0940    1.3790    0.1300 C.3     1  UNL1        0.0280
     18  N4        -2.5230    0.0990   -0.3850 N.pl3   1  UNL1       -0.3269
     19  C13       -3.8950   -0.1780   -0.5360 C.ar    1  UNL1        0.0303
     20  C14       -4.3840   -0.9350   -1.5790 C.ar    1  UNL1       -0.0406
     21  C15       -5.7090   -1.2150   -1.7660 C.ar    1  UNL1       -0.0595
     22  C16       -6.6230   -0.7020   -0.8440 C.ar    1  UNL1       -0.0500
     23  C17       -6.1950    0.0550    0.2110 C.ar    1  UNL1        0.0566
     24  C18       -7.2120    0.5780    1.1480 C.3     1  UNL1        0.4175
     25  F1        -6.6500    0.9200    2.3700 F       1  UNL1       -0.1659
     26  F2        -7.8350    1.6490    0.5350 F       1  UNL1       -0.1659
     27  F3        -8.1760   -0.3740    1.3950 F       1  UNL1       -0.1659
     28  C19       -4.8340    0.3160    0.3670 C.ar    1  UNL1       -0.0290
     29  C20       -1.5210   -0.8620   -0.7090 C.3     1  UNL1        0.0280
     30  C21       -0.1040   -0.4150   -0.4390 C.3     1  UNL1        0.0304
     31 H           2.2032   -1.4338    1.3624 H       1  UNL1        0.0423
     32 H           3.0752   -0.0945    2.2071 H       1  UNL1        0.0423
     33 H           3.1685   -0.0179   -3.0058 H       1  UNL1        0.1921
     34 H           7.4391    0.3057   -1.6424 H       1  UNL1        0.0625
     35 H           8.5852    0.1949    0.4877 H       1  UNL1        0.0618
     36 H           7.2706   -0.0872    2.5016 H       1  UNL1        0.0618
     37 H           4.9302   -0.2557    2.4152 H       1  UNL1        0.0624
     38 H          -0.5113    2.3336    1.0860 H       1  UNL1        0.0480
     39 H          -1.3091    1.0270    2.0017 H       1  UNL1        0.0480
     40 H          -1.8337    1.9969   -0.7039 H       1  UNL1        0.0479
     41 H          -2.9155    1.7475    0.7082 H       1  UNL1        0.0479
     42 H          -3.7082   -1.3138   -2.2608 H       1  UNL1        0.0636
     43 H          -6.0239   -1.7881   -2.5644 H       1  UNL1        0.0618
     44 H          -7.6300   -0.8957   -0.9597 H       1  UNL1        0.0623
     45 H          -4.5163    0.8859    1.1665 H       1  UNL1        0.0641
     46 H          -1.6047   -1.0919   -1.7506 H       1  UNL1        0.0479
     47 H          -1.6967   -1.7058   -0.0749 H       1  UNL1        0.0479
     48 H           0.4897   -1.2950   -0.3044 H       1  UNL1        0.0480
     49 H           0.1575    0.1882   -1.2832 H       1  UNL1        0.0480
@<TRIPOS>BOND
     1     1     2    2
     2     2     3    1
     3     2    15   am
     4     3     4    1
     5     4     5   ar
     6     4    14   ar
     7     5     6   ar
     8     6     7   ar
     9     7     8    2
    10     7     9   ar
    11     9    10   ar
    12     9    14   ar
    13    10    11   ar
    14    11    12   ar
    15    12    13   ar
    16    13    14   ar
    17    15    16    1
    18    15    30    1
    19    16    17    1
    20    17    18    1
    21    18    19    1
    22    18    29    1
    23    19    20   ar
    24    19    28   ar
    25    20    21   ar
    26    21    22   ar
    27    22    23   ar
    28    23    24    1
    29    23    28   ar
    30    24    25    1
    31    24    26    1
    32    24    27    1
    33    29    30    1
    34     3    31    1
    35     3    32    1
    36     6    33    1
    37    10    34    1
    38    11    35    1
    39    12    36    1
    40    13    37    1
    41    16    38    1
    42    16    39    1
    43    17    40    1
    44    17    41    1
    45    20    42    1
    46    21    43    1
    47    22    44    1
    48    28    45    1
    49    29    46    1
    50    29    47    1
    51    30    48    1
    52    30    49    1
@<TRIPOS>MOLECULE
../data/bude_mols_rdkit_confs/molecule_25.pdb
 49 52 0 0 0
SMALL
GASTEIGER

@<TRIPOS>ATOM
      1  O1        -1.7630   -1.7570    0.1970 O.2     1  UNL1       -0.2752
      2  C1        -1.4650   -0.5110    0.2970 C.2     1  UNL1        0.2216
      3  C2        -2.4290    0.4470    0.8760 C.3     1  UNL1        0.0687
      4  C3        -3.6590    0.6610    0.1170 C.ar    1  UNL1        0.0780
      5  N1        -3.7270    1.7200   -0.7580 N.ar    1  UNL1       -0.1748
      6  N2        -4.7860    1.9600   -1.4900 N.ar    1  UNL1       -0.2425
      7  C4        -5.8910    1.1950   -1.4510 C.ar    1  UNL1        0.2725
      8  O2        -6.9100    1.4510   -2.1750 O.2     1  UNL1       -0.2658
      9  C5        -5.8860    0.1090   -0.5870 C.ar    1  UNL1        0.0496
     10  C6        -7.0050   -0.6700   -0.5140 C.ar    1  UNL1       -0.0487
     11  C7        -6.9870   -1.7330    0.3690 C.ar    1  UNL1       -0.0610
     12  C8        -5.9220   -2.0390    1.1600 C.ar    1  UNL1       -0.0611
     13  C9        -4.8060   -1.2300    1.0610 C.ar    1  UNL1       -0.0521
     14  C10       -4.7490   -0.1460    0.1990 C.ar    1  UNL1        0.0108
     15  N3        -0.1860   -0.1640   -0.1770 N.am    1  UNL1       -0.2982
     16  C11        0.2920    1.1760   -0.2120 C.3     1  UNL1        0.0304
     17  C12        1.7240    1.3790    0.1730 C.3     1  UNL1        0.0280
     18  N4         2.5380    0.2070    0.1200 N.pl3   1  UNL1       -0.3269
     19  C13        3.9770    0.4140    0.0090 C.ar    1  UNL1        0.0303
     20  C14        4.4390    1.7080    0.0570 C.ar    1  UNL1       -0.0406
     21  C15        5.7950    1.9790   -0.0560 C.ar    1  UNL1       -0.0595
     22  C16        6.6820    0.9180   -0.2190 C.ar    1  UNL1       -0.0500
     23  C17        6.2440   -0.3840   -0.2680 C.ar    1  UNL1        0.0566
     24  C18        7.2370   -1.4750   -0.4330 C.3     1  UNL1        0.4175
     25  F1         6.7920   -2.6970    0.0300 F       1  UNL1       -0.1659
     26  F2         8.4090   -1.1930    0.2750 F       1  UNL1       -0.1659
     27  F3         7.5380   -1.5930   -1.7840 F       1  UNL1       -0.1659
     28  C19        4.8680   -0.6200   -0.1500 C.ar    1  UNL1       -0.0290
     29  C20        2.0070   -1.1110    0.2060 C.3     1  UNL1        0.0280
     30  C21        0.7330   -1.2060   -0.6390 C.3     1  UNL1        0.0304
     31 H          -1.9347    1.3913    0.9701 H       1  UNL1        0.0423
     32 H          -2.7370    0.0172    1.8062 H       1  UNL1        0.0423
     33 H          -4.7724    2.7356   -2.0962 H       1  UNL1        0.1921
     34 H          -7.8335   -0.4723   -1.0966 H       1  UNL1        0.0625
     35 H          -7.8278   -2.3280    0.4323 H       1  UNL1        0.0618
     36 H          -5.9471   -2.8424    1.8072 H       1  UNL1        0.0618
     37 H          -3.9853   -1.4405    1.6502 H       1  UNL1        0.0624
     38 H          -0.3106    1.7547    0.4565 H       1  UNL1        0.0480
     39 H           0.2267    1.4757   -1.2371 H       1  UNL1        0.0480
     40 H           1.7478    1.7540    1.1749 H       1  UNL1        0.0479
     41 H           2.1323    2.0579   -0.5462 H       1  UNL1        0.0479
     42 H           3.7708    2.4851    0.1782 H       1  UNL1        0.0636
     43 H           6.1405    2.9508   -0.0199 H       1  UNL1        0.0618
     44 H           7.6916    1.1137   -0.3050 H       1  UNL1        0.0623
     45 H           4.5166   -1.5898   -0.1832 H       1  UNL1        0.0641
     46 H           1.7757   -1.3362    1.2261 H       1  UNL1        0.0479
     47 H           2.7296   -1.8105   -0.1594 H       1  UNL1        0.0479
     48 H           0.9682   -1.0529   -1.6715 H       1  UNL1        0.0480
     49 H           0.2860   -2.1727   -0.5359 H       1  UNL1        0.0480
@<TRIPOS>BOND
     1     1     2    2
     2     2     3    1
     3     2    15   am
     4     3     4    1
     5     4     5   ar
     6     4    14   ar
     7     5     6   ar
     8     6     7   ar
     9     7     8    2
    10     7     9   ar
    11     9    10   ar
    12     9    14   ar
    13    10    11   ar
    14    11    12   ar
    15    12    13   ar
    16    13    14   ar
    17    15    16    1
    18    15    30    1
    19    16    17    1
    20    17    18    1
    21    18    19    1
    22    18    29    1
    23    19    20   ar
    24    19    28   ar
    25    20    21   ar
    26    21    22   ar
    27    22    23   ar
    28    23    24    1
    29    23    28   ar
    30    24    25    1
    31    24    26    1
    32    24    27    1
    33    29    30    1
    34     3    31    1
    35     3    32    1
    36     6    33    1
    37    10    34    1
    38    11    35    1
    39    12    36    1
    40    13    37    1
    41    16    38    1
    42    16    39    1
    43    17    40    1
    44    17    41    1
    45    20    42    1
    46    21    43    1
    47    22    44    1
    48    28    45    1
    49    29    46    1
    50    29    47    1
    51    30    48    1
    52    30    49    1
@<TRIPOS>MOLECULE
../data/bude_mols_rdkit_confs/molecule_25.pdb
 49 52 0 0 0
SMALL
GASTEIGER

@<TRIPOS>ATOM
      1  O1        -1.7300   -2.1690   -2.1080 O.2     1  UNL1       -0.2752
      2  C1        -1.6230   -1.8170   -0.8590 C.2     1  UNL1        0.2216
      3  C2        -2.7390   -2.1790    0.0130 C.3     1  UNL1        0.0687
      4  C3        -3.4520   -1.0660    0.6440 C.ar    1  UNL1        0.0780
      5  N1        -3.3470   -0.9750    2.0150 N.ar    1  UNL1       -0.1748
      6  N2        -3.9080   -0.0360    2.7390 N.ar    1  UNL1       -0.2425
      7  C4        -4.6330    0.9020    2.1210 C.ar    1  UNL1        0.2725
      8  O2        -5.1640    1.7920    2.8170 O.2     1  UNL1       -0.2658
      9  C5        -4.7870    0.8810    0.7540 C.ar    1  UNL1        0.0496
     10  C6        -5.4990    1.8690    0.0920 C.ar    1  UNL1       -0.0487
     11  C7        -5.6000    1.8430   -1.2730 C.ar    1  UNL1       -0.0610
     12  C8        -5.0110    0.8500   -2.0340 C.ar    1  UNL1       -0.0611
     13  C9        -4.2980   -0.1430   -1.3950 C.ar    1  UNL1       -0.0521
     14  C10       -4.1870   -0.1210   -0.0160 C.ar    1  UNL1        0.0108
     15  N3        -0.4750   -1.1340   -0.4930 N.am    1  UNL1       -0.2982
     16  C11       -0.1740   -0.6870    0.8200 C.3     1  UNL1        0.0304
     17  C12        1.1490    0.0490    0.9140 C.3     1  UNL1        0.0280
     18  N4         2.1520   -0.4470    0.0630 N.pl3   1  UNL1       -0.3269
     19  C13        3.5230   -0.1170    0.1940 C.ar    1  UNL1        0.0303
     20  C14        4.3730   -1.1470    0.6360 C.ar    1  UNL1       -0.0406
     21  C15        5.7160   -0.9760    0.7430 C.ar    1  UNL1       -0.0595
     22  C16        6.2710    0.2430    0.4140 C.ar    1  UNL1       -0.0500
     23  C17        5.4660    1.2880   -0.0260 C.ar    1  UNL1        0.0566
     24  C18        6.0870    2.5870   -0.3810 C.3     1  UNL1        0.4175
     25  F1         7.3770    2.6890    0.0790 F       1  UNL1       -0.1659
     26  F2         6.1530    2.7190   -1.7800 F       1  UNL1       -0.1659
     27  F3         5.3270    3.6400    0.0520 F       1  UNL1       -0.1659
     28  C19        4.1030    1.0740   -0.1250 C.ar    1  UNL1       -0.0290
     29  C20        1.8150   -1.3480   -1.0390 C.3     1  UNL1        0.0280
     30  C21        0.5030   -0.8270   -1.5810 C.3     1  UNL1        0.0304
     31 H          -2.3556   -2.8048    0.7916 H       1  UNL1        0.0423
     32 H          -3.4561   -2.6563   -0.6217 H       1  UNL1        0.0423
     33 H          -3.7975   -0.0223    3.7172 H       1  UNL1        0.1921
     34 H          -5.9532    2.6246    0.6284 H       1  UNL1        0.0625
     35 H          -6.1325    2.5879   -1.7490 H       1  UNL1        0.0618
     36 H          -5.1032    0.8518   -3.0619 H       1  UNL1        0.0618
     37 H          -3.8510   -0.8961   -1.9410 H       1  UNL1        0.0624
     38 H          -0.1364   -1.5375    1.4682 H       1  UNL1        0.0480
     39 H          -0.9414    0.0024    1.1041 H       1  UNL1        0.0480
     40 H           1.5004   -0.0220    1.9222 H       1  UNL1        0.0479
     41 H           0.9599    1.0567    0.6078 H       1  UNL1        0.0479
     42 H           3.9635   -2.0605    0.8866 H       1  UNL1        0.0636
     43 H           6.3156   -1.7508    1.0674 H       1  UNL1        0.0618
     44 H           7.2906    0.3805    0.4949 H       1  UNL1        0.0623
     45 H           3.5022    1.8462   -0.4531 H       1  UNL1        0.0641
     46 H           1.7038   -2.3513   -0.6842 H       1  UNL1        0.0479
     47 H           2.5790   -1.3715   -1.7878 H       1  UNL1        0.0479
     48 H           0.5556    0.2264   -1.7610 H       1  UNL1        0.0480
     49 H           0.2352   -1.2703   -2.5173 H       1  UNL1        0.0480
@<TRIPOS>BOND
     1     1     2    2
     2     2     3    1
     3     2    15   am
     4     3     4    1
     5     4     5   ar
     6     4    14   ar
     7     5     6   ar
     8     6     7   ar
     9     7     8    2
    10     7     9   ar
    11     9    10   ar
    12     9    14   ar
    13    10    11   ar
    14    11    12   ar
    15    12    13   ar
    16    13    14   ar
    17    15    16    1
    18    15    30    1
    19    16    17    1
    20    17    18    1
    21    18    19    1
    22    18    29    1
    23    19    20   ar
    24    19    28   ar
    25    20    21   ar
    26    21    22   ar
    27    22    23   ar
    28    23    24    1
    29    23    28   ar
    30    24    25    1
    31    24    26    1
    32    24    27    1
    33    29    30    1
    34     3    31    1
    35     3    32    1
    36     6    33    1
    37    10    34    1
    38    11    35    1
    39    12    36    1
    40    13    37    1
    41    16    38    1
    42    16    39    1
    43    17    40    1
    44    17    41    1
    45    20    42    1
    46    21    43    1
    47    22    44    1
    48    28    45    1
    49    29    46    1
    50    29    47    1
    51    30    48    1
    52    30    49    1
