@<TRIPOS>MOLECULE
../data/bude_mols_rdkit_confs/molecule_32.pdb
 35 37 0 0 0
SMALL
GASTEIGER

@<TRIPOS>ATOM
      1  C1        -0.4350    4.0610   -0.0540 C.ar    1  UNL1       -0.0617
      2  C2         0.2470    3.3860   -1.0180 C.ar    1  UNL1       -0.0611
      3  C3         0.0450    2.0010   -1.1100 C.ar    1  UNL1       -0.0524
      4  C4        -0.7860    1.2770   -0.3020 C.ar    1  UNL1        0.0039
      5  C5        -0.9280   -0.1600   -0.3440 C.2     1  UNL1        0.1142
      6  N1        -0.0750   -0.8820   -0.9490 N.2     1  UNL1       -0.1787
      7  N2         1.0440   -0.6340   -1.6310 N.pl3   1  UNL1       -0.2204
      8  C6         2.3200   -0.7310   -0.9590 C.ar    1  UNL1        0.1380
      9  C7         3.0390   -1.8760   -1.2180 C.ar    1  UNL1       -0.0203
     10  C8         4.2360   -2.0200   -0.5810 C.ar    1  UNL1       -0.0570
     11  C9         4.6820   -1.0410    0.2840 C.ar    1  UNL1       -0.0435
     12  C10        3.9050    0.0810    0.4940 C.ar    1  UNL1        0.0297
     13  N3         2.7020    0.2500   -0.1330 N.ar    1  UNL1       -0.2389
     14  C11       -2.0570   -0.8200    0.3180 C.ar    1  UNL1        0.0912
     15  C12       -2.0380   -2.2000    0.4400 C.ar    1  UNL1       -0.0341
     16  C13       -3.0690   -2.9110    0.9910 C.ar    1  UNL1       -0.0583
     17  C14       -4.1660   -2.1850    1.4350 C.ar    1  UNL1       -0.0436
     18  C15       -4.1690   -0.8130    1.3060 C.ar    1  UNL1        0.0283
     19  N4        -3.1210   -0.1960    0.7570 N.ar    1  UNL1       -0.2534
     20  C16       -1.4610    2.0260    0.6700 C.ar    1  UNL1       -0.0524
     21  C17       -1.3050    3.3810    0.8080 C.ar    1  UNL1       -0.0611
     22 H          -0.3107    5.0809    0.0430 H       1  UNL1        0.0618
     23 H           0.8905    3.8757   -1.6592 H       1  UNL1        0.0618
     24 H           0.5626    1.4906   -1.8426 H       1  UNL1        0.0624
     25 H           1.0013   -0.3872   -2.5831 H       1  UNL1        0.1760
     26 H           2.6864   -2.5961   -1.8678 H       1  UNL1        0.0652
     27 H           4.8093   -2.8621   -0.7458 H       1  UNL1        0.0619
     28 H           5.5869   -1.1466    0.7688 H       1  UNL1        0.0633
     29 H           4.2412    0.8111    1.1412 H       1  UNL1        0.0830
     30 H          -1.2101   -2.7141    0.1005 H       1  UNL1        0.0639
     31 H          -3.0329   -3.9391    1.0728 H       1  UNL1        0.0619
     32 H          -4.9730   -2.6692    1.8584 H       1  UNL1        0.0633
     33 H          -4.9795   -0.2643    1.6331 H       1  UNL1        0.0830
     34 H          -2.1045    1.5360    1.3110 H       1  UNL1        0.0624
     35 H          -1.8226    3.8942    1.5386 H       1  UNL1        0.0618
@<TRIPOS>BOND
     1     1     2   ar
     2     1    21   ar
     3     2     3   ar
     4     3     4   ar
     5     4     5    1
     6     4    20   ar
     7     5     6    2
     8     5    14    1
     9     6     7    1
    10     7     8    1
    11     8     9   ar
    12     8    13   ar
    13     9    10   ar
    14    10    11   ar
    15    11    12   ar
    16    12    13   ar
    17    14    15   ar
    18    14    19   ar
    19    15    16   ar
    20    16    17   ar
    21    17    18   ar
    22    18    19   ar
    23    20    21   ar
    24     1    22    1
    25     2    23    1
    26     3    24    1
    27     7    25    1
    28     9    26    1
    29    10    27    1
    30    11    28    1
    31    12    29    1
    32    15    30    1
    33    16    31    1
    34    17    32    1
    35    18    33    1
    36    20    34    1
    37    21    35    1
@<TRIPOS>MOLECULE
../data/bude_mols_rdkit_confs/molecule_32.pdb
 35 37 0 0 0
SMALL
GASTEIGER

@<TRIPOS>ATOM
      1  C1        -1.3320    3.6390   -1.1560 C.ar    1  UNL1       -0.0617
      2  C2        -0.6380    3.3780   -0.0100 C.ar    1  UNL1       -0.0611
      3  C3        -0.5150    2.0750    0.4880 C.ar    1  UNL1       -0.0524
      4  C4        -1.0830    0.9980   -0.1490 C.ar    1  UNL1        0.0039
      5  C5        -0.8910   -0.3470    0.3290 C.2     1  UNL1        0.1142
      6  N1         0.0070   -0.6310    1.1540 N.2     1  UNL1       -0.1787
      7  N2         0.9720    0.0380    1.8080 N.pl3   1  UNL1       -0.2204
      8  C6         2.2770    0.1860    1.2500 C.ar    1  UNL1        0.1380
      9  C7         3.2640   -0.7560    1.4650 C.ar    1  UNL1       -0.0203
     10  C8         4.5170   -0.5990    0.9250 C.ar    1  UNL1       -0.0570
     11  C9         4.8040    0.5110    0.1560 C.ar    1  UNL1       -0.0435
     12  C10        3.7960    1.4430   -0.0460 C.ar    1  UNL1        0.0297
     13  N3         2.5900    1.2470    0.5010 N.ar    1  UNL1       -0.2389
     14  C11       -1.7720   -1.4520   -0.1100 C.ar    1  UNL1        0.0912
     15  C12       -1.5350   -2.7610    0.3410 C.ar    1  UNL1       -0.0341
     16  C13       -2.3170   -3.8240    0.0050 C.ar    1  UNL1       -0.0583
     17  C14       -3.4030   -3.6160   -0.8230 C.ar    1  UNL1       -0.0436
     18  C15       -3.6310   -2.3080   -1.2680 C.ar    1  UNL1        0.0283
     19  N4        -2.8280   -1.3000   -0.9040 N.ar    1  UNL1       -0.2534
     20  C16       -1.7780    1.2720   -1.3000 C.ar    1  UNL1       -0.0524
     21  C17       -1.9040    2.5690   -1.8000 C.ar    1  UNL1       -0.0611
     22 H          -1.4231    4.5992   -1.5230 H       1  UNL1        0.0618
     23 H          -0.1944    4.1576    0.5004 H       1  UNL1        0.0618
     24 H           0.0174    1.9191    1.3582 H       1  UNL1        0.0624
     25 H           0.7749    0.4331    2.6880 H       1  UNL1        0.1760
     26 H           3.0573   -1.5885    2.0388 H       1  UNL1        0.0652
     27 H           5.2444   -1.3112    1.0942 H       1  UNL1        0.0619
     28 H           5.7406    0.6437   -0.2565 H       1  UNL1        0.0633
     29 H           3.9754    2.2844   -0.6160 H       1  UNL1        0.0830
     30 H          -0.7256   -2.9258    0.9596 H       1  UNL1        0.0639
     31 H          -2.1022   -4.7680    0.3625 H       1  UNL1        0.0619
     32 H          -4.0215   -4.3934   -1.1024 H       1  UNL1        0.0633
     33 H          -4.4333   -2.1171   -1.8884 H       1  UNL1        0.0830
     34 H          -2.2219    0.4940   -1.8125 H       1  UNL1        0.0624
     35 H          -2.4368    2.7270   -2.6696 H       1  UNL1        0.0618
@<TRIPOS>BOND
     1     1     2   ar
     2     1    21   ar
     3     2     3   ar
     4     3     4   ar
     5     4     5    1
     6     4    20   ar
     7     5     6    2
     8     5    14    1
     9     6     7    1
    10     7     8    1
    11     8     9   ar
    12     8    13   ar
    13     9    10   ar
    14    10    11   ar
    15    11    12   ar
    16    12    13   ar
    17    14    15   ar
    18    14    19   ar
    19    15    16   ar
    20    16    17   ar
    21    17    18   ar
    22    18    19   ar
    23    20    21   ar
    24     1    22    1
    25     2    23    1
    26     3    24    1
    27     7    25    1
    28     9    26    1
    29    10    27    1
    30    11    28    1
    31    12    29    1
    32    15    30    1
    33    16    31    1
    34    17    32    1
    35    18    33    1
    36    20    34    1
    37    21    35    1
@<TRIPOS>MOLECULE
../data/bude_mols_rdkit_confs/molecule_32.pdb
 35 37 0 0 0
SMALL
GASTEIGER

@<TRIPOS>ATOM
      1  C1        -0.4830    3.4210    1.5850 C.ar    1  UNL1       -0.0617
      2  C2        -1.0920    2.2910    2.0770 C.ar    1  UNL1       -0.0611
      3  C3        -1.1630    1.1250    1.3520 C.ar    1  UNL1       -0.0524
      4  C4        -0.6210    1.0230    0.0710 C.ar    1  UNL1        0.0039
      5  C5        -0.8160   -0.2010   -0.6860 C.2     1  UNL1        0.1142
      6  N1         0.0180   -0.6580   -1.5520 N.2     1  UNL1       -0.1787
      7  N2         1.2020   -0.0930   -1.9010 N.pl3   1  UNL1       -0.2204
      8  C6         2.4560   -0.4650   -1.2890 C.ar    1  UNL1        0.1380
      9  C7         2.9710    0.1270   -0.1710 C.ar    1  UNL1       -0.0203
     10  C8         4.1850   -0.2640    0.3870 C.ar    1  UNL1       -0.0570
     11  C9         4.8720   -1.2830   -0.2260 C.ar    1  UNL1       -0.0435
     12  C10        4.3420   -1.8740   -1.3550 C.ar    1  UNL1        0.0297
     13  N3         3.1750   -1.4630   -1.8490 N.ar    1  UNL1       -0.2389
     14  C11       -2.0630   -0.9720   -0.4650 C.ar    1  UNL1        0.0912
     15  C12       -3.1370   -0.4150    0.1250 C.ar    1  UNL1       -0.0341
     16  C13       -4.2590   -1.2280    0.3630 C.ar    1  UNL1       -0.0583
     17  C14       -4.2680   -2.5480    0.0060 C.ar    1  UNL1       -0.0436
     18  C15       -3.1310   -3.0800   -0.6060 C.ar    1  UNL1        0.0283
     19  N4        -2.0730   -2.2780   -0.8190 N.ar    1  UNL1       -0.2534
     20  C16       -0.0170    2.1590   -0.4050 C.ar    1  UNL1       -0.0524
     21  C17        0.0630    3.3500    0.3230 C.ar    1  UNL1       -0.0611
     22 H          -0.4368    4.2895    2.1405 H       1  UNL1        0.0618
     23 H          -1.5091    2.3188    3.0205 H       1  UNL1        0.0618
     24 H          -1.6298    0.3033    1.7667 H       1  UNL1        0.0624
     25 H           1.2059    0.5995   -2.6008 H       1  UNL1        0.1760
     26 H           2.4412    0.8915    0.2761 H       1  UNL1        0.0652
     27 H           4.5562    0.1963    1.2328 H       1  UNL1        0.0619
     28 H           5.7762   -1.6039    0.1541 H       1  UNL1        0.0633
     29 H           4.8536   -2.6401   -1.8201 H       1  UNL1        0.0830
     30 H          -3.1368    0.5810    0.3951 H       1  UNL1        0.0639
     31 H          -5.0920   -0.8207    0.8159 H       1  UNL1        0.0619
     32 H          -5.0960   -3.1375    0.1847 H       1  UNL1        0.0633
     33 H          -3.1033   -4.0718   -0.8899 H       1  UNL1        0.0830
     34 H           0.3997    2.1332   -1.3488 H       1  UNL1        0.0624
     35 H           0.5306    4.1746   -0.0849 H       1  UNL1        0.0618
@<TRIPOS>BOND
     1     1     2   ar
     2     1    21   ar
     3     2     3   ar
     4     3     4   ar
     5     4     5    1
     6     4    20   ar
     7     5     6    2
     8     5    14    1
     9     6     7    1
    10     7     8    1
    11     8     9   ar
    12     8    13   ar
    13     9    10   ar
    14    10    11   ar
    15    11    12   ar
    16    12    13   ar
    17    14    15   ar
    18    14    19   ar
    19    15    16   ar
    20    16    17   ar
    21    17    18   ar
    22    18    19   ar
    23    20    21   ar
    24     1    22    1
    25     2    23    1
    26     3    24    1
    27     7    25    1
    28     9    26    1
    29    10    27    1
    30    11    28    1
    31    12    29    1
    32    15    30    1
    33    16    31    1
    34    17    32    1
    35    18    33    1
    36    20    34    1
    37    21    35    1
@<TRIPOS>MOLECULE
../data/bude_mols_rdkit_confs/molecule_32.pdb
 35 37 0 0 0
SMALL
GASTEIGER

@<TRIPOS>ATOM
      1  C1        -0.6290   -3.5840   -0.9320 C.ar    1  UNL1       -0.0617
      2  C2         0.0660   -3.2470    0.1860 C.ar    1  UNL1       -0.0611
      3  C3        -0.0240   -1.9620    0.7380 C.ar    1  UNL1       -0.0524
      4  C4        -0.8130   -0.9860    0.1810 C.ar    1  UNL1        0.0039
      5  C5        -0.9060    0.3910    0.6300 C.2     1  UNL1        0.1142
      6  N1        -0.0060    0.8720    1.3890 N.2     1  UNL1       -0.1787
      7  N2         1.1090    0.3330    1.9050 N.pl3   1  UNL1       -0.2204
      8  C6         2.3140    0.2660    1.1090 C.ar    1  UNL1        0.1380
      9  C7         3.4830   -0.2790    1.5950 C.ar    1  UNL1       -0.0203
     10  C8         4.6420   -0.3550    0.8610 C.ar    1  UNL1       -0.0570
     11  C9         4.6340    0.1360   -0.4180 C.ar    1  UNL1       -0.0435
     12  C10        3.4580    0.6770   -0.8890 C.ar    1  UNL1        0.0297
     13  N3         2.3360    0.7410   -0.1520 N.ar    1  UNL1       -0.2389
     14  C11       -2.0550    1.2560    0.2580 C.ar    1  UNL1        0.0912
     15  C12       -2.0150    2.5670    0.7160 C.ar    1  UNL1       -0.0341
     16  C13       -3.0340    3.4570    0.4610 C.ar    1  UNL1       -0.0583
     17  C14       -4.1120    3.0070   -0.2720 C.ar    1  UNL1       -0.0436
     18  C15       -4.1220    1.7100   -0.7090 C.ar    1  UNL1        0.0283
     19  N4        -3.1090    0.8650   -0.4430 N.ar    1  UNL1       -0.2534
     20  C16       -1.5080   -1.3630   -0.9600 C.ar    1  UNL1       -0.0524
     21  C17       -1.4190   -2.6460   -1.5100 C.ar    1  UNL1       -0.0611
     22 H          -0.5571   -4.5326   -1.3321 H       1  UNL1        0.0618
     23 H           0.6715   -3.9505    0.6371 H       1  UNL1        0.0618
     24 H           0.5186   -1.7429    1.5880 H       1  UNL1        0.0624
     25 H           1.1066   -0.0167    2.8253 H       1  UNL1        0.1760
     26 H           3.4880   -0.6485    2.5586 H       1  UNL1        0.0652
     27 H           5.4966   -0.7712    1.2628 H       1  UNL1        0.0619
     28 H           5.4799    0.1017   -1.0082 H       1  UNL1        0.0633
     29 H           3.4376    1.0499   -1.8510 H       1  UNL1        0.0830
     30 H          -1.1986    2.8826    1.2627 H       1  UNL1        0.0639
     31 H          -2.9925    4.4284    0.8068 H       1  UNL1        0.0619
     32 H          -4.8991    3.6386   -0.4877 H       1  UNL1        0.0633
     33 H          -4.9280    1.3710   -1.2572 H       1  UNL1        0.0830
     34 H          -2.1154   -0.6680   -1.4215 H       1  UNL1        0.0624
     35 H          -1.9569   -2.8795   -2.3592 H       1  UNL1        0.0618
@<TRIPOS>BOND
     1     1     2   ar
     2     1    21   ar
     3     2     3   ar
     4     3     4   ar
     5     4     5    1
     6     4    20   ar
     7     5     6    2
     8     5    14    1
     9     6     7    1
    10     7     8    1
    11     8     9   ar
    12     8    13   ar
    13     9    10   ar
    14    10    11   ar
    15    11    12   ar
    16    12    13   ar
    17    14    15   ar
    18    14    19   ar
    19    15    16   ar
    20    16    17   ar
    21    17    18   ar
    22    18    19   ar
    23    20    21   ar
    24     1    22    1
    25     2    23    1
    26     3    24    1
    27     7    25    1
    28     9    26    1
    29    10    27    1
    30    11    28    1
    31    12    29    1
    32    15    30    1
    33    16    31    1
    34    17    32    1
    35    18    33    1
    36    20    34    1
    37    21    35    1
@<TRIPOS>MOLECULE
../data/bude_mols_rdkit_confs/molecule_32.pdb
 35 37 0 0 0
SMALL
GASTEIGER

@<TRIPOS>ATOM
      1  C1        -2.1800    3.7260    0.0110 C.ar    1  UNL1       -0.0617
      2  C2        -0.8370    3.4610   -0.0500 C.ar    1  UNL1       -0.0611
      3  C3        -0.3860    2.1450    0.0280 C.ar    1  UNL1       -0.0524
      4  C4        -1.2230    1.0490    0.1690 C.ar    1  UNL1        0.0039
      5  C5        -0.7650   -0.3070    0.3320 C.2     1  UNL1        0.1142
      6  N1         0.4120   -0.5940    0.6710 N.2     1  UNL1       -0.1787
      7  N2         1.4700    0.1840    0.9530 N.pl3   1  UNL1       -0.2204
      8  C6         2.6730    0.0810    0.1630 C.ar    1  UNL1        0.1380
      9  C7         3.7810    0.8510    0.4090 C.ar    1  UNL1       -0.0203
     10  C8         4.9330    0.7400   -0.3620 C.ar    1  UNL1       -0.0570
     11  C9         4.9430   -0.1650   -1.3850 C.ar    1  UNL1       -0.0435
     12  C10        3.8330   -0.9370   -1.6310 C.ar    1  UNL1        0.0297
     13  N3         2.7540   -0.7930   -0.8650 N.ar    1  UNL1       -0.2389
     14  C11       -1.6570   -1.4460    0.0630 C.ar    1  UNL1        0.0912
     15  C12       -1.1950   -2.7500    0.2780 C.ar    1  UNL1       -0.0341
     16  C13       -1.9700   -3.8440    0.0130 C.ar    1  UNL1       -0.0583
     17  C14       -3.2400   -3.6370   -0.4790 C.ar    1  UNL1       -0.0436
     18  C15       -3.6820   -2.3500   -0.6860 C.ar    1  UNL1        0.0283
     19  N4        -2.8830   -1.3410   -0.4100 N.ar    1  UNL1       -0.2534
     20  C16       -2.5740    1.3510    0.2280 C.ar    1  UNL1       -0.0524
     21  C17       -3.0250    2.6610    0.1490 C.ar    1  UNL1       -0.0611
     22 H          -2.5392    4.6919   -0.0451 H       1  UNL1        0.0618
     23 H          -0.1613    4.2342   -0.1534 H       1  UNL1        0.0618
     24 H           0.6309    1.9763   -0.0221 H       1  UNL1        0.0624
     25 H           1.4246    0.8248    1.6990 H       1  UNL1        0.1760
     26 H           3.7593    1.5299    1.1859 H       1  UNL1        0.0652
     27 H           5.7593    1.3265   -0.1662 H       1  UNL1        0.0619
     28 H           5.7844   -0.2691   -1.9734 H       1  UNL1        0.0633
     29 H           3.8360   -1.6222   -2.4027 H       1  UNL1        0.0830
     30 H          -0.2415   -2.8891    0.6473 H       1  UNL1        0.0639
     31 H          -1.6138   -4.7986    0.1769 H       1  UNL1        0.0619
     32 H          -3.8540   -4.4391   -0.6903 H       1  UNL1        0.0633
     33 H          -4.6306   -2.1778   -1.0540 H       1  UNL1        0.0830
     34 H          -3.2588    0.5861    0.3328 H       1  UNL1        0.0624
     35 H          -4.0406    2.8382    0.1964 H       1  UNL1        0.0618
@<TRIPOS>BOND
     1     1     2   ar
     2     1    21   ar
     3     2     3   ar
     4     3     4   ar
     5     4     5    1
     6     4    20   ar
     7     5     6    2
     8     5    14    1
     9     6     7    1
    10     7     8    1
    11     8     9   ar
    12     8    13   ar
    13     9    10   ar
    14    10    11   ar
    15    11    12   ar
    16    12    13   ar
    17    14    15   ar
    18    14    19   ar
    19    15    16   ar
    20    16    17   ar
    21    17    18   ar
    22    18    19   ar
    23    20    21   ar
    24     1    22    1
    25     2    23    1
    26     3    24    1
    27     7    25    1
    28     9    26    1
    29    10    27    1
    30    11    28    1
    31    12    29    1
    32    15    30    1
    33    16    31    1
    34    17    32    1
    35    18    33    1
    36    20    34    1
    37    21    35    1
@<TRIPOS>MOLECULE
../data/bude_mols_rdkit_confs/molecule_32.pdb
 35 37 0 0 0
SMALL
GASTEIGER

@<TRIPOS>ATOM
      1  C1        -1.6760    3.3090    1.7160 C.ar    1  UNL1       -0.0617
      2  C2        -1.9750    2.0570    2.2030 C.ar    1  UNL1       -0.0611
      3  C3        -1.6190    0.9530    1.4990 C.ar    1  UNL1       -0.0524
      4  C4        -0.9560    1.0430    0.2860 C.ar    1  UNL1        0.0039
      5  C5        -0.6980   -0.1180   -0.5220 C.2     1  UNL1        0.1142
      6  N1         0.2750   -0.2410   -1.2750 N.2     1  UNL1       -0.1787
      7  N2         1.3050    0.5660   -1.5640 N.pl3   1  UNL1       -0.2204
      8  C6         2.5810    0.2320   -0.9460 C.ar    1  UNL1        0.1380
      9  C7         3.5850   -0.3030   -1.7520 C.ar    1  UNL1       -0.0203
     10  C8         4.8050   -0.6730   -1.2500 C.ar    1  UNL1       -0.0570
     11  C9         5.0330   -0.5020    0.1110 C.ar    1  UNL1       -0.0435
     12  C10        4.0200    0.0330    0.8940 C.ar    1  UNL1        0.0297
     13  N3         2.8370    0.3810    0.3520 N.ar    1  UNL1       -0.2389
     14  C11       -1.6790   -1.2480   -0.4390 C.ar    1  UNL1        0.0912
     15  C12       -2.9260   -1.0600    0.0520 C.ar    1  UNL1       -0.0341
     16  C13       -3.7840   -2.1580    0.1780 C.ar    1  UNL1       -0.0583
     17  C14       -3.3590   -3.3970   -0.1950 C.ar    1  UNL1       -0.0436
     18  C15       -2.0610   -3.5280   -0.6960 C.ar    1  UNL1        0.0283
     19  N4        -1.2650   -2.4700   -0.8060 N.ar    1  UNL1       -0.2534
     20  C16       -0.6670    2.2930   -0.1840 C.ar    1  UNL1       -0.0524
     21  C17       -1.0200    3.4470    0.5180 C.ar    1  UNL1       -0.0611
     22 H          -1.9460    4.1475    2.2536 H       1  UNL1        0.0618
     23 H          -2.4698    1.9579    3.1032 H       1  UNL1        0.0618
     24 H          -1.8484    0.0208    1.8776 H       1  UNL1        0.0624
     25 H           1.2048    1.3421   -2.1613 H       1  UNL1        0.1760
     26 H           3.4031   -0.4244   -2.7606 H       1  UNL1        0.0652
     27 H           5.5341   -1.0675   -1.8646 H       1  UNL1        0.0619
     28 H           5.9377   -0.7677    0.5305 H       1  UNL1        0.0633
     29 H           4.1751    0.1661    1.9056 H       1  UNL1        0.0830
     30 H          -3.2406   -0.1173    0.3304 H       1  UNL1        0.0639
     31 H          -4.7369   -2.0293    0.5528 H       1  UNL1        0.0619
     32 H          -3.9792   -4.2175   -0.1099 H       1  UNL1        0.0633
     33 H          -1.7168   -4.4573   -0.9839 H       1  UNL1        0.0830
     34 H          -0.1729    2.3869   -1.0851 H       1  UNL1        0.0624
     35 H          -0.7931    4.3821    0.1450 H       1  UNL1        0.0618
@<TRIPOS>BOND
     1     1     2   ar
     2     1    21   ar
     3     2     3   ar
     4     3     4   ar
     5     4     5    1
     6     4    20   ar
     7     5     6    2
     8     5    14    1
     9     6     7    1
    10     7     8    1
    11     8     9   ar
    12     8    13   ar
    13     9    10   ar
    14    10    11   ar
    15    11    12   ar
    16    12    13   ar
    17    14    15   ar
    18    14    19   ar
    19    15    16   ar
    20    16    17   ar
    21    17    18   ar
    22    18    19   ar
    23    20    21   ar
    24     1    22    1
    25     2    23    1
    26     3    24    1
    27     7    25    1
    28     9    26    1
    29    10    27    1
    30    11    28    1
    31    12    29    1
    32    15    30    1
    33    16    31    1
    34    17    32    1
    35    18    33    1
    36    20    34    1
    37    21    35    1
@<TRIPOS>MOLECULE
../data/bude_mols_rdkit_confs/molecule_32.pdb
 35 37 0 0 0
SMALL
GASTEIGER

@<TRIPOS>ATOM
      1  C1        -2.6840   -3.2900   -1.3240 C.ar    1  UNL1       -0.0617
      2  C2        -1.3300   -3.1800   -1.3540 C.ar    1  UNL1       -0.0611
      3  C3        -0.7000   -2.0360   -0.8690 C.ar    1  UNL1       -0.0524
      4  C4        -1.3960   -0.9890   -0.3470 C.ar    1  UNL1        0.0039
      5  C5        -0.7910    0.1710    0.2640 C.2     1  UNL1        0.1142
      6  N1         0.3400    0.1460    0.7760 N.2     1  UNL1       -0.1787
      7  N2         1.2010   -0.9080    0.8730 N.pl3   1  UNL1       -0.2204
      8  C6         2.5660   -0.6650    0.5660 C.ar    1  UNL1        0.1380
      9  C7         3.4620   -0.5080    1.6020 C.ar    1  UNL1       -0.0203
     10  C8         4.8050   -0.2420    1.3380 C.ar    1  UNL1       -0.0570
     11  C9         5.1720   -0.1480    0.0040 C.ar    1  UNL1       -0.0435
     12  C10        4.2680   -0.3070   -1.0210 C.ar    1  UNL1        0.0297
     13  N3         2.9870   -0.5620   -0.6890 N.ar    1  UNL1       -0.2389
     14  C11       -1.4910    1.4530    0.2210 C.ar    1  UNL1        0.0912
     15  C12       -0.8670    2.5690    0.7530 C.ar    1  UNL1       -0.0341
     16  C13       -1.4350    3.8170    0.7340 C.ar    1  UNL1       -0.0583
     17  C14       -2.6880    3.9710    0.1570 C.ar    1  UNL1       -0.0436
     18  C15       -3.2900    2.8600   -0.3630 C.ar    1  UNL1        0.0283
     19  N4        -2.7090    1.6530   -0.3270 N.ar    1  UNL1       -0.2534
     20  C16       -2.7890   -1.1320   -0.3310 C.ar    1  UNL1       -0.0524
     21  C17       -3.4360   -2.2660   -0.8120 C.ar    1  UNL1       -0.0611
     22 H          -3.1434   -4.1406   -1.6851 H       1  UNL1        0.0618
     23 H          -0.7630   -3.9512   -1.7397 H       1  UNL1        0.0618
     24 H           0.3298   -1.9804   -0.9068 H       1  UNL1        0.0624
     25 H           0.8885   -1.8011    1.1449 H       1  UNL1        0.1760
     26 H           3.1369   -0.5878    2.5782 H       1  UNL1        0.0652
     27 H           5.4923   -0.1210    2.0982 H       1  UNL1        0.0619
     28 H           6.1582    0.0482   -0.2282 H       1  UNL1        0.0633
     29 H           4.5602   -0.2337   -2.0080 H       1  UNL1        0.0830
     30 H           0.0649    2.4567    1.1819 H       1  UNL1        0.0639
     31 H          -0.9403    4.6262    1.1409 H       1  UNL1        0.0619
     32 H          -3.1494    4.8935    0.1219 H       1  UNL1        0.0633
     33 H          -4.2216    2.9534   -0.7972 H       1  UNL1        0.0830
     34 H          -3.3601   -0.3634    0.0540 H       1  UNL1        0.0624
     35 H          -4.4653   -2.3345   -0.7835 H       1  UNL1        0.0618
@<TRIPOS>BOND
     1     1     2   ar
     2     1    21   ar
     3     2     3   ar
     4     3     4   ar
     5     4     5    1
     6     4    20   ar
     7     5     6    2
     8     5    14    1
     9     6     7    1
    10     7     8    1
    11     8     9   ar
    12     8    13   ar
    13     9    10   ar
    14    10    11   ar
    15    11    12   ar
    16    12    13   ar
    17    14    15   ar
    18    14    19   ar
    19    15    16   ar
    20    16    17   ar
    21    17    18   ar
    22    18    19   ar
    23    20    21   ar
    24     1    22    1
    25     2    23    1
    26     3    24    1
    27     7    25    1
    28     9    26    1
    29    10    27    1
    30    11    28    1
    31    12    29    1
    32    15    30    1
    33    16    31    1
    34    17    32    1
    35    18    33    1
    36    20    34    1
    37    21    35    1
@<TRIPOS>MOLECULE
../data/bude_mols_rdkit_confs/molecule_32.pdb
 35 37 0 0 0
SMALL
GASTEIGER

@<TRIPOS>ATOM
      1  C1        -1.1940   -4.1390   -0.0910 C.ar    1  UNL1       -0.0617
      2  C2        -2.2670   -3.3580    0.2510 C.ar    1  UNL1       -0.0611
      3  C3        -2.1110   -1.9990    0.4680 C.ar    1  UNL1       -0.0524
      4  C4        -0.8800   -1.3540    0.3530 C.ar    1  UNL1        0.0039
      5  C5        -0.7860    0.0750    0.5130 C.2     1  UNL1        0.1142
      6  N1         0.3370    0.6240    0.7680 N.2     1  UNL1       -0.1787
      7  N2         1.5830    0.1200    0.9450 N.pl3   1  UNL1       -0.2204
      8  C6         2.6390    0.5830    0.1190 C.ar    1  UNL1        0.1380
      9  C7         3.9020    0.0800    0.2880 C.ar    1  UNL1       -0.0203
     10  C8         4.9130    0.5340   -0.5130 C.ar    1  UNL1       -0.0570
     11  C9         4.6710    1.4770   -1.4710 C.ar    1  UNL1       -0.0435
     12  C10        3.3920    1.9610   -1.6150 C.ar    1  UNL1        0.0297
     13  N3         2.4140    1.5060   -0.8220 N.ar    1  UNL1       -0.2389
     14  C11       -1.9660    0.9670    0.3580 C.ar    1  UNL1        0.0912
     15  C12       -1.8160    2.3370    0.5600 C.ar    1  UNL1       -0.0341
     16  C13       -2.8630    3.2150    0.4060 C.ar    1  UNL1       -0.0583
     17  C14       -4.0980    2.7430    0.0420 C.ar    1  UNL1       -0.0436
     18  C15       -4.2290    1.3790   -0.1540 C.ar    1  UNL1        0.0283
     19  N4        -3.1790    0.5660    0.0090 N.ar    1  UNL1       -0.2534
     20  C16        0.1880   -2.1470    0.0080 C.ar    1  UNL1       -0.0524
     21  C17        0.0190   -3.5300   -0.2090 C.ar    1  UNL1       -0.0611
     22 H          -1.3010   -5.1525   -0.2534 H       1  UNL1        0.0618
     23 H          -3.2007   -3.7868    0.3478 H       1  UNL1        0.0618
     24 H          -2.9399   -1.4407    0.7254 H       1  UNL1        0.0624
     25 H           1.7527   -0.5585    1.6378 H       1  UNL1        0.1760
     26 H           4.0881   -0.6327    1.0108 H       1  UNL1        0.0652
     27 H           5.8676    0.1607   -0.3926 H       1  UNL1        0.0619
     28 H           5.4339    1.8199   -2.0755 H       1  UNL1        0.0633
     29 H           3.1864    2.6734   -2.3328 H       1  UNL1        0.0830
     30 H          -0.8911    2.7042    0.8335 H       1  UNL1        0.0639
     31 H          -2.7200    4.2248    0.5637 H       1  UNL1        0.0619
     32 H          -4.8998    3.3809   -0.0812 H       1  UNL1        0.0633
     33 H          -5.1432    0.9863   -0.4279 H       1  UNL1        0.0830
     34 H           1.1245   -1.7255   -0.0934 H       1  UNL1        0.0624
     35 H           0.8407   -4.0993   -0.4655 H       1  UNL1        0.0618
@<TRIPOS>BOND
     1     1     2   ar
     2     1    21   ar
     3     2     3   ar
     4     3     4   ar
     5     4     5    1
     6     4    20   ar
     7     5     6    2
     8     5    14    1
     9     6     7    1
    10     7     8    1
    11     8     9   ar
    12     8    13   ar
    13     9    10   ar
    14    10    11   ar
    15    11    12   ar
    16    12    13   ar
    17    14    15   ar
    18    14    19   ar
    19    15    16   ar
    20    16    17   ar
    21    17    18   ar
    22    18    19   ar
    23    20    21   ar
    24     1    22    1
    25     2    23    1
    26     3    24    1
    27     7    25    1
    28     9    26    1
    29    10    27    1
    30    11    28    1
    31    12    29    1
    32    15    30    1
    33    16    31    1
    34    17    32    1
    35    18    33    1
    36    20    34    1
    37    21    35    1
@<TRIPOS>MOLECULE
../data/bude_mols_rdkit_confs/molecule_32.pdb
 35 37 0 0 0
SMALL
GASTEIGER

@<TRIPOS>ATOM
      1  C1        -2.7090    3.3180    0.0090 C.ar    1  UNL1       -0.0617
      2  C2        -1.3510    3.2470   -0.2020 C.ar    1  UNL1       -0.0611
      3  C3        -0.6930    2.0160   -0.1540 C.ar    1  UNL1       -0.0524
      4  C4        -1.3450    0.8320    0.1030 C.ar    1  UNL1        0.0039
      5  C5        -0.6800   -0.4470    0.2740 C.2     1  UNL1        0.1142
      6  N1         0.5130   -0.5040    0.6830 N.2     1  UNL1       -0.1787
      7  N2         1.3480    0.5140    1.0200 N.pl3   1  UNL1       -0.2204
      8  C6         2.6910    0.5240    0.5670 C.ar    1  UNL1        0.1380
      9  C7         3.1190    1.0140   -0.6350 C.ar    1  UNL1       -0.0203
     10  C8         4.4530    1.0070   -1.0380 C.ar    1  UNL1       -0.0570
     11  C9         5.3880    0.4800   -0.1840 C.ar    1  UNL1       -0.0435
     12  C10        4.9600   -0.0150    1.0290 C.ar    1  UNL1        0.0297
     13  N3         3.6670    0.0110    1.3770 N.ar    1  UNL1       -0.2389
     14  C11       -1.3380   -1.7090   -0.0300 C.ar    1  UNL1        0.0912
     15  C12       -2.5000   -1.8440   -0.7440 C.ar    1  UNL1       -0.0341
     16  C13       -3.0530   -3.0980   -0.9000 C.ar    1  UNL1       -0.0583
     17  C14       -2.4520   -4.1970   -0.3520 C.ar    1  UNL1       -0.0436
     18  C15       -1.2950   -4.0520    0.3560 C.ar    1  UNL1        0.0283
     19  N4        -0.7750   -2.8390    0.4980 N.ar    1  UNL1       -0.2534
     20  C16       -2.7240    0.9650    0.3110 C.ar    1  UNL1       -0.0524
     21  C17       -3.3950    2.1650    0.2670 C.ar    1  UNL1       -0.0611
     22 H          -3.1999    4.2250   -0.0270 H       1  UNL1        0.0618
     23 H          -0.8160    4.1078   -0.3967 H       1  UNL1        0.0618
     24 H           0.3256    1.9935   -0.3183 H       1  UNL1        0.0624
     25 H           1.0173    1.2505    1.5834 H       1  UNL1        0.1760
     26 H           2.4165    1.4105   -1.2787 H       1  UNL1        0.0652
     27 H           4.7304    1.3887   -1.9558 H       1  UNL1        0.0619
     28 H           6.3866    0.4548   -0.4431 H       1  UNL1        0.0633
     29 H           5.6509   -0.4144    1.6833 H       1  UNL1        0.0830
     30 H          -2.9560   -1.0170   -1.1601 H       1  UNL1        0.0639
     31 H          -3.9285   -3.2077   -1.4353 H       1  UNL1        0.0619
     32 H          -2.8717   -5.1319   -0.4734 H       1  UNL1        0.0633
     33 H          -0.8310   -4.8731    0.7749 H       1  UNL1        0.0830
     34 H          -3.2692    0.1114    0.5091 H       1  UNL1        0.0624
     35 H          -4.4139    2.1943    0.4284 H       1  UNL1        0.0618
@<TRIPOS>BOND
     1     1     2   ar
     2     1    21   ar
     3     2     3   ar
     4     3     4   ar
     5     4     5    1
     6     4    20   ar
     7     5     6    2
     8     5    14    1
     9     6     7    1
    10     7     8    1
    11     8     9   ar
    12     8    13   ar
    13     9    10   ar
    14    10    11   ar
    15    11    12   ar
    16    12    13   ar
    17    14    15   ar
    18    14    19   ar
    19    15    16   ar
    20    16    17   ar
    21    17    18   ar
    22    18    19   ar
    23    20    21   ar
    24     1    22    1
    25     2    23    1
    26     3    24    1
    27     7    25    1
    28     9    26    1
    29    10    27    1
    30    11    28    1
    31    12    29    1
    32    15    30    1
    33    16    31    1
    34    17    32    1
    35    18    33    1
    36    20    34    1
    37    21    35    1
@<TRIPOS>MOLECULE
../data/bude_mols_rdkit_confs/molecule_32.pdb
 35 37 0 0 0
SMALL
GASTEIGER

@<TRIPOS>ATOM
      1  C1        -1.7650   -3.9690    0.4510 C.ar    1  UNL1       -0.0617
      2  C2        -2.6170   -3.0890   -0.1720 C.ar    1  UNL1       -0.0611
      3  C3        -2.2420   -1.8190   -0.5250 C.ar    1  UNL1       -0.0524
      4  C4        -0.9650   -1.3780   -0.2560 C.ar    1  UNL1        0.0039
      5  C5        -0.6620   -0.0000   -0.5800 C.2     1  UNL1        0.1142
      6  N1         0.5340    0.3750   -0.7310 N.2     1  UNL1       -0.1787
      7  N2         1.7270   -0.2700   -0.6600 N.pl3   1  UNL1       -0.2204
      8  C6         2.7910    0.2880    0.1150 C.ar    1  UNL1        0.1380
      9  C7         2.8150    0.0770    1.4630 C.ar    1  UNL1       -0.0203
     10  C8         3.8750    0.6350    2.1920 C.ar    1  UNL1       -0.0570
     11  C9         4.8350    1.3630    1.5310 C.ar    1  UNL1       -0.0435
     12  C10        4.7330    1.5290    0.1580 C.ar    1  UNL1        0.0297
     13  N3         3.7230    0.9980   -0.5500 N.ar    1  UNL1       -0.2389
     14  C11       -1.7140    1.0000   -0.6880 C.ar    1  UNL1        0.0912
     15  C12       -1.3550    2.3160   -1.0450 C.ar    1  UNL1       -0.0341
     16  C13       -2.3160    3.2780   -1.1170 C.ar    1  UNL1       -0.0583
     17  C14       -3.6530    2.9750   -0.8400 C.ar    1  UNL1       -0.0436
     18  C15       -3.9900    1.6760   -0.4890 C.ar    1  UNL1        0.0283
     19  N4        -3.0130    0.7750   -0.4350 N.ar    1  UNL1       -0.2534
     20  C16       -0.0990   -2.2520    0.3700 C.ar    1  UNL1       -0.0524
     21  C17       -0.4910   -3.5280    0.7180 C.ar    1  UNL1       -0.0611
     22 H          -2.0691   -4.9212    0.7076 H       1  UNL1        0.0618
     23 H          -3.5791   -3.3973   -0.3828 H       1  UNL1        0.0618
     24 H          -2.9163   -1.1930   -0.9924 H       1  UNL1        0.0624
     25 H           1.8587   -1.1190   -1.1406 H       1  UNL1        0.1760
     26 H           2.0782   -0.4744    1.9300 H       1  UNL1        0.0652
     27 H           3.9335    0.5004    3.2135 H       1  UNL1        0.0619
     28 H           5.6226    1.7813    2.0503 H       1  UNL1        0.0633
     29 H           5.4553    2.0773   -0.3347 H       1  UNL1        0.0830
     30 H          -0.3707    2.5485   -1.2503 H       1  UNL1        0.0639
     31 H          -2.0549    4.2415   -1.3789 H       1  UNL1        0.0619
     32 H          -4.3782    3.7071   -0.8959 H       1  UNL1        0.0633
     33 H          -4.9662    1.4172   -0.2768 H       1  UNL1        0.0830
     34 H           0.8628   -1.9440    0.5823 H       1  UNL1        0.0624
     35 H           0.1800   -4.1586    1.1841 H       1  UNL1        0.0618
@<TRIPOS>BOND
     1     1     2   ar
     2     1    21   ar
     3     2     3   ar
     4     3     4   ar
     5     4     5    1
     6     4    20   ar
     7     5     6    2
     8     5    14    1
     9     6     7    1
    10     7     8    1
    11     8     9   ar
    12     8    13   ar
    13     9    10   ar
    14    10    11   ar
    15    11    12   ar
    16    12    13   ar
    17    14    15   ar
    18    14    19   ar
    19    15    16   ar
    20    16    17   ar
    21    17    18   ar
    22    18    19   ar
    23    20    21   ar
    24     1    22    1
    25     2    23    1
    26     3    24    1
    27     7    25    1
    28     9    26    1
    29    10    27    1
    30    11    28    1
    31    12    29    1
    32    15    30    1
    33    16    31    1
    34    17    32    1
    35    18    33    1
    36    20    34    1
    37    21    35    1
@<TRIPOS>MOLECULE
../data/bude_mols_rdkit_confs/molecule_32.pdb
 35 37 0 0 0
SMALL
GASTEIGER

@<TRIPOS>ATOM
      1  C1        -1.8410    3.8350    0.7860 C.ar    1  UNL1       -0.0617
      2  C2        -2.7910    2.9240    0.4380 C.ar    1  UNL1       -0.0611
      3  C3        -2.4130    1.6480    0.0320 C.ar    1  UNL1       -0.0524
      4  C4        -1.1030    1.2260   -0.0430 C.ar    1  UNL1        0.0039
      5  C5        -0.7710   -0.1410   -0.3990 C.2     1  UNL1        0.1142
      6  N1         0.3790   -0.4300   -0.8980 N.2     1  UNL1       -0.1787
      7  N2         1.4320    0.3660   -1.1830 N.pl3   1  UNL1       -0.2204
      8  C6         2.7210   -0.0610   -0.6970 C.ar    1  UNL1        0.1380
      9  C7         3.1550    0.1390    0.5860 C.ar    1  UNL1       -0.0203
     10  C8         4.4070   -0.2950    1.0200 C.ar    1  UNL1       -0.0570
     11  C9         5.2140   -0.9420    0.1110 C.ar    1  UNL1       -0.0435
     12  C10        4.7720   -1.1430   -1.1880 C.ar    1  UNL1        0.0297
     13  N3         3.5400   -0.6970   -1.5510 N.ar    1  UNL1       -0.2389
     14  C11       -1.6630   -1.2800   -0.2150 C.ar    1  UNL1        0.0912
     15  C12       -2.7630   -1.2960    0.5760 C.ar    1  UNL1       -0.0341
     16  C13       -3.5890   -2.4160    0.6200 C.ar    1  UNL1       -0.0583
     17  C14       -3.3000   -3.5240   -0.1390 C.ar    1  UNL1       -0.0436
     18  C15       -2.1720   -3.4970   -0.9430 C.ar    1  UNL1        0.0283
     19  N4        -1.4180   -2.4090   -0.9500 N.ar    1  UNL1       -0.2534
     20  C16       -0.1630    2.1760    0.3170 C.ar    1  UNL1       -0.0524
     21  C17       -0.5230    3.4650    0.7260 C.ar    1  UNL1       -0.0611
     22 H          -2.1080    4.7848    1.0888 H       1  UNL1        0.0618
     23 H          -3.7902    3.1795    0.4753 H       1  UNL1        0.0618
     24 H          -3.1554    0.9798   -0.2276 H       1  UNL1        0.0624
     25 H           1.3249    1.1982   -1.6980 H       1  UNL1        0.1760
     26 H           2.5361    0.6262    1.2528 H       1  UNL1        0.0652
     27 H           4.7187   -0.1365    1.9909 H       1  UNL1        0.0619
     28 H           6.1474   -1.2772    0.3963 H       1  UNL1        0.0633
     29 H           5.3731   -1.6269   -1.8732 H       1  UNL1        0.0830
     30 H          -2.9908   -0.4701    1.1514 H       1  UNL1        0.0639
     31 H          -4.4238   -2.4138    1.2268 H       1  UNL1        0.0619
     32 H          -3.9088   -4.3568   -0.1110 H       1  UNL1        0.0633
     33 H          -1.9238   -4.3112   -1.5265 H       1  UNL1        0.0830
     34 H           0.8375    1.9252    0.2826 H       1  UNL1        0.0624
     35 H           0.2108    4.1430    0.9848 H       1  UNL1        0.0618
@<TRIPOS>BOND
     1     1     2   ar
     2     1    21   ar
     3     2     3   ar
     4     3     4   ar
     5     4     5    1
     6     4    20   ar
     7     5     6    2
     8     5    14    1
     9     6     7    1
    10     7     8    1
    11     8     9   ar
    12     8    13   ar
    13     9    10   ar
    14    10    11   ar
    15    11    12   ar
    16    12    13   ar
    17    14    15   ar
    18    14    19   ar
    19    15    16   ar
    20    16    17   ar
    21    17    18   ar
    22    18    19   ar
    23    20    21   ar
    24     1    22    1
    25     2    23    1
    26     3    24    1
    27     7    25    1
    28     9    26    1
    29    10    27    1
    30    11    28    1
    31    12    29    1
    32    15    30    1
    33    16    31    1
    34    17    32    1
    35    18    33    1
    36    20    34    1
    37    21    35    1
@<TRIPOS>MOLECULE
../data/bude_mols_rdkit_confs/molecule_32.pdb
 35 37 0 0 0
SMALL
GASTEIGER

@<TRIPOS>ATOM
      1  C1        -1.9410    3.7200   -0.2270 C.ar    1  UNL1       -0.0617
      2  C2        -2.8070    2.7720    0.2600 C.ar    1  UNL1       -0.0611
      3  C3        -2.3730    1.4890    0.4940 C.ar    1  UNL1       -0.0524
      4  C4        -1.0590    1.0760    0.2560 C.ar    1  UNL1        0.0039
      5  C5        -0.7020   -0.3020    0.4240 C.2     1  UNL1        0.1142
      6  N1         0.5030   -0.6020    0.7380 N.2     1  UNL1       -0.1787
      7  N2         1.5770    0.2220    0.9560 N.pl3   1  UNL1       -0.2204
      8  C6         2.7850   -0.0910    0.2580 C.ar    1  UNL1        0.1380
      9  C7         3.8750    0.7200    0.4600 C.ar    1  UNL1       -0.0203
     10  C8         5.0430    0.4220   -0.2110 C.ar    1  UNL1       -0.0570
     11  C9         5.1240   -0.6600   -1.0650 C.ar    1  UNL1       -0.0435
     12  C10        4.0110   -1.4460   -1.2380 C.ar    1  UNL1        0.0297
     13  N3         2.8870   -1.1330   -0.5720 N.ar    1  UNL1       -0.2389
     14  C11       -1.6700   -1.4080    0.2350 C.ar    1  UNL1        0.0912
     15  C12       -2.8720   -1.2910   -0.3760 C.ar    1  UNL1       -0.0341
     16  C13       -3.7650   -2.3790   -0.4550 C.ar    1  UNL1       -0.0583
     17  C14       -3.4070   -3.5870    0.0970 C.ar    1  UNL1       -0.0436
     18  C15       -2.1830   -3.6870    0.7100 C.ar    1  UNL1        0.0283
     19  N4        -1.3610   -2.6280    0.7660 N.ar    1  UNL1       -0.2534
     20  C16       -0.2080    2.0650   -0.2390 C.ar    1  UNL1       -0.0524
     21  C17       -0.6380    3.3580   -0.4740 C.ar    1  UNL1       -0.0611
     22 H          -2.2619    4.6847   -0.4040 H       1  UNL1        0.0618
     23 H          -3.7892    3.0243    0.4514 H       1  UNL1        0.0618
     24 H          -3.0474    0.7998    0.8618 H       1  UNL1        0.0624
     25 H           1.5191    0.9934    1.5649 H       1  UNL1        0.1760
     26 H           3.8217    1.5305    1.0966 H       1  UNL1        0.0652
     27 H           5.8727    1.0197   -0.0719 H       1  UNL1        0.0619
     28 H           6.0024   -0.8736   -1.5628 H       1  UNL1        0.0633
     29 H           4.0377   -2.2626   -1.8685 H       1  UNL1        0.0830
     30 H          -3.1406   -0.3860   -0.7930 H       1  UNL1        0.0639
     31 H          -4.6786   -2.2702   -0.9225 H       1  UNL1        0.0619
     32 H          -4.0432   -4.3983    0.0514 H       1  UNL1        0.0633
     33 H          -1.8928   -4.5834    1.1310 H       1  UNL1        0.0830
     34 H           0.7757    1.8232   -0.4364 H       1  UNL1        0.0624
     35 H           0.0262    4.0586   -0.8386 H       1  UNL1        0.0618
@<TRIPOS>BOND
     1     1     2   ar
     2     1    21   ar
     3     2     3   ar
     4     3     4   ar
     5     4     5    1
     6     4    20   ar
     7     5     6    2
     8     5    14    1
     9     6     7    1
    10     7     8    1
    11     8     9   ar
    12     8    13   ar
    13     9    10   ar
    14    10    11   ar
    15    11    12   ar
    16    12    13   ar
    17    14    15   ar
    18    14    19   ar
    19    15    16   ar
    20    16    17   ar
    21    17    18   ar
    22    18    19   ar
    23    20    21   ar
    24     1    22    1
    25     2    23    1
    26     3    24    1
    27     7    25    1
    28     9    26    1
    29    10    27    1
    30    11    28    1
    31    12    29    1
    32    15    30    1
    33    16    31    1
    34    17    32    1
    35    18    33    1
    36    20    34    1
    37    21    35    1
@<TRIPOS>MOLECULE
../data/bude_mols_rdkit_confs/molecule_32.pdb
 35 37 0 0 0
SMALL
GASTEIGER

@<TRIPOS>ATOM
      1  C1        -1.4410   -3.9330   -0.8130 C.ar    1  UNL1       -0.0617
      2  C2        -0.1590   -3.4590   -0.7390 C.ar    1  UNL1       -0.0611
      3  C3         0.0740   -2.1310   -0.4190 C.ar    1  UNL1       -0.0524
      4  C4        -0.9500   -1.2580   -0.1690 C.ar    1  UNL1        0.0039
      5  C5        -0.7710    0.1030    0.2890 C.2     1  UNL1        0.1142
      6  N1         0.2320    0.4440    0.9570 N.2     1  UNL1       -0.1787
      7  N2         1.2680   -0.3470    1.3560 N.pl3   1  UNL1       -0.2204
      8  C6         2.6050    0.0760    1.1180 C.ar    1  UNL1        0.1380
      9  C7         2.8390    1.2750    0.4900 C.ar    1  UNL1       -0.0203
     10  C8         4.1190    1.7400    0.2310 C.ar    1  UNL1       -0.0570
     11  C9         5.1730    0.9590    0.6250 C.ar    1  UNL1       -0.0435
     12  C10        4.9420   -0.2290    1.2470 C.ar    1  UNL1        0.0297
     13  N3         3.6840   -0.6540    1.4850 N.ar    1  UNL1       -0.2389
     14  C11       -1.7470    1.1770   -0.0310 C.ar    1  UNL1        0.0912
     15  C12       -2.7270    1.0940   -0.9530 C.ar    1  UNL1       -0.0341
     16  C13       -3.6470    2.1320   -1.1460 C.ar    1  UNL1       -0.0583
     17  C14       -3.5630    3.2720   -0.3880 C.ar    1  UNL1       -0.0436
     18  C15       -2.5430    3.3330    0.5550 C.ar    1  UNL1        0.0283
     19  N4        -1.6870    2.3110    0.7020 N.ar    1  UNL1       -0.2534
     20  C16       -2.2480   -1.7390   -0.2420 C.ar    1  UNL1       -0.0524
     21  C17       -2.4590   -3.0610   -0.5630 C.ar    1  UNL1       -0.0611
     22 H          -1.6310   -4.9192   -1.0505 H       1  UNL1        0.0618
     23 H           0.6355   -4.0918   -0.9219 H       1  UNL1        0.0618
     24 H           1.0469   -1.7907   -0.3678 H       1  UNL1        0.0624
     25 H           1.0921   -1.2049    1.8057 H       1  UNL1        0.1760
     26 H           2.0327    1.8505    0.2005 H       1  UNL1        0.0652
     27 H           4.2726    2.6440   -0.2426 H       1  UNL1        0.0619
     28 H           6.1410    1.2711    0.4504 H       1  UNL1        0.0633
     29 H           5.7404   -0.8131    1.5408 H       1  UNL1        0.0830
     30 H          -2.8012    0.2429   -1.5320 H       1  UNL1        0.0639
     31 H          -4.3879    2.0392   -1.8583 H       1  UNL1        0.0619
     32 H          -4.2283    4.0511   -0.5122 H       1  UNL1        0.0633
     33 H          -2.4437    4.1723    1.1472 H       1  UNL1        0.0830
     34 H          -3.0474   -1.1129   -0.0577 H       1  UNL1        0.0624
     35 H          -3.4298   -3.4070   -0.6167 H       1  UNL1        0.0618
@<TRIPOS>BOND
     1     1     2   ar
     2     1    21   ar
     3     2     3   ar
     4     3     4   ar
     5     4     5    1
     6     4    20   ar
     7     5     6    2
     8     5    14    1
     9     6     7    1
    10     7     8    1
    11     8     9   ar
    12     8    13   ar
    13     9    10   ar
    14    10    11   ar
    15    11    12   ar
    16    12    13   ar
    17    14    15   ar
    18    14    19   ar
    19    15    16   ar
    20    16    17   ar
    21    17    18   ar
    22    18    19   ar
    23    20    21   ar
    24     1    22    1
    25     2    23    1
    26     3    24    1
    27     7    25    1
    28     9    26    1
    29    10    27    1
    30    11    28    1
    31    12    29    1
    32    15    30    1
    33    16    31    1
    34    17    32    1
    35    18    33    1
    36    20    34    1
    37    21    35    1
@<TRIPOS>MOLECULE
../data/bude_mols_rdkit_confs/molecule_32.pdb
 35 37 0 0 0
SMALL
GASTEIGER

@<TRIPOS>ATOM
      1  C1        -2.1200   -3.8790   -0.0130 C.ar    1  UNL1       -0.0617
      2  C2        -0.7860   -3.5560    0.0430 C.ar    1  UNL1       -0.0611
      3  C3        -0.3460   -2.2320    0.1730 C.ar    1  UNL1       -0.0524
      4  C4        -1.2430   -1.2120    0.2510 C.ar    1  UNL1        0.0039
      5  C5        -0.8190    0.1610    0.4740 C.2     1  UNL1        0.1142
      6  N1         0.3240    0.4470    0.9410 N.2     1  UNL1       -0.1787
      7  N2         1.3760   -0.3070    1.3370 N.pl3   1  UNL1       -0.2204
      8  C6         2.6770   -0.1550    0.7280 C.ar    1  UNL1        0.1380
      9  C7         2.8800    0.7690   -0.2780 C.ar    1  UNL1       -0.0203
     10  C8         4.1140    0.9440   -0.8860 C.ar    1  UNL1       -0.0570
     11  C9         5.1530    0.1640   -0.4620 C.ar    1  UNL1       -0.0435
     12  C10        4.9520   -0.7610    0.5450 C.ar    1  UNL1        0.0297
     13  N3         3.7310   -0.8940    1.1070 N.ar    1  UNL1       -0.2389
     14  C11       -1.6730    1.3380    0.1350 C.ar    1  UNL1        0.0912
     15  C12       -1.2400    2.6220    0.4090 C.ar    1  UNL1       -0.0341
     16  C13       -1.9470    3.7370    0.1020 C.ar    1  UNL1       -0.0583
     17  C14       -3.1670    3.6020   -0.5160 C.ar    1  UNL1       -0.0436
     18  C15       -3.5740    2.2930   -0.7780 C.ar    1  UNL1        0.0283
     19  N4        -2.8520    1.2220   -0.4620 N.ar    1  UNL1       -0.2534
     20  C16       -2.5960   -1.5010    0.1980 C.ar    1  UNL1       -0.0524
     21  C17       -2.9940   -2.8240    0.0680 C.ar    1  UNL1       -0.0611
     22 H          -2.4446   -4.8538   -0.1099 H       1  UNL1        0.0618
     23 H          -0.0859   -4.3122   -0.0124 H       1  UNL1        0.0618
     24 H           0.6652   -2.0292    0.2098 H       1  UNL1        0.0624
     25 H           1.2522   -0.9711    2.0531 H       1  UNL1        0.1760
     26 H           2.0853    1.3498   -0.5883 H       1  UNL1        0.0652
     27 H           4.2437    1.6416   -1.6354 H       1  UNL1        0.0619
     28 H           6.0853    0.2654   -0.8927 H       1  UNL1        0.0633
     29 H           5.7352   -1.3504    0.8677 H       1  UNL1        0.0830
     30 H          -0.3260    2.7383    0.8740 H       1  UNL1        0.0639
     31 H          -1.5750    4.6725    0.3288 H       1  UNL1        0.0619
     32 H          -3.7460    4.4175   -0.7704 H       1  UNL1        0.0633
     33 H          -4.4844    2.1485   -1.2420 H       1  UNL1        0.0830
     34 H          -3.2966   -0.7453    0.2542 H       1  UNL1        0.0624
     35 H          -4.0053   -3.0262    0.0301 H       1  UNL1        0.0618
@<TRIPOS>BOND
     1     1     2   ar
     2     1    21   ar
     3     2     3   ar
     4     3     4   ar
     5     4     5    1
     6     4    20   ar
     7     5     6    2
     8     5    14    1
     9     6     7    1
    10     7     8    1
    11     8     9   ar
    12     8    13   ar
    13     9    10   ar
    14    10    11   ar
    15    11    12   ar
    16    12    13   ar
    17    14    15   ar
    18    14    19   ar
    19    15    16   ar
    20    16    17   ar
    21    17    18   ar
    22    18    19   ar
    23    20    21   ar
    24     1    22    1
    25     2    23    1
    26     3    24    1
    27     7    25    1
    28     9    26    1
    29    10    27    1
    30    11    28    1
    31    12    29    1
    32    15    30    1
    33    16    31    1
    34    17    32    1
    35    18    33    1
    36    20    34    1
    37    21    35    1
@<TRIPOS>MOLECULE
../data/bude_mols_rdkit_confs/molecule_32.pdb
 35 37 0 0 0
SMALL
GASTEIGER

@<TRIPOS>ATOM
      1  C1        -0.1370    3.5750    1.0980 C.ar    1  UNL1       -0.0617
      2  C2         0.2210    2.6020    1.9970 C.ar    1  UNL1       -0.0611
      3  C3        -0.0850    1.2890    1.7200 C.ar    1  UNL1       -0.0524
      4  C4        -0.7380    0.8910    0.5760 C.ar    1  UNL1        0.0039
      5  C5        -0.9440   -0.5000    0.2660 C.2     1  UNL1        0.1142
      6  N1        -0.1730   -1.3950    0.6580 N.2     1  UNL1       -0.1787
      7  N2         0.9640   -1.4090    1.4000 N.pl3   1  UNL1       -0.2204
      8  C6         2.2620   -1.2520    0.7960 C.ar    1  UNL1        0.1380
      9  C7         3.0070   -0.1070    0.8180 C.ar    1  UNL1       -0.0203
     10  C8         4.2610   -0.0240    0.1950 C.ar    1  UNL1       -0.0570
     11  C9         4.7800   -1.1090   -0.4640 C.ar    1  UNL1       -0.0435
     12  C10        4.0090   -2.2560   -0.4740 C.ar    1  UNL1        0.0297
     13  N3         2.8090   -2.3140    0.1300 N.ar    1  UNL1       -0.2389
     14  C11       -2.1200   -0.8930   -0.5240 C.ar    1  UNL1        0.0912
     15  C12       -3.2010   -0.0950   -0.7490 C.ar    1  UNL1       -0.0341
     16  C13       -4.2190   -0.5440   -1.5600 C.ar    1  UNL1       -0.0583
     17  C14       -4.1830   -1.7850   -2.1560 C.ar    1  UNL1       -0.0436
     18  C15       -3.0770   -2.5530   -1.8980 C.ar    1  UNL1        0.0283
     19  N4        -2.1030   -2.1070   -1.1150 N.ar    1  UNL1       -0.2534
     20  C16       -1.0840    1.8980   -0.3110 C.ar    1  UNL1       -0.0524
     21  C17       -0.7830    3.2020   -0.0380 C.ar    1  UNL1       -0.0611
     22 H           0.0794    4.5674    1.2804 H       1  UNL1        0.0618
     23 H           0.7131    2.8514    2.8691 H       1  UNL1        0.0618
     24 H           0.1890    0.5669    2.4045 H       1  UNL1        0.0624
     25 H           0.8996   -1.5294    2.3750 H       1  UNL1        0.1760
     26 H           2.6359    0.7220    1.3079 H       1  UNL1        0.0652
     27 H           4.7957    0.8579    0.2327 H       1  UNL1        0.0619
     28 H           5.7004   -1.0709   -0.9292 H       1  UNL1        0.0633
     29 H           4.3652   -3.0938   -0.9600 H       1  UNL1        0.0830
     30 H          -3.2564    0.8395   -0.3146 H       1  UNL1        0.0639
     31 H          -5.0334    0.0677   -1.7262 H       1  UNL1        0.0619
     32 H          -4.9472   -2.1188   -2.7639 H       1  UNL1        0.0633
     33 H          -3.0009   -3.4921   -2.3191 H       1  UNL1        0.0830
     34 H          -1.5744    1.6600   -1.1873 H       1  UNL1        0.0624
     35 H          -1.0555    3.9291   -0.7178 H       1  UNL1        0.0618
@<TRIPOS>BOND
     1     1     2   ar
     2     1    21   ar
     3     2     3   ar
     4     3     4   ar
     5     4     5    1
     6     4    20   ar
     7     5     6    2
     8     5    14    1
     9     6     7    1
    10     7     8    1
    11     8     9   ar
    12     8    13   ar
    13     9    10   ar
    14    10    11   ar
    15    11    12   ar
    16    12    13   ar
    17    14    15   ar
    18    14    19   ar
    19    15    16   ar
    20    16    17   ar
    21    17    18   ar
    22    18    19   ar
    23    20    21   ar
    24     1    22    1
    25     2    23    1
    26     3    24    1
    27     7    25    1
    28     9    26    1
    29    10    27    1
    30    11    28    1
    31    12    29    1
    32    15    30    1
    33    16    31    1
    34    17    32    1
    35    18    33    1
    36    20    34    1
    37    21    35    1
@<TRIPOS>MOLECULE
../data/bude_mols_rdkit_confs/molecule_32.pdb
 35 37 0 0 0
SMALL
GASTEIGER

@<TRIPOS>ATOM
      1  C1        -1.9000   -3.9700   -0.1790 C.ar    1  UNL1       -0.0617
      2  C2        -2.8400   -2.9640   -0.2210 C.ar    1  UNL1       -0.0611
      3  C3        -2.4650   -1.6570   -0.0260 C.ar    1  UNL1       -0.0524
      4  C4        -1.1380   -1.2940    0.2170 C.ar    1  UNL1        0.0039
      5  C5        -0.8460    0.1250    0.3540 C.2     1  UNL1        0.1142
      6  N1         0.2350    0.4740    0.8670 N.2     1  UNL1       -0.1787
      7  N2         1.3110   -0.1470    1.3810 N.pl3   1  UNL1       -0.2204
      8  C6         2.5900    0.1890    0.8620 C.ar    1  UNL1        0.1380
      9  C7         3.0810   -0.3920   -0.2620 C.ar    1  UNL1       -0.0203
     10  C8         4.3480   -0.0600   -0.7700 C.ar    1  UNL1       -0.0570
     11  C9         5.0640    0.8830   -0.0710 C.ar    1  UNL1       -0.0435
     12  C10        4.5580    1.4640    1.0640 C.ar    1  UNL1        0.0297
     13  N3         3.3270    1.0990    1.5020 N.ar    1  UNL1       -0.2389
     14  C11       -1.7420    1.1900   -0.0980 C.ar    1  UNL1        0.0912
     15  C12       -1.3810    2.5290    0.1520 C.ar    1  UNL1       -0.0341
     16  C13       -2.1470    3.5800   -0.2640 C.ar    1  UNL1       -0.0583
     17  C14       -3.3190    3.3140   -0.9560 C.ar    1  UNL1       -0.0436
     18  C15       -3.6830    2.0030   -1.2070 C.ar    1  UNL1        0.0283
     19  N4        -2.8720    1.0420   -0.7620 N.ar    1  UNL1       -0.2534
     20  C16       -0.2200   -2.3030    0.2530 C.ar    1  UNL1       -0.0524
     21  C17       -0.5870   -3.6160    0.0610 C.ar    1  UNL1       -0.0611
     22 H          -2.1683   -4.9562   -0.3222 H       1  UNL1        0.0618
     23 H          -3.8302   -3.1932   -0.3997 H       1  UNL1        0.0618
     24 H          -3.1864   -0.9198   -0.0601 H       1  UNL1        0.0624
     25 H           1.2152   -0.8159    2.0970 H       1  UNL1        0.1760
     26 H           2.5094   -1.0952   -0.7558 H       1  UNL1        0.0652
     27 H           4.7223   -0.5015   -1.6244 H       1  UNL1        0.0619
     28 H           6.0000    1.1590   -0.4067 H       1  UNL1        0.0633
     29 H           5.1072    2.1702    1.5785 H       1  UNL1        0.0830
     30 H          -0.5078    2.7219    0.6671 H       1  UNL1        0.0639
     31 H          -1.8599    4.5516   -0.0676 H       1  UNL1        0.0619
     32 H          -3.9164    4.0898   -1.2820 H       1  UNL1        0.0633
     33 H          -4.5498    1.7770   -1.7195 H       1  UNL1        0.0830
     34 H           0.7716   -2.0768    0.4281 H       1  UNL1        0.0624
     35 H           0.1354   -4.3521    0.0973 H       1  UNL1        0.0618
@<TRIPOS>BOND
     1     1     2   ar
     2     1    21   ar
     3     2     3   ar
     4     3     4   ar
     5     4     5    1
     6     4    20   ar
     7     5     6    2
     8     5    14    1
     9     6     7    1
    10     7     8    1
    11     8     9   ar
    12     8    13   ar
    13     9    10   ar
    14    10    11   ar
    15    11    12   ar
    16    12    13   ar
    17    14    15   ar
    18    14    19   ar
    19    15    16   ar
    20    16    17   ar
    21    17    18   ar
    22    18    19   ar
    23    20    21   ar
    24     1    22    1
    25     2    23    1
    26     3    24    1
    27     7    25    1
    28     9    26    1
    29    10    27    1
    30    11    28    1
    31    12    29    1
    32    15    30    1
    33    16    31    1
    34    17    32    1
    35    18    33    1
    36    20    34    1
    37    21    35    1
@<TRIPOS>MOLECULE
../data/bude_mols_rdkit_confs/molecule_32.pdb
 35 37 0 0 0
SMALL
GASTEIGER

@<TRIPOS>ATOM
      1  C1        -2.2110    3.8360    0.1770 C.ar    1  UNL1       -0.0617
      2  C2        -3.0790    2.7740    0.0730 C.ar    1  UNL1       -0.0611
      3  C3        -2.6270    1.4910   -0.1450 C.ar    1  UNL1       -0.0524
      4  C4        -1.2700    1.2610   -0.2630 C.ar    1  UNL1        0.0039
      5  C5        -0.8310   -0.1100   -0.4010 C.2     1  UNL1        0.1142
      6  N1         0.2990   -0.3870   -0.8560 N.2     1  UNL1       -0.1787
      7  N2         1.3500    0.3240   -1.3130 N.pl3   1  UNL1       -0.2204
      8  C6         2.6360    0.1420   -0.6720 C.ar    1  UNL1        0.1380
      9  C7         3.2970   -1.0710   -0.7380 C.ar    1  UNL1       -0.0203
     10  C8         4.5180   -1.2790   -0.1540 C.ar    1  UNL1       -0.0570
     11  C9         5.1190   -0.2420    0.5290 C.ar    1  UNL1       -0.0435
     12  C10        4.4490    0.9700    0.5910 C.ar    1  UNL1        0.0297
     13  N3         3.2530    1.1170   -0.0000 N.ar    1  UNL1       -0.2389
     14  C11       -1.6670   -1.2550    0.0200 C.ar    1  UNL1        0.0912
     15  C12       -1.1970   -2.5580   -0.1960 C.ar    1  UNL1       -0.0341
     16  C13       -1.8890   -3.6770    0.1960 C.ar    1  UNL1       -0.0583
     17  C14       -3.0950   -3.4840    0.8270 C.ar    1  UNL1       -0.0436
     18  C15       -3.5570   -2.2010    1.0410 C.ar    1  UNL1        0.0283
     19  N4        -2.8320   -1.1640    0.6330 N.ar    1  UNL1       -0.2534
     20  C16       -0.3710    2.2940   -0.1650 C.ar    1  UNL1       -0.0524
     21  C17       -0.8640    3.5880    0.0570 C.ar    1  UNL1       -0.0611
     22 H          -2.5613    4.7928    0.3406 H       1  UNL1        0.0618
     23 H          -4.0934    2.9424    0.1604 H       1  UNL1        0.0618
     24 H          -3.2961    0.7088   -0.2195 H       1  UNL1        0.0624
     25 H           1.2456    0.9516   -2.0643 H       1  UNL1        0.1760
     26 H           2.8523   -1.8504   -1.2477 H       1  UNL1        0.0652
     27 H           4.9819   -2.1982   -0.2238 H       1  UNL1        0.0619
     28 H           6.0391   -0.3647    0.9799 H       1  UNL1        0.0633
     29 H           4.8727    1.7646    1.0950 H       1  UNL1        0.0830
     30 H          -0.2894   -2.6816   -0.6714 H       1  UNL1        0.0639
     31 H          -1.5188   -4.6248    0.0239 H       1  UNL1        0.0619
     32 H          -3.6523   -4.2945    1.1392 H       1  UNL1        0.0633
     33 H          -4.4606   -2.0475    1.5153 H       1  UNL1        0.0830
     34 H           0.6429    2.1224   -0.2526 H       1  UNL1        0.0624
     35 H          -0.1991    4.3737    0.1322 H       1  UNL1        0.0618
@<TRIPOS>BOND
     1     1     2   ar
     2     1    21   ar
     3     2     3   ar
     4     3     4   ar
     5     4     5    1
     6     4    20   ar
     7     5     6    2
     8     5    14    1
     9     6     7    1
    10     7     8    1
    11     8     9   ar
    12     8    13   ar
    13     9    10   ar
    14    10    11   ar
    15    11    12   ar
    16    12    13   ar
    17    14    15   ar
    18    14    19   ar
    19    15    16   ar
    20    16    17   ar
    21    17    18   ar
    22    18    19   ar
    23    20    21   ar
    24     1    22    1
    25     2    23    1
    26     3    24    1
    27     7    25    1
    28     9    26    1
    29    10    27    1
    30    11    28    1
    31    12    29    1
    32    15    30    1
    33    16    31    1
    34    17    32    1
    35    18    33    1
    36    20    34    1
    37    21    35    1
@<TRIPOS>MOLECULE
../data/bude_mols_rdkit_confs/molecule_32.pdb
 35 37 0 0 0
SMALL
GASTEIGER

@<TRIPOS>ATOM
      1  C1        -1.0110    2.9930    1.6610 C.ar    1  UNL1       -0.0617
      2  C2        -0.2190    3.1140    0.5590 C.ar    1  UNL1       -0.0611
      3  C3        -0.0710    2.0700   -0.3520 C.ar    1  UNL1       -0.0524
      4  C4        -0.7130    0.8700   -0.1860 C.ar    1  UNL1        0.0039
      5  C5        -0.5460   -0.3170   -0.9910 C.2     1  UNL1        0.1142
      6  N1         0.5350   -0.5120   -1.6200 N.2     1  UNL1       -0.1787
      7  N2         1.6450    0.2680   -1.6620 N.pl3   1  UNL1       -0.2204
      8  C6         2.5170    0.3090   -0.5480 C.ar    1  UNL1        0.1380
      9  C7         2.2570   -0.4450    0.6060 C.ar    1  UNL1       -0.0203
     10  C8         3.0900   -0.4230    1.7040 C.ar    1  UNL1       -0.0570
     11  C9         4.2090    0.3740    1.6410 C.ar    1  UNL1       -0.0435
     12  C10        4.4400    1.1050    0.4940 C.ar    1  UNL1        0.0297
     13  N3         3.6120    1.0660   -0.5630 N.ar    1  UNL1       -0.2389
     14  C11       -1.5880   -1.3550   -1.1650 C.ar    1  UNL1        0.0912
     15  C12       -2.9040   -1.1650   -0.8280 C.ar    1  UNL1       -0.0341
     16  C13       -3.7530   -2.2570   -0.9770 C.ar    1  UNL1       -0.0583
     17  C14       -3.3110   -3.4660   -1.4380 C.ar    1  UNL1       -0.0436
     18  C15       -1.9880   -3.6260   -1.7690 C.ar    1  UNL1        0.0283
     19  N4        -1.1670   -2.5770   -1.6260 N.ar    1  UNL1       -0.2534
     20  C16       -1.5110    0.7880    0.9550 C.ar    1  UNL1       -0.0524
     21  C17       -1.6660    1.8110    1.8600 C.ar    1  UNL1       -0.0611
     22 H          -1.1133    3.7739    2.3279 H       1  UNL1        0.0618
     23 H           0.2835    4.0004    0.3950 H       1  UNL1        0.0618
     24 H           0.5384    2.2037   -1.1740 H       1  UNL1        0.0624
     25 H           1.8428    0.8032   -2.4643 H       1  UNL1        0.1760
     26 H           1.4122   -1.0371    0.6339 H       1  UNL1        0.0652
     27 H           2.8813   -0.9850    2.5440 H       1  UNL1        0.0619
     28 H           4.8638    0.4243    2.4370 H       1  UNL1        0.0633
     29 H           5.2794    1.7035    0.4463 H       1  UNL1        0.0830
     30 H          -3.2477   -0.2560   -0.4807 H       1  UNL1        0.0639
     31 H          -4.7497   -2.1510   -0.7314 H       1  UNL1        0.0619
     32 H          -3.9689   -4.2549   -1.5368 H       1  UNL1        0.0633
     33 H          -1.6353   -4.5306   -2.1188 H       1  UNL1        0.0830
     34 H          -2.0160   -0.0947    1.1305 H       1  UNL1        0.0624
     35 H          -2.2736    1.6867    2.6849 H       1  UNL1        0.0618
@<TRIPOS>BOND
     1     1     2   ar
     2     1    21   ar
     3     2     3   ar
     4     3     4   ar
     5     4     5    1
     6     4    20   ar
     7     5     6    2
     8     5    14    1
     9     6     7    1
    10     7     8    1
    11     8     9   ar
    12     8    13   ar
    13     9    10   ar
    14    10    11   ar
    15    11    12   ar
    16    12    13   ar
    17    14    15   ar
    18    14    19   ar
    19    15    16   ar
    20    16    17   ar
    21    17    18   ar
    22    18    19   ar
    23    20    21   ar
    24     1    22    1
    25     2    23    1
    26     3    24    1
    27     7    25    1
    28     9    26    1
    29    10    27    1
    30    11    28    1
    31    12    29    1
    32    15    30    1
    33    16    31    1
    34    17    32    1
    35    18    33    1
    36    20    34    1
    37    21    35    1
@<TRIPOS>MOLECULE
../data/bude_mols_rdkit_confs/molecule_32.pdb
 35 37 0 0 0
SMALL
GASTEIGER

@<TRIPOS>ATOM
      1  C1        -1.6810   -3.0290    1.1710 C.ar    1  UNL1       -0.0617
      2  C2        -1.8360   -1.8660    1.8720 C.ar    1  UNL1       -0.0611
      3  C3        -1.4450   -0.6870    1.3040 C.ar    1  UNL1       -0.0524
      4  C4        -0.8880   -0.5650    0.0300 C.ar    1  UNL1        0.0039
      5  C5        -0.5910    0.7030   -0.5650 C.2     1  UNL1        0.1142
      6  N1         0.3310    0.7810   -1.4390 N.2     1  UNL1       -0.1787
      7  N2         1.1580   -0.1510   -1.9680 N.pl3   1  UNL1       -0.2204
      8  C6         2.2230   -0.6980   -1.1930 C.ar    1  UNL1        0.1380
      9  C7         2.4590   -0.3140    0.1080 C.ar    1  UNL1       -0.0203
     10  C8         3.4650   -0.8080    0.8920 C.ar    1  UNL1       -0.0570
     11  C9         4.2980   -1.7570    0.3370 C.ar    1  UNL1       -0.0435
     12  C10        4.0630   -2.1400   -0.9590 C.ar    1  UNL1        0.0297
     13  N3         3.0620   -1.6350   -1.7090 N.ar    1  UNL1       -0.2389
     14  C11       -1.2840    1.9550   -0.2590 C.ar    1  UNL1        0.0912
     15  C12       -2.4570    1.9920    0.4090 C.ar    1  UNL1       -0.0341
     16  C13       -3.0600    3.2000    0.7390 C.ar    1  UNL1       -0.0583
     17  C14       -2.4520    4.3670    0.3760 C.ar    1  UNL1       -0.0436
     18  C15       -1.2620    4.3350   -0.3040 C.ar    1  UNL1        0.0283
     19  N4        -0.7290    3.1460   -0.5930 N.ar    1  UNL1       -0.2534
     20  C16       -0.7520   -1.7750   -0.6420 C.ar    1  UNL1       -0.0524
     21  C17       -1.1410   -2.9890   -0.0840 C.ar    1  UNL1       -0.0611
     22 H          -1.9691   -3.9291    1.5855 H       1  UNL1        0.0618
     23 H          -2.2439   -1.8785    2.8199 H       1  UNL1        0.0618
     24 H          -1.5704    0.1756    1.8565 H       1  UNL1        0.0624
     25 H           1.0232   -0.4536   -2.8951 H       1  UNL1        0.1760
     26 H           1.8334    0.3958    0.5202 H       1  UNL1        0.0652
     27 H           3.5959   -0.4828    1.8626 H       1  UNL1        0.0619
     28 H           5.0742   -2.1663    0.8801 H       1  UNL1        0.0633
     29 H           4.6825   -2.8494   -1.3810 H       1  UNL1        0.0830
     30 H          -2.9141    1.1071    0.6794 H       1  UNL1        0.0639
     31 H          -3.9555    3.2145    1.2517 H       1  UNL1        0.0619
     32 H          -2.8875    5.2721    0.6131 H       1  UNL1        0.0633
     33 H          -0.7901    5.2086   -0.5854 H       1  UNL1        0.0830
     34 H          -0.3469   -1.7725   -1.5912 H       1  UNL1        0.0624
     35 H          -1.0213   -3.8627   -0.6200 H       1  UNL1        0.0618
@<TRIPOS>BOND
     1     1     2   ar
     2     1    21   ar
     3     2     3   ar
     4     3     4   ar
     5     4     5    1
     6     4    20   ar
     7     5     6    2
     8     5    14    1
     9     6     7    1
    10     7     8    1
    11     8     9   ar
    12     8    13   ar
    13     9    10   ar
    14    10    11   ar
    15    11    12   ar
    16    12    13   ar
    17    14    15   ar
    18    14    19   ar
    19    15    16   ar
    20    16    17   ar
    21    17    18   ar
    22    18    19   ar
    23    20    21   ar
    24     1    22    1
    25     2    23    1
    26     3    24    1
    27     7    25    1
    28     9    26    1
    29    10    27    1
    30    11    28    1
    31    12    29    1
    32    15    30    1
    33    16    31    1
    34    17    32    1
    35    18    33    1
    36    20    34    1
    37    21    35    1
@<TRIPOS>MOLECULE
../data/bude_mols_rdkit_confs/molecule_32.pdb
 35 37 0 0 0
SMALL
GASTEIGER

@<TRIPOS>ATOM
      1  C1        -0.3320   -2.3160    2.4290 C.ar    1  UNL1       -0.0617
      2  C2         0.0830   -2.7140    1.1850 C.ar    1  UNL1       -0.0611
      3  C3        -0.1180   -1.9000    0.0860 C.ar    1  UNL1       -0.0524
      4  C4        -0.7290   -0.6990    0.2350 C.ar    1  UNL1        0.0039
      5  C5        -0.8550    0.2540   -0.8430 C.2     1  UNL1        0.1142
      6  N1         0.0350    0.2790   -1.7680 N.2     1  UNL1       -0.1787
      7  N2         1.1560   -0.4960   -1.9060 N.pl3   1  UNL1       -0.2204
      8  C6         2.2940   -0.3580   -1.0220 C.ar    1  UNL1        0.1380
      9  C7         3.4000   -1.1540   -1.1910 C.ar    1  UNL1       -0.0203
     10  C8         4.4810   -1.0180   -0.3470 C.ar    1  UNL1       -0.0570
     11  C9         4.4610   -0.0910    0.6650 C.ar    1  UNL1       -0.0435
     12  C10        3.3300    0.6870    0.8000 C.ar    1  UNL1        0.0297
     13  N3         2.2870    0.5400   -0.0330 N.ar    1  UNL1       -0.2389
     14  C11       -1.9870    1.2020   -0.9390 C.ar    1  UNL1        0.0912
     15  C12       -3.1040    1.0380   -0.1950 C.ar    1  UNL1       -0.0341
     16  C13       -4.1420    1.9990   -0.2680 C.ar    1  UNL1       -0.0583
     17  C14       -4.0140    3.0930   -1.0960 C.ar    1  UNL1       -0.0436
     18  C15       -2.8560    3.2060   -1.8310 C.ar    1  UNL1        0.0283
     19  N4        -1.8720    2.2890   -1.7560 N.ar    1  UNL1       -0.2534
     20  C16       -1.1550   -0.2860    1.5030 C.ar    1  UNL1       -0.0524
     21  C17       -0.9460   -1.1060    2.5650 C.ar    1  UNL1       -0.0611
     22 H          -0.1821   -2.9227    3.2503 H       1  UNL1        0.0618
     23 H           0.5487   -3.6275    1.0679 H       1  UNL1        0.0618
     24 H           0.1970   -2.2065   -0.8477 H       1  UNL1        0.0624
     25 H           1.1887   -1.1658   -2.6268 H       1  UNL1        0.1760
     26 H           3.4218   -1.8535   -1.9494 H       1  UNL1        0.0652
     27 H           5.3111   -1.6172   -0.4768 H       1  UNL1        0.0619
     28 H           5.2645    0.0201    1.3030 H       1  UNL1        0.0633
     29 H           3.2847    1.3923    1.5521 H       1  UNL1        0.0830
     30 H          -3.1998    0.2169    0.4228 H       1  UNL1        0.0639
     31 H          -4.9955    1.8797    0.2998 H       1  UNL1        0.0619
     32 H          -4.7603    3.8027   -1.1626 H       1  UNL1        0.0633
     33 H          -2.7380    4.0171   -2.4581 H       1  UNL1        0.0830
     34 H          -1.6202    0.6266    1.6285 H       1  UNL1        0.0624
     35 H          -1.2605   -0.8052    3.5008 H       1  UNL1        0.0618
@<TRIPOS>BOND
     1     1     2   ar
     2     1    21   ar
     3     2     3   ar
     4     3     4   ar
     5     4     5    1
     6     4    20   ar
     7     5     6    2
     8     5    14    1
     9     6     7    1
    10     7     8    1
    11     8     9   ar
    12     8    13   ar
    13     9    10   ar
    14    10    11   ar
    15    11    12   ar
    16    12    13   ar
    17    14    15   ar
    18    14    19   ar
    19    15    16   ar
    20    16    17   ar
    21    17    18   ar
    22    18    19   ar
    23    20    21   ar
    24     1    22    1
    25     2    23    1
    26     3    24    1
    27     7    25    1
    28     9    26    1
    29    10    27    1
    30    11    28    1
    31    12    29    1
    32    15    30    1
    33    16    31    1
    34    17    32    1
    35    18    33    1
    36    20    34    1
    37    21    35    1
