@<TRIPOS>MOLECULE
../data/bude_mols_rdkit_confs/molecule_3.pdb
 48 50 0 0 0
SMALL
GASTEIGER

@<TRIPOS>ATOM
      1  C1        -6.8130    2.1770    0.2430 C.3     1  UNL1       -0.0207
      2  C2        -6.1430    0.8830    0.0170 C.ar    1  UNL1        0.0588
      3  C3        -5.1140    0.4700    0.8260 C.ar    1  UNL1       -0.0303
      4  C4        -4.5310   -0.7630    0.5280 C.ar    1  UNL1        0.0243
      5  C5        -3.3930   -1.1590    1.3990 C.3     1  UNL1        0.0028
      6  C6        -2.0850   -0.8130    0.7700 C.ar    1  UNL1       -0.0428
      7  C7        -1.5450    0.4520    1.0480 C.ar    1  UNL1       -0.0564
      8  C8        -0.3500    0.8810    0.5130 C.ar    1  UNL1       -0.0351
      9  C9         0.3440    0.0440   -0.3260 C.ar    1  UNL1        0.1055
     10  S1         1.8560    0.5420   -1.0180 S.O2    1  UNL1        0.0611
     11  O1         1.8900    0.0790   -2.4640 O.2     1  UNL1       -0.1528
     12  O2         1.8680    2.0510   -1.0380 O.2     1  UNL1       -0.1528
     13  N1         3.2310   -0.0750   -0.2550 N.3     1  UNL1       -0.1738
     14  C10        3.4550    0.2490    1.0900 C.3     1  UNL1        0.0208
     15  C11        4.8560    0.7140    1.4080 C.3     1  UNL1       -0.0385
     16  C12        5.4630    1.4370    0.2280 C.3     1  UNL1       -0.0504
     17  C13        5.4960    0.5550   -0.9930 C.3     1  UNL1       -0.0359
     18  C14        4.3230   -0.3690   -1.1020 C.3     1  UNL1        0.0291
     19  C15        4.7570   -1.8320   -1.0300 C.3     1  UNL1       -0.0478
     20  C16       -0.1730   -1.2140   -0.6150 C.ar    1  UNL1       -0.0351
     21  C17       -1.3890   -1.6400   -0.0640 C.ar    1  UNL1       -0.0564
     22  C18       -4.9570   -1.5360   -0.5180 C.ar    1  UNL1        0.2682
     23  O3        -4.4160   -2.6380   -0.7590 O.2     1  UNL1       -0.2661
     24  N2        -5.9800   -1.0660   -1.2740 N.ar    1  UNL1       -0.2428
     25  N3        -6.5380    0.0910   -1.0090 N.ar    1  UNL1       -0.1762
     26 H          -6.3741    2.6629    1.0892 H       1  UNL1        0.0293
     27 H          -7.8542    2.0123    0.4267 H       1  UNL1        0.0293
     28 H          -6.6969    2.7948   -0.6229 H       1  UNL1        0.0293
     29 H          -4.7863    1.0445    1.6182 H       1  UNL1        0.0640
     30 H          -3.4318   -2.2154    1.5648 H       1  UNL1        0.0363
     31 H          -3.4744   -0.6281    2.3244 H       1  UNL1        0.0363
     32 H          -2.0628    1.0852    1.6773 H       1  UNL1        0.0621
     33 H           0.0184    1.8180    0.7395 H       1  UNL1        0.0637
     34 H           3.2517   -0.6205    1.6795 H       1  UNL1        0.0444
     35 H           2.8084    1.0722    1.3117 H       1  UNL1        0.0444
     36 H           5.4612   -0.1351    1.6482 H       1  UNL1        0.0278
     37 H           4.8132    1.3881    2.2379 H       1  UNL1        0.0278
     38 H           6.4623    1.7296    0.4743 H       1  UNL1        0.0266
     39 H           4.8616    2.2948    0.0102 H       1  UNL1        0.0266
     40 H           6.3882   -0.0347   -0.9593 H       1  UNL1        0.0281
     41 H           5.4645    1.2010   -1.8454 H       1  UNL1        0.0281
     42 H           3.9232   -0.1894   -2.0781 H       1  UNL1        0.0477
     43 H           5.1614   -2.0368   -0.0608 H       1  UNL1        0.0245
     44 H           5.5023   -2.0200   -1.7744 H       1  UNL1        0.0245
     45 H           3.9113   -2.4639   -1.2044 H       1  UNL1        0.0245
     46 H           0.3472   -1.8441   -1.2454 H       1  UNL1        0.0637
     47 H          -1.7578   -2.5774   -0.2883 H       1  UNL1        0.0621
     48 H          -6.3085   -1.6008   -2.0325 H       1  UNL1        0.1921
@<TRIPOS>BOND
     1     1     2    1
     2     2     3   ar
     3     2    25   ar
     4     3     4   ar
     5     4     5    1
     6     4    22   ar
     7     5     6    1
     8     6     7   ar
     9     6    21   ar
    10     7     8   ar
    11     8     9   ar
    12     9    10    1
    13     9    20   ar
    14    10    11    2
    15    10    12    2
    16    10    13    1
    17    13    14    1
    18    13    18    1
    19    14    15    1
    20    15    16    1
    21    16    17    1
    22    17    18    1
    23    18    19    1
    24    20    21   ar
    25    22    23    2
    26    22    24   ar
    27    24    25   ar
    28     1    26    1
    29     1    27    1
    30     1    28    1
    31     3    29    1
    32     5    30    1
    33     5    31    1
    34     7    32    1
    35     8    33    1
    36    14    34    1
    37    14    35    1
    38    15    36    1
    39    15    37    1
    40    16    38    1
    41    16    39    1
    42    17    40    1
    43    17    41    1
    44    18    42    1
    45    19    43    1
    46    19    44    1
    47    19    45    1
    48    20    46    1
    49    21    47    1
    50    24    48    1
@<TRIPOS>MOLECULE
../data/bude_mols_rdkit_confs/molecule_3.pdb
 48 50 0 0 0
SMALL
GASTEIGER

@<TRIPOS>ATOM
      1  C1        -7.2790    1.7190   -0.6660 C.3     1  UNL1       -0.0207
      2  C2        -6.3530    0.7980    0.0340 C.ar    1  UNL1        0.0588
      3  C3        -5.3050    0.1300   -0.6120 C.ar    1  UNL1       -0.0303
      4  C4        -4.4730   -0.7160    0.0920 C.ar    1  UNL1        0.0243
      5  C5        -3.3800   -1.4150   -0.5630 C.3     1  UNL1        0.0028
      6  C6        -2.0280   -0.8470   -0.3260 C.ar    1  UNL1       -0.0428
      7  C7        -1.5770    0.1720   -1.1620 C.ar    1  UNL1       -0.0564
      8  C8        -0.3350    0.7590   -1.0270 C.ar    1  UNL1       -0.0351
      9  C9         0.5270    0.3460   -0.0310 C.ar    1  UNL1        0.1055
     10  S1         2.1160    1.0500    0.1830 S.O2    1  UNL1        0.0611
     11  O1         2.3850    1.1910    1.6400 O.2     1  UNL1       -0.1528
     12  O2         2.0330    2.4550   -0.3980 O.2     1  UNL1       -0.1528
     13  N1         3.3200    0.2150   -0.6860 N.3     1  UNL1       -0.1738
     14  C10        3.4750   -1.1560   -0.2800 C.3     1  UNL1        0.0208
     15  C11        4.0040   -1.2870    1.1300 C.3     1  UNL1       -0.0385
     16  C12        5.1410   -0.3700    1.4350 C.3     1  UNL1       -0.0504
     17  C13        5.1130    0.9440    0.7320 C.3     1  UNL1       -0.0359
     18  C14        4.5650    0.9130   -0.6590 C.3     1  UNL1        0.0291
     19  C15        5.5760    0.3460   -1.6360 C.3     1  UNL1       -0.0478
     20  C16        0.0860   -0.6610    0.7960 C.ar    1  UNL1       -0.0351
     21  C17       -1.1690   -1.2610    0.6660 C.ar    1  UNL1       -0.0564
     22  C18       -4.7170   -0.8670    1.4310 C.ar    1  UNL1        0.2682
     23  O3        -4.0370   -1.6050    2.1840 O.2     1  UNL1       -0.2661
     24  N2        -5.7470   -0.2030    2.0380 N.ar    1  UNL1       -0.2428
     25  N3        -6.5370    0.6050    1.3510 N.ar    1  UNL1       -0.1762
     26 H          -7.0130    1.7736   -1.7010 H       1  UNL1        0.0293
     27 H          -7.2116    2.6931   -0.2285 H       1  UNL1        0.0293
     28 H          -8.2811    1.3553   -0.5740 H       1  UNL1        0.0293
     29 H          -5.1539    0.2718   -1.6230 H       1  UNL1        0.0640
     30 H          -3.5638   -1.4013   -1.6170 H       1  UNL1        0.0363
     31 H          -3.3646   -2.3987   -0.1422 H       1  UNL1        0.0363
     32 H          -2.1993    0.5028   -1.9159 H       1  UNL1        0.0621
     33 H          -0.0494    1.5105   -1.6740 H       1  UNL1        0.0637
     34 H           4.1583   -1.6365   -0.9487 H       1  UNL1        0.0444
     35 H           2.5085   -1.6142   -0.3080 H       1  UNL1        0.0444
     36 H           4.3352   -2.2942    1.2737 H       1  UNL1        0.0278
     37 H           3.2039   -1.0207    1.7887 H       1  UNL1        0.0278
     38 H           6.0482   -0.8689    1.1650 H       1  UNL1        0.0266
     39 H           5.0655   -0.1461    2.4786 H       1  UNL1        0.0266
     40 H           6.1156    1.3147    0.6841 H       1  UNL1        0.0281
     41 H           4.4518    1.5676    1.2967 H       1  UNL1        0.0281
     42 H           4.3729    1.9165   -0.9769 H       1  UNL1        0.0477
     43 H           5.8070   -0.6630   -1.3648 H       1  UNL1        0.0245
     44 H           6.4683    0.9359   -1.6085 H       1  UNL1        0.0245
     45 H           5.1663    0.3648   -2.6243 H       1  UNL1        0.0245
     46 H           0.7119   -0.9888    1.5482 H       1  UNL1        0.0637
     47 H          -1.4514   -2.0137    1.3131 H       1  UNL1        0.0621
     48 H          -5.9029   -0.3285    3.0019 H       1  UNL1        0.1921
@<TRIPOS>BOND
     1     1     2    1
     2     2     3   ar
     3     2    25   ar
     4     3     4   ar
     5     4     5    1
     6     4    22   ar
     7     5     6    1
     8     6     7   ar
     9     6    21   ar
    10     7     8   ar
    11     8     9   ar
    12     9    10    1
    13     9    20   ar
    14    10    11    2
    15    10    12    2
    16    10    13    1
    17    13    14    1
    18    13    18    1
    19    14    15    1
    20    15    16    1
    21    16    17    1
    22    17    18    1
    23    18    19    1
    24    20    21   ar
    25    22    23    2
    26    22    24   ar
    27    24    25   ar
    28     1    26    1
    29     1    27    1
    30     1    28    1
    31     3    29    1
    32     5    30    1
    33     5    31    1
    34     7    32    1
    35     8    33    1
    36    14    34    1
    37    14    35    1
    38    15    36    1
    39    15    37    1
    40    16    38    1
    41    16    39    1
    42    17    40    1
    43    17    41    1
    44    18    42    1
    45    19    43    1
    46    19    44    1
    47    19    45    1
    48    20    46    1
    49    21    47    1
    50    24    48    1
@<TRIPOS>MOLECULE
../data/bude_mols_rdkit_confs/molecule_3.pdb
 48 50 0 0 0
SMALL
GASTEIGER

@<TRIPOS>ATOM
      1  C1         5.8490    2.5430    1.3620 C.3     1  UNL1       -0.0207
      2  C2         5.3290    1.1540    1.2430 C.ar    1  UNL1        0.0588
      3  C3         4.7760    0.7740    0.0390 C.ar    1  UNL1       -0.0303
      4  C4         4.2850   -0.5130   -0.0920 C.ar    1  UNL1        0.0243
      5  C5         3.6900   -0.8930   -1.3810 C.3     1  UNL1        0.0028
      6  C6         2.2040   -0.8920   -1.3800 C.ar    1  UNL1       -0.0428
      7  C7         1.4990    0.2900   -1.6280 C.ar    1  UNL1       -0.0564
      8  C8         0.1220    0.3490   -1.6440 C.ar    1  UNL1       -0.0351
      9  C9        -0.6250   -0.7780   -1.4100 C.ar    1  UNL1        0.1055
     10  S1        -2.3900   -0.7580   -1.4150 S.O2    1  UNL1        0.0611
     11  O1        -2.8580   -2.0480   -1.9560 O.2     1  UNL1       -0.1528
     12  O2        -2.8590    0.3270   -2.3690 O.2     1  UNL1       -0.1528
     13  N1        -2.8870   -0.3970    0.1550 N.3     1  UNL1       -0.1738
     14  C10       -2.4100    0.8910    0.5350 C.3     1  UNL1        0.0208
     15  C11       -3.2140    1.5670    1.6040 C.3     1  UNL1       -0.0385
     16  C12       -4.6100    1.7670    1.0390 C.3     1  UNL1       -0.0504
     17  C13       -5.1730    0.4860    0.5050 C.3     1  UNL1       -0.0359
     18  C14       -4.2210   -0.6720    0.5220 C.3     1  UNL1        0.0291
     19  C15       -4.8580   -1.7960   -0.2590 C.3     1  UNL1       -0.0478
     20  C16        0.0490   -1.9540   -1.1630 C.ar    1  UNL1       -0.0351
     21  C17        1.4480   -2.0160   -1.1470 C.ar    1  UNL1       -0.0564
     22  C18        4.3730   -1.3600    0.9910 C.ar    1  UNL1        0.2682
     23  O3         3.9210   -2.5300    0.8510 O.2     1  UNL1       -0.2661
     24  N2         4.9190   -0.9590    2.1570 N.ar    1  UNL1       -0.2428
     25  N3         5.3740    0.2740    2.2400 N.ar    1  UNL1       -0.1762
     26 H           5.7034    3.0589    0.4360 H       1  UNL1        0.0293
     27 H           6.8932    2.5143    1.5939 H       1  UNL1        0.0293
     28 H           5.3244    3.0547    2.1417 H       1  UNL1        0.0293
     29 H           4.7290    1.4372   -0.7503 H       1  UNL1        0.0640
     30 H           4.0264   -1.8776   -1.6305 H       1  UNL1        0.0363
     31 H           4.0013   -0.1601   -2.0957 H       1  UNL1        0.0363
     32 H           2.0326    1.1551   -1.8067 H       1  UNL1        0.0621
     33 H          -0.3504    1.2468   -1.8332 H       1  UNL1        0.0637
     34 H          -2.4154    1.5175   -0.3324 H       1  UNL1        0.0444
     35 H          -1.4314    0.7427    0.9415 H       1  UNL1        0.0444
     36 H          -2.7775    2.5120    1.8518 H       1  UNL1        0.0278
     37 H          -3.2407    0.9775    2.4966 H       1  UNL1        0.0278
     38 H          -4.5651    2.4845    0.2465 H       1  UNL1        0.0266
     39 H          -5.2460    2.1110    1.8277 H       1  UNL1        0.0266
     40 H          -5.4776    0.6522   -0.5072 H       1  UNL1        0.0281
     41 H          -5.9839    0.2200    1.1505 H       1  UNL1        0.0281
     42 H          -4.0771   -0.9602    1.5423 H       1  UNL1        0.0477
     43 H          -4.9945   -1.4913   -1.2756 H       1  UNL1        0.0245
     44 H          -5.8075   -2.0364    0.1719 H       1  UNL1        0.0245
     45 H          -4.2235   -2.6570   -0.2269 H       1  UNL1        0.0245
     46 H          -0.4927   -2.8141   -0.9846 H       1  UNL1        0.0637
     47 H           1.9166   -2.9159   -0.9581 H       1  UNL1        0.0621
     48 H           4.9759   -1.5716    2.9256 H       1  UNL1        0.1921
@<TRIPOS>BOND
     1     1     2    1
     2     2     3   ar
     3     2    25   ar
     4     3     4   ar
     5     4     5    1
     6     4    22   ar
     7     5     6    1
     8     6     7   ar
     9     6    21   ar
    10     7     8   ar
    11     8     9   ar
    12     9    10    1
    13     9    20   ar
    14    10    11    2
    15    10    12    2
    16    10    13    1
    17    13    14    1
    18    13    18    1
    19    14    15    1
    20    15    16    1
    21    16    17    1
    22    17    18    1
    23    18    19    1
    24    20    21   ar
    25    22    23    2
    26    22    24   ar
    27    24    25   ar
    28     1    26    1
    29     1    27    1
    30     1    28    1
    31     3    29    1
    32     5    30    1
    33     5    31    1
    34     7    32    1
    35     8    33    1
    36    14    34    1
    37    14    35    1
    38    15    36    1
    39    15    37    1
    40    16    38    1
    41    16    39    1
    42    17    40    1
    43    17    41    1
    44    18    42    1
    45    19    43    1
    46    19    44    1
    47    19    45    1
    48    20    46    1
    49    21    47    1
    50    24    48    1
@<TRIPOS>MOLECULE
../data/bude_mols_rdkit_confs/molecule_3.pdb
 48 50 0 0 0
SMALL
GASTEIGER

@<TRIPOS>ATOM
      1  C1         6.7540    1.8150   -0.0160 C.3     1  UNL1       -0.0207
      2  C2         5.9440    0.5660    0.0440 C.ar    1  UNL1        0.0588
      3  C3         4.7990    0.4700   -0.6840 C.ar    1  UNL1       -0.0303
      4  C4         4.0600   -0.7060   -0.6100 C.ar    1  UNL1        0.0243
      5  C5         2.8170   -0.8240   -1.3870 C.3     1  UNL1        0.0028
      6  C6         1.5800   -0.6570   -0.5770 C.ar    1  UNL1       -0.0428
      7  C7         0.8620   -1.7430   -0.1290 C.ar    1  UNL1       -0.0564
      8  C8        -0.2700   -1.5870    0.6220 C.ar    1  UNL1       -0.0351
      9  C9        -0.7300   -0.3440    0.9560 C.ar    1  UNL1        0.1055
     10  S1        -2.1570   -0.1440    1.9030 S.O2    1  UNL1        0.0611
     11  O1        -2.2770   -1.2950    2.8850 O.2     1  UNL1       -0.1528
     12  O2        -2.0180    1.1020    2.7650 O.2     1  UNL1       -0.1528
     13  N1        -3.5920   -0.0230    1.0370 N.3     1  UNL1       -0.1738
     14  C10       -3.9600   -1.1350    0.2370 C.3     1  UNL1        0.0208
     15  C11       -3.5890   -1.0000   -1.2170 C.3     1  UNL1       -0.0385
     16  C12       -3.8850    0.3400   -1.7990 C.3     1  UNL1       -0.0504
     17  C13       -3.6180    1.4930   -0.8940 C.3     1  UNL1       -0.0359
     18  C14       -3.9450    1.2580    0.5400 C.3     1  UNL1        0.0291
     19  C15       -5.4650    1.4050    0.6970 C.3     1  UNL1       -0.0478
     20  C16       -0.0230    0.7490    0.5160 C.ar    1  UNL1       -0.0351
     21  C17        1.1190    0.6200   -0.2410 C.ar    1  UNL1       -0.0564
     22  C18        4.4760   -1.7410    0.1760 C.ar    1  UNL1        0.2682
     23  O3         3.8480   -2.8170    0.2750 O.2     1  UNL1       -0.2661
     24  N2         5.6350   -1.5680    0.8750 N.ar    1  UNL1       -0.2428
     25  N3         6.3330   -0.4630    0.8090 N.ar    1  UNL1       -0.1762
     26 H           6.2834    2.5140   -0.6754 H       1  UNL1        0.0293
     27 H           7.7346    1.5871   -0.3786 H       1  UNL1        0.0293
     28 H           6.8258    2.2409    0.9629 H       1  UNL1        0.0293
     29 H           4.4853    1.2530   -1.2786 H       1  UNL1        0.0640
     30 H           2.7942   -1.7929   -1.8405 H       1  UNL1        0.0363
     31 H           2.8252   -0.0326   -2.1071 H       1  UNL1        0.0363
     32 H           1.1848   -2.6944   -0.3649 H       1  UNL1        0.0621
     33 H          -0.7856   -2.4217    0.9420 H       1  UNL1        0.0637
     34 H          -5.0208   -1.2590    0.3025 H       1  UNL1        0.0444
     35 H          -3.4198   -1.9777    0.6150 H       1  UNL1        0.0444
     36 H          -4.1332   -1.7351   -1.7723 H       1  UNL1        0.0278
     37 H          -2.5295   -1.1359   -1.2789 H       1  UNL1        0.0278
     38 H          -4.9200    0.3631   -2.0693 H       1  UNL1        0.0266
     39 H          -3.2251    0.4559   -2.6332 H       1  UNL1        0.0266
     40 H          -4.1995    2.3239   -1.2350 H       1  UNL1        0.0281
     41 H          -2.5630    1.6667   -0.9350 H       1  UNL1        0.0281
     42 H          -3.3735    1.9694    1.0988 H       1  UNL1        0.0477
     43 H          -5.9581    0.6595    0.1087 H       1  UNL1        0.0245
     44 H          -5.7654    2.3771    0.3657 H       1  UNL1        0.0245
     45 H          -5.7309    1.2809    1.7260 H       1  UNL1        0.0245
     46 H          -0.3581    1.6940    0.7603 H       1  UNL1        0.0637
     47 H           1.6308    1.4582   -0.5580 H       1  UNL1        0.0621
     48 H           5.9574   -2.3000    1.4490 H       1  UNL1        0.1921
@<TRIPOS>BOND
     1     1     2    1
     2     2     3   ar
     3     2    25   ar
     4     3     4   ar
     5     4     5    1
     6     4    22   ar
     7     5     6    1
     8     6     7   ar
     9     6    21   ar
    10     7     8   ar
    11     8     9   ar
    12     9    10    1
    13     9    20   ar
    14    10    11    2
    15    10    12    2
    16    10    13    1
    17    13    14    1
    18    13    18    1
    19    14    15    1
    20    15    16    1
    21    16    17    1
    22    17    18    1
    23    18    19    1
    24    20    21   ar
    25    22    23    2
    26    22    24   ar
    27    24    25   ar
    28     1    26    1
    29     1    27    1
    30     1    28    1
    31     3    29    1
    32     5    30    1
    33     5    31    1
    34     7    32    1
    35     8    33    1
    36    14    34    1
    37    14    35    1
    38    15    36    1
    39    15    37    1
    40    16    38    1
    41    16    39    1
    42    17    40    1
    43    17    41    1
    44    18    42    1
    45    19    43    1
    46    19    44    1
    47    19    45    1
    48    20    46    1
    49    21    47    1
    50    24    48    1
@<TRIPOS>MOLECULE
../data/bude_mols_rdkit_confs/molecule_3.pdb
 48 50 0 0 0
SMALL
GASTEIGER

@<TRIPOS>ATOM
      1  C1         6.9050    1.0900    1.2290 C.3     1  UNL1       -0.0207
      2  C2         6.1300    0.3330    0.2070 C.ar    1  UNL1        0.0588
      3  C3         5.0490   -0.4410    0.5740 C.ar    1  UNL1       -0.0303
      4  C4         4.3480   -1.1290   -0.4100 C.ar    1  UNL1        0.0243
      5  C5         3.1640   -1.9460    0.0180 C.3     1  UNL1        0.0028
      6  C6         1.9190   -1.1950   -0.2540 C.ar    1  UNL1       -0.0428
      7  C7         1.4500   -0.3110    0.7240 C.ar    1  UNL1       -0.0564
      8  C8         0.3080    0.4260    0.5490 C.ar    1  UNL1       -0.0351
      9  C9        -0.4270    0.3220   -0.6110 C.ar    1  UNL1        0.1055
     10  S1        -1.8970    1.2840   -0.8200 S.O2    1  UNL1        0.0611
     11  O1        -2.0450    1.5630   -2.2860 O.2     1  UNL1       -0.1528
     12  O2        -1.6720    2.5710   -0.0930 O.2     1  UNL1       -0.1528
     13  N1        -3.2270    0.4040   -0.2790 N.3     1  UNL1       -0.1738
     14  C10       -3.1760    0.0650    1.0980 C.3     1  UNL1        0.0208
     15  C11       -4.2060   -0.9410    1.5270 C.3     1  UNL1       -0.0385
     16  C12       -5.3410   -1.0730    0.5490 C.3     1  UNL1       -0.0504
     17  C13       -5.6650    0.2580   -0.0580 C.3     1  UNL1       -0.0359
     18  C14       -4.4770    0.7280   -0.8440 C.3     1  UNL1        0.0291
     19  C15       -4.6750    2.2060   -1.1180 C.3     1  UNL1       -0.0478
     20  C16        0.0250   -0.5450   -1.5810 C.ar    1  UNL1       -0.0351
     21  C17        1.1890   -1.2950   -1.4000 C.ar    1  UNL1       -0.0564
     22  C18        4.7600   -1.0130   -1.7120 C.ar    1  UNL1        0.2682
     23  O3         4.1530   -1.6210   -2.6250 O.2     1  UNL1       -0.2661
     24  N2         5.8160   -0.2500   -2.0240 N.ar    1  UNL1       -0.2428
     25  N3         6.4600    0.3880   -1.0860 N.ar    1  UNL1       -0.1762
     26 H           6.4846    0.9149    2.1972 H       1  UNL1        0.0293
     27 H           6.8633    2.1356    1.0059 H       1  UNL1        0.0293
     28 H           7.9238    0.7633    1.2181 H       1  UNL1        0.0293
     29 H           4.7649   -0.5084    1.5638 H       1  UNL1        0.0640
     30 H           3.2337   -2.1525    1.0656 H       1  UNL1        0.0363
     31 H           3.1508   -2.8660   -0.5282 H       1  UNL1        0.0363
     32 H           1.9802   -0.2110    1.6037 H       1  UNL1        0.0621
     33 H          -0.0049    1.0665    1.2952 H       1  UNL1        0.0637
     34 H          -3.3226    0.9583    1.6684 H       1  UNL1        0.0444
     35 H          -2.2201   -0.3850    1.2669 H       1  UNL1        0.0444
     36 H          -4.6044   -0.6390    2.4730 H       1  UNL1        0.0278
     37 H          -3.7200   -1.8926    1.5839 H       1  UNL1        0.0278
     38 H          -6.2040   -1.4474    1.0589 H       1  UNL1        0.0266
     39 H          -5.0519   -1.7482   -0.2291 H       1  UNL1        0.0266
     40 H          -5.8867    0.9627    0.7160 H       1  UNL1        0.0281
     41 H          -6.5161    0.1692   -0.7003 H       1  UNL1        0.0281
     42 H          -4.4326    0.1916   -1.7688 H       1  UNL1        0.0477
     43 H          -4.7188    2.7379   -0.1906 H       1  UNL1        0.0245
     44 H          -5.5891    2.3498   -1.6552 H       1  UNL1        0.0245
     45 H          -3.8568    2.5733   -1.7016 H       1  UNL1        0.0245
     46 H          -0.5075   -0.6424   -2.4596 H       1  UNL1        0.0637
     47 H           1.5013   -1.9355   -2.1465 H       1  UNL1        0.0621
     48 H           6.1061   -0.1708   -2.9614 H       1  UNL1        0.1921
@<TRIPOS>BOND
     1     1     2    1
     2     2     3   ar
     3     2    25   ar
     4     3     4   ar
     5     4     5    1
     6     4    22   ar
     7     5     6    1
     8     6     7   ar
     9     6    21   ar
    10     7     8   ar
    11     8     9   ar
    12     9    10    1
    13     9    20   ar
    14    10    11    2
    15    10    12    2
    16    10    13    1
    17    13    14    1
    18    13    18    1
    19    14    15    1
    20    15    16    1
    21    16    17    1
    22    17    18    1
    23    18    19    1
    24    20    21   ar
    25    22    23    2
    26    22    24   ar
    27    24    25   ar
    28     1    26    1
    29     1    27    1
    30     1    28    1
    31     3    29    1
    32     5    30    1
    33     5    31    1
    34     7    32    1
    35     8    33    1
    36    14    34    1
    37    14    35    1
    38    15    36    1
    39    15    37    1
    40    16    38    1
    41    16    39    1
    42    17    40    1
    43    17    41    1
    44    18    42    1
    45    19    43    1
    46    19    44    1
    47    19    45    1
    48    20    46    1
    49    21    47    1
    50    24    48    1
@<TRIPOS>MOLECULE
../data/bude_mols_rdkit_confs/molecule_3.pdb
 48 50 0 0 0
SMALL
GASTEIGER

@<TRIPOS>ATOM
      1  C1         7.2130   -0.9680    1.6210 C.3     1  UNL1       -0.0207
      2  C2         6.3190   -0.5450    0.5230 C.ar    1  UNL1        0.0588
      3  C3         5.2750    0.3070    0.7100 C.ar    1  UNL1       -0.0303
      4  C4         4.4660    0.6760   -0.3430 C.ar    1  UNL1        0.0243
      5  C5         3.3570    1.5880   -0.1050 C.3     1  UNL1        0.0028
      6  C6         2.0210    0.9070   -0.0580 C.ar    1  UNL1       -0.0428
      7  C7         1.1970    0.8250   -1.1540 C.ar    1  UNL1       -0.0564
      8  C8        -0.0370    0.1850   -1.0940 C.ar    1  UNL1       -0.0351
      9  C9        -0.4940   -0.3990    0.0750 C.ar    1  UNL1        0.1055
     10  S1        -2.0380   -1.2040    0.1720 S.O2    1  UNL1        0.0611
     11  O1        -1.9510   -2.3460    1.1450 O.2     1  UNL1       -0.1528
     12  O2        -2.3580   -1.7110   -1.2210 O.2     1  UNL1       -0.1528
     13  N1        -3.2550   -0.1070    0.6660 N.3     1  UNL1       -0.1738
     14  C10       -3.3760    0.9470   -0.2980 C.3     1  UNL1        0.0208
     15  C11       -4.4760    1.9270    0.0260 C.3     1  UNL1       -0.0385
     16  C12       -5.7640    1.2620    0.4020 C.3     1  UNL1       -0.0504
     17  C13       -5.6510   -0.2290    0.1810 C.3     1  UNL1       -0.0359
     18  C14       -4.4820   -0.7000    1.0550 C.3     1  UNL1        0.0291
     19  C15       -4.4990   -2.2030    1.0120 C.3     1  UNL1       -0.0478
     20  C16        0.3420   -0.3110    1.1660 C.ar    1  UNL1       -0.0351
     21  C17        1.5670    0.3210    1.1160 C.ar    1  UNL1       -0.0564
     22  C18        4.7280    0.1740   -1.5820 C.ar    1  UNL1        0.2682
     23  O3         4.0630    0.4390   -2.6100 O.2     1  UNL1       -0.2661
     24  N2         5.7760   -0.6770   -1.7510 N.ar    1  UNL1       -0.2428
     25  N3         6.5350   -1.0110   -0.7120 N.ar    1  UNL1       -0.1762
     26 H           6.9003   -0.5055    2.5338 H       1  UNL1        0.0293
     27 H           8.2169   -0.6729    1.3973 H       1  UNL1        0.0293
     28 H           7.1692   -2.0318    1.7269 H       1  UNL1        0.0293
     29 H           5.0863    0.6819    1.6528 H       1  UNL1        0.0640
     30 H           3.3400    2.3130   -0.8918 H       1  UNL1        0.0363
     31 H           3.5167    2.0337    0.8545 H       1  UNL1        0.0363
     32 H           1.5009    1.2488   -2.0445 H       1  UNL1        0.0621
     33 H          -0.6254    0.1447   -1.9409 H       1  UNL1        0.0637
     34 H          -3.5796    0.5115   -1.2539 H       1  UNL1        0.0444
     35 H          -2.4544    1.4906   -0.2913 H       1  UNL1        0.0444
     36 H          -4.6482    2.5416   -0.8328 H       1  UNL1        0.0278
     37 H          -4.1543    2.4995    0.8708 H       1  UNL1        0.0278
     38 H          -6.5556    1.6522   -0.2029 H       1  UNL1        0.0266
     39 H          -5.9731    1.4524    1.4340 H       1  UNL1        0.0266
     40 H          -5.4522   -0.4379   -0.8494 H       1  UNL1        0.0281
     41 H          -6.5594   -0.7327    0.4379 H       1  UNL1        0.0281
     42 H          -4.5894   -0.3812    2.0707 H       1  UNL1        0.0477
     43 H          -4.3921   -2.5321   -0.0005 H       1  UNL1        0.0245
     44 H          -5.4268   -2.5606    1.4072 H       1  UNL1        0.0245
     45 H          -3.6902   -2.5858    1.5987 H       1  UNL1        0.0245
     46 H           0.0396   -0.7351    2.0569 H       1  UNL1        0.0637
     47 H           2.1546    0.3588    1.9635 H       1  UNL1        0.0621
     48 H           5.9722   -1.0454   -2.6426 H       1  UNL1        0.1921
@<TRIPOS>BOND
     1     1     2    1
     2     2     3   ar
     3     2    25   ar
     4     3     4   ar
     5     4     5    1
     6     4    22   ar
     7     5     6    1
     8     6     7   ar
     9     6    21   ar
    10     7     8   ar
    11     8     9   ar
    12     9    10    1
    13     9    20   ar
    14    10    11    2
    15    10    12    2
    16    10    13    1
    17    13    14    1
    18    13    18    1
    19    14    15    1
    20    15    16    1
    21    16    17    1
    22    17    18    1
    23    18    19    1
    24    20    21   ar
    25    22    23    2
    26    22    24   ar
    27    24    25   ar
    28     1    26    1
    29     1    27    1
    30     1    28    1
    31     3    29    1
    32     5    30    1
    33     5    31    1
    34     7    32    1
    35     8    33    1
    36    14    34    1
    37    14    35    1
    38    15    36    1
    39    15    37    1
    40    16    38    1
    41    16    39    1
    42    17    40    1
    43    17    41    1
    44    18    42    1
    45    19    43    1
    46    19    44    1
    47    19    45    1
    48    20    46    1
    49    21    47    1
    50    24    48    1
@<TRIPOS>MOLECULE
../data/bude_mols_rdkit_confs/molecule_3.pdb
 48 50 0 0 0
SMALL
GASTEIGER

@<TRIPOS>ATOM
      1  C1         5.6990    1.1720    1.1970 C.3     1  UNL1       -0.0207
      2  C2         5.5170    0.0060    0.3010 C.ar    1  UNL1        0.0588
      3  C3         4.2390   -0.3510   -0.0710 C.ar    1  UNL1       -0.0303
      4  C4         4.0270   -1.4300   -0.9030 C.ar    1  UNL1        0.0243
      5  C5         2.6510   -1.8470   -1.3290 C.3     1  UNL1        0.0028
      6  C6         1.6270   -0.9510   -0.7340 C.ar    1  UNL1       -0.0428
      7  C7         1.0750   -1.2480    0.4880 C.ar    1  UNL1       -0.0564
      8  C8         0.1130   -0.4130    1.0560 C.ar    1  UNL1       -0.0351
      9  C9        -0.2940    0.7130    0.4050 C.ar    1  UNL1        0.1055
     10  S1        -1.5130    1.7790    1.1160 S.O2    1  UNL1        0.0611
     11  O1        -1.2600    3.1800    0.5990 O.2     1  UNL1       -0.1528
     12  O2        -1.3610    1.7020    2.5920 O.2     1  UNL1       -0.1528
     13  N1        -3.0310    1.2720    0.6120 N.3     1  UNL1       -0.1738
     14  C10       -3.3270    1.2870   -0.7530 C.3     1  UNL1        0.0208
     15  C11       -4.7860    1.1940   -1.1060 C.3     1  UNL1       -0.0385
     16  C12       -5.4150    0.0640   -0.2800 C.3     1  UNL1       -0.0504
     17  C13       -5.2960    0.5120    1.1620 C.3     1  UNL1       -0.0359
     18  C14       -3.8200    0.5140    1.4900 C.3     1  UNL1        0.0291
     19  C15       -3.2740   -0.9140    1.5250 C.3     1  UNL1       -0.0478
     20  C16        0.2530    1.0180   -0.8170 C.ar    1  UNL1       -0.0351
     21  C17        1.2120    0.1890   -1.3860 C.ar    1  UNL1       -0.0564
     22  C18        5.1080   -2.1260   -1.3430 C.ar    1  UNL1        0.2682
     23  O3         5.0000   -3.1220   -2.1040 O.2     1  UNL1       -0.2661
     24  N2         6.3690   -1.7730   -0.9750 N.ar    1  UNL1       -0.2428
     25  N3         6.5400   -0.7280   -0.1720 N.ar    1  UNL1       -0.1762
     26 H           4.7437    1.5902    1.4367 H       1  UNL1        0.0293
     27 H           6.2980    1.9097    0.7052 H       1  UNL1        0.0293
     28 H           6.1867    0.8581    2.0962 H       1  UNL1        0.0293
     29 H           3.4340    0.1937    0.2759 H       1  UNL1        0.0640
     30 H           2.4714   -2.8508   -1.0049 H       1  UNL1        0.0363
     31 H           2.5860   -1.7858   -2.3953 H       1  UNL1        0.0363
     32 H           1.3751   -2.0976    0.9911 H       1  UNL1        0.0621
     33 H          -0.2931   -0.6493    1.9749 H       1  UNL1        0.0637
     34 H          -2.8256    0.4579   -1.2070 H       1  UNL1        0.0444
     35 H          -3.0009    2.2411   -1.1112 H       1  UNL1        0.0444
     36 H          -4.8922    0.9809   -2.1492 H       1  UNL1        0.0278
     37 H          -5.2752    2.1212   -0.8917 H       1  UNL1        0.0278
     38 H          -4.8846   -0.8526   -0.4331 H       1  UNL1        0.0266
     39 H          -6.4318   -0.1173   -0.5597 H       1  UNL1        0.0266
     40 H          -5.8166   -0.1672    1.8043 H       1  UNL1        0.0281
     41 H          -5.7252    1.4820    1.3027 H       1  UNL1        0.0281
     42 H          -3.7534    0.9773    2.4522 H       1  UNL1        0.0477
     43 H          -3.3536   -1.3503    0.5512 H       1  UNL1        0.0245
     44 H          -3.8393   -1.4950    2.2234 H       1  UNL1        0.0245
     45 H          -2.2470   -0.8959    1.8248 H       1  UNL1        0.0245
     46 H          -0.0502    1.8688   -1.3162 H       1  UNL1        0.0637
     47 H           1.6165    0.4294   -2.3045 H       1  UNL1        0.0621
     48 H           7.1449   -2.2850   -1.2993 H       1  UNL1        0.1921
@<TRIPOS>BOND
     1     1     2    1
     2     2     3   ar
     3     2    25   ar
     4     3     4   ar
     5     4     5    1
     6     4    22   ar
     7     5     6    1
     8     6     7   ar
     9     6    21   ar
    10     7     8   ar
    11     8     9   ar
    12     9    10    1
    13     9    20   ar
    14    10    11    2
    15    10    12    2
    16    10    13    1
    17    13    14    1
    18    13    18    1
    19    14    15    1
    20    15    16    1
    21    16    17    1
    22    17    18    1
    23    18    19    1
    24    20    21   ar
    25    22    23    2
    26    22    24   ar
    27    24    25   ar
    28     1    26    1
    29     1    27    1
    30     1    28    1
    31     3    29    1
    32     5    30    1
    33     5    31    1
    34     7    32    1
    35     8    33    1
    36    14    34    1
    37    14    35    1
    38    15    36    1
    39    15    37    1
    40    16    38    1
    41    16    39    1
    42    17    40    1
    43    17    41    1
    44    18    42    1
    45    19    43    1
    46    19    44    1
    47    19    45    1
    48    20    46    1
    49    21    47    1
    50    24    48    1
@<TRIPOS>MOLECULE
../data/bude_mols_rdkit_confs/molecule_3.pdb
 48 50 0 0 0
SMALL
GASTEIGER

@<TRIPOS>ATOM
      1  C1         7.3880    0.4000    1.0620 C.3     1  UNL1       -0.0207
      2  C2         6.3650    0.0380    0.0330 C.ar    1  UNL1        0.0588
      3  C3         5.2230    0.7660   -0.1600 C.ar    1  UNL1       -0.0303
      4  C4         4.2590    0.4450   -1.1130 C.ar    1  UNL1        0.0243
      5  C5         3.0350    1.2560   -1.2920 C.3     1  UNL1        0.0028
      6  C6         1.8190    0.6470   -0.7080 C.ar    1  UNL1       -0.0428
      7  C7         1.5230    0.8140    0.6310 C.ar    1  UNL1       -0.0564
      8  C8         0.3850    0.2500    1.1610 C.ar    1  UNL1       -0.0351
      9  C9        -0.4710   -0.4880    0.3540 C.ar    1  UNL1        0.1055
     10  S1        -1.9340   -1.2160    1.0120 S.O2    1  UNL1        0.0611
     11  O1        -2.2070   -2.4560    0.2110 O.2     1  UNL1       -0.1528
     12  O2        -1.6720   -1.5370    2.4560 O.2     1  UNL1       -0.1528
     13  N1        -3.1850   -0.0490    0.8320 N.3     1  UNL1       -0.1738
     14  C10       -3.3450    0.2140   -0.5790 C.3     1  UNL1        0.0208
     15  C11       -4.5590    1.0850   -0.8530 C.3     1  UNL1       -0.0385
     16  C12       -5.0250    1.6130    0.4880 C.3     1  UNL1       -0.0504
     17  C13       -5.5520    0.4120    1.2710 C.3     1  UNL1       -0.0359
     18  C14       -4.3890   -0.5440    1.4470 C.3     1  UNL1        0.0291
     19  C15       -4.7590   -1.9420    0.9840 C.3     1  UNL1       -0.0478
     20  C16       -0.2040   -0.6710   -0.9820 C.ar    1  UNL1       -0.0351
     21  C17        0.9550   -0.0890   -1.4900 C.ar    1  UNL1       -0.0564
     22  C18        4.4940   -0.6690   -1.8840 C.ar    1  UNL1        0.2682
     23  O3         3.7270   -1.0770   -2.7710 O.2     1  UNL1       -0.2661
     24  N2         5.6320   -1.3910   -1.6860 N.ar    1  UNL1       -0.2428
     25  N3         6.5290   -1.0520   -0.7670 N.ar    1  UNL1       -0.1762
     26 H           7.0750    1.2816    1.5813 H       1  UNL1        0.0293
     27 H           8.3269    0.5828    0.5826 H       1  UNL1        0.0293
     28 H           7.4940   -0.4055    1.7584 H       1  UNL1        0.0293
     29 H           5.0674    1.5970    0.4318 H       1  UNL1        0.0640
     30 H           2.8724    1.3929   -2.3407 H       1  UNL1        0.0363
     31 H           3.1972    2.1794   -0.7764 H       1  UNL1        0.0363
     32 H           2.1558    1.3622    1.2344 H       1  UNL1        0.0621
     33 H           0.1670    0.3760    2.1618 H       1  UNL1        0.0637
     34 H          -3.4621   -0.7164   -1.0942 H       1  UNL1        0.0444
     35 H          -2.4758    0.7351   -0.9223 H       1  UNL1        0.0444
     36 H          -5.3333    0.5055   -1.3108 H       1  UNL1        0.0278
     37 H          -4.3164    1.8860   -1.5197 H       1  UNL1        0.0278
     38 H          -5.8032    2.3343    0.3505 H       1  UNL1        0.0266
     39 H          -4.2258    2.0945    1.0119 H       1  UNL1        0.0266
     40 H          -6.3408   -0.0644    0.7271 H       1  UNL1        0.0281
     41 H          -5.9450    0.7155    2.2188 H       1  UNL1        0.0281
     42 H          -4.1736   -0.6104    2.4930 H       1  UNL1        0.0477
     43 H          -4.9836   -1.9235   -0.0620 H       1  UNL1        0.0245
     44 H          -5.6159   -2.2824    1.5269 H       1  UNL1        0.0245
     45 H          -3.9382   -2.6052    1.1608 H       1  UNL1        0.0245
     46 H          -0.8377   -1.2184   -1.5852 H       1  UNL1        0.0637
     47 H           1.1753   -0.2137   -2.4905 H       1  UNL1        0.0621
     48 H           5.7945   -2.1880   -2.2407 H       1  UNL1        0.1921
@<TRIPOS>BOND
     1     1     2    1
     2     2     3   ar
     3     2    25   ar
     4     3     4   ar
     5     4     5    1
     6     4    22   ar
     7     5     6    1
     8     6     7   ar
     9     6    21   ar
    10     7     8   ar
    11     8     9   ar
    12     9    10    1
    13     9    20   ar
    14    10    11    2
    15    10    12    2
    16    10    13    1
    17    13    14    1
    18    13    18    1
    19    14    15    1
    20    15    16    1
    21    16    17    1
    22    17    18    1
    23    18    19    1
    24    20    21   ar
    25    22    23    2
    26    22    24   ar
    27    24    25   ar
    28     1    26    1
    29     1    27    1
    30     1    28    1
    31     3    29    1
    32     5    30    1
    33     5    31    1
    34     7    32    1
    35     8    33    1
    36    14    34    1
    37    14    35    1
    38    15    36    1
    39    15    37    1
    40    16    38    1
    41    16    39    1
    42    17    40    1
    43    17    41    1
    44    18    42    1
    45    19    43    1
    46    19    44    1
    47    19    45    1
    48    20    46    1
    49    21    47    1
    50    24    48    1
@<TRIPOS>MOLECULE
../data/bude_mols_rdkit_confs/molecule_3.pdb
 48 50 0 0 0
SMALL
GASTEIGER

@<TRIPOS>ATOM
      1  C1         6.9260    2.4320    0.8150 C.3     1  UNL1       -0.0207
      2  C2         6.1940    1.3030    0.1760 C.ar    1  UNL1        0.0588
      3  C3         5.1810    0.6160    0.8210 C.ar    1  UNL1       -0.0303
      4  C4         4.5050   -0.4310    0.2240 C.ar    1  UNL1        0.0243
      5  C5         3.4420   -1.1330    0.9290 C.3     1  UNL1        0.0028
      6  C6         2.0720   -0.8080    0.5590 C.ar    1  UNL1       -0.0428
      7  C7         1.3970   -1.6030   -0.3370 C.ar    1  UNL1       -0.0564
      8  C8         0.1050   -1.3510   -0.7290 C.ar    1  UNL1       -0.0351
      9  C9        -0.5460   -0.2660   -0.2110 C.ar    1  UNL1        0.1055
     10  S1        -2.1990    0.0360   -0.7280 S.O2    1  UNL1        0.0611
     11  O1        -2.3870    1.5440   -0.6510 O.2     1  UNL1       -0.1528
     12  O2        -2.3090   -0.3370   -2.1740 O.2     1  UNL1       -0.1528
     13  N1        -3.3230   -0.7980    0.2370 N.3     1  UNL1       -0.1738
     14  C10       -3.2230   -0.3470    1.6030 C.3     1  UNL1        0.0208
     15  C11       -4.5530    0.1980    2.1060 C.3     1  UNL1       -0.0385
     16  C12       -5.1210    1.2330    1.1910 C.3     1  UNL1       -0.0504
     17  C13       -5.2920    0.6390   -0.1840 C.3     1  UNL1       -0.0359
     18  C14       -4.6760   -0.7390   -0.1910 C.3     1  UNL1        0.0291
     19  C15       -4.9110   -1.4070   -1.5310 C.3     1  UNL1       -0.0478
     20  C16        0.1130    0.5460    0.6900 C.ar    1  UNL1       -0.0351
     21  C17        1.3980    0.3000    1.0830 C.ar    1  UNL1       -0.0564
     22  C18        4.8590   -0.7910   -1.0490 C.ar    1  UNL1        0.2682
     23  O3         4.3280   -1.7210   -1.7060 O.2     1  UNL1       -0.2661
     24  N2         5.8580   -0.0990   -1.6610 N.ar    1  UNL1       -0.2428
     25  N3         6.4970    0.9060   -1.0690 N.ar    1  UNL1       -0.1762
     26 H           6.5410    2.5947    1.8000 H       1  UNL1        0.0293
     27 H           6.7953    3.3184    0.2301 H       1  UNL1        0.0293
     28 H           7.9675    2.1939    0.8739 H       1  UNL1        0.0293
     29 H           4.9215    0.8948    1.7801 H       1  UNL1        0.0640
     30 H           3.5528   -0.9213    1.9720 H       1  UNL1        0.0363
     31 H           3.5643   -2.1614    0.6599 H       1  UNL1        0.0363
     32 H           1.8818   -2.4240   -0.7318 H       1  UNL1        0.0621
     33 H          -0.3675   -1.9716   -1.4047 H       1  UNL1        0.0637
     34 H          -2.4854    0.4259    1.6615 H       1  UNL1        0.0444
     35 H          -2.9477   -1.1810    2.2141 H       1  UNL1        0.0444
     36 H          -4.4032    0.6358    3.0708 H       1  UNL1        0.0278
     37 H          -5.2457   -0.6163    2.1511 H       1  UNL1        0.0278
     38 H          -4.4553    2.0691    1.1394 H       1  UNL1        0.0266
     39 H          -6.0700    1.5592    1.5623 H       1  UNL1        0.0266
     40 H          -4.8023    1.2568   -0.9074 H       1  UNL1        0.0281
     41 H          -6.3316    0.5769   -0.4296 H       1  UNL1        0.0281
     42 H          -5.1846   -1.3014    0.5640 H       1  UNL1        0.0477
     43 H          -4.4079   -0.8555   -2.2976 H       1  UNL1        0.0245
     44 H          -5.9604   -1.4304   -1.7387 H       1  UNL1        0.0245
     45 H          -4.5306   -2.4067   -1.5028 H       1  UNL1        0.0245
     46 H          -0.3806    1.3646    1.0789 H       1  UNL1        0.0637
     47 H           1.8659    0.9243    1.7585 H       1  UNL1        0.0621
     48 H           6.1176   -0.3517   -2.5764 H       1  UNL1        0.1921
@<TRIPOS>BOND
     1     1     2    1
     2     2     3   ar
     3     2    25   ar
     4     3     4   ar
     5     4     5    1
     6     4    22   ar
     7     5     6    1
     8     6     7   ar
     9     6    21   ar
    10     7     8   ar
    11     8     9   ar
    12     9    10    1
    13     9    20   ar
    14    10    11    2
    15    10    12    2
    16    10    13    1
    17    13    14    1
    18    13    18    1
    19    14    15    1
    20    15    16    1
    21    16    17    1
    22    17    18    1
    23    18    19    1
    24    20    21   ar
    25    22    23    2
    26    22    24   ar
    27    24    25   ar
    28     1    26    1
    29     1    27    1
    30     1    28    1
    31     3    29    1
    32     5    30    1
    33     5    31    1
    34     7    32    1
    35     8    33    1
    36    14    34    1
    37    14    35    1
    38    15    36    1
    39    15    37    1
    40    16    38    1
    41    16    39    1
    42    17    40    1
    43    17    41    1
    44    18    42    1
    45    19    43    1
    46    19    44    1
    47    19    45    1
    48    20    46    1
    49    21    47    1
    50    24    48    1
@<TRIPOS>MOLECULE
../data/bude_mols_rdkit_confs/molecule_3.pdb
 48 50 0 0 0
SMALL
GASTEIGER

@<TRIPOS>ATOM
      1  C1         6.7520   -1.6990    1.5560 C.3     1  UNL1       -0.0207
      2  C2         5.9700   -0.8370    0.6440 C.ar    1  UNL1        0.0588
      3  C3         4.8000   -1.2410    0.0720 C.ar    1  UNL1       -0.0303
      4  C4         4.1110   -0.3770   -0.7780 C.ar    1  UNL1        0.0243
      5  C5         2.8370   -0.8250   -1.3840 C.3     1  UNL1        0.0028
      6  C6         1.6440   -0.2420   -0.6970 C.ar    1  UNL1       -0.0428
      7  C7         1.0020    0.8910   -1.1600 C.ar    1  UNL1       -0.0564
      8  C8        -0.1000    1.4160   -0.5000 C.ar    1  UNL1       -0.0351
      9  C9        -0.5490    0.7960    0.6220 C.ar    1  UNL1        0.1055
     10  S1        -1.9340    1.4030    1.4950 S.O2    1  UNL1        0.0611
     11  O1        -1.7690    0.9880    2.9370 O.2     1  UNL1       -0.1528
     12  O2        -1.9850    2.8860    1.4640 O.2     1  UNL1       -0.1528
     13  N1        -3.3140    0.6340    0.8820 N.3     1  UNL1       -0.1738
     14  C10       -3.2390   -0.8020    1.0880 C.3     1  UNL1        0.0208
     15  C11       -4.6660   -1.3060    1.0970 C.3     1  UNL1       -0.0385
     16  C12       -5.2840   -0.9430   -0.2260 C.3     1  UNL1       -0.0504
     17  C13       -4.3660   -0.1890   -1.1490 C.3     1  UNL1       -0.0359
     18  C14       -3.6920    0.9860   -0.4450 C.3     1  UNL1        0.0291
     19  C15       -4.5680    2.1730   -0.5840 C.3     1  UNL1       -0.0478
     20  C16        0.0930   -0.3390    1.0860 C.ar    1  UNL1       -0.0351
     21  C17        1.1840   -0.8720    0.4470 C.ar    1  UNL1       -0.0564
     22  C18        4.6310    0.8670   -1.0210 C.ar    1  UNL1        0.2682
     23  O3         4.0190    1.6460   -1.7820 O.2     1  UNL1       -0.2661
     24  N2         5.8070    1.2350   -0.4300 N.ar    1  UNL1       -0.2428
     25  N3         6.4150    0.3890    0.3600 N.ar    1  UNL1       -0.1762
     26 H           6.2545   -2.6392    1.6722 H       1  UNL1        0.0293
     27 H           6.8401   -1.2219    2.5097 H       1  UNL1        0.0293
     28 H           7.7272   -1.8597    1.1461 H       1  UNL1        0.0293
     29 H           4.4259   -2.1827    0.2675 H       1  UNL1        0.0640
     30 H           2.7828   -1.8918   -1.3210 H       1  UNL1        0.0363
     31 H           2.8238   -0.4915   -2.4006 H       1  UNL1        0.0363
     32 H           1.3491    1.3558   -2.0135 H       1  UNL1        0.0621
     33 H          -0.5703    2.2630   -0.8556 H       1  UNL1        0.0637
     34 H          -2.7642   -1.0178    2.0223 H       1  UNL1        0.0444
     35 H          -2.6647   -1.2753    0.3192 H       1  UNL1        0.0444
     36 H          -5.2112   -0.8442    1.8935 H       1  UNL1        0.0278
     37 H          -4.6899   -2.3654    1.2453 H       1  UNL1        0.0278
     38 H          -6.1448   -0.3356   -0.0389 H       1  UNL1        0.0266
     39 H          -5.5247   -1.8633   -0.7159 H       1  UNL1        0.0266
     40 H          -4.9351    0.1828   -1.9753 H       1  UNL1        0.0281
     41 H          -3.6016   -0.8611   -1.4790 H       1  UNL1        0.0281
     42 H          -2.7609    1.2479   -0.9025 H       1  UNL1        0.0477
     43 H          -5.5201    1.9675   -0.1410 H       1  UNL1        0.0245
     44 H          -4.6989    2.4002   -1.6214 H       1  UNL1        0.0245
     45 H          -4.1176    3.0085   -0.0900 H       1  UNL1        0.0245
     46 H          -0.2601   -0.7990    1.9397 H       1  UNL1        0.0637
     47 H           1.6490   -1.7192    0.8091 H       1  UNL1        0.0621
     48 H           6.1915    2.1258   -0.5970 H       1  UNL1        0.1921
@<TRIPOS>BOND
     1     1     2    1
     2     2     3   ar
     3     2    25   ar
     4     3     4   ar
     5     4     5    1
     6     4    22   ar
     7     5     6    1
     8     6     7   ar
     9     6    21   ar
    10     7     8   ar
    11     8     9   ar
    12     9    10    1
    13     9    20   ar
    14    10    11    2
    15    10    12    2
    16    10    13    1
    17    13    14    1
    18    13    18    1
    19    14    15    1
    20    15    16    1
    21    16    17    1
    22    17    18    1
    23    18    19    1
    24    20    21   ar
    25    22    23    2
    26    22    24   ar
    27    24    25   ar
    28     1    26    1
    29     1    27    1
    30     1    28    1
    31     3    29    1
    32     5    30    1
    33     5    31    1
    34     7    32    1
    35     8    33    1
    36    14    34    1
    37    14    35    1
    38    15    36    1
    39    15    37    1
    40    16    38    1
    41    16    39    1
    42    17    40    1
    43    17    41    1
    44    18    42    1
    45    19    43    1
    46    19    44    1
    47    19    45    1
    48    20    46    1
    49    21    47    1
    50    24    48    1
@<TRIPOS>MOLECULE
../data/bude_mols_rdkit_confs/molecule_3.pdb
 48 50 0 0 0
SMALL
GASTEIGER

@<TRIPOS>ATOM
      1  C1        -3.8550    2.7360    1.1590 C.3     1  UNL1       -0.0207
      2  C2        -4.5030    1.5630    0.5250 C.ar    1  UNL1        0.0588
      3  C3        -3.8490    0.3490    0.3570 C.ar    1  UNL1       -0.0303
      4  C4        -4.4140   -0.7540   -0.2230 C.ar    1  UNL1        0.0243
      5  C5        -3.7450   -2.0620   -0.4060 C.3     1  UNL1        0.0028
      6  C6        -2.2830   -1.8670   -0.3530 C.ar    1  UNL1       -0.0428
      7  C7        -1.5860   -1.7880    0.8460 C.ar    1  UNL1       -0.0564
      8  C8        -0.1990   -1.6250    0.8670 C.ar    1  UNL1       -0.0351
      9  C9         0.5200   -1.5410   -0.3050 C.ar    1  UNL1        0.1055
     10  S1         2.2660   -1.3410   -0.3080 S.O2    1  UNL1        0.0611
     11  O1         2.7610   -1.9490    0.9980 O.2     1  UNL1       -0.1528
     12  O2         2.8250   -2.1860   -1.4130 O.2     1  UNL1       -0.1528
     13  N1         2.7280    0.2810   -0.3660 N.3     1  UNL1       -0.1738
     14  C10        2.2630    0.9810    0.7760 C.3     1  UNL1        0.0208
     15  C11        3.2790    1.9420    1.3500 C.3     1  UNL1       -0.0385
     16  C12        4.6570    1.3940    1.4170 C.3     1  UNL1       -0.0504
     17  C13        5.0030    0.3800    0.3510 C.3     1  UNL1       -0.0359
     18  C14        4.0400    0.5790   -0.7980 C.3     1  UNL1        0.0291
     19  C15        4.4140   -0.2580   -2.0000 C.3     1  UNL1       -0.0478
     20  C16       -0.1780   -1.6200   -1.4850 C.ar    1  UNL1       -0.0351
     21  C17       -1.5440   -1.7780   -1.5130 C.ar    1  UNL1       -0.0564
     22  C18       -5.7340   -0.6010   -0.6590 C.ar    1  UNL1        0.2682
     23  O3        -6.3510   -1.5470   -1.2070 O.2     1  UNL1       -0.2661
     24  N2        -6.3560    0.5710   -0.4940 N.ar    1  UNL1       -0.2428
     25  N3        -5.7690    1.6350    0.0820 N.ar    1  UNL1       -0.1762
     26 H          -2.8551    2.4813    1.4423 H       1  UNL1        0.0293
     27 H          -4.4095    3.0236    2.0277 H       1  UNL1        0.0293
     28 H          -3.8326    3.5498    0.4646 H       1  UNL1        0.0293
     29 H          -2.8753    0.2743    0.6908 H       1  UNL1        0.0640
     30 H          -4.0175   -2.4744   -1.3550 H       1  UNL1        0.0363
     31 H          -4.0479   -2.7340    0.3696 H       1  UNL1        0.0363
     32 H          -2.1023   -1.8509    1.7373 H       1  UNL1        0.0621
     33 H           0.2934   -1.5668    1.7721 H       1  UNL1        0.0637
     34 H           2.0087    0.2665    1.5308 H       1  UNL1        0.0444
     35 H           1.4198    1.5625    0.4667 H       1  UNL1        0.0444
     36 H           2.9723    2.2037    2.3411 H       1  UNL1        0.0278
     37 H           3.3128    2.7860    0.6931 H       1  UNL1        0.0278
     38 H           4.7800    0.9253    2.3710 H       1  UNL1        0.0266
     39 H           5.3129    2.2244    1.2586 H       1  UNL1        0.0266
     40 H           4.9034   -0.6105    0.7433 H       1  UNL1        0.0281
     41 H           6.0129    0.5098    0.0221 H       1  UNL1        0.0281
     42 H           4.0906    1.6023   -1.1067 H       1  UNL1        0.0477
     43 H           4.3772   -1.2948   -1.7380 H       1  UNL1        0.0245
     44 H           5.4043   -0.0050   -2.3166 H       1  UNL1        0.0245
     45 H           3.7252   -0.0666   -2.7961 H       1  UNL1        0.0245
     46 H           0.3375   -1.5590   -2.3769 H       1  UNL1        0.0637
     47 H          -2.0268   -1.8311   -2.4236 H       1  UNL1        0.0621
     48 H          -7.2849    0.6589   -0.8081 H       1  UNL1        0.1921
@<TRIPOS>BOND
     1     1     2    1
     2     2     3   ar
     3     2    25   ar
     4     3     4   ar
     5     4     5    1
     6     4    22   ar
     7     5     6    1
     8     6     7   ar
     9     6    21   ar
    10     7     8   ar
    11     8     9   ar
    12     9    10    1
    13     9    20   ar
    14    10    11    2
    15    10    12    2
    16    10    13    1
    17    13    14    1
    18    13    18    1
    19    14    15    1
    20    15    16    1
    21    16    17    1
    22    17    18    1
    23    18    19    1
    24    20    21   ar
    25    22    23    2
    26    22    24   ar
    27    24    25   ar
    28     1    26    1
    29     1    27    1
    30     1    28    1
    31     3    29    1
    32     5    30    1
    33     5    31    1
    34     7    32    1
    35     8    33    1
    36    14    34    1
    37    14    35    1
    38    15    36    1
    39    15    37    1
    40    16    38    1
    41    16    39    1
    42    17    40    1
    43    17    41    1
    44    18    42    1
    45    19    43    1
    46    19    44    1
    47    19    45    1
    48    20    46    1
    49    21    47    1
    50    24    48    1
@<TRIPOS>MOLECULE
../data/bude_mols_rdkit_confs/molecule_3.pdb
 48 50 0 0 0
SMALL
GASTEIGER

@<TRIPOS>ATOM
      1  C1         6.7200   -1.2670   -1.5770 C.3     1  UNL1       -0.0207
      2  C2         5.9260   -0.5250   -0.5420 C.ar    1  UNL1        0.0588
      3  C3         4.7350   -1.0170   -0.0550 C.ar    1  UNL1       -0.0303
      4  C4         3.9790   -0.3480    0.9030 C.ar    1  UNL1        0.0243
      5  C5         2.7030   -0.8920    1.4050 C.3     1  UNL1        0.0028
      6  C6         1.5290   -0.2360    0.8220 C.ar    1  UNL1       -0.0428
      7  C7         0.8840    0.7940    1.4620 C.ar    1  UNL1       -0.0564
      8  C8        -0.2090    1.3680    0.8570 C.ar    1  UNL1       -0.0351
      9  C9        -0.6580    0.9330   -0.3610 C.ar    1  UNL1        0.1055
     10  S1        -2.0700    1.7130   -1.0890 S.O2    1  UNL1        0.0611
     11  O1        -1.9500    1.7920   -2.5670 O.2     1  UNL1       -0.1528
     12  O2        -2.1010    3.1180   -0.5580 O.2     1  UNL1       -0.1528
     13  N1        -3.5020    0.9220   -0.5570 N.3     1  UNL1       -0.1738
     14  C10       -3.5510    1.0780    0.8860 C.3     1  UNL1        0.0208
     15  C11       -4.9330    0.6350    1.3210 C.3     1  UNL1       -0.0385
     16  C12       -4.9760   -0.8630    1.1270 C.3     1  UNL1       -0.0504
     17  C13       -4.4870   -1.3160   -0.1880 C.3     1  UNL1       -0.0359
     18  C14       -3.4800   -0.4710   -0.8670 C.3     1  UNL1        0.0291
     19  C15       -3.6650   -0.6910   -2.3770 C.3     1  UNL1       -0.0478
     20  C16       -0.0230   -0.0960   -1.0110 C.ar    1  UNL1       -0.0351
     21  C17        1.0700   -0.6760   -0.4140 C.ar    1  UNL1       -0.0564
     22  C18        4.4790    0.8490    1.3550 C.ar    1  UNL1        0.2682
     23  O3         3.9070    1.5570    2.2140 O.2     1  UNL1       -0.2661
     24  N2         5.6610    1.3100    0.8540 N.ar    1  UNL1       -0.2428
     25  N3         6.3460    0.6480   -0.0520 N.ar    1  UNL1       -0.1762
     26 H           6.2137   -2.1745   -1.8320 H       1  UNL1        0.0293
     27 H           7.6890   -1.4970   -1.1859 H       1  UNL1        0.0293
     28 H           6.8234   -0.6585   -2.4511 H       1  UNL1        0.0293
     29 H           4.3888   -1.9198   -0.4158 H       1  UNL1        0.0640
     30 H           2.6724   -0.7638    2.4669 H       1  UNL1        0.0363
     31 H           2.6639   -1.9239    1.1246 H       1  UNL1        0.0363
     32 H           1.2137    1.1308    2.3801 H       1  UNL1        0.0621
     33 H          -0.7007    2.1421    1.3303 H       1  UNL1        0.0637
     34 H          -3.3902    2.1017    1.1526 H       1  UNL1        0.0444
     35 H          -2.7905    0.4963    1.3637 H       1  UNL1        0.0444
     36 H          -5.6807    1.1085    0.7197 H       1  UNL1        0.0278
     37 H          -5.1256    0.9020    2.3391 H       1  UNL1        0.0278
     38 H          -5.9898   -1.1868    1.2378 H       1  UNL1        0.0266
     39 H          -4.3229   -1.2871    1.8608 H       1  UNL1        0.0266
     40 H          -5.3341   -1.3905   -0.8374 H       1  UNL1        0.0281
     41 H          -3.9820   -2.2383    0.0103 H       1  UNL1        0.0281
     42 H          -2.5205   -0.7787   -0.5071 H       1  UNL1        0.0477
     43 H          -4.6411   -0.3635   -2.6682 H       1  UNL1        0.0245
     44 H          -3.5561   -1.7314   -2.6018 H       1  UNL1        0.0245
     45 H          -2.9266   -0.1312   -2.9121 H       1  UNL1        0.0245
     46 H          -0.3596   -0.4269   -1.9287 H       1  UNL1        0.0637
     47 H           1.5579   -1.4505   -0.8907 H       1  UNL1        0.0621
     48 H           6.0135    2.1686    1.1824 H       1  UNL1        0.1921
@<TRIPOS>BOND
     1     1     2    1
     2     2     3   ar
     3     2    25   ar
     4     3     4   ar
     5     4     5    1
     6     4    22   ar
     7     5     6    1
     8     6     7   ar
     9     6    21   ar
    10     7     8   ar
    11     8     9   ar
    12     9    10    1
    13     9    20   ar
    14    10    11    2
    15    10    12    2
    16    10    13    1
    17    13    14    1
    18    13    18    1
    19    14    15    1
    20    15    16    1
    21    16    17    1
    22    17    18    1
    23    18    19    1
    24    20    21   ar
    25    22    23    2
    26    22    24   ar
    27    24    25   ar
    28     1    26    1
    29     1    27    1
    30     1    28    1
    31     3    29    1
    32     5    30    1
    33     5    31    1
    34     7    32    1
    35     8    33    1
    36    14    34    1
    37    14    35    1
    38    15    36    1
    39    15    37    1
    40    16    38    1
    41    16    39    1
    42    17    40    1
    43    17    41    1
    44    18    42    1
    45    19    43    1
    46    19    44    1
    47    19    45    1
    48    20    46    1
    49    21    47    1
    50    24    48    1
@<TRIPOS>MOLECULE
../data/bude_mols_rdkit_confs/molecule_3.pdb
 48 50 0 0 0
SMALL
GASTEIGER

@<TRIPOS>ATOM
      1  C1         8.0820   -0.7250   -0.2880 C.3     1  UNL1       -0.0207
      2  C2         6.6860   -0.1980   -0.1350 C.ar    1  UNL1        0.0588
      3  C3         5.6040   -1.0390   -0.2550 C.ar    1  UNL1       -0.0303
      4  C4         4.3360   -0.5090   -0.1070 C.ar    1  UNL1        0.0243
      5  C5         3.1830   -1.4250   -0.2380 C.3     1  UNL1        0.0028
      6  C6         1.8880   -0.7490   -0.0590 C.ar    1  UNL1       -0.0428
      7  C7         1.2760   -0.6280    1.1860 C.ar    1  UNL1       -0.0564
      8  C8         0.0620    0.0120    1.3090 C.ar    1  UNL1       -0.0351
      9  C9        -0.5840    0.5500    0.2160 C.ar    1  UNL1        0.1055
     10  S1        -2.1320    1.3690    0.3580 S.O2    1  UNL1        0.0611
     11  O1        -2.2480    2.5030   -0.5970 O.2     1  UNL1       -0.1528
     12  O2        -2.2110    1.9070    1.7540 O.2     1  UNL1       -0.1528
     13  N1        -3.3570    0.1850    0.1570 N.3     1  UNL1       -0.1738
     14  C10       -3.3130   -0.4480   -1.1360 C.3     1  UNL1        0.0208
     15  C11       -4.6260   -1.1380   -1.4330 C.3     1  UNL1       -0.0385
     16  C12       -5.3180   -1.6060   -0.1820 C.3     1  UNL1       -0.0504
     17  C13       -5.5360   -0.5100    0.8230 C.3     1  UNL1       -0.0359
     18  C14       -4.6830    0.6830    0.3720 C.3     1  UNL1        0.0291
     19  C15       -4.7580    1.7900    1.3910 C.3     1  UNL1       -0.0478
     20  C16       -0.0040    0.4430   -1.0080 C.ar    1  UNL1       -0.0351
     21  C17        1.2040   -0.1920   -1.1440 C.ar    1  UNL1       -0.0564
     22  C18        4.1600    0.8250    0.1540 C.ar    1  UNL1        0.2682
     23  O3         3.0270    1.3020    0.2880 O.2     1  UNL1       -0.2661
     24  N2         5.2850    1.5880    0.2580 N.ar    1  UNL1       -0.2428
     25  N3         6.4900    1.1010    0.1200 N.ar    1  UNL1       -0.1762
     26 H           8.0468   -1.7757   -0.4870 H       1  UNL1        0.0293
     27 H           8.6298   -0.5511    0.6145 H       1  UNL1        0.0293
     28 H           8.5653   -0.2241   -1.1007 H       1  UNL1        0.0293
     29 H           5.7361   -2.0435   -0.4512 H       1  UNL1        0.0640
     30 H           3.2719   -2.1929    0.5018 H       1  UNL1        0.0363
     31 H           3.2017   -1.8229   -1.2311 H       1  UNL1        0.0363
     32 H           1.7351   -1.0206    2.0227 H       1  UNL1        0.0621
     33 H          -0.3740    0.0905    2.2411 H       1  UNL1        0.0637
     34 H          -2.5246   -1.1714   -1.1473 H       1  UNL1        0.0444
     35 H          -3.1385    0.2995   -1.8815 H       1  UNL1        0.0444
     36 H          -4.4364   -1.9847   -2.0591 H       1  UNL1        0.0278
     37 H          -5.2663   -0.4308   -1.9175 H       1  UNL1        0.0278
     38 H          -4.7201   -2.3686    0.2717 H       1  UNL1        0.0266
     39 H          -6.2828   -1.9678   -0.4703 H       1  UNL1        0.0266
     40 H          -5.2291   -0.8354    1.7950 H       1  UNL1        0.0281
     41 H          -6.5704   -0.2421    0.8798 H       1  UNL1        0.0281
     42 H          -5.0384    1.1166   -0.5394 H       1  UNL1        0.0477
     43 H          -4.4150    1.4274    2.3374 H       1  UNL1        0.0245
     44 H          -5.7709    2.1227    1.4823 H       1  UNL1        0.0245
     45 H          -4.1414    2.6062    1.0770 H       1  UNL1        0.0245
     46 H          -0.4733    0.8403   -1.8368 H       1  UNL1        0.0637
     47 H           1.6246   -0.2615   -2.0838 H       1  UNL1        0.0621
     48 H           5.1852    2.5493    0.4455 H       1  UNL1        0.1921
@<TRIPOS>BOND
     1     1     2    1
     2     2     3   ar
     3     2    25   ar
     4     3     4   ar
     5     4     5    1
     6     4    22   ar
     7     5     6    1
     8     6     7   ar
     9     6    21   ar
    10     7     8   ar
    11     8     9   ar
    12     9    10    1
    13     9    20   ar
    14    10    11    2
    15    10    12    2
    16    10    13    1
    17    13    14    1
    18    13    18    1
    19    14    15    1
    20    15    16    1
    21    16    17    1
    22    17    18    1
    23    18    19    1
    24    20    21   ar
    25    22    23    2
    26    22    24   ar
    27    24    25   ar
    28     1    26    1
    29     1    27    1
    30     1    28    1
    31     3    29    1
    32     5    30    1
    33     5    31    1
    34     7    32    1
    35     8    33    1
    36    14    34    1
    37    14    35    1
    38    15    36    1
    39    15    37    1
    40    16    38    1
    41    16    39    1
    42    17    40    1
    43    17    41    1
    44    18    42    1
    45    19    43    1
    46    19    44    1
    47    19    45    1
    48    20    46    1
    49    21    47    1
    50    24    48    1
@<TRIPOS>MOLECULE
../data/bude_mols_rdkit_confs/molecule_3.pdb
 48 50 0 0 0
SMALL
GASTEIGER

@<TRIPOS>ATOM
      1  C1         6.5440    1.1220    2.3680 C.3     1  UNL1       -0.0207
      2  C2         5.9040    0.6530    1.0940 C.ar    1  UNL1        0.0588
      3  C3         4.8110   -0.1780    1.1310 C.ar    1  UNL1       -0.0303
      4  C4         4.2460   -0.5900   -0.0800 C.ar    1  UNL1        0.0243
      5  C5         3.0710   -1.4790   -0.0390 C.3     1  UNL1        0.0028
      6  C6         1.7940   -0.7980   -0.3130 C.ar    1  UNL1       -0.0428
      7  C7         1.1380   -0.1690    0.7370 C.ar    1  UNL1       -0.0564
      8  C8        -0.0610    0.4740    0.5260 C.ar    1  UNL1       -0.0351
      9  C9        -0.6590    0.5220   -0.7250 C.ar    1  UNL1        0.1055
     10  S1        -2.1940    1.3450   -0.9960 S.O2    1  UNL1        0.0611
     11  O1        -2.1400    1.8300   -2.4430 O.2     1  UNL1       -0.1528
     12  O2        -2.2310    2.5680   -0.1570 O.2     1  UNL1       -0.1528
     13  N1        -3.5280    0.3820   -0.8010 N.3     1  UNL1       -0.1738
     14  C10       -3.6900   -0.7320   -1.6320 C.3     1  UNL1        0.0208
     15  C11       -3.8480   -2.0180   -0.8680 C.3     1  UNL1       -0.0385
     16  C12       -5.0520   -1.8720    0.0310 C.3     1  UNL1       -0.0504
     17  C13       -4.7380   -0.7620    1.0080 C.3     1  UNL1       -0.0359
     18  C14       -4.4000    0.5440    0.2770 C.3     1  UNL1        0.0291
     19  C15       -3.9990    1.5250    1.3210 C.3     1  UNL1       -0.0478
     20  C16        0.0310   -0.1170   -1.7340 C.ar    1  UNL1       -0.0351
     21  C17        1.2300   -0.7670   -1.5540 C.ar    1  UNL1       -0.0564
     22  C18        4.7660   -0.1780   -1.2800 C.ar    1  UNL1        0.2682
     23  O3         4.3100   -0.5090   -2.3950 O.2     1  UNL1       -0.2661
     24  N2         5.8470    0.6430   -1.2430 N.ar    1  UNL1       -0.2428
     25  N3         6.3750    1.0280   -0.0970 N.ar    1  UNL1       -0.1762
     26 H           6.0181    0.7102    3.2039 H       1  UNL1        0.0293
     27 H           6.5062    2.1903    2.4139 H       1  UNL1        0.0293
     28 H           7.5640    0.7998    2.3944 H       1  UNL1        0.0293
     29 H           4.4159   -0.4910    2.0315 H       1  UNL1        0.0640
     30 H           3.0156   -1.9185    0.9350 H       1  UNL1        0.0363
     31 H           3.2060   -2.2060   -0.8124 H       1  UNL1        0.0363
     32 H           1.5522   -0.1836    1.6821 H       1  UNL1        0.0621
     33 H          -0.5290    0.9341    1.3224 H       1  UNL1        0.0637
     34 H          -2.8301   -0.8141   -2.2634 H       1  UNL1        0.0444
     35 H          -4.5871   -0.5827   -2.1957 H       1  UNL1        0.0444
     36 H          -2.9737   -2.2021   -0.2793 H       1  UNL1        0.0278
     37 H          -3.9794   -2.8399   -1.5403 H       1  UNL1        0.0278
     38 H          -5.2311   -2.7861    0.5576 H       1  UNL1        0.0266
     39 H          -5.9295   -1.6451   -0.5377 H       1  UNL1        0.0266
     40 H          -3.9012   -1.0522    1.6083 H       1  UNL1        0.0281
     41 H          -5.6010   -0.5944    1.6180 H       1  UNL1        0.0281
     42 H          -5.2536    0.9338   -0.2372 H       1  UNL1        0.0477
     43 H          -3.1451    1.1549    1.8490 H       1  UNL1        0.0245
     44 H          -4.8082    1.6672    2.0065 H       1  UNL1        0.0245
     45 H          -3.7552    2.4585    0.8584 H       1  UNL1        0.0245
     46 H          -0.3771   -0.1069   -2.6818 H       1  UNL1        0.0637
     47 H           1.6981   -1.2267   -2.3506 H       1  UNL1        0.0621
     48 H           6.2442    0.9568   -2.0874 H       1  UNL1        0.1921
@<TRIPOS>BOND
     1     1     2    1
     2     2     3   ar
     3     2    25   ar
     4     3     4   ar
     5     4     5    1
     6     4    22   ar
     7     5     6    1
     8     6     7   ar
     9     6    21   ar
    10     7     8   ar
    11     8     9   ar
    12     9    10    1
    13     9    20   ar
    14    10    11    2
    15    10    12    2
    16    10    13    1
    17    13    14    1
    18    13    18    1
    19    14    15    1
    20    15    16    1
    21    16    17    1
    22    17    18    1
    23    18    19    1
    24    20    21   ar
    25    22    23    2
    26    22    24   ar
    27    24    25   ar
    28     1    26    1
    29     1    27    1
    30     1    28    1
    31     3    29    1
    32     5    30    1
    33     5    31    1
    34     7    32    1
    35     8    33    1
    36    14    34    1
    37    14    35    1
    38    15    36    1
    39    15    37    1
    40    16    38    1
    41    16    39    1
    42    17    40    1
    43    17    41    1
    44    18    42    1
    45    19    43    1
    46    19    44    1
    47    19    45    1
    48    20    46    1
    49    21    47    1
    50    24    48    1
@<TRIPOS>MOLECULE
../data/bude_mols_rdkit_confs/molecule_3.pdb
 48 50 0 0 0
SMALL
GASTEIGER

@<TRIPOS>ATOM
      1  C1         7.1430   -1.5290    0.4480 C.3     1  UNL1       -0.0207
      2  C2         6.2440   -0.4920   -0.1710 C.ar    1  UNL1        0.0588
      3  C3         5.0980   -0.8230   -0.8430 C.ar    1  UNL1       -0.0303
      4  C4         4.2500    0.1310   -1.4210 C.ar    1  UNL1        0.0243
      5  C5         3.0140   -0.2940   -2.1330 C.3     1  UNL1        0.0028
      6  C6         1.8510   -0.0670   -1.2630 C.ar    1  UNL1       -0.0428
      7  C7         1.5150   -1.0210   -0.2980 C.ar    1  UNL1       -0.0564
      8  C8         0.4380   -0.8300    0.5110 C.ar    1  UNL1       -0.0351
      9  C9        -0.3240    0.3300    0.3630 C.ar    1  UNL1        0.1055
     10  S1        -1.7040    0.5230    1.4450 S.O2    1  UNL1        0.0611
     11  O1        -1.9630    2.0190    1.4930 O.2     1  UNL1       -0.1528
     12  O2        -1.2970   -0.0180    2.7650 O.2     1  UNL1       -0.1528
     13  N1        -3.0370   -0.2550    0.7520 N.3     1  UNL1       -0.1738
     14  C10       -3.4330    0.2750   -0.4960 C.3     1  UNL1        0.0208
     15  C11       -4.5620    1.2660   -0.4690 C.3     1  UNL1       -0.0385
     16  C12       -5.6490    0.9450    0.4970 C.3     1  UNL1       -0.0504
     17  C13       -5.1750    0.4090    1.8050 C.3     1  UNL1       -0.0359
     18  C14       -4.0970   -0.6130    1.6280 C.3     1  UNL1        0.0291
     19  C15       -4.7680   -1.8600    1.0370 C.3     1  UNL1       -0.0478
     20  C16       -0.0050    1.2760   -0.5830 C.ar    1  UNL1       -0.0351
     21  C17        1.1030    1.0780   -1.4140 C.ar    1  UNL1       -0.0564
     22  C18        4.6360    1.4440   -1.2750 C.ar    1  UNL1        0.2682
     23  O3         3.9580    2.3680   -1.7480 O.2     1  UNL1       -0.2661
     24  N2         5.7820    1.7440   -0.6000 N.ar    1  UNL1       -0.2428
     25  N3         6.5540    0.8210   -0.0710 N.ar    1  UNL1       -0.1762
     26 H           6.7398   -2.5037    0.2682 H       1  UNL1        0.0293
     27 H           7.2097   -1.3596    1.5024 H       1  UNL1        0.0293
     28 H           8.1184   -1.4607    0.0134 H       1  UNL1        0.0293
     29 H           4.8473   -1.8205   -0.9277 H       1  UNL1        0.0640
     30 H           3.0811   -1.3338   -2.3763 H       1  UNL1        0.0363
     31 H           2.9051    0.2740   -3.0332 H       1  UNL1        0.0363
     32 H           2.0868   -1.8744   -0.1988 H       1  UNL1        0.0621
     33 H           0.1880   -1.5329    1.2241 H       1  UNL1        0.0637
     34 H          -3.7317   -0.5429   -1.1178 H       1  UNL1        0.0444
     35 H          -2.5849    0.8177   -0.8581 H       1  UNL1        0.0444
     36 H          -4.9895    1.3109   -1.4489 H       1  UNL1        0.0278
     37 H          -4.1399    2.1963   -0.1507 H       1  UNL1        0.0278
     38 H          -6.2895    0.2145    0.0488 H       1  UNL1        0.0266
     39 H          -6.1497    1.8665    0.7091 H       1  UNL1        0.0266
     40 H          -6.0006   -0.0429    2.3140 H       1  UNL1        0.0281
     41 H          -4.7727    1.2224    2.3720 H       1  UNL1        0.0281
     42 H          -3.6483   -0.7464    2.5902 H       1  UNL1        0.0477
     43 H          -5.1830   -1.6220    0.0799 H       1  UNL1        0.0245
     44 H          -5.5474   -2.1898    1.6917 H       1  UNL1        0.0245
     45 H          -4.0415   -2.6378    0.9273 H       1  UNL1        0.0245
     46 H          -0.5800    2.1275   -0.6794 H       1  UNL1        0.0637
     47 H           1.3551    1.7790   -2.1282 H       1  UNL1        0.0621
     48 H           6.0414    2.6889   -0.5051 H       1  UNL1        0.1921
@<TRIPOS>BOND
     1     1     2    1
     2     2     3   ar
     3     2    25   ar
     4     3     4   ar
     5     4     5    1
     6     4    22   ar
     7     5     6    1
     8     6     7   ar
     9     6    21   ar
    10     7     8   ar
    11     8     9   ar
    12     9    10    1
    13     9    20   ar
    14    10    11    2
    15    10    12    2
    16    10    13    1
    17    13    14    1
    18    13    18    1
    19    14    15    1
    20    15    16    1
    21    16    17    1
    22    17    18    1
    23    18    19    1
    24    20    21   ar
    25    22    23    2
    26    22    24   ar
    27    24    25   ar
    28     1    26    1
    29     1    27    1
    30     1    28    1
    31     3    29    1
    32     5    30    1
    33     5    31    1
    34     7    32    1
    35     8    33    1
    36    14    34    1
    37    14    35    1
    38    15    36    1
    39    15    37    1
    40    16    38    1
    41    16    39    1
    42    17    40    1
    43    17    41    1
    44    18    42    1
    45    19    43    1
    46    19    44    1
    47    19    45    1
    48    20    46    1
    49    21    47    1
    50    24    48    1
@<TRIPOS>MOLECULE
../data/bude_mols_rdkit_confs/molecule_3.pdb
 48 50 0 0 0
SMALL
GASTEIGER

@<TRIPOS>ATOM
      1  C1         5.8560    0.9450    1.2470 C.3     1  UNL1       -0.0207
      2  C2         5.5050   -0.0880    0.2470 C.ar    1  UNL1        0.0588
      3  C3         4.1830   -0.3300   -0.0690 C.ar    1  UNL1       -0.0303
      4  C4         3.9110   -1.2960   -1.0010 C.ar    1  UNL1        0.0243
      5  C5         2.5470   -1.6650   -1.4400 C.3     1  UNL1        0.0028
      6  C6         1.5010   -0.8830   -0.7710 C.ar    1  UNL1       -0.0428
      7  C7         0.9580   -1.3470    0.4160 C.ar    1  UNL1       -0.0564
      8  C8        -0.0260   -0.6280    1.0600 C.ar    1  UNL1       -0.0351
      9  C9        -0.5150    0.5560    0.5810 C.ar    1  UNL1        0.1055
     10  S1        -1.7500    1.3860    1.4600 S.O2    1  UNL1        0.0611
     11  O1        -1.5580    1.0170    2.9290 O.2     1  UNL1       -0.1528
     12  O2        -1.5330    2.8960    1.4340 O.2     1  UNL1       -0.1528
     13  N1        -3.3290    0.9590    1.0400 N.3     1  UNL1       -0.1738
     14  C10       -3.5300   -0.4460    1.3150 C.3     1  UNL1        0.0208
     15  C11       -3.3500   -1.1900    0.0010 C.3     1  UNL1       -0.0385
     16  C12       -4.5850   -0.8840   -0.8220 C.3     1  UNL1       -0.0504
     17  C13       -4.9230    0.5830   -0.8030 C.3     1  UNL1       -0.0359
     18  C14       -3.8150    1.4240   -0.1990 C.3     1  UNL1        0.0291
     19  C15       -4.2950    2.8460   -0.2060 C.3     1  UNL1       -0.0478
     20  C16        0.0230    1.0260   -0.6040 C.ar    1  UNL1       -0.0351
     21  C17        1.0050    0.3110   -1.2490 C.ar    1  UNL1       -0.0564
     22  C18        4.9690   -1.9700   -1.5670 C.ar    1  UNL1        0.2682
     23  O3         4.7980   -2.8740   -2.4340 O.2     1  UNL1       -0.2661
     24  N2         6.2500   -1.6930   -1.2200 N.ar    1  UNL1       -0.2428
     25  N3         6.5220   -0.7650   -0.3250 N.ar    1  UNL1       -0.1762
     26 H           4.9618    1.4007    1.6180 H       1  UNL1        0.0293
     27 H           6.4724    1.6900    0.7889 H       1  UNL1        0.0293
     28 H           6.3876    0.4911    2.0571 H       1  UNL1        0.0293
     29 H           3.4226    0.2011    0.3835 H       1  UNL1        0.0640
     30 H           2.3881   -2.7013   -1.2261 H       1  UNL1        0.0363
     31 H           2.4804   -1.4601   -2.4881 H       1  UNL1        0.0363
     32 H           1.2920   -2.2358    0.8203 H       1  UNL1        0.0621
     33 H          -0.4107   -0.9995    1.9426 H       1  UNL1        0.0637
     34 H          -4.5167   -0.6078    1.6960 H       1  UNL1        0.0444
     35 H          -2.8323   -0.7939    2.0479 H       1  UNL1        0.0444
     36 H          -3.2714   -2.2425    0.1770 H       1  UNL1        0.0278
     37 H          -2.4566   -0.8861   -0.5033 H       1  UNL1        0.0278
     38 H          -5.4114   -1.4346   -0.4235 H       1  UNL1        0.0266
     39 H          -4.3865   -1.1655   -1.8351 H       1  UNL1        0.0266
     40 H          -5.8136    0.7229   -0.2267 H       1  UNL1        0.0281
     41 H          -5.0576    0.8998   -1.8161 H       1  UNL1        0.0281
     42 H          -2.9303    1.3449   -0.7956 H       1  UNL1        0.0477
     43 H          -5.1798    2.9267    0.3903 H       1  UNL1        0.0245
     44 H          -4.5133    3.1438   -1.2103 H       1  UNL1        0.0245
     45 H          -3.5341    3.4813    0.1970 H       1  UNL1        0.0245
     46 H          -0.3135    1.9154   -1.0049 H       1  UNL1        0.0637
     47 H           1.3880    0.6855   -2.1311 H       1  UNL1        0.0621
     48 H           6.9865   -2.1916   -1.6422 H       1  UNL1        0.1921
@<TRIPOS>BOND
     1     1     2    1
     2     2     3   ar
     3     2    25   ar
     4     3     4   ar
     5     4     5    1
     6     4    22   ar
     7     5     6    1
     8     6     7   ar
     9     6    21   ar
    10     7     8   ar
    11     8     9   ar
    12     9    10    1
    13     9    20   ar
    14    10    11    2
    15    10    12    2
    16    10    13    1
    17    13    14    1
    18    13    18    1
    19    14    15    1
    20    15    16    1
    21    16    17    1
    22    17    18    1
    23    18    19    1
    24    20    21   ar
    25    22    23    2
    26    22    24   ar
    27    24    25   ar
    28     1    26    1
    29     1    27    1
    30     1    28    1
    31     3    29    1
    32     5    30    1
    33     5    31    1
    34     7    32    1
    35     8    33    1
    36    14    34    1
    37    14    35    1
    38    15    36    1
    39    15    37    1
    40    16    38    1
    41    16    39    1
    42    17    40    1
    43    17    41    1
    44    18    42    1
    45    19    43    1
    46    19    44    1
    47    19    45    1
    48    20    46    1
    49    21    47    1
    50    24    48    1
@<TRIPOS>MOLECULE
../data/bude_mols_rdkit_confs/molecule_3.pdb
 48 50 0 0 0
SMALL
GASTEIGER

@<TRIPOS>ATOM
      1  C1        -6.8010    1.6200   -1.6980 C.3     1  UNL1       -0.0207
      2  C2        -6.1210    0.6180   -0.8340 C.ar    1  UNL1        0.0588
      3  C3        -5.0230    0.9910   -0.1090 C.ar    1  UNL1       -0.0303
      4  C4        -4.4110    0.0340    0.6870 C.ar    1  UNL1        0.0243
      5  C5        -3.2350    0.4490    1.4540 C.3     1  UNL1        0.0028
      6  C6        -1.9420   -0.0040    0.8840 C.ar    1  UNL1       -0.0428
      7  C7        -1.3250    0.7800   -0.1010 C.ar    1  UNL1       -0.0564
      8  C8        -0.1250    0.3920   -0.6490 C.ar    1  UNL1       -0.0351
      9  C9         0.5180   -0.7660   -0.2610 C.ar    1  UNL1        0.1055
     10  S1         2.0520   -1.2010   -1.0060 S.O2    1  UNL1        0.0611
     11  O1         1.9720   -0.8440   -2.4370 O.2     1  UNL1       -0.1528
     12  O2         2.1170   -2.7210   -0.9350 O.2     1  UNL1       -0.1528
     13  N1         3.3500   -0.5700   -0.1640 N.3     1  UNL1       -0.1738
     14  C10        3.5270   -0.9820    1.1760 C.3     1  UNL1        0.0208
     15  C11        4.9640   -0.8440    1.6310 C.3     1  UNL1       -0.0385
     16  C12        5.3630    0.5970    1.4930 C.3     1  UNL1       -0.0504
     17  C13        4.4490    1.3900    0.6150 C.3     1  UNL1       -0.0359
     18  C14        3.9490    0.6250   -0.5930 C.3     1  UNL1        0.0291
     19  C15        5.0590    0.4610   -1.5980 C.3     1  UNL1       -0.0478
     20  C16       -0.0690   -1.5490    0.7030 C.ar    1  UNL1       -0.0351
     21  C17       -1.2830   -1.1520    1.2540 C.ar    1  UNL1       -0.0564
     22  C18       -4.9200   -1.2330    0.7180 C.ar    1  UNL1        0.2682
     23  O3        -4.3790   -2.1180    1.4340 O.2     1  UNL1       -0.2661
     24  N2        -6.0180   -1.5820   -0.0170 N.ar    1  UNL1       -0.2428
     25  N3        -6.5750   -0.6440   -0.7630 N.ar    1  UNL1       -0.1762
     26 H          -6.2951    2.5596   -1.6205 H       1  UNL1        0.0293
     27 H          -7.8163    1.7344   -1.3804 H       1  UNL1        0.0293
     28 H          -6.7807    1.2867   -2.7146 H       1  UNL1        0.0293
     29 H          -4.6604    1.9562   -0.1529 H       1  UNL1        0.0640
     30 H          -3.3228    0.0509    2.4433 H       1  UNL1        0.0363
     31 H          -3.2195    1.5187    1.4356 H       1  UNL1        0.0363
     32 H          -1.7742    1.6538   -0.4168 H       1  UNL1        0.0621
     33 H           0.3086    0.9855   -1.3734 H       1  UNL1        0.0637
     34 H           3.2350   -2.0077    1.2627 H       1  UNL1        0.0444
     35 H           2.9240   -0.3520    1.7960 H       1  UNL1        0.0444
     36 H           5.5971   -1.4551    1.0222 H       1  UNL1        0.0278
     37 H           5.0614   -1.1588    2.6490 H       1  UNL1        0.0278
     38 H           6.3487    0.6368    1.0787 H       1  UNL1        0.0266
     39 H           5.3141    1.0309    2.4698 H       1  UNL1        0.0266
     40 H           4.9768    2.2553    0.2721 H       1  UNL1        0.0281
     41 H           3.5910    1.6412    1.2029 H       1  UNL1        0.0281
     42 H           3.1864    1.1670   -1.1122 H       1  UNL1        0.0477
     43 H           5.8684   -0.0774   -1.1508 H       1  UNL1        0.0245
     44 H           5.4018    1.4250   -1.9113 H       1  UNL1        0.0245
     45 H           4.6953   -0.0811   -2.4458 H       1  UNL1        0.0245
     46 H           0.3853   -2.4216    1.0148 H       1  UNL1        0.0637
     47 H          -1.7109   -1.7503    1.9779 H       1  UNL1        0.0621
     48 H          -6.3802   -2.4971    0.0083 H       1  UNL1        0.1921
@<TRIPOS>BOND
     1     1     2    1
     2     2     3   ar
     3     2    25   ar
     4     3     4   ar
     5     4     5    1
     6     4    22   ar
     7     5     6    1
     8     6     7   ar
     9     6    21   ar
    10     7     8   ar
    11     8     9   ar
    12     9    10    1
    13     9    20   ar
    14    10    11    2
    15    10    12    2
    16    10    13    1
    17    13    14    1
    18    13    18    1
    19    14    15    1
    20    15    16    1
    21    16    17    1
    22    17    18    1
    23    18    19    1
    24    20    21   ar
    25    22    23    2
    26    22    24   ar
    27    24    25   ar
    28     1    26    1
    29     1    27    1
    30     1    28    1
    31     3    29    1
    32     5    30    1
    33     5    31    1
    34     7    32    1
    35     8    33    1
    36    14    34    1
    37    14    35    1
    38    15    36    1
    39    15    37    1
    40    16    38    1
    41    16    39    1
    42    17    40    1
    43    17    41    1
    44    18    42    1
    45    19    43    1
    46    19    44    1
    47    19    45    1
    48    20    46    1
    49    21    47    1
    50    24    48    1
@<TRIPOS>MOLECULE
../data/bude_mols_rdkit_confs/molecule_3.pdb
 48 50 0 0 0
SMALL
GASTEIGER

@<TRIPOS>ATOM
      1  C1         6.3180    1.5380   -1.0220 C.3     1  UNL1       -0.0207
      2  C2         5.4110    1.3420    0.1310 C.ar    1  UNL1        0.0588
      3  C3         4.8690    0.0980    0.3550 C.ar    1  UNL1       -0.0303
      4  C4         4.0230   -0.0460    1.4460 C.ar    1  UNL1        0.0243
      5  C5         3.4210   -1.3650    1.7120 C.3     1  UNL1        0.0028
      6  C6         2.0060   -1.4480    1.3040 C.ar    1  UNL1       -0.0428
      7  C7         1.7090   -1.7670   -0.0190 C.ar    1  UNL1       -0.0564
      8  C8         0.4260   -1.8680   -0.4630 C.ar    1  UNL1       -0.0351
      9  C9        -0.6420   -1.6530    0.4030 C.ar    1  UNL1        0.1055
     10  S1        -2.2960   -1.7840   -0.1580 S.O2    1  UNL1        0.0611
     11  O1        -3.1330   -2.1650    1.0460 O.2     1  UNL1       -0.1528
     12  O2        -2.4120   -2.8690   -1.1580 O.2     1  UNL1       -0.1528
     13  N1        -2.8460   -0.2730   -0.7200 N.3     1  UNL1       -0.1738
     14  C10       -2.8640    0.7500    0.2580 C.3     1  UNL1        0.0208
     15  C11       -4.0700    1.6070    0.3410 C.3     1  UNL1       -0.0385
     16  C12       -4.6750    1.9810   -0.9800 C.3     1  UNL1       -0.0504
     17  C13       -4.2610    1.0470   -2.0930 C.3     1  UNL1       -0.0359
     18  C14       -4.0810   -0.3280   -1.4320 C.3     1  UNL1        0.0291
     19  C15       -4.0910   -1.3960   -2.5060 C.3     1  UNL1       -0.0478
     20  C16       -0.3360   -1.3420    1.6970 C.ar    1  UNL1       -0.0351
     21  C17        0.9700   -1.2350    2.1640 C.ar    1  UNL1       -0.0564
     22  C18        3.7850    1.0440    2.2200 C.ar    1  UNL1        0.2682
     23  O3         3.0260    0.9920    3.2320 O.2     1  UNL1       -0.2661
     24  N2         4.3510    2.2420    1.9460 N.ar    1  UNL1       -0.2428
     25  N3         5.1530    2.3940    0.9170 N.ar    1  UNL1       -0.1762
     26 H           6.4265    0.6145   -1.5515 H       1  UNL1        0.0293
     27 H           7.2754    1.8628   -0.6715 H       1  UNL1        0.0293
     28 H           5.9079    2.2784   -1.6766 H       1  UNL1        0.0293
     29 H           5.0833   -0.6987   -0.2650 H       1  UNL1        0.0640
     30 H           3.4850   -1.5631    2.7615 H       1  UNL1        0.0363
     31 H           3.9623   -2.0851    1.1347 H       1  UNL1        0.0363
     32 H           2.4833   -1.9314   -0.6812 H       1  UNL1        0.0621
     33 H           0.2438   -2.1061   -1.4505 H       1  UNL1        0.0637
     34 H          -2.0298    1.3914    0.0640 H       1  UNL1        0.0444
     35 H          -2.8394    0.2292    1.1924 H       1  UNL1        0.0444
     36 H          -3.8017    2.5089    0.8503 H       1  UNL1        0.0278
     37 H          -4.8104    1.0317    0.8565 H       1  UNL1        0.0278
     38 H          -4.3631    2.9732   -1.2313 H       1  UNL1        0.0266
     39 H          -5.7383    1.9153   -0.8801 H       1  UNL1        0.0266
     40 H          -3.3416    1.3736   -2.5323 H       1  UNL1        0.0281
     41 H          -4.9888    1.0176   -2.8768 H       1  UNL1        0.0281
     42 H          -4.8699   -0.5710   -0.7512 H       1  UNL1        0.0477
     43 H          -3.3151   -1.1960   -3.2151 H       1  UNL1        0.0245
     44 H          -5.0383   -1.3927   -3.0034 H       1  UNL1        0.0245
     45 H          -3.9266   -2.3538   -2.0581 H       1  UNL1        0.0245
     46 H          -1.1101   -1.1787    2.3597 H       1  UNL1        0.0637
     47 H           1.1527   -0.9968    3.1514 H       1  UNL1        0.0621
     48 H           4.1585    3.0126    2.5276 H       1  UNL1        0.1921
@<TRIPOS>BOND
     1     1     2    1
     2     2     3   ar
     3     2    25   ar
     4     3     4   ar
     5     4     5    1
     6     4    22   ar
     7     5     6    1
     8     6     7   ar
     9     6    21   ar
    10     7     8   ar
    11     8     9   ar
    12     9    10    1
    13     9    20   ar
    14    10    11    2
    15    10    12    2
    16    10    13    1
    17    13    14    1
    18    13    18    1
    19    14    15    1
    20    15    16    1
    21    16    17    1
    22    17    18    1
    23    18    19    1
    24    20    21   ar
    25    22    23    2
    26    22    24   ar
    27    24    25   ar
    28     1    26    1
    29     1    27    1
    30     1    28    1
    31     3    29    1
    32     5    30    1
    33     5    31    1
    34     7    32    1
    35     8    33    1
    36    14    34    1
    37    14    35    1
    38    15    36    1
    39    15    37    1
    40    16    38    1
    41    16    39    1
    42    17    40    1
    43    17    41    1
    44    18    42    1
    45    19    43    1
    46    19    44    1
    47    19    45    1
    48    20    46    1
    49    21    47    1
    50    24    48    1
@<TRIPOS>MOLECULE
../data/bude_mols_rdkit_confs/molecule_3.pdb
 48 50 0 0 0
SMALL
GASTEIGER

@<TRIPOS>ATOM
      1  C1         6.0560    2.6210   -0.1860 C.3     1  UNL1       -0.0207
      2  C2         5.4760    1.3600    0.3640 C.ar    1  UNL1        0.0588
      3  C3         4.8330    0.4770   -0.4590 C.ar    1  UNL1       -0.0303
      4  C4         4.2790   -0.7120    0.0320 C.ar    1  UNL1        0.0243
      5  C5         3.5900   -1.6210   -0.9140 C.3     1  UNL1        0.0028
      6  C6         2.1040   -1.5300   -0.8250 C.ar    1  UNL1       -0.0428
      7  C7         1.3390   -2.3560   -0.0360 C.ar    1  UNL1       -0.0564
      8  C8        -0.0470   -2.2510    0.0350 C.ar    1  UNL1       -0.0351
      9  C9        -0.7230   -1.2980   -0.6950 C.ar    1  UNL1        0.1055
     10  S1        -2.4660   -1.1640   -0.6050 S.O2    1  UNL1        0.0611
     11  O1        -3.0620   -2.5160   -0.2300 O.2     1  UNL1       -0.1528
     12  O2        -3.0600   -0.8330   -1.9510 O.2     1  UNL1       -0.1528
     13  N1        -2.8860   -0.0730    0.6210 N.3     1  UNL1       -0.1738
     14  C10       -2.4180    1.2630    0.4420 C.3     1  UNL1        0.0208
     15  C11       -3.1590    1.9950   -0.6530 C.3     1  UNL1       -0.0385
     16  C12       -4.6160    2.0530   -0.2800 C.3     1  UNL1       -0.0504
     17  C13       -5.1190    0.6360   -0.0990 C.3     1  UNL1       -0.0359
     18  C14       -4.2850   -0.0570    0.9560 C.3     1  UNL1        0.0291
     19  C15       -4.8480   -1.4030    1.2700 C.3     1  UNL1       -0.0478
     20  C16        0.0370   -0.4640   -1.4900 C.ar    1  UNL1       -0.0351
     21  C17        1.4090   -0.5650   -1.5630 C.ar    1  UNL1       -0.0564
     22  C18        4.4190   -0.9380    1.3820 C.ar    1  UNL1        0.2682
     23  O3         3.9360   -1.9970    1.8680 O.2     1  UNL1       -0.2661
     24  N2         5.0590   -0.0470    2.1690 N.ar    1  UNL1       -0.2428
     25  N3         5.5590    1.0470    1.6670 N.ar    1  UNL1       -0.1762
     26 H           5.8758    2.6666   -1.2397 H       1  UNL1        0.0293
     27 H           7.1102    2.6381   -0.0034 H       1  UNL1        0.0293
     28 H           5.5977    3.4621    0.2909 H       1  UNL1        0.0293
     29 H           4.7542    0.6918   -1.4653 H       1  UNL1        0.0640
     30 H           3.8844   -2.6267   -0.6975 H       1  UNL1        0.0363
     31 H           3.8718   -1.3291   -1.9041 H       1  UNL1        0.0363
     32 H           1.8108   -3.0821    0.5254 H       1  UNL1        0.0621
     33 H          -0.5757   -2.8960    0.6429 H       1  UNL1        0.0637
     34 H          -1.3784    1.2314    0.1907 H       1  UNL1        0.0444
     35 H          -2.5862    1.7913    1.3571 H       1  UNL1        0.0444
     36 H          -3.0432    1.4729   -1.5798 H       1  UNL1        0.0278
     37 H          -2.7675    2.9844   -0.7656 H       1  UNL1        0.0278
     38 H          -5.1693    2.5365   -1.0578 H       1  UNL1        0.0266
     39 H          -4.7419    2.6068    0.6268 H       1  UNL1        0.0266
     40 H          -5.0371    0.1062   -1.0250 H       1  UNL1        0.0281
     41 H          -6.1438    0.6548    0.2080 H       1  UNL1        0.0281
     42 H          -4.3401    0.5139    1.8593 H       1  UNL1        0.0477
     43 H          -4.8155   -2.0164    0.3939 H       1  UNL1        0.0245
     44 H          -5.8621   -1.2985    1.5948 H       1  UNL1        0.0245
     45 H          -4.2700   -1.8591    2.0464 H       1  UNL1        0.0245
     46 H          -0.4393    0.2607   -2.0494 H       1  UNL1        0.0637
     47 H           1.9334    0.0821   -2.1724 H       1  UNL1        0.0621
     48 H           5.1490   -0.2257    3.1330 H       1  UNL1        0.1921
@<TRIPOS>BOND
     1     1     2    1
     2     2     3   ar
     3     2    25   ar
     4     3     4   ar
     5     4     5    1
     6     4    22   ar
     7     5     6    1
     8     6     7   ar
     9     6    21   ar
    10     7     8   ar
    11     8     9   ar
    12     9    10    1
    13     9    20   ar
    14    10    11    2
    15    10    12    2
    16    10    13    1
    17    13    14    1
    18    13    18    1
    19    14    15    1
    20    15    16    1
    21    16    17    1
    22    17    18    1
    23    18    19    1
    24    20    21   ar
    25    22    23    2
    26    22    24   ar
    27    24    25   ar
    28     1    26    1
    29     1    27    1
    30     1    28    1
    31     3    29    1
    32     5    30    1
    33     5    31    1
    34     7    32    1
    35     8    33    1
    36    14    34    1
    37    14    35    1
    38    15    36    1
    39    15    37    1
    40    16    38    1
    41    16    39    1
    42    17    40    1
    43    17    41    1
    44    18    42    1
    45    19    43    1
    46    19    44    1
    47    19    45    1
    48    20    46    1
    49    21    47    1
    50    24    48    1
@<TRIPOS>MOLECULE
../data/bude_mols_rdkit_confs/molecule_3.pdb
 48 50 0 0 0
SMALL
GASTEIGER

@<TRIPOS>ATOM
      1  C1         6.8430   -1.1100    1.7330 C.3     1  UNL1       -0.0207
      2  C2         6.0700   -0.3480    0.7200 C.ar    1  UNL1        0.0588
      3  C3         5.0250   -0.8510    0.0100 C.ar    1  UNL1       -0.0303
      4  C4         4.3780   -0.0400   -0.9120 C.ar    1  UNL1        0.0243
      5  C5         3.2500   -0.5960   -1.6670 C.3     1  UNL1        0.0028
      6  C6         1.9650   -0.1180   -1.1340 C.ar    1  UNL1       -0.0428
      7  C7         1.2930    0.9490   -1.6870 C.ar    1  UNL1       -0.0564
      8  C8         0.1010    1.3610   -1.1490 C.ar    1  UNL1       -0.0351
      9  C9        -0.4410    0.7270   -0.0620 C.ar    1  UNL1        0.1055
     10  S1        -1.9740    1.2800    0.6080 S.O2    1  UNL1        0.0611
     11  O1        -1.9540    0.8990    2.0790 O.2     1  UNL1       -0.1528
     12  O2        -2.0320    2.7550    0.4260 O.2     1  UNL1       -0.1528
     13  N1        -3.2190    0.4310   -0.1820 N.3     1  UNL1       -0.1738
     14  C10       -3.0620   -0.9750    0.0810 C.3     1  UNL1        0.0208
     15  C11       -4.1480   -1.8100   -0.5550 C.3     1  UNL1       -0.0385
     16  C12       -5.4630   -1.3430    0.0350 C.3     1  UNL1       -0.0504
     17  C13       -5.6390    0.1000   -0.4030 C.3     1  UNL1       -0.0359
     18  C14       -4.5250    0.9370    0.1370 C.3     1  UNL1        0.0291
     19  C15       -4.7420    1.0940    1.6270 C.3     1  UNL1       -0.0478
     20  C16        0.2100   -0.3470    0.5150 C.ar    1  UNL1       -0.0351
     21  C17        1.4050   -0.7600   -0.0250 C.ar    1  UNL1       -0.0564
     22  C18        4.8140    1.2410   -1.0770 C.ar    1  UNL1        0.2682
     23  O3         4.2520    2.0040   -1.9040 O.2     1  UNL1       -0.2661
     24  N2         5.8680    1.7350   -0.3540 N.ar    1  UNL1       -0.2428
     25  N3         6.4340    0.9220    0.4970 N.ar    1  UNL1       -0.1762
     26 H           6.4492   -2.1019    1.8101 H       1  UNL1        0.0293
     27 H           6.7666   -0.6212    2.6818 H       1  UNL1        0.0293
     28 H           7.8703   -1.1561    1.4372 H       1  UNL1        0.0293
     29 H           4.7164   -1.8250    0.1551 H       1  UNL1        0.0640
     30 H           3.2791   -1.6636   -1.6021 H       1  UNL1        0.0363
     31 H           3.3339   -0.2771   -2.6849 H       1  UNL1        0.0363
     32 H           1.6863    1.4384   -2.5060 H       1  UNL1        0.0621
     33 H          -0.3960    2.1617   -1.5697 H       1  UNL1        0.0637
     34 H          -3.0859   -1.1304    1.1394 H       1  UNL1        0.0444
     35 H          -2.1282   -1.2814   -0.3421 H       1  UNL1        0.0444
     36 H          -3.9928   -2.8455   -0.3348 H       1  UNL1        0.0278
     37 H          -4.1440   -1.6983   -1.6191 H       1  UNL1        0.0278
     38 H          -5.4326   -1.4048    1.1028 H       1  UNL1        0.0266
     39 H          -6.2768   -1.9524   -0.2987 H       1  UNL1        0.0266
     40 H          -6.5722    0.4711   -0.0339 H       1  UNL1        0.0281
     41 H          -5.6274    0.1467   -1.4719 H       1  UNL1        0.0281
     42 H          -4.5491    1.8955   -0.3381 H       1  UNL1        0.0477
     43 H          -4.7165    0.1319    2.0945 H       1  UNL1        0.0245
     44 H          -5.6935    1.5508    1.8027 H       1  UNL1        0.0245
     45 H          -3.9694    1.7103    2.0370 H       1  UNL1        0.0245
     46 H          -0.1925   -0.8289    1.3340 H       1  UNL1        0.0637
     47 H           1.8996   -1.5613    0.3973 H       1  UNL1        0.0621
     48 H           6.1840    2.6601   -0.4707 H       1  UNL1        0.1921
@<TRIPOS>BOND
     1     1     2    1
     2     2     3   ar
     3     2    25   ar
     4     3     4   ar
     5     4     5    1
     6     4    22   ar
     7     5     6    1
     8     6     7   ar
     9     6    21   ar
    10     7     8   ar
    11     8     9   ar
    12     9    10    1
    13     9    20   ar
    14    10    11    2
    15    10    12    2
    16    10    13    1
    17    13    14    1
    18    13    18    1
    19    14    15    1
    20    15    16    1
    21    16    17    1
    22    17    18    1
    23    18    19    1
    24    20    21   ar
    25    22    23    2
    26    22    24   ar
    27    24    25   ar
    28     1    26    1
    29     1    27    1
    30     1    28    1
    31     3    29    1
    32     5    30    1
    33     5    31    1
    34     7    32    1
    35     8    33    1
    36    14    34    1
    37    14    35    1
    38    15    36    1
    39    15    37    1
    40    16    38    1
    41    16    39    1
    42    17    40    1
    43    17    41    1
    44    18    42    1
    45    19    43    1
    46    19    44    1
    47    19    45    1
    48    20    46    1
    49    21    47    1
    50    24    48    1
@<TRIPOS>MOLECULE
../data/bude_mols_rdkit_confs/molecule_3.pdb
 48 50 0 0 0
SMALL
GASTEIGER

@<TRIPOS>ATOM
      1  C1         7.1650   -1.2290    1.1890 C.3     1  UNL1       -0.0207
      2  C2         6.2680   -0.2120    0.6040 C.ar    1  UNL1        0.0588
      3  C3         5.2000   -0.5660   -0.1950 C.ar    1  UNL1       -0.0303
      4  C4         4.3600    0.3850   -0.7420 C.ar    1  UNL1        0.0243
      5  C5         3.2210   -0.0060   -1.5910 C.3     1  UNL1        0.0028
      6  C6         1.9380    0.0720   -0.8780 C.ar    1  UNL1       -0.0428
      7  C7         1.5350   -1.0000   -0.0840 C.ar    1  UNL1       -0.0564
      8  C8         0.3510   -0.9630    0.5810 C.ar    1  UNL1       -0.0351
      9  C9        -0.4520    0.1460    0.4670 C.ar    1  UNL1        0.1055
     10  S1        -1.9970    0.2430    1.3110 S.O2    1  UNL1        0.0611
     11  O1        -1.8910   -0.5010    2.6190 O.2     1  UNL1       -0.1528
     12  O2        -2.2180    1.6960    1.6310 O.2     1  UNL1       -0.1528
     13  N1        -3.1910   -0.3940    0.2930 N.3     1  UNL1       -0.1738
     14  C10       -3.3910    0.2720   -0.9420 C.3     1  UNL1        0.0208
     15  C11       -4.2790    1.4770   -0.7250 C.3     1  UNL1       -0.0385
     16  C12       -5.6490    0.9490   -0.3610 C.3     1  UNL1       -0.0504
     17  C13       -5.6390   -0.4530    0.1350 C.3     1  UNL1       -0.0359
     18  C14       -4.3970   -0.8230    0.9120 C.3     1  UNL1        0.0291
     19  C15       -4.3630   -2.3610    0.9240 C.3     1  UNL1       -0.0478
     20  C16       -0.0620    1.2060   -0.3140 C.ar    1  UNL1       -0.0351
     21  C17        1.1370    1.1750   -0.9920 C.ar    1  UNL1       -0.0564
     22  C18        4.6170    1.7040   -0.4690 C.ar    1  UNL1        0.2682
     23  O3         3.9340    2.6530   -0.9030 O.2     1  UNL1       -0.2661
     24  N2         5.6770    1.9940    0.3210 N.ar    1  UNL1       -0.2428
     25  N3         6.4650    1.0910    0.8340 N.ar    1  UNL1       -0.1762
     26 H           6.8422   -2.2041    0.8893 H       1  UNL1        0.0293
     27 H           7.1381   -1.1568    2.2562 H       1  UNL1        0.0293
     28 H           8.1646   -1.0629    0.8454 H       1  UNL1        0.0293
     29 H           5.0246   -1.5644   -0.3885 H       1  UNL1        0.0640
     30 H           3.3692   -1.0124   -1.9227 H       1  UNL1        0.0363
     31 H           3.1786    0.6759   -2.4145 H       1  UNL1        0.0363
     32 H           2.1421   -1.8303   -0.0004 H       1  UNL1        0.0621
     33 H           0.0574   -1.7606    1.1664 H       1  UNL1        0.0637
     34 H          -3.8581   -0.3953   -1.6359 H       1  UNL1        0.0444
     35 H          -2.4473    0.5894   -1.3338 H       1  UNL1        0.0444
     36 H          -4.3347    2.0599   -1.6206 H       1  UNL1        0.0278
     37 H          -3.8913    2.1058    0.0491 H       1  UNL1        0.0278
     38 H          -6.2704    0.9948   -1.2309 H       1  UNL1        0.0266
     39 H          -6.0166    1.5596    0.4371 H       1  UNL1        0.0266
     40 H          -5.7161   -1.1082   -0.7075 H       1  UNL1        0.0281
     41 H          -6.4646   -0.5480    0.8089 H       1  UNL1        0.0281
     42 H          -4.4464   -0.3596    1.8752 H       1  UNL1        0.0477
     43 H          -4.3141   -2.7245   -0.0812 H       1  UNL1        0.0245
     44 H          -5.2483   -2.7337    1.3954 H       1  UNL1        0.0245
     45 H          -3.5029   -2.6945    1.4661 H       1  UNL1        0.0245
     46 H          -0.6729    2.0339   -0.3939 H       1  UNL1        0.0637
     47 H           1.4270    1.9734   -1.5781 H       1  UNL1        0.0621
     48 H           5.8635    2.9401    0.5194 H       1  UNL1        0.1921
@<TRIPOS>BOND
     1     1     2    1
     2     2     3   ar
     3     2    25   ar
     4     3     4   ar
     5     4     5    1
     6     4    22   ar
     7     5     6    1
     8     6     7   ar
     9     6    21   ar
    10     7     8   ar
    11     8     9   ar
    12     9    10    1
    13     9    20   ar
    14    10    11    2
    15    10    12    2
    16    10    13    1
    17    13    14    1
    18    13    18    1
    19    14    15    1
    20    15    16    1
    21    16    17    1
    22    17    18    1
    23    18    19    1
    24    20    21   ar
    25    22    23    2
    26    22    24   ar
    27    24    25   ar
    28     1    26    1
    29     1    27    1
    30     1    28    1
    31     3    29    1
    32     5    30    1
    33     5    31    1
    34     7    32    1
    35     8    33    1
    36    14    34    1
    37    14    35    1
    38    15    36    1
    39    15    37    1
    40    16    38    1
    41    16    39    1
    42    17    40    1
    43    17    41    1
    44    18    42    1
    45    19    43    1
    46    19    44    1
    47    19    45    1
    48    20    46    1
    49    21    47    1
    50    24    48    1
@<TRIPOS>MOLECULE
../data/bude_mols_rdkit_confs/molecule_3.pdb
 48 50 0 0 0
SMALL
GASTEIGER

@<TRIPOS>ATOM
      1  C1        -6.9310   -2.2080    1.1550 C.3     1  UNL1       -0.0207
      2  C2        -6.2220   -1.0580    0.5220 C.ar    1  UNL1        0.0588
      3  C3        -5.1200   -1.2040   -0.2900 C.ar    1  UNL1       -0.0303
      4  C4        -4.4780   -0.1220   -0.8670 C.ar    1  UNL1        0.0243
      5  C5        -3.2910   -0.2690   -1.7380 C.3     1  UNL1        0.0028
      6  C6        -2.0140    0.0590   -1.1030 C.ar    1  UNL1       -0.0428
      7  C7        -1.3820   -0.9010   -0.3390 C.ar    1  UNL1       -0.0564
      8  C8        -0.1660   -0.6280    0.2690 C.ar    1  UNL1       -0.0351
      9  C9         0.4320    0.5870    0.1290 C.ar    1  UNL1        0.1055
     10  S1         1.9630    0.8850    0.9120 S.O2    1  UNL1        0.0611
     11  O1         2.0430    2.2940    1.4390 O.2     1  UNL1       -0.1528
     12  O2         2.0100   -0.0070    2.1450 O.2     1  UNL1       -0.1528
     13  N1         3.2780    0.5010   -0.1000 N.3     1  UNL1       -0.1738
     14  C10        3.3480   -0.8640   -0.4950 C.3     1  UNL1        0.0208
     15  C11        4.4370   -1.6700    0.1410 C.3     1  UNL1       -0.0385
     16  C12        5.7860   -1.0330    0.1150 C.3     1  UNL1       -0.0504
     17  C13        5.6340    0.3600   -0.4550 C.3     1  UNL1       -0.0359
     18  C14        4.5220    1.0640    0.3150 C.3     1  UNL1        0.0291
     19  C15        4.5870    2.5320   -0.0960 C.3     1  UNL1       -0.0478
     20  C16       -0.1940    1.5490   -0.6330 C.ar    1  UNL1       -0.0351
     21  C17       -1.4200    1.2820   -1.2500 C.ar    1  UNL1       -0.0564
     22  C18       -4.9710    1.1320   -0.6110 C.ar    1  UNL1        0.2682
     23  O3        -4.4790    2.1970   -1.0750 O.2     1  UNL1       -0.2661
     24  N2        -6.0630    1.2300    0.1970 N.ar    1  UNL1       -0.2428
     25  N3        -6.6600    0.1860    0.7380 N.ar    1  UNL1       -0.1762
     26 H          -6.4486   -3.1215    0.8762 H       1  UNL1        0.0293
     27 H          -7.9482   -2.2261    0.8234 H       1  UNL1        0.0293
     28 H          -6.9047   -2.1011    2.2193 H       1  UNL1        0.0293
     29 H          -4.7600   -2.1533   -0.4750 H       1  UNL1        0.0640
     30 H          -3.4171    0.3757   -2.5826 H       1  UNL1        0.0363
     31 H          -3.2379   -1.3053   -1.9990 H       1  UNL1        0.0363
     32 H          -1.8176   -1.8289   -0.2193 H       1  UNL1        0.0621
     33 H           0.2930   -1.3575    0.8367 H       1  UNL1        0.0637
     34 H           3.4944   -0.8923   -1.5546 H       1  UNL1        0.0444
     35 H           2.4300   -1.3082   -0.1711 H       1  UNL1        0.0444
     36 H           4.5014   -2.6062   -0.3731 H       1  UNL1        0.0278
     37 H           4.1724   -1.7712    1.1728 H       1  UNL1        0.0278
     38 H           6.4469   -1.6070   -0.5003 H       1  UNL1        0.0266
     39 H           6.1950   -0.9880    1.1027 H       1  UNL1        0.0266
     40 H           5.3774    0.3022   -1.4922 H       1  UNL1        0.0281
     41 H           6.5518    0.9022   -0.3625 H       1  UNL1        0.0281
     42 H           4.6213    0.9586    1.3752 H       1  UNL1        0.0477
     43 H           4.4854    2.6098   -1.1583 H       1  UNL1        0.0245
     44 H           5.5276    2.9449    0.2036 H       1  UNL1        0.0245
     45 H           3.7936    3.0707    0.3785 H       1  UNL1        0.0245
     46 H           0.2460    2.4752   -0.7495 H       1  UNL1        0.0637
     47 H          -1.8786    2.0109   -1.8187 H       1  UNL1        0.0621
     48 H          -6.4250    2.1256    0.3868 H       1  UNL1        0.1921
@<TRIPOS>BOND
     1     1     2    1
     2     2     3   ar
     3     2    25   ar
     4     3     4   ar
     5     4     5    1
     6     4    22   ar
     7     5     6    1
     8     6     7   ar
     9     6    21   ar
    10     7     8   ar
    11     8     9   ar
    12     9    10    1
    13     9    20   ar
    14    10    11    2
    15    10    12    2
    16    10    13    1
    17    13    14    1
    18    13    18    1
    19    14    15    1
    20    15    16    1
    21    16    17    1
    22    17    18    1
    23    18    19    1
    24    20    21   ar
    25    22    23    2
    26    22    24   ar
    27    24    25   ar
    28     1    26    1
    29     1    27    1
    30     1    28    1
    31     3    29    1
    32     5    30    1
    33     5    31    1
    34     7    32    1
    35     8    33    1
    36    14    34    1
    37    14    35    1
    38    15    36    1
    39    15    37    1
    40    16    38    1
    41    16    39    1
    42    17    40    1
    43    17    41    1
    44    18    42    1
    45    19    43    1
    46    19    44    1
    47    19    45    1
    48    20    46    1
    49    21    47    1
    50    24    48    1
@<TRIPOS>MOLECULE
../data/bude_mols_rdkit_confs/molecule_3.pdb
 48 50 0 0 0
SMALL
GASTEIGER

@<TRIPOS>ATOM
      1  C1         5.7390   -0.9760    2.2070 C.3     1  UNL1       -0.0207
      2  C2         5.0380   -1.2570    0.9400 C.ar    1  UNL1        0.0588
      3  C3         4.6580   -0.2330    0.1100 C.ar    1  UNL1       -0.0303
      4  C4         4.0050   -0.5170   -1.0670 C.ar    1  UNL1        0.0243
      5  C5         3.5900    0.5830   -1.9610 C.3     1  UNL1        0.0028
      6  C6         2.1540    0.8250   -1.8140 C.ar    1  UNL1       -0.0428
      7  C7         1.7180    1.6280   -0.7560 C.ar    1  UNL1       -0.0564
      8  C8         0.3880    1.9170   -0.5430 C.ar    1  UNL1       -0.0351
      9  C9        -0.5710    1.4150   -1.3810 C.ar    1  UNL1        0.1055
     10  S1        -2.2900    1.7490   -1.1560 S.O2    1  UNL1        0.0611
     11  O1        -2.8850    1.8850   -2.5020 O.2     1  UNL1       -0.1528
     12  O2        -2.3560    3.1230   -0.5060 O.2     1  UNL1       -0.1528
     13  N1        -2.9340    0.5700   -0.1860 N.3     1  UNL1       -0.1738
     14  C10       -2.4270    0.4360    1.1280 C.3     1  UNL1        0.0208
     15  C11       -2.4030   -1.0800    1.3740 C.3     1  UNL1       -0.0385
     16  C12       -3.8000   -1.5770    1.3150 C.3     1  UNL1       -0.0504
     17  C13       -4.8130   -0.7440    0.6530 C.3     1  UNL1       -0.0359
     18  C14       -4.3240    0.2720   -0.3270 C.3     1  UNL1        0.0291
     19  C15       -5.1180    1.5540   -0.1270 C.3     1  UNL1       -0.0478
     20  C16       -0.1670    0.6210   -2.4320 C.ar    1  UNL1       -0.0351
     21  C17        1.1870    0.3300   -2.6440 C.ar    1  UNL1       -0.0564
     22  C18        3.7400   -1.8100   -1.3990 C.ar    1  UNL1        0.2682
     23  O3         3.1430   -2.1630   -2.4650 O.2     1  UNL1       -0.2661
     24  N2         4.1260   -2.7960   -0.5620 N.ar    1  UNL1       -0.2428
     25  N3         4.7480   -2.4960    0.5550 N.ar    1  UNL1       -0.1762
     26 H           5.8684    0.0805    2.3163 H       1  UNL1        0.0293
     27 H           6.6965   -1.4536    2.1984 H       1  UNL1        0.0293
     28 H           5.1607   -1.3511    3.0254 H       1  UNL1        0.0293
     29 H           4.8610    0.7456    0.3673 H       1  UNL1        0.0640
     30 H           3.8036    0.3166   -2.9751 H       1  UNL1        0.0363
     31 H           4.1268    1.4714   -1.7014 H       1  UNL1        0.0363
     32 H           2.4201    2.0197   -0.1090 H       1  UNL1        0.0621
     33 H           0.1133    2.5148    0.2521 H       1  UNL1        0.0637
     34 H          -3.0673    0.9241    1.8327 H       1  UNL1        0.0444
     35 H          -1.4616    0.8834    1.2408 H       1  UNL1        0.0444
     36 H          -1.9852   -1.2848    2.3376 H       1  UNL1        0.0278
     37 H          -1.8039   -1.5671    0.6332 H       1  UNL1        0.0278
     38 H          -4.1246   -1.7274    2.3234 H       1  UNL1        0.0266
     39 H          -3.7408   -2.4530    0.7034 H       1  UNL1        0.0266
     40 H          -5.3507   -0.2223    1.4169 H       1  UNL1        0.0281
     41 H          -5.3983   -1.4276    0.0742 H       1  UNL1        0.0281
     42 H          -4.4606   -0.1381   -1.3058 H       1  UNL1        0.0477
     43 H          -4.9510    1.9263    0.8621 H       1  UNL1        0.0245
     44 H          -6.1603    1.3526   -0.2611 H       1  UNL1        0.0245
     45 H          -4.8012    2.2849   -0.8414 H       1  UNL1        0.0245
     46 H          -0.8750    0.2334   -3.0751 H       1  UNL1        0.0637
     47 H           1.4589   -0.2680   -3.4399 H       1  UNL1        0.0621
     48 H           3.9420   -3.7364   -0.7880 H       1  UNL1        0.1921
@<TRIPOS>BOND
     1     1     2    1
     2     2     3   ar
     3     2    25   ar
     4     3     4   ar
     5     4     5    1
     6     4    22   ar
     7     5     6    1
     8     6     7   ar
     9     6    21   ar
    10     7     8   ar
    11     8     9   ar
    12     9    10    1
    13     9    20   ar
    14    10    11    2
    15    10    12    2
    16    10    13    1
    17    13    14    1
    18    13    18    1
    19    14    15    1
    20    15    16    1
    21    16    17    1
    22    17    18    1
    23    18    19    1
    24    20    21   ar
    25    22    23    2
    26    22    24   ar
    27    24    25   ar
    28     1    26    1
    29     1    27    1
    30     1    28    1
    31     3    29    1
    32     5    30    1
    33     5    31    1
    34     7    32    1
    35     8    33    1
    36    14    34    1
    37    14    35    1
    38    15    36    1
    39    15    37    1
    40    16    38    1
    41    16    39    1
    42    17    40    1
    43    17    41    1
    44    18    42    1
    45    19    43    1
    46    19    44    1
    47    19    45    1
    48    20    46    1
    49    21    47    1
    50    24    48    1
@<TRIPOS>MOLECULE
../data/bude_mols_rdkit_confs/molecule_3.pdb
 48 50 0 0 0
SMALL
GASTEIGER

@<TRIPOS>ATOM
      1  C1        -6.8550   -0.8950   -2.2920 C.3     1  UNL1       -0.0207
      2  C2        -6.1230   -0.5140   -1.0420 C.ar    1  UNL1        0.0588
      3  C3        -5.0670    0.3690   -1.0410 C.ar    1  UNL1       -0.0303
      4  C4        -4.4180    0.6900    0.1620 C.ar    1  UNL1        0.0243
      5  C5        -3.2820    1.6330    0.1480 C.3     1  UNL1        0.0028
      6  C6        -2.0260    0.8570    0.2530 C.ar    1  UNL1       -0.0428
      7  C7        -1.4710    0.2090   -0.8500 C.ar    1  UNL1       -0.0564
      8  C8        -0.2930   -0.4970   -0.7210 C.ar    1  UNL1       -0.0351
      9  C9         0.3780   -0.5960    0.4760 C.ar    1  UNL1        0.1055
     10  S1         1.8810   -1.4950    0.6440 S.O2    1  UNL1        0.0611
     11  O1         1.9170   -2.5920   -0.3990 O.2     1  UNL1       -0.1528
     12  O2         1.9810   -2.1220    2.0050 O.2     1  UNL1       -0.1528
     13  N1         3.1870   -0.4390    0.3570 N.3     1  UNL1       -0.1738
     14  C10        3.1600    0.0950   -0.9530 C.3     1  UNL1        0.0208
     15  C11        4.3120    1.0150   -1.2700 C.3     1  UNL1       -0.0385
     16  C12        5.6370    0.4020   -0.9750 C.3     1  UNL1       -0.0504
     17  C13        5.5940   -0.8040   -0.1000 C.3     1  UNL1       -0.0359
     18  C14        4.4410   -0.8860    0.8390 C.3     1  UNL1        0.0291
     19  C15        4.7860   -0.2780    2.2070 C.3     1  UNL1       -0.0478
     20  C16       -0.1850    0.0560    1.5750 C.ar    1  UNL1       -0.0351
     21  C17       -1.3800    0.7770    1.4580 C.ar    1  UNL1       -0.0564
     22  C18       -4.8310    0.1260    1.3410 C.ar    1  UNL1        0.2682
     23  O3        -4.3020    0.3640    2.4540 O.2     1  UNL1       -0.2661
     24  N2        -5.8820   -0.7410    1.2730 N.ar    1  UNL1       -0.2428
     25  N3        -6.4910   -1.0410    0.1390 N.ar    1  UNL1       -0.1762
     26 H          -6.4263   -0.3813   -3.1270 H       1  UNL1        0.0293
     27 H          -7.8860   -0.6247   -2.1980 H       1  UNL1        0.0293
     28 H          -6.7756   -1.9512   -2.4439 H       1  UNL1        0.0293
     29 H          -4.7517    0.7959   -1.9261 H       1  UNL1        0.0640
     30 H          -3.3610    2.3056    0.9764 H       1  UNL1        0.0363
     31 H          -3.2877    2.2003   -0.7592 H       1  UNL1        0.0363
     32 H          -1.9434    0.2578   -1.7663 H       1  UNL1        0.0621
     33 H           0.0988   -0.9676   -1.5517 H       1  UNL1        0.0637
     34 H           2.2495    0.6441   -1.0727 H       1  UNL1        0.0444
     35 H           3.2356   -0.7346   -1.6245 H       1  UNL1        0.0444
     36 H           4.2094    1.9055   -0.6857 H       1  UNL1        0.0278
     37 H           4.2793    1.2232   -2.3190 H       1  UNL1        0.0278
     38 H           6.2439    1.1399   -0.4932 H       1  UNL1        0.0266
     39 H           6.0303    0.0749   -1.9148 H       1  UNL1        0.0266
     40 H           6.4920   -0.8192    0.4815 H       1  UNL1        0.0281
     41 H           5.4881   -1.6381   -0.7618 H       1  UNL1        0.0281
     42 H           4.2856   -1.9389    0.9495 H       1  UNL1        0.0477
     43 H           4.9421    0.7751    2.1001 H       1  UNL1        0.0245
     44 H           5.6769   -0.7340    2.5855 H       1  UNL1        0.0245
     45 H           3.9793   -0.4517    2.8882 H       1  UNL1        0.0245
     46 H           0.2884    0.0056    2.4907 H       1  UNL1        0.0637
     47 H          -1.7762    1.2509    2.2848 H       1  UNL1        0.0621
     48 H          -6.2005   -1.1613    2.1043 H       1  UNL1        0.1921
@<TRIPOS>BOND
     1     1     2    1
     2     2     3   ar
     3     2    25   ar
     4     3     4   ar
     5     4     5    1
     6     4    22   ar
     7     5     6    1
     8     6     7   ar
     9     6    21   ar
    10     7     8   ar
    11     8     9   ar
    12     9    10    1
    13     9    20   ar
    14    10    11    2
    15    10    12    2
    16    10    13    1
    17    13    14    1
    18    13    18    1
    19    14    15    1
    20    15    16    1
    21    16    17    1
    22    17    18    1
    23    18    19    1
    24    20    21   ar
    25    22    23    2
    26    22    24   ar
    27    24    25   ar
    28     1    26    1
    29     1    27    1
    30     1    28    1
    31     3    29    1
    32     5    30    1
    33     5    31    1
    34     7    32    1
    35     8    33    1
    36    14    34    1
    37    14    35    1
    38    15    36    1
    39    15    37    1
    40    16    38    1
    41    16    39    1
    42    17    40    1
    43    17    41    1
    44    18    42    1
    45    19    43    1
    46    19    44    1
    47    19    45    1
    48    20    46    1
    49    21    47    1
    50    24    48    1
@<TRIPOS>MOLECULE
../data/bude_mols_rdkit_confs/molecule_3.pdb
 48 50 0 0 0
SMALL
GASTEIGER

@<TRIPOS>ATOM
      1  C1         7.0520    0.8120    2.4050 C.3     1  UNL1       -0.0207
      2  C2         6.3010    0.2270    1.2630 C.ar    1  UNL1        0.0588
      3  C3         5.2000    0.8690    0.6930 C.ar    1  UNL1       -0.0303
      4  C4         4.5140    0.3130   -0.3670 C.ar    1  UNL1        0.0243
      5  C5         3.3560    0.9920   -0.9600 C.3     1  UNL1        0.0028
      6  C6         2.0400    0.4250   -0.5700 C.ar    1  UNL1       -0.0428
      7  C7         1.3580   -0.5320   -1.2900 C.ar    1  UNL1       -0.0564
      8  C8         0.1340   -1.0140   -0.8580 C.ar    1  UNL1       -0.0351
      9  C9        -0.4620   -0.5710    0.3020 C.ar    1  UNL1        0.1055
     10  S1        -2.0180   -1.2280    0.7860 S.O2    1  UNL1        0.0611
     11  O1        -2.0890   -2.6520    0.2410 O.2     1  UNL1       -0.1528
     12  O2        -1.9670   -1.3810    2.2770 O.2     1  UNL1       -0.1528
     13  N1        -3.3180   -0.3780    0.1930 N.3     1  UNL1       -0.1738
     14  C10       -3.4400   -0.3190   -1.1890 C.3     1  UNL1        0.0208
     15  C11       -4.2830    0.7980   -1.7390 C.3     1  UNL1       -0.0385
     16  C12       -5.6150    0.7280   -1.0240 C.3     1  UNL1       -0.0504
     17  C13       -5.3360    1.0030    0.4190 C.3     1  UNL1       -0.0359
     18  C14       -4.3520    0.0310    1.0310 C.3     1  UNL1        0.0291
     19  C15       -5.1890   -1.1080    1.6090 C.3     1  UNL1       -0.0478
     20  C16        0.2000    0.3800    1.0320 C.ar    1  UNL1       -0.0351
     21  C17        1.4230    0.8620    0.6000 C.ar    1  UNL1       -0.0564
     22  C18        4.9610   -0.8970   -0.8360 C.ar    1  UNL1        0.2682
     23  O3         4.4270   -1.4950   -1.7830 O.2     1  UNL1       -0.2661
     24  N2         6.0380   -1.5270   -0.2810 N.ar    1  UNL1       -0.2428
     25  N3         6.6530   -0.9440    0.7320 N.ar    1  UNL1       -0.1762
     26 H           6.6119    1.7480    2.6793 H       1  UNL1        0.0293
     27 H           8.0714    0.9673    2.1194 H       1  UNL1        0.0293
     28 H           7.0131    0.1418    3.2382 H       1  UNL1        0.0293
     29 H           4.8930    1.7783    1.0724 H       1  UNL1        0.0640
     30 H           3.4430    0.9317   -2.0248 H       1  UNL1        0.0363
     31 H           3.3736    1.9971   -0.5936 H       1  UNL1        0.0363
     32 H           1.7663   -0.8953   -2.1654 H       1  UNL1        0.0621
     33 H          -0.3481   -1.7294   -1.4244 H       1  UNL1        0.0637
     34 H          -3.8689   -1.2426   -1.5176 H       1  UNL1        0.0444
     35 H          -2.4511   -0.1348   -1.5539 H       1  UNL1        0.0444
     36 H          -4.4224    0.6710   -2.7922 H       1  UNL1        0.0278
     37 H          -3.8129    1.7470   -1.5863 H       1  UNL1        0.0278
     38 H          -6.0456   -0.2448   -1.1386 H       1  UNL1        0.0266
     39 H          -6.3084    1.4367   -1.4264 H       1  UNL1        0.0266
     40 H          -6.2565    0.9417    0.9611 H       1  UNL1        0.0281
     41 H          -4.8989    1.9779    0.4783 H       1  UNL1        0.0281
     42 H          -3.7922    0.5182    1.8018 H       1  UNL1        0.0477
     43 H          -5.7396   -1.5806    0.8226 H       1  UNL1        0.0245
     44 H          -5.8698   -0.7170    2.3360 H       1  UNL1        0.0245
     45 H          -4.5441   -1.8245    2.0733 H       1  UNL1        0.0245
     46 H          -0.2144    0.7381    1.9067 H       1  UNL1        0.0637
     47 H           1.8997    1.5778    1.1705 H       1  UNL1        0.0621
     48 H           6.3484   -2.3946   -0.6276 H       1  UNL1        0.1921
@<TRIPOS>BOND
     1     1     2    1
     2     2     3   ar
     3     2    25   ar
     4     3     4   ar
     5     4     5    1
     6     4    22   ar
     7     5     6    1
     8     6     7   ar
     9     6    21   ar
    10     7     8   ar
    11     8     9   ar
    12     9    10    1
    13     9    20   ar
    14    10    11    2
    15    10    12    2
    16    10    13    1
    17    13    14    1
    18    13    18    1
    19    14    15    1
    20    15    16    1
    21    16    17    1
    22    17    18    1
    23    18    19    1
    24    20    21   ar
    25    22    23    2
    26    22    24   ar
    27    24    25   ar
    28     1    26    1
    29     1    27    1
    30     1    28    1
    31     3    29    1
    32     5    30    1
    33     5    31    1
    34     7    32    1
    35     8    33    1
    36    14    34    1
    37    14    35    1
    38    15    36    1
    39    15    37    1
    40    16    38    1
    41    16    39    1
    42    17    40    1
    43    17    41    1
    44    18    42    1
    45    19    43    1
    46    19    44    1
    47    19    45    1
    48    20    46    1
    49    21    47    1
    50    24    48    1
@<TRIPOS>MOLECULE
../data/bude_mols_rdkit_confs/molecule_3.pdb
 48 50 0 0 0
SMALL
GASTEIGER

@<TRIPOS>ATOM
      1  C1         5.8210    2.0770    1.3490 C.3     1  UNL1       -0.0207
      2  C2         5.2080    0.7870    0.9380 C.ar    1  UNL1        0.0588
      3  C3         4.5760    0.6960   -0.3020 C.ar    1  UNL1       -0.0303
      4  C4         3.9940   -0.4820   -0.7230 C.ar    1  UNL1        0.0243
      5  C5         3.3110   -0.6180   -2.0270 C.3     1  UNL1        0.0028
      6  C6         1.8280   -0.6010   -1.9280 C.ar    1  UNL1       -0.0428
      7  C7         1.0450   -1.7310   -1.8580 C.ar    1  UNL1       -0.0564
      8  C8        -0.3470   -1.6700   -1.7590 C.ar    1  UNL1       -0.0351
      9  C9        -0.9970   -0.4630   -1.7280 C.ar    1  UNL1        0.1055
     10  S1        -2.7420   -0.3640   -1.6040 S.O2    1  UNL1        0.0611
     11  O1        -3.3270   -1.6080   -2.2770 O.2     1  UNL1       -0.1528
     12  O2        -3.2310    0.7860   -2.4230 O.2     1  UNL1       -0.1528
     13  N1        -3.3180   -0.3060   -0.0430 N.3     1  UNL1       -0.1738
     14  C10       -3.0550   -1.4010    0.7960 C.3     1  UNL1        0.0208
     15  C11       -3.0230   -1.1840    2.2590 C.3     1  UNL1       -0.0385
     16  C12       -3.7920    0.0280    2.7220 C.3     1  UNL1       -0.0504
     17  C13       -3.6080    1.2050    1.8140 C.3     1  UNL1       -0.0359
     18  C14       -4.0770    0.7630    0.4280 C.3     1  UNL1        0.0291
     19  C15       -4.2270    1.9300   -0.4740 C.3     1  UNL1       -0.0478
     20  C16       -0.2260    0.6820   -1.7980 C.ar    1  UNL1       -0.0351
     21  C17        1.1490    0.6240   -1.8950 C.ar    1  UNL1       -0.0564
     22  C18        4.0720   -1.5510    0.1390 C.ar    1  UNL1        0.2682
     23  O3         3.5880   -2.6850   -0.1110 O.2     1  UNL1       -0.2661
     24  N2         4.6910   -1.4480    1.3440 N.ar    1  UNL1       -0.2428
     25  N3         5.2420   -0.3040    1.7240 N.ar    1  UNL1       -0.1762
     26 H           5.6766    2.8028    0.5762 H       1  UNL1        0.0293
     27 H           6.8686    1.9370    1.5156 H       1  UNL1        0.0293
     28 H           5.3591    2.4200    2.2512 H       1  UNL1        0.0293
     29 H           4.5431    1.5249   -0.9158 H       1  UNL1        0.0640
     30 H           3.6096   -1.5451   -2.4699 H       1  UNL1        0.0363
     31 H           3.5951    0.2268   -2.6190 H       1  UNL1        0.0363
     32 H           1.5025   -2.6558   -1.8794 H       1  UNL1        0.0621
     33 H          -0.8931   -2.5442   -1.7086 H       1  UNL1        0.0637
     34 H          -2.0991   -1.7908    0.5146 H       1  UNL1        0.0444
     35 H          -3.8937   -2.0488    0.6479 H       1  UNL1        0.0444
     36 H          -2.0024   -1.0683    2.5587 H       1  UNL1        0.0278
     37 H          -3.4928   -2.0351    2.7061 H       1  UNL1        0.0278
     38 H          -3.4550    0.2945    3.7019 H       1  UNL1        0.0266
     39 H          -4.8315   -0.2257    2.7191 H       1  UNL1        0.0266
     40 H          -2.5769    1.4892    1.7819 H       1  UNL1        0.0281
     41 H          -4.1657    2.0504    2.1593 H       1  UNL1        0.0281
     42 H          -5.0653    0.3562    0.4803 H       1  UNL1        0.0477
     43 H          -3.2796    2.4129   -0.5930 H       1  UNL1        0.0245
     44 H          -4.9282    2.6193   -0.0519 H       1  UNL1        0.0245
     45 H          -4.5815    1.6001   -1.4281 H       1  UNL1        0.0245
     46 H          -0.6905    1.6033   -1.7772 H       1  UNL1        0.0637
     47 H           1.6891    1.5020   -1.9443 H       1  UNL1        0.0621
     48 H           4.7306   -2.2303    1.9404 H       1  UNL1        0.1921
@<TRIPOS>BOND
     1     1     2    1
     2     2     3   ar
     3     2    25   ar
     4     3     4   ar
     5     4     5    1
     6     4    22   ar
     7     5     6    1
     8     6     7   ar
     9     6    21   ar
    10     7     8   ar
    11     8     9   ar
    12     9    10    1
    13     9    20   ar
    14    10    11    2
    15    10    12    2
    16    10    13    1
    17    13    14    1
    18    13    18    1
    19    14    15    1
    20    15    16    1
    21    16    17    1
    22    17    18    1
    23    18    19    1
    24    20    21   ar
    25    22    23    2
    26    22    24   ar
    27    24    25   ar
    28     1    26    1
    29     1    27    1
    30     1    28    1
    31     3    29    1
    32     5    30    1
    33     5    31    1
    34     7    32    1
    35     8    33    1
    36    14    34    1
    37    14    35    1
    38    15    36    1
    39    15    37    1
    40    16    38    1
    41    16    39    1
    42    17    40    1
    43    17    41    1
    44    18    42    1
    45    19    43    1
    46    19    44    1
    47    19    45    1
    48    20    46    1
    49    21    47    1
    50    24    48    1
@<TRIPOS>MOLECULE
../data/bude_mols_rdkit_confs/molecule_3.pdb
 48 50 0 0 0
SMALL
GASTEIGER

@<TRIPOS>ATOM
      1  C1         7.0890    1.4530    0.3110 C.3     1  UNL1       -0.0207
      2  C2         6.2320    0.3070   -0.0600 C.ar    1  UNL1        0.0588
      3  C3         5.0860    0.5210   -0.7700 C.ar    1  UNL1       -0.0303
      4  C4         4.2840   -0.5590   -1.1170 C.ar    1  UNL1        0.0243
      5  C5         3.0540   -0.2810   -1.8810 C.3     1  UNL1        0.0028
      6  C6         1.8220   -0.3380   -1.0500 C.ar    1  UNL1       -0.0428
      7  C7         1.0250   -1.4570   -0.9660 C.ar    1  UNL1       -0.0564
      8  C8        -0.1200   -1.5160   -0.1870 C.ar    1  UNL1       -0.0351
      9  C9        -0.4780   -0.4010    0.5390 C.ar    1  UNL1        0.1055
     10  S1        -1.9310   -0.5060    1.5130 S.O2    1  UNL1        0.0611
     11  O1        -2.1440   -1.8960    1.9900 O.2     1  UNL1       -0.1528
     12  O2        -1.7660    0.4310    2.6830 O.2     1  UNL1       -0.1528
     13  N1        -3.2380    0.0280    0.5120 N.3     1  UNL1       -0.1738
     14  C10       -3.0560    1.4010    0.0980 C.3     1  UNL1        0.0208
     15  C11       -3.9610    1.6350   -1.1020 C.3     1  UNL1       -0.0385
     16  C12       -5.2880    0.9960   -0.7790 C.3     1  UNL1       -0.0504
     17  C13       -5.4780    0.9120    0.7270 C.3     1  UNL1       -0.0359
     18  C14       -4.4500   -0.0400    1.3060 C.3     1  UNL1        0.0291
     19  C15       -4.9860   -1.4390    1.3910 C.3     1  UNL1       -0.0478
     20  C16        0.3040    0.7400    0.4760 C.ar    1  UNL1       -0.0351
     21  C17        1.4330    0.7730   -0.3040 C.ar    1  UNL1       -0.0564
     22  C18        4.6360   -1.8310   -0.7520 C.ar    1  UNL1        0.2682
     23  O3         3.9350   -2.8370   -1.0490 O.2     1  UNL1       -0.2661
     24  N2         5.7850   -1.9880   -0.0480 N.ar    1  UNL1       -0.2428
     25  N3         6.5320   -0.9570    0.2720 N.ar    1  UNL1       -0.1762
     26 H           6.6537    2.3581   -0.0580 H       1  UNL1        0.0293
     27 H           8.0613    1.3245   -0.1169 H       1  UNL1        0.0293
     28 H           7.1724    1.5058    1.3764 H       1  UNL1        0.0293
     29 H           4.8173    1.4781   -1.0470 H       1  UNL1        0.0640
     30 H           2.9695   -1.0049   -2.6644 H       1  UNL1        0.0363
     31 H           3.1348    0.7158   -2.2615 H       1  UNL1        0.0363
     32 H           1.2929   -2.2925   -1.5093 H       1  UNL1        0.0621
     33 H          -0.6910   -2.3749   -0.1516 H       1  UNL1        0.0637
     34 H          -2.0351    1.5689   -0.1749 H       1  UNL1        0.0444
     35 H          -3.3011    2.0725    0.8942 H       1  UNL1        0.0444
     36 H          -3.5382    1.1843   -1.9755 H       1  UNL1        0.0278
     37 H          -4.0762    2.6807   -1.2975 H       1  UNL1        0.0278
     38 H          -5.3159    0.0102   -1.1942 H       1  UNL1        0.0266
     39 H          -6.0728    1.5911   -1.1971 H       1  UNL1        0.0266
     40 H          -6.4619    0.5518    0.9442 H       1  UNL1        0.0281
     41 H          -5.3537    1.8825    1.1600 H       1  UNL1        0.0281
     42 H          -4.2206    0.2557    2.3084 H       1  UNL1        0.0477
     43 H          -5.2332   -1.7865    0.4096 H       1  UNL1        0.0245
     44 H          -5.8629   -1.4483    2.0041 H       1  UNL1        0.0245
     45 H          -4.2441   -2.0797    1.8199 H       1  UNL1        0.0245
     46 H           0.0352    1.5741    1.0211 H       1  UNL1        0.0637
     47 H           2.0021    1.6332   -0.3385 H       1  UNL1        0.0621
     48 H           6.0635   -2.8911    0.2278 H       1  UNL1        0.1921
@<TRIPOS>BOND
     1     1     2    1
     2     2     3   ar
     3     2    25   ar
     4     3     4   ar
     5     4     5    1
     6     4    22   ar
     7     5     6    1
     8     6     7   ar
     9     6    21   ar
    10     7     8   ar
    11     8     9   ar
    12     9    10    1
    13     9    20   ar
    14    10    11    2
    15    10    12    2
    16    10    13    1
    17    13    14    1
    18    13    18    1
    19    14    15    1
    20    15    16    1
    21    16    17    1
    22    17    18    1
    23    18    19    1
    24    20    21   ar
    25    22    23    2
    26    22    24   ar
    27    24    25   ar
    28     1    26    1
    29     1    27    1
    30     1    28    1
    31     3    29    1
    32     5    30    1
    33     5    31    1
    34     7    32    1
    35     8    33    1
    36    14    34    1
    37    14    35    1
    38    15    36    1
    39    15    37    1
    40    16    38    1
    41    16    39    1
    42    17    40    1
    43    17    41    1
    44    18    42    1
    45    19    43    1
    46    19    44    1
    47    19    45    1
    48    20    46    1
    49    21    47    1
    50    24    48    1
