@<TRIPOS>MOLECULE
../data/bude_mols_rdkit_confs/molecule_22.pdb
 33 35 0 0 0
SMALL
GASTEIGER

@<TRIPOS>ATOM
      1  O1        -0.9860    1.0980   -1.0810 O.2     1  UNL1       -0.2884
      2  C1        -1.7200    0.4670   -0.2830 C.2     1  UNL1        0.2004
      3  C2        -1.0950   -0.4670    0.6670 C.3     1  UNL1        0.1551
      4  O2         0.3090   -0.4870    0.4990 O.3     1  UNL1       -0.4520
      5  C3         1.1210   -1.2890    1.2770 C.2     1  UNL1        0.3581
      6  O3         0.5510   -2.0030    2.1460 O.2     1  UNL1       -0.2432
      7  C4         2.5710   -1.3320    1.1270 C.ar    1  UNL1        0.1504
      8  N1         3.4100   -2.0820    1.8450 N.ar    1  UNL1       -0.2698
      9  N2         4.6510   -1.8660    1.4360 N.ar    1  UNL1       -0.1731
     10  C5         4.6250   -0.9490    0.4240 C.ar    1  UNL1        0.0933
     11  C6         5.5840   -0.3720   -0.3450 C.ar    1  UNL1       -0.0340
     12  C7         5.2600    0.5530   -1.3260 C.ar    1  UNL1       -0.0597
     13  C8         3.9590    0.9110   -1.5460 C.ar    1  UNL1       -0.0610
     14  C9         2.9810    0.3330   -0.7730 C.ar    1  UNL1       -0.0503
     15  C10        3.3080   -0.6020    0.2190 C.ar    1  UNL1        0.0338
     16  C11       -3.1770    0.6600   -0.2980 C.ar    1  UNL1        0.0237
     17  C12       -3.9980   -0.0240    0.5710 C.ar    1  UNL1       -0.0483
     18  C13       -5.3760    0.1800    0.5320 C.ar    1  UNL1       -0.0229
     19  C14       -5.9680    1.0540   -0.3560 C.ar    1  UNL1        0.1584
     20  F1        -7.3180    1.2350   -0.3720 F       1  UNL1       -0.2025
     21  C15       -5.1370    1.7340   -1.2220 C.ar    1  UNL1        0.1591
     22  F2        -5.7240    2.5920   -2.0920 F       1  UNL1       -0.2025
     23  C16       -3.7730    1.5270   -1.1780 C.ar    1  UNL1       -0.0130
     24 H          -1.4827   -1.4501    0.4994 H       1  UNL1        0.0782
     25 H          -1.3174   -0.1446    1.6627 H       1  UNL1        0.0782
     26 H           3.1474   -2.6991    2.5657 H       1  UNL1        0.1892
     27 H           6.5730   -0.6268   -0.1965 H       1  UNL1        0.0639
     28 H           6.0091    0.9758   -1.8962 H       1  UNL1        0.0618
     29 H           3.7171    1.5994   -2.2758 H       1  UNL1        0.0618
     30 H           1.9932    0.5905   -0.9246 H       1  UNL1        0.0625
     31 H          -3.5931   -0.6870    1.2504 H       1  UNL1        0.0625
     32 H          -5.9750   -0.3414    1.1910 H       1  UNL1        0.0647
     33 H          -3.1743    2.0484   -1.8373 H       1  UNL1        0.0654
@<TRIPOS>BOND
     1     1     2    2
     2     2     3    1
     3     2    16    1
     4     3     4    1
     5     4     5    1
     6     5     6    2
     7     5     7    1
     8     7     8   ar
     9     7    15   ar
    10     8     9   ar
    11     9    10   ar
    12    10    11   ar
    13    10    15   ar
    14    11    12   ar
    15    12    13   ar
    16    13    14   ar
    17    14    15   ar
    18    16    17   ar
    19    16    23   ar
    20    17    18   ar
    21    18    19   ar
    22    19    20    1
    23    19    21   ar
    24    21    22    1
    25    21    23   ar
    26     3    24    1
    27     3    25    1
    28     8    26    1
    29    11    27    1
    30    12    28    1
    31    13    29    1
    32    14    30    1
    33    17    31    1
    34    18    32    1
    35    23    33    1
@<TRIPOS>MOLECULE
../data/bude_mols_rdkit_confs/molecule_22.pdb
 33 35 0 0 0
SMALL
GASTEIGER

@<TRIPOS>ATOM
      1  O1        -1.3080    1.0940   -0.6090 O.2     1  UNL1       -0.2884
      2  C1        -1.9430    0.0350   -0.4160 C.2     1  UNL1        0.2004
      3  C2        -1.3260   -1.3080   -0.6260 C.3     1  UNL1        0.1551
      4  O2         0.0010   -1.2120   -1.0490 O.3     1  UNL1       -0.4520
      5  C3         0.9840   -0.5880   -0.2970 C.2     1  UNL1        0.3581
      6  O3         0.6880   -0.0820    0.8130 O.2     1  UNL1       -0.2432
      7  C4         2.3450   -0.5270   -0.8030 C.ar    1  UNL1        0.1504
      8  N1         2.7920   -1.0260   -1.9690 N.ar    1  UNL1       -0.2698
      9  N2         4.0880   -0.7830   -2.0940 N.ar    1  UNL1       -0.1731
     10  C5         4.5030   -0.1130   -0.9930 C.ar    1  UNL1        0.0933
     11  C6         5.7150    0.3740   -0.6110 C.ar    1  UNL1       -0.0340
     12  C7         5.9130    1.0410    0.5840 C.ar    1  UNL1       -0.0597
     13  C8         4.8280    1.2200    1.4260 C.ar    1  UNL1       -0.0610
     14  C9         3.5920    0.7300    1.0460 C.ar    1  UNL1       -0.0503
     15  C10        3.4020    0.0650   -0.1480 C.ar    1  UNL1        0.0338
     16  C11       -3.3390    0.1080    0.0310 C.ar    1  UNL1        0.0237
     17  C12       -4.0790   -1.0340    0.2580 C.ar    1  UNL1       -0.0483
     18  C13       -5.3940   -0.9990    0.6790 C.ar    1  UNL1       -0.0229
     19  C14       -6.0210    0.2110    0.8900 C.ar    1  UNL1        0.1584
     20  F1        -7.3090    0.2980    1.3030 F       1  UNL1       -0.2025
     21  C15       -5.2800    1.3570    0.6640 C.ar    1  UNL1        0.1591
     22  F2        -5.8860    2.5520    0.8680 F       1  UNL1       -0.2025
     23  C16       -3.9670    1.3170    0.2430 C.ar    1  UNL1       -0.0130
     24 H          -1.8883   -1.8345   -1.3686 H       1  UNL1        0.0782
     25 H          -1.3387   -1.8281    0.3090 H       1  UNL1        0.0782
     26 H           2.2388   -1.5008   -2.6306 H       1  UNL1        0.1892
     27 H           6.5215    0.2396   -1.2407 H       1  UNL1        0.0639
     28 H           6.8467    1.3968    0.8422 H       1  UNL1        0.0618
     29 H           4.9406    1.7129    2.3257 H       1  UNL1        0.0618
     30 H           2.7857    0.8660    1.6757 H       1  UNL1        0.0625
     31 H          -3.6318   -1.9518    0.1071 H       1  UNL1        0.0625
     32 H          -5.9082   -1.8799    0.8359 H       1  UNL1        0.0647
     33 H          -3.4517    2.1972    0.0858 H       1  UNL1        0.0654
@<TRIPOS>BOND
     1     1     2    2
     2     2     3    1
     3     2    16    1
     4     3     4    1
     5     4     5    1
     6     5     6    2
     7     5     7    1
     8     7     8   ar
     9     7    15   ar
    10     8     9   ar
    11     9    10   ar
    12    10    11   ar
    13    10    15   ar
    14    11    12   ar
    15    12    13   ar
    16    13    14   ar
    17    14    15   ar
    18    16    17   ar
    19    16    23   ar
    20    17    18   ar
    21    18    19   ar
    22    19    20    1
    23    19    21   ar
    24    21    22    1
    25    21    23   ar
    26     3    24    1
    27     3    25    1
    28     8    26    1
    29    11    27    1
    30    12    28    1
    31    13    29    1
    32    14    30    1
    33    17    31    1
    34    18    32    1
    35    23    33    1
@<TRIPOS>MOLECULE
../data/bude_mols_rdkit_confs/molecule_22.pdb
 33 35 0 0 0
SMALL
GASTEIGER

@<TRIPOS>ATOM
      1  O1         1.4550   -1.3750    0.4520 O.2     1  UNL1       -0.2884
      2  C1         1.8700   -0.2060    0.2570 C.2     1  UNL1        0.2004
      3  C2         0.8980    0.8380   -0.0970 C.3     1  UNL1        0.1551
      4  O2        -0.4160    0.3880   -0.1750 O.3     1  UNL1       -0.4520
      5  C3        -0.8970   -0.5790   -1.0120 C.2     1  UNL1        0.3581
      6  O3        -0.0900   -1.1350   -1.8010 O.2     1  UNL1       -0.2432
      7  C4        -2.3010   -0.9980   -1.0330 C.ar    1  UNL1        0.1504
      8  N1        -2.9010   -1.9150   -1.7860 N.ar    1  UNL1       -0.2698
      9  N2        -4.2060   -1.9950   -1.4940 N.ar    1  UNL1       -0.1731
     10  C5        -4.5000   -1.1140   -0.5230 C.ar    1  UNL1        0.0933
     11  C6        -5.6630   -0.7830    0.1410 C.ar    1  UNL1       -0.0340
     12  C7        -5.6280    0.1910    1.1110 C.ar    1  UNL1       -0.0597
     13  C8        -4.4680    0.8510    1.4450 C.ar    1  UNL1       -0.0610
     14  C9        -3.3090    0.4960    0.7570 C.ar    1  UNL1       -0.0503
     15  C10       -3.3100   -0.4780   -0.2220 C.ar    1  UNL1        0.0338
     16  C11        3.2750    0.1280    0.3720 C.ar    1  UNL1        0.0237
     17  C12        4.1750   -0.8540    0.7030 C.ar    1  UNL1       -0.0483
     18  C13        5.5340   -0.5790    0.8250 C.ar    1  UNL1       -0.0229
     19  C14        5.9530    0.7260    0.6010 C.ar    1  UNL1        0.1584
     20  F1         7.2820    1.0180    0.7160 F       1  UNL1       -0.2025
     21  C15        5.0740    1.7380    0.2670 C.ar    1  UNL1        0.1591
     22  F2         5.5060    2.9960    0.0560 F       1  UNL1       -0.2025
     23  C16        3.7180    1.4100    0.1570 C.ar    1  UNL1       -0.0130
     24 H           1.1715    1.2429   -1.0489 H       1  UNL1        0.0782
     25 H           0.9286    1.5663    0.6863 H       1  UNL1        0.0782
     26 H          -2.4470   -2.4620   -2.4671 H       1  UNL1        0.1892
     27 H          -6.5488   -1.2607   -0.0875 H       1  UNL1        0.0639
     28 H          -6.5007    0.4350    1.6048 H       1  UNL1        0.0618
     29 H          -4.4565    1.5797    2.1757 H       1  UNL1        0.0618
     30 H          -2.4241    0.9751    0.9859 H       1  UNL1        0.0625
     31 H           3.8373   -1.8157    0.8647 H       1  UNL1        0.0625
     32 H           6.2078   -1.3201    1.0736 H       1  UNL1        0.0647
     33 H           3.0378    2.1457   -0.0904 H       1  UNL1        0.0654
@<TRIPOS>BOND
     1     1     2    2
     2     2     3    1
     3     2    16    1
     4     3     4    1
     5     4     5    1
     6     5     6    2
     7     5     7    1
     8     7     8   ar
     9     7    15   ar
    10     8     9   ar
    11     9    10   ar
    12    10    11   ar
    13    10    15   ar
    14    11    12   ar
    15    12    13   ar
    16    13    14   ar
    17    14    15   ar
    18    16    17   ar
    19    16    23   ar
    20    17    18   ar
    21    18    19   ar
    22    19    20    1
    23    19    21   ar
    24    21    22    1
    25    21    23   ar
    26     3    24    1
    27     3    25    1
    28     8    26    1
    29    11    27    1
    30    12    28    1
    31    13    29    1
    32    14    30    1
    33    17    31    1
    34    18    32    1
    35    23    33    1
@<TRIPOS>MOLECULE
../data/bude_mols_rdkit_confs/molecule_22.pdb
 33 35 0 0 0
SMALL
GASTEIGER

@<TRIPOS>ATOM
      1  O1         1.9700   -1.9590    0.0120 O.2     1  UNL1       -0.2884
      2  C1         2.3280   -0.7310    0.0500 C.2     1  UNL1        0.2004
      3  C2         1.2560    0.2830    0.0380 C.3     1  UNL1        0.1551
      4  O2         0.0100   -0.3510   -0.0140 O.3     1  UNL1       -0.4520
      5  C3        -1.1990    0.2930   -0.0380 C.2     1  UNL1        0.3581
      6  O3        -1.2400    1.5420   -0.0120 O.2     1  UNL1       -0.2432
      7  C4        -2.4390   -0.4640   -0.0930 C.ar    1  UNL1        0.1504
      8  N1        -2.5440   -1.8270   -0.1260 N.ar    1  UNL1       -0.2698
      9  N2        -3.8080   -2.1330   -0.1720 N.ar    1  UNL1       -0.1731
     10  C5        -4.5680   -1.0220   -0.1720 C.ar    1  UNL1        0.0933
     11  C6        -5.9210   -0.7910   -0.2090 C.ar    1  UNL1       -0.0340
     12  C7        -6.4450    0.5060   -0.1980 C.ar    1  UNL1       -0.0597
     13  C8        -5.5780    1.5810   -0.1470 C.ar    1  UNL1       -0.0610
     14  C9        -4.1960    1.3600   -0.1090 C.ar    1  UNL1       -0.0503
     15  C10       -3.7200    0.0660   -0.1220 C.ar    1  UNL1        0.0338
     16  C11        3.7330   -0.3730    0.1020 C.ar    1  UNL1        0.0237
     17  C12        4.0920    0.9440    0.1420 C.ar    1  UNL1       -0.0483
     18  C13        5.4180    1.3320    0.1920 C.ar    1  UNL1       -0.0229
     19  C14        6.3890    0.3570    0.2010 C.ar    1  UNL1        0.1584
     20  F1         7.7080    0.7080    0.2500 F       1  UNL1       -0.2025
     21  C15        6.0460   -0.9740    0.1610 C.ar    1  UNL1        0.1591
     22  F2         7.0370   -1.9130    0.1720 F       1  UNL1       -0.2025
     23  C16        4.7120   -1.3300    0.1120 C.ar    1  UNL1       -0.0130
     24 H           1.3711    0.9126   -0.8195 H       1  UNL1        0.0782
     25 H           1.3166    0.8743    0.9277 H       1  UNL1        0.0782
     26 H          -1.7944   -2.4652   -0.1166 H       1  UNL1        0.1892
     27 H          -6.5676   -1.5945   -0.2459 H       1  UNL1        0.0639
     28 H          -7.4653    0.6580   -0.2276 H       1  UNL1        0.0618
     29 H          -5.9483    2.5442   -0.1370 H       1  UNL1        0.0618
     30 H          -3.5410    2.1566   -0.0717 H       1  UNL1        0.0625
     31 H           3.3557    1.6671    0.1347 H       1  UNL1        0.0625
     32 H           5.6741    2.3313    0.2219 H       1  UNL1        0.0647
     33 H           4.4507   -2.3279    0.0826 H       1  UNL1        0.0654
@<TRIPOS>BOND
     1     1     2    2
     2     2     3    1
     3     2    16    1
     4     3     4    1
     5     4     5    1
     6     5     6    2
     7     5     7    1
     8     7     8   ar
     9     7    15   ar
    10     8     9   ar
    11     9    10   ar
    12    10    11   ar
    13    10    15   ar
    14    11    12   ar
    15    12    13   ar
    16    13    14   ar
    17    14    15   ar
    18    16    17   ar
    19    16    23   ar
    20    17    18   ar
    21    18    19   ar
    22    19    20    1
    23    19    21   ar
    24    21    22    1
    25    21    23   ar
    26     3    24    1
    27     3    25    1
    28     8    26    1
    29    11    27    1
    30    12    28    1
    31    13    29    1
    32    14    30    1
    33    17    31    1
    34    18    32    1
    35    23    33    1
@<TRIPOS>MOLECULE
../data/bude_mols_rdkit_confs/molecule_22.pdb
 33 35 0 0 0
SMALL
GASTEIGER

@<TRIPOS>ATOM
      1  O1        -2.1580   -1.8150    0.1470 O.2     1  UNL1       -0.2884
      2  C1        -2.3790   -0.5830   -0.1210 C.2     1  UNL1        0.2004
      3  C2        -1.2630    0.3850   -0.1910 C.3     1  UNL1        0.1551
      4  O2        -0.0680   -0.2860    0.0710 O.3     1  UNL1       -0.4520
      5  C3         1.1830    0.2840    0.0940 C.2     1  UNL1        0.3581
      6  O3         1.2650    1.5150   -0.1400 O.2     1  UNL1       -0.2432
      7  C4         2.3870   -0.4780    0.3760 C.ar    1  UNL1        0.1504
      8  N1         2.4830   -1.7890    0.6450 N.ar    1  UNL1       -0.2698
      9  N2         3.7460   -2.1240    0.8480 N.ar    1  UNL1       -0.1731
     10  C5         4.5510   -1.0480    0.7230 C.ar    1  UNL1        0.0933
     11  C6         5.9180   -0.8530    0.8330 C.ar    1  UNL1       -0.0340
     12  C7         6.3910    0.4250    0.6320 C.ar    1  UNL1       -0.0597
     13  C8         5.5560    1.4770    0.3330 C.ar    1  UNL1       -0.0610
     14  C9         4.2080    1.2610    0.2300 C.ar    1  UNL1       -0.0503
     15  C10        3.6760    0.0030    0.4200 C.ar    1  UNL1        0.0338
     16  C11       -3.7590   -0.1750   -0.3510 C.ar    1  UNL1        0.0237
     17  C12       -4.8060   -1.0610   -0.2900 C.ar    1  UNL1       -0.0483
     18  C13       -6.0920   -0.5700   -0.5270 C.ar    1  UNL1       -0.0229
     19  C14       -6.3230    0.7600   -0.8150 C.ar    1  UNL1        0.1584
     20  F1        -7.5820    1.2410   -1.0460 F       1  UNL1       -0.2025
     21  C15       -5.2530    1.6490   -0.8740 C.ar    1  UNL1        0.1591
     22  F2        -5.4290    2.9550   -1.1510 F       1  UNL1       -0.2025
     23  C16       -3.9990    1.1500   -0.6390 C.ar    1  UNL1       -0.0130
     24 H          -1.4095    1.1558    0.5365 H       1  UNL1        0.0782
     25 H          -1.2257    0.8267   -1.1649 H       1  UNL1        0.0782
     26 H           1.7220   -2.4123    0.6855 H       1  UNL1        0.1892
     27 H           6.5557   -1.6330    1.0563 H       1  UNL1        0.0639
     28 H           7.4053    0.5993    0.7082 H       1  UNL1        0.0618
     29 H           5.9432    2.4224    0.1874 H       1  UNL1        0.0618
     30 H           3.5816    2.0503    0.0072 H       1  UNL1        0.0625
     31 H          -4.6479   -2.0581   -0.0758 H       1  UNL1        0.0625
     32 H          -6.8923   -1.2202   -0.4856 H       1  UNL1        0.0647
     33 H          -3.1965    1.7976   -0.6797 H       1  UNL1        0.0654
@<TRIPOS>BOND
     1     1     2    2
     2     2     3    1
     3     2    16    1
     4     3     4    1
     5     4     5    1
     6     5     6    2
     7     5     7    1
     8     7     8   ar
     9     7    15   ar
    10     8     9   ar
    11     9    10   ar
    12    10    11   ar
    13    10    15   ar
    14    11    12   ar
    15    12    13   ar
    16    13    14   ar
    17    14    15   ar
    18    16    17   ar
    19    16    23   ar
    20    17    18   ar
    21    18    19   ar
    22    19    20    1
    23    19    21   ar
    24    21    22    1
    25    21    23   ar
    26     3    24    1
    27     3    25    1
    28     8    26    1
    29    11    27    1
    30    12    28    1
    31    13    29    1
    32    14    30    1
    33    17    31    1
    34    18    32    1
    35    23    33    1
@<TRIPOS>MOLECULE
../data/bude_mols_rdkit_confs/molecule_22.pdb
 33 35 0 0 0
SMALL
GASTEIGER

@<TRIPOS>ATOM
      1  O1        -3.2940   -1.5450   -2.4050 O.2     1  UNL1       -0.2884
      2  C1        -2.2270   -1.6070   -1.6710 C.2     1  UNL1        0.2004
      3  C2        -0.9870   -1.7190   -2.4030 C.3     1  UNL1        0.1551
      4  O2         0.2090   -1.4180   -1.7320 O.3     1  UNL1       -0.4520
      5  C3         0.5000   -0.1400   -1.2490 C.2     1  UNL1        0.3581
      6  O3        -0.3670    0.7440   -1.4440 O.2     1  UNL1       -0.2432
      7  C4         1.7410    0.1690   -0.5540 C.ar    1  UNL1        0.1504
      8  N1         2.7560   -0.6660   -0.2730 N.ar    1  UNL1       -0.2698
      9  N2         3.7190   -0.0220    0.3730 N.ar    1  UNL1       -0.1731
     10  C5         3.3850    1.2630    0.5490 C.ar    1  UNL1        0.0933
     11  C6         4.0190    2.3300    1.1450 C.ar    1  UNL1       -0.0340
     12  C7         3.3700    3.5420    1.1460 C.ar    1  UNL1       -0.0597
     13  C8         2.1170    3.6810    0.5630 C.ar    1  UNL1       -0.0610
     14  C9         1.5110    2.6070   -0.0210 C.ar    1  UNL1       -0.0503
     15  C10        2.1230    1.3900   -0.0410 C.ar    1  UNL1        0.0338
     16  C11       -2.4350   -1.5570   -0.2660 C.ar    1  UNL1        0.0237
     17  C12       -3.6990   -1.2450    0.2450 C.ar    1  UNL1       -0.0483
     18  C13       -3.9840   -1.2230    1.5910 C.ar    1  UNL1       -0.0229
     19  C14       -2.9840   -1.5210    2.4890 C.ar    1  UNL1        0.1584
     20  F1        -3.2740   -1.4970    3.8360 F       1  UNL1       -0.2025
     21  C15       -1.7330   -1.8320    2.0300 C.ar    1  UNL1        0.1591
     22  F2        -0.7670   -2.1210    2.9270 F       1  UNL1       -0.2025
     23  C16       -1.4720   -1.8480    0.6520 C.ar    1  UNL1       -0.0130
     24 H          -1.0539   -1.0599   -3.2432 H       1  UNL1        0.0782
     25 H          -0.9075   -2.7612   -2.6320 H       1  UNL1        0.0782
     26 H           2.7812   -1.6205   -0.5127 H       1  UNL1        0.1892
     27 H           4.9503    2.2235    1.5766 H       1  UNL1        0.0639
     28 H           3.8201    4.3598    1.5860 H       1  UNL1        0.0618
     29 H           1.6436    4.5980    0.5715 H       1  UNL1        0.0618
     30 H           0.5798    2.7177   -0.4518 H       1  UNL1        0.0625
     31 H          -4.4552   -1.0202   -0.4203 H       1  UNL1        0.0625
     32 H          -4.9325   -0.9868    1.9221 H       1  UNL1        0.0647
     33 H          -0.5231   -2.0871    0.3243 H       1  UNL1        0.0654
@<TRIPOS>BOND
     1     1     2    2
     2     2     3    1
     3     2    16    1
     4     3     4    1
     5     4     5    1
     6     5     6    2
     7     5     7    1
     8     7     8   ar
     9     7    15   ar
    10     8     9   ar
    11     9    10   ar
    12    10    11   ar
    13    10    15   ar
    14    11    12   ar
    15    12    13   ar
    16    13    14   ar
    17    14    15   ar
    18    16    17   ar
    19    16    23   ar
    20    17    18   ar
    21    18    19   ar
    22    19    20    1
    23    19    21   ar
    24    21    22    1
    25    21    23   ar
    26     3    24    1
    27     3    25    1
    28     8    26    1
    29    11    27    1
    30    12    28    1
    31    13    29    1
    32    14    30    1
    33    17    31    1
    34    18    32    1
    35    23    33    1
@<TRIPOS>MOLECULE
../data/bude_mols_rdkit_confs/molecule_22.pdb
 33 35 0 0 0
SMALL
GASTEIGER

@<TRIPOS>ATOM
      1  O1        -1.3590    0.6570    1.1950 O.2     1  UNL1       -0.2884
      2  C1        -1.8090    0.1820    0.1250 C.2     1  UNL1        0.2004
      3  C2        -0.9490   -0.2680   -0.9640 C.3     1  UNL1        0.1551
      4  O2         0.4170   -0.1270   -0.7230 O.3     1  UNL1       -0.4520
      5  C3         1.0140    1.0950   -0.4690 C.2     1  UNL1        0.3581
      6  O3         0.2750    2.1090   -0.4610 O.2     1  UNL1       -0.2432
      7  C4         2.4440    1.2040   -0.2220 C.ar    1  UNL1        0.1504
      8  N1         3.1760    2.2980    0.0370 N.ar    1  UNL1       -0.2698
      9  N2         4.4380    1.9720    0.2020 N.ar    1  UNL1       -0.1731
     10  C5         4.5930    0.6390    0.0570 C.ar    1  UNL1        0.0933
     11  C6         5.6860   -0.2150    0.1260 C.ar    1  UNL1       -0.0340
     12  C7         5.5370   -1.5740   -0.0720 C.ar    1  UNL1       -0.0597
     13  C8         4.2910   -2.0990   -0.3420 C.ar    1  UNL1       -0.0610
     14  C9         3.2130   -1.2260   -0.4070 C.ar    1  UNL1       -0.0503
     15  C10        3.3350    0.1370   -0.2130 C.ar    1  UNL1        0.0338
     16  C11       -3.2600    0.0820   -0.0140 C.ar    1  UNL1        0.0237
     17  C12       -3.8290   -0.4340   -1.1700 C.ar    1  UNL1       -0.0483
     18  C13       -5.1920   -0.5400   -1.3290 C.ar    1  UNL1       -0.0229
     19  C14       -6.0160   -0.1150   -0.3000 C.ar    1  UNL1        0.1584
     20  F1        -7.3720   -0.1840   -0.3750 F       1  UNL1       -0.2025
     21  C15       -5.4940    0.4090    0.8770 C.ar    1  UNL1        0.1591
     22  F2        -6.3170    0.8190    1.8730 F       1  UNL1       -0.2025
     23  C16       -4.1240    0.4890    0.9780 C.ar    1  UNL1       -0.0130
     24 H          -1.1936    0.2987   -1.8380 H       1  UNL1        0.0782
     25 H          -1.1294   -1.3165   -1.0785 H       1  UNL1        0.0782
     26 H           2.8188    3.2136    0.0951 H       1  UNL1        0.1892
     27 H           6.6217    0.1707    0.3278 H       1  UNL1        0.0639
     28 H           6.3584   -2.1964   -0.0178 H       1  UNL1        0.0618
     29 H           4.1631   -3.1121   -0.4916 H       1  UNL1        0.0618
     30 H           2.2779   -1.6127   -0.6095 H       1  UNL1        0.0625
     31 H          -3.2107   -0.7480   -1.9343 H       1  UNL1        0.0625
     32 H          -5.5920   -0.9283   -2.1975 H       1  UNL1        0.0647
     33 H          -3.7214    0.8758    1.8460 H       1  UNL1        0.0654
@<TRIPOS>BOND
     1     1     2    2
     2     2     3    1
     3     2    16    1
     4     3     4    1
     5     4     5    1
     6     5     6    2
     7     5     7    1
     8     7     8   ar
     9     7    15   ar
    10     8     9   ar
    11     9    10   ar
    12    10    11   ar
    13    10    15   ar
    14    11    12   ar
    15    12    13   ar
    16    13    14   ar
    17    14    15   ar
    18    16    17   ar
    19    16    23   ar
    20    17    18   ar
    21    18    19   ar
    22    19    20    1
    23    19    21   ar
    24    21    22    1
    25    21    23   ar
    26     3    24    1
    27     3    25    1
    28     8    26    1
    29    11    27    1
    30    12    28    1
    31    13    29    1
    32    14    30    1
    33    17    31    1
    34    18    32    1
    35    23    33    1
@<TRIPOS>MOLECULE
../data/bude_mols_rdkit_confs/molecule_22.pdb
 33 35 0 0 0
SMALL
GASTEIGER

@<TRIPOS>ATOM
      1  O1        -1.4790   -0.8760   -0.8810 O.2     1  UNL1       -0.2884
      2  C1        -1.9430   -0.3860    0.1580 C.2     1  UNL1        0.2004
      3  C2        -1.2170   -0.2980    1.4450 C.3     1  UNL1        0.1551
      4  O2         0.0650   -0.8220    1.4030 O.3     1  UNL1       -0.4520
      5  C3         1.0050   -0.2940    0.5300 C.2     1  UNL1        0.3581
      6  O3         0.6310    0.6630   -0.2000 O.2     1  UNL1       -0.2432
      7  C4         2.3670   -0.8030    0.4420 C.ar    1  UNL1        0.1504
      8  N1         2.8390   -1.8170    1.1840 N.ar    1  UNL1       -0.2698
      9  N2         4.1000   -1.9820    0.8200 N.ar    1  UNL1       -0.1731
     10  C5         4.4680   -1.1140   -0.1320 C.ar    1  UNL1        0.0933
     11  C6         5.6590   -0.9280   -0.7920 C.ar    1  UNL1       -0.0340
     12  C7         5.7610    0.0560   -1.7420 C.ar    1  UNL1       -0.0597
     13  C8         4.6520    0.8390   -2.0100 C.ar    1  UNL1       -0.0610
     14  C9         3.4610    0.6450   -1.3430 C.ar    1  UNL1       -0.0503
     15  C10        3.3570   -0.3360   -0.3940 C.ar    1  UNL1        0.0338
     16  C11       -3.3120    0.1510    0.1270 C.ar    1  UNL1        0.0237
     17  C12       -4.0640    0.1080   -1.0430 C.ar    1  UNL1       -0.0483
     18  C13       -5.3480    0.6110   -1.0760 C.ar    1  UNL1       -0.0229
     19  C14       -5.9300    1.1730    0.0510 C.ar    1  UNL1        0.1584
     20  F1        -7.2010    1.6690    0.0110 F       1  UNL1       -0.2025
     21  C15       -5.1860    1.2180    1.2130 C.ar    1  UNL1        0.1591
     22  F2        -5.7410    1.7700    2.3420 F       1  UNL1       -0.2025
     23  C16       -3.9090    0.7140    1.2340 C.ar    1  UNL1       -0.0130
     24 H          -1.7757   -0.8330    2.1843 H       1  UNL1        0.0782
     25 H          -1.1201    0.7421    1.6766 H       1  UNL1        0.0782
     26 H           2.3463   -2.3335    1.8620 H       1  UNL1        0.1892
     27 H           6.4719   -1.5253   -0.5741 H       1  UNL1        0.0639
     28 H           6.6477    0.2095   -2.2472 H       1  UNL1        0.0618
     29 H           4.7176    1.5824   -2.7228 H       1  UNL1        0.0618
     30 H           2.6464    1.2405   -1.5596 H       1  UNL1        0.0625
     31 H          -3.6562   -0.3052   -1.8963 H       1  UNL1        0.0625
     32 H          -5.8859    0.5685   -1.9557 H       1  UNL1        0.0647
     33 H          -3.3741    0.7587    2.1154 H       1  UNL1        0.0654
@<TRIPOS>BOND
     1     1     2    2
     2     2     3    1
     3     2    16    1
     4     3     4    1
     5     4     5    1
     6     5     6    2
     7     5     7    1
     8     7     8   ar
     9     7    15   ar
    10     8     9   ar
    11     9    10   ar
    12    10    11   ar
    13    10    15   ar
    14    11    12   ar
    15    12    13   ar
    16    13    14   ar
    17    14    15   ar
    18    16    17   ar
    19    16    23   ar
    20    17    18   ar
    21    18    19   ar
    22    19    20    1
    23    19    21   ar
    24    21    22    1
    25    21    23   ar
    26     3    24    1
    27     3    25    1
    28     8    26    1
    29    11    27    1
    30    12    28    1
    31    13    29    1
    32    14    30    1
    33    17    31    1
    34    18    32    1
    35    23    33    1
@<TRIPOS>MOLECULE
../data/bude_mols_rdkit_confs/molecule_22.pdb
 33 35 0 0 0
SMALL
GASTEIGER

@<TRIPOS>ATOM
      1  O1        -1.3190   -0.8650    1.1170 O.2     1  UNL1       -0.2884
      2  C1        -1.8120   -0.1550    0.2300 C.2     1  UNL1        0.2004
      3  C2        -0.9330    0.5480   -0.7360 C.3     1  UNL1        0.1551
      4  O2         0.4240    0.3010   -0.5060 O.3     1  UNL1       -0.4520
      5  C3         0.9390   -0.9830   -0.5550 C.2     1  UNL1        0.3581
      6  O3         0.1390   -1.9130   -0.8150 O.2     1  UNL1       -0.2432
      7  C4         2.3550   -1.2110   -0.3110 C.ar    1  UNL1        0.1504
      8  N1         2.9720   -2.4020   -0.3310 N.ar    1  UNL1       -0.2698
      9  N2         4.2740   -2.2450   -0.0640 N.ar    1  UNL1       -0.1731
     10  C5         4.5540   -0.9580    0.1370 C.ar    1  UNL1        0.0933
     11  C6         5.6530   -0.1930    0.4350 C.ar    1  UNL1       -0.0340
     12  C7         5.5680    1.1800    0.5770 C.ar    1  UNL1       -0.0597
     13  C8         4.3690    1.8280    0.4230 C.ar    1  UNL1       -0.0610
     14  C9         3.2500    1.0720    0.1220 C.ar    1  UNL1       -0.0503
     15  C10        3.3410   -0.2960   -0.0180 C.ar    1  UNL1        0.0338
     16  C11       -3.2530    0.0090    0.1110 C.ar    1  UNL1        0.0237
     17  C12       -4.0640   -0.6450    1.0110 C.ar    1  UNL1       -0.0483
     18  C13       -5.4260   -0.4890    0.8970 C.ar    1  UNL1       -0.0229
     19  C14       -5.9700    0.2900   -0.0770 C.ar    1  UNL1        0.1584
     20  F1        -7.3160    0.4350   -0.1770 F       1  UNL1       -0.2025
     21  C15       -5.1680    0.9490   -0.9810 C.ar    1  UNL1        0.1591
     22  F2        -5.7190    1.7340   -1.9620 F       1  UNL1       -0.2025
     23  C16       -3.8040    0.8140   -0.8950 C.ar    1  UNL1       -0.0130
     24 H          -1.1082    1.6005   -0.6558 H       1  UNL1        0.0782
     25 H          -1.1680    0.1824   -1.7138 H       1  UNL1        0.0782
     26 H           2.5324   -3.2635   -0.5148 H       1  UNL1        0.1892
     27 H           6.5680   -0.6546    0.5565 H       1  UNL1        0.0639
     28 H           6.4163    1.7232    0.8014 H       1  UNL1        0.0618
     29 H           4.3032    2.8524    0.5288 H       1  UNL1        0.0618
     30 H           2.3370    1.5377    0.0010 H       1  UNL1        0.0625
     31 H          -3.6601   -1.2377    1.7530 H       1  UNL1        0.0625
     32 H          -6.0478   -0.9726    1.5637 H       1  UNL1        0.0647
     33 H          -3.1897    1.3015   -1.5659 H       1  UNL1        0.0654
@<TRIPOS>BOND
     1     1     2    2
     2     2     3    1
     3     2    16    1
     4     3     4    1
     5     4     5    1
     6     5     6    2
     7     5     7    1
     8     7     8   ar
     9     7    15   ar
    10     8     9   ar
    11     9    10   ar
    12    10    11   ar
    13    10    15   ar
    14    11    12   ar
    15    12    13   ar
    16    13    14   ar
    17    14    15   ar
    18    16    17   ar
    19    16    23   ar
    20    17    18   ar
    21    18    19   ar
    22    19    20    1
    23    19    21   ar
    24    21    22    1
    25    21    23   ar
    26     3    24    1
    27     3    25    1
    28     8    26    1
    29    11    27    1
    30    12    28    1
    31    13    29    1
    32    14    30    1
    33    17    31    1
    34    18    32    1
    35    23    33    1
@<TRIPOS>MOLECULE
../data/bude_mols_rdkit_confs/molecule_22.pdb
 33 35 0 0 0
SMALL
GASTEIGER

@<TRIPOS>ATOM
      1  O1        -1.3790   -0.5390   -1.0250 O.2     1  UNL1       -0.2884
      2  C1        -1.8060    0.1060   -0.0190 C.2     1  UNL1        0.2004
      3  C2        -0.8080    0.8070    0.8230 C.3     1  UNL1        0.1551
      4  O2         0.4950    0.6160    0.3220 O.3     1  UNL1       -0.4520
      5  C3         0.9020    0.9990   -0.9270 C.2     1  UNL1        0.3581
      6  O3         0.0920    1.5580   -1.7030 O.2     1  UNL1       -0.2432
      7  C4         2.2660    0.7640   -1.3630 C.ar    1  UNL1        0.1504
      8  N1         2.7890    1.0930   -2.5640 N.ar    1  UNL1       -0.2698
      9  N2         4.0370    0.7120   -2.5540 N.ar    1  UNL1       -0.1731
     10  C5         4.3780    0.1430   -1.4020 C.ar    1  UNL1        0.0933
     11  C6         5.5300   -0.4170   -0.8790 C.ar    1  UNL1       -0.0340
     12  C7         5.5450   -0.9380    0.3970 C.ar    1  UNL1       -0.0597
     13  C8         4.4100   -0.9150    1.1870 C.ar    1  UNL1       -0.0610
     14  C9         3.2540   -0.3600    0.6780 C.ar    1  UNL1       -0.0503
     15  C10        3.2520    0.1570   -0.5990 C.ar    1  UNL1        0.0338
     16  C11       -3.2260    0.1580    0.3030 C.ar    1  UNL1        0.0237
     17  C12       -3.6300    0.8730    1.4080 C.ar    1  UNL1       -0.0483
     18  C13       -4.9600    0.9590    1.7630 C.ar    1  UNL1       -0.0229
     19  C14       -5.8790    0.2930    0.9580 C.ar    1  UNL1        0.1584
     20  F1        -7.2020    0.3730    1.3030 F       1  UNL1       -0.2025
     21  C15       -5.4980   -0.4290   -0.1530 C.ar    1  UNL1        0.1591
     22  F2        -6.4320   -1.0670   -0.9150 F       1  UNL1       -0.2025
     23  C16       -4.1470   -0.4980   -0.4870 C.ar    1  UNL1       -0.0130
     24 H          -0.8596    0.4232    1.8205 H       1  UNL1        0.0782
     25 H          -1.0279    1.8541    0.8138 H       1  UNL1        0.0782
     26 H           2.3180    1.5362   -3.3062 H       1  UNL1        0.1892
     27 H           6.3884   -0.4450   -1.4512 H       1  UNL1        0.0639
     28 H           6.4150   -1.3509    0.7680 H       1  UNL1        0.0618
     29 H           4.4275   -1.3066    2.1417 H       1  UNL1        0.0618
     30 H           2.3958   -0.3323    1.2505 H       1  UNL1        0.0625
     31 H          -2.9220    1.3553    1.9834 H       1  UNL1        0.0625
     32 H          -5.2612    1.4953    2.5917 H       1  UNL1        0.0647
     33 H          -3.8396   -1.0328   -1.3144 H       1  UNL1        0.0654
@<TRIPOS>BOND
     1     1     2    2
     2     2     3    1
     3     2    16    1
     4     3     4    1
     5     4     5    1
     6     5     6    2
     7     5     7    1
     8     7     8   ar
     9     7    15   ar
    10     8     9   ar
    11     9    10   ar
    12    10    11   ar
    13    10    15   ar
    14    11    12   ar
    15    12    13   ar
    16    13    14   ar
    17    14    15   ar
    18    16    17   ar
    19    16    23   ar
    20    17    18   ar
    21    18    19   ar
    22    19    20    1
    23    19    21   ar
    24    21    22    1
    25    21    23   ar
    26     3    24    1
    27     3    25    1
    28     8    26    1
    29    11    27    1
    30    12    28    1
    31    13    29    1
    32    14    30    1
    33    17    31    1
    34    18    32    1
    35    23    33    1
@<TRIPOS>MOLECULE
../data/bude_mols_rdkit_confs/molecule_22.pdb
 33 35 0 0 0
SMALL
GASTEIGER

@<TRIPOS>ATOM
      1  O1         3.1720    2.9200   -1.4480 O.2     1  UNL1       -0.2884
      2  C1         2.5140    1.9410   -0.9020 C.2     1  UNL1        0.2004
      3  C2         1.0870    1.9780   -1.0810 C.3     1  UNL1        0.1551
      4  O2         0.3790    0.9320   -0.4990 O.3     1  UNL1       -0.4520
      5  C3        -1.0030    0.8060   -0.5700 C.2     1  UNL1        0.3581
      6  O3        -1.6190    1.6960   -1.1970 O.2     1  UNL1       -0.2432
      7  C4        -1.7420   -0.2870    0.0380 C.ar    1  UNL1        0.1504
      8  N1        -1.2500   -1.3160    0.7390 N.ar    1  UNL1       -0.2698
      9  N2        -2.2250   -2.1150    1.1360 N.ar    1  UNL1       -0.1731
     10  C5        -3.4220   -1.6400    0.7070 C.ar    1  UNL1        0.0933
     11  C6        -4.7240   -2.0790    0.8430 C.ar    1  UNL1       -0.0340
     12  C7        -5.7490   -1.3530    0.2740 C.ar    1  UNL1       -0.0597
     13  C8        -5.4270   -0.2020   -0.4160 C.ar    1  UNL1       -0.0610
     14  C9        -4.1280    0.2490   -0.5590 C.ar    1  UNL1       -0.0503
     15  C10       -3.1020   -0.4730    0.0070 C.ar    1  UNL1        0.0338
     16  C11        3.3220    0.9780   -0.2080 C.ar    1  UNL1        0.0237
     17  C12        4.7230    1.1290   -0.1520 C.ar    1  UNL1       -0.0483
     18  C13        5.5560    0.2550    0.4890 C.ar    1  UNL1       -0.0229
     19  C14        5.0600   -0.8560    1.1350 C.ar    1  UNL1        0.1584
     20  F1         5.8890   -1.7130    1.7650 F       1  UNL1       -0.2025
     21  C15        3.7080   -1.0250    1.0950 C.ar    1  UNL1        0.1591
     22  F2         3.1700   -2.1030    1.7150 F       1  UNL1       -0.2025
     23  C16        2.8450   -0.1380    0.4420 C.ar    1  UNL1       -0.0130
     24 H           0.8871    1.9656   -2.1321 H       1  UNL1        0.0782
     25 H           0.7539    2.8665   -0.5865 H       1  UNL1        0.0782
     26 H          -0.2950   -1.4577    0.9319 H       1  UNL1        0.1892
     27 H          -4.9286   -2.9443    1.3668 H       1  UNL1        0.0639
     28 H          -6.7298   -1.6618    0.3617 H       1  UNL1        0.0618
     29 H          -6.1894    0.3462   -0.8441 H       1  UNL1        0.0618
     30 H          -3.9302    1.1156   -1.0833 H       1  UNL1        0.0625
     31 H           5.1434    1.9460   -0.6218 H       1  UNL1        0.0625
     32 H           6.5730    0.4303    0.4890 H       1  UNL1        0.0647
     33 H           1.8300   -0.3242    0.4477 H       1  UNL1        0.0654
@<TRIPOS>BOND
     1     1     2    2
     2     2     3    1
     3     2    16    1
     4     3     4    1
     5     4     5    1
     6     5     6    2
     7     5     7    1
     8     7     8   ar
     9     7    15   ar
    10     8     9   ar
    11     9    10   ar
    12    10    11   ar
    13    10    15   ar
    14    11    12   ar
    15    12    13   ar
    16    13    14   ar
    17    14    15   ar
    18    16    17   ar
    19    16    23   ar
    20    17    18   ar
    21    18    19   ar
    22    19    20    1
    23    19    21   ar
    24    21    22    1
    25    21    23   ar
    26     3    24    1
    27     3    25    1
    28     8    26    1
    29    11    27    1
    30    12    28    1
    31    13    29    1
    32    14    30    1
    33    17    31    1
    34    18    32    1
    35    23    33    1
@<TRIPOS>MOLECULE
../data/bude_mols_rdkit_confs/molecule_22.pdb
 33 35 0 0 0
SMALL
GASTEIGER

@<TRIPOS>ATOM
      1  O1         1.2940   -1.0890    0.8990 O.2     1  UNL1       -0.2884
      2  C1         1.9490   -0.1050    0.5140 C.2     1  UNL1        0.2004
      3  C2         1.3400    1.1780    0.3010 C.3     1  UNL1        0.1551
      4  O2        -0.0190    1.3160    0.5320 O.3     1  UNL1       -0.4520
      5  C3        -1.0380    0.6410   -0.0850 C.2     1  UNL1        0.3581
      6  O3        -0.6390   -0.1830   -0.9460 O.2     1  UNL1       -0.2432
      7  C4        -2.4530    0.8420    0.2140 C.ar    1  UNL1        0.1504
      8  N1        -3.0150    1.6800    1.1010 N.ar    1  UNL1       -0.2698
      9  N2        -4.3150    1.5460    1.0520 N.ar    1  UNL1       -0.1731
     10  C5        -4.6710    0.6150    0.1320 C.ar    1  UNL1        0.0933
     11  C6        -5.8600    0.1000   -0.3110 C.ar    1  UNL1       -0.0340
     12  C7        -5.9150   -0.8750   -1.2960 C.ar    1  UNL1       -0.0597
     13  C8        -4.7350   -1.3360   -1.8430 C.ar    1  UNL1       -0.0610
     14  C9        -3.5280   -0.8190   -1.3990 C.ar    1  UNL1       -0.0503
     15  C10       -3.4730    0.1570   -0.4130 C.ar    1  UNL1        0.0338
     16  C11        3.3640   -0.2820    0.2820 C.ar    1  UNL1        0.0237
     17  C12        4.1750    0.7680   -0.1500 C.ar    1  UNL1       -0.0483
     18  C13        5.5160    0.6020   -0.3710 C.ar    1  UNL1       -0.0229
     19  C14        6.1190   -0.6100   -0.1740 C.ar    1  UNL1        0.1584
     20  F1         7.4610   -0.7660   -0.3980 F       1  UNL1       -0.2025
     21  C15        5.3510   -1.6730    0.2520 C.ar    1  UNL1        0.1591
     22  F2         5.9800   -2.8520    0.4350 F       1  UNL1       -0.2025
     23  C16        4.0030   -1.4890    0.4700 C.ar    1  UNL1       -0.0130
     24 H           1.5143    1.4436   -0.7207 H       1  UNL1        0.0782
     25 H           1.7940    1.8066    1.0383 H       1  UNL1        0.0782
     26 H          -2.5264    2.2963    1.6931 H       1  UNL1        0.1892
     27 H          -6.7406    0.4474    0.0999 H       1  UNL1        0.0639
     28 H          -6.8226   -1.2491   -1.6142 H       1  UNL1        0.0618
     29 H          -4.7510   -2.0607   -2.5776 H       1  UNL1        0.0618
     30 H          -2.6487   -1.1680   -1.8114 H       1  UNL1        0.0625
     31 H           3.7521    1.6961   -0.3074 H       1  UNL1        0.0625
     32 H           6.0809    1.4041   -0.6913 H       1  UNL1        0.0647
     33 H           3.4437   -2.2951    0.7900 H       1  UNL1        0.0654
@<TRIPOS>BOND
     1     1     2    2
     2     2     3    1
     3     2    16    1
     4     3     4    1
     5     4     5    1
     6     5     6    2
     7     5     7    1
     8     7     8   ar
     9     7    15   ar
    10     8     9   ar
    11     9    10   ar
    12    10    11   ar
    13    10    15   ar
    14    11    12   ar
    15    12    13   ar
    16    13    14   ar
    17    14    15   ar
    18    16    17   ar
    19    16    23   ar
    20    17    18   ar
    21    18    19   ar
    22    19    20    1
    23    19    21   ar
    24    21    22    1
    25    21    23   ar
    26     3    24    1
    27     3    25    1
    28     8    26    1
    29    11    27    1
    30    12    28    1
    31    13    29    1
    32    14    30    1
    33    17    31    1
    34    18    32    1
    35    23    33    1
@<TRIPOS>MOLECULE
../data/bude_mols_rdkit_confs/molecule_22.pdb
 33 35 0 0 0
SMALL
GASTEIGER

@<TRIPOS>ATOM
      1  O1        -3.2210    0.5450   -3.0130 O.2     1  UNL1       -0.2884
      2  C1        -2.4840    0.8260   -1.9790 C.2     1  UNL1        0.2004
      3  C2        -1.4280    1.7860   -2.2500 C.3     1  UNL1        0.1551
      4  O2        -0.3830    1.8960   -1.3340 O.3     1  UNL1       -0.4520
      5  C3         0.5210    0.8640   -1.0720 C.2     1  UNL1        0.3581
      6  O3         0.3750   -0.2060   -1.6940 O.2     1  UNL1       -0.2432
      7  C4         1.6130    0.9790   -0.1160 C.ar    1  UNL1        0.1504
      8  N1         1.9240    2.0580    0.6480 N.ar    1  UNL1       -0.2698
      9  N2         2.9730    1.7990    1.3930 N.ar    1  UNL1       -0.1731
     10  C5         3.4070    0.5330    1.1580 C.ar    1  UNL1        0.0933
     11  C6         4.4580   -0.2070    1.6800 C.ar    1  UNL1       -0.0340
     12  C7         4.6130   -1.4890    1.2070 C.ar    1  UNL1       -0.0597
     13  C8         3.7560   -2.0150    0.2520 C.ar    1  UNL1       -0.0610
     14  C9         2.7160   -1.2680   -0.2580 C.ar    1  UNL1       -0.0503
     15  C10        2.5520    0.0170    0.2100 C.ar    1  UNL1        0.0338
     16  C11       -2.8240    0.1580   -0.7570 C.ar    1  UNL1        0.0237
     17  C12       -3.7670   -0.8770   -0.7740 C.ar    1  UNL1       -0.0483
     18  C13       -4.1670   -1.5280    0.3700 C.ar    1  UNL1       -0.0229
     19  C14       -3.6600   -1.1990    1.6020 C.ar    1  UNL1        0.1584
     20  F1        -4.0380   -1.8270    2.7400 F       1  UNL1       -0.2025
     21  C15       -2.7340   -0.1860    1.6370 C.ar    1  UNL1        0.1591
     22  F2        -2.1980    0.1830    2.8260 F       1  UNL1       -0.2025
     23  C16       -2.3170    0.4890    0.4750 C.ar    1  UNL1       -0.0130
     24 H          -1.8873    2.7496   -2.3236 H       1  UNL1        0.0782
     25 H          -0.9609    1.4199   -3.1403 H       1  UNL1        0.0782
     26 H           1.4333    2.9115    0.6436 H       1  UNL1        0.1892
     27 H           5.0944    0.1866    2.3907 H       1  UNL1        0.0639
     28 H           5.3832   -2.0718    1.5704 H       1  UNL1        0.0618
     29 H           3.8992   -2.9809   -0.0821 H       1  UNL1        0.0618
     30 H           2.0792   -1.6598   -0.9693 H       1  UNL1        0.0625
     31 H          -4.1767   -1.1617   -1.6774 H       1  UNL1        0.0625
     32 H          -4.8666   -2.2835    0.2998 H       1  UNL1        0.0647
     33 H          -1.6187    1.2451    0.5501 H       1  UNL1        0.0654
@<TRIPOS>BOND
     1     1     2    2
     2     2     3    1
     3     2    16    1
     4     3     4    1
     5     4     5    1
     6     5     6    2
     7     5     7    1
     8     7     8   ar
     9     7    15   ar
    10     8     9   ar
    11     9    10   ar
    12    10    11   ar
    13    10    15   ar
    14    11    12   ar
    15    12    13   ar
    16    13    14   ar
    17    14    15   ar
    18    16    17   ar
    19    16    23   ar
    20    17    18   ar
    21    18    19   ar
    22    19    20    1
    23    19    21   ar
    24    21    22    1
    25    21    23   ar
    26     3    24    1
    27     3    25    1
    28     8    26    1
    29    11    27    1
    30    12    28    1
    31    13    29    1
    32    14    30    1
    33    17    31    1
    34    18    32    1
    35    23    33    1
@<TRIPOS>MOLECULE
../data/bude_mols_rdkit_confs/molecule_22.pdb
 33 35 0 0 0
SMALL
GASTEIGER

@<TRIPOS>ATOM
      1  O1         1.1690    0.7220    0.9650 O.2     1  UNL1       -0.2884
      2  C1         1.9700    0.3320    0.0490 C.2     1  UNL1        0.2004
      3  C2         1.4820    0.3120   -1.3530 C.3     1  UNL1        0.1551
      4  O2         0.1570    0.7510   -1.3810 O.3     1  UNL1       -0.4520
      5  C3        -0.8880    0.1550   -0.7260 C.2     1  UNL1        0.3581
      6  O3        -0.6720   -0.8690   -0.0360 O.2     1  UNL1       -0.2432
      7  C4        -2.2270    0.7150   -0.8390 C.ar    1  UNL1        0.1504
      8  N1        -2.6360    1.7940   -1.5260 N.ar    1  UNL1       -0.2698
      9  N2        -3.9440    1.9770   -1.3740 N.ar    1  UNL1       -0.1731
     10  C5        -4.4550    1.0310   -0.5830 C.ar    1  UNL1        0.0933
     11  C6        -5.7290    0.7810   -0.1260 C.ar    1  UNL1       -0.0340
     12  C7        -5.9850   -0.2860    0.6970 C.ar    1  UNL1       -0.0597
     13  C8        -4.9120   -1.0960    1.0470 C.ar    1  UNL1       -0.0610
     14  C9        -3.6340   -0.8430    0.5870 C.ar    1  UNL1       -0.0503
     15  C10       -3.3780    0.2180   -0.2320 C.ar    1  UNL1        0.0338
     16  C11        3.3270   -0.0810    0.3800 C.ar    1  UNL1        0.0237
     17  C12        3.7240   -0.0420    1.6950 C.ar    1  UNL1       -0.0483
     18  C13        4.9970   -0.4180    2.0900 C.ar    1  UNL1       -0.0229
     19  C14        5.8650   -0.8380    1.1130 C.ar    1  UNL1        0.1584
     20  F1         7.1300   -1.2180    1.4640 F       1  UNL1       -0.2025
     21  C15        5.4730   -0.8790   -0.2030 C.ar    1  UNL1        0.1591
     22  F2         6.3250   -1.2940   -1.1790 F       1  UNL1       -0.2025
     23  C16        4.1860   -0.4980   -0.5990 C.ar    1  UNL1       -0.0130
     24 H           1.5375   -0.6849   -1.7377 H       1  UNL1        0.0782
     25 H           2.0883    0.9559   -1.9553 H       1  UNL1        0.0782
     26 H          -2.0487    2.3697   -2.0672 H       1  UNL1        0.1892
     27 H          -6.5020    1.4047   -0.4063 H       1  UNL1        0.0639
     28 H          -6.9379   -0.4796    1.0428 H       1  UNL1        0.0618
     29 H          -5.0734   -1.9062    1.6655 H       1  UNL1        0.0618
     30 H          -2.8607   -1.4663    0.8673 H       1  UNL1        0.0625
     31 H           3.0525    0.2775    2.4106 H       1  UNL1        0.0625
     32 H           5.2822   -0.3837    3.0812 H       1  UNL1        0.0647
     33 H           3.8970   -0.5304   -1.5892 H       1  UNL1        0.0654
@<TRIPOS>BOND
     1     1     2    2
     2     2     3    1
     3     2    16    1
     4     3     4    1
     5     4     5    1
     6     5     6    2
     7     5     7    1
     8     7     8   ar
     9     7    15   ar
    10     8     9   ar
    11     9    10   ar
    12    10    11   ar
    13    10    15   ar
    14    11    12   ar
    15    12    13   ar
    16    13    14   ar
    17    14    15   ar
    18    16    17   ar
    19    16    23   ar
    20    17    18   ar
    21    18    19   ar
    22    19    20    1
    23    19    21   ar
    24    21    22    1
    25    21    23   ar
    26     3    24    1
    27     3    25    1
    28     8    26    1
    29    11    27    1
    30    12    28    1
    31    13    29    1
    32    14    30    1
    33    17    31    1
    34    18    32    1
    35    23    33    1
