@<TRIPOS>MOLECULE
../data/bude_mols_rdkit_confs/molecule_69.pdb
 40 42 0 0 0
SMALL
GASTEIGER

@<TRIPOS>ATOM
      1  C1        -6.3780    0.1550   -1.6550 C.3     1  UNL1        0.0059
      2  N1        -5.8410    1.4090   -1.2290 N.3     1  UNL1       -0.1930
      3  S1        -5.2340    1.3760    0.3860 S.O2    1  UNL1        0.0582
      4  O1        -6.3360    0.9930    1.3260 O.2     1  UNL1       -0.1531
      5  O2        -4.7840    2.7580    0.7580 O.2     1  UNL1       -0.1531
      6  C2        -3.9200    0.2280    0.5460 C.ar    1  UNL1        0.1070
      7  C3        -4.2160   -1.0570    0.8820 C.ar    1  UNL1       -0.0352
      8  C4        -3.1810   -1.9550    1.0080 C.ar    1  UNL1       -0.0582
      9  C5        -1.8460   -1.5980    0.8030 C.ar    1  UNL1       -0.0404
     10  C6        -1.5320   -0.3010    0.4630 C.ar    1  UNL1        0.0354
     11  N2        -0.2190    0.1560    0.2370 N.pl3   1  UNL1       -0.2836
     12  C7         0.9800   -0.5560    0.3030 C.ar    1  UNL1        0.2200
     13  N3         1.0760   -1.8550    0.6090 N.ar    1  UNL1       -0.2226
     14  C8         2.2290   -2.5380    0.6720 C.ar    1  UNL1        0.0332
     15  C9         3.4050   -1.8260    0.3960 C.ar    1  UNL1       -0.0174
     16  C10        3.3440   -0.4930    0.0790 C.ar    1  UNL1        0.0760
     17  C11        4.5720    0.2270   -0.2030 C.ar    1  UNL1        0.0005
     18  C12        5.8210   -0.3440   -0.1750 C.ar    1  UNL1       -0.0526
     19  C13        6.9310    0.4570   -0.4660 C.ar    1  UNL1       -0.0611
     20  C14        6.8190    1.7930   -0.7800 C.ar    1  UNL1       -0.0617
     21  C15        5.5620    2.3460   -0.8020 C.ar    1  UNL1       -0.0611
     22  C16        4.4670    1.5820   -0.5210 C.ar    1  UNL1       -0.0526
     23  N4         2.1490    0.0920    0.0430 N.ar    1  UNL1       -0.2142
     24  C17       -2.6190    0.5820    0.3460 C.ar    1  UNL1       -0.0141
     25 H          -6.7355    0.2429   -2.6597 H       1  UNL1        0.0405
     26 H          -7.1864   -0.1238   -1.0119 H       1  UNL1        0.0405
     27 H          -5.6141   -0.5931   -1.6124 H       1  UNL1        0.0405
     28 H          -6.5776    2.1124   -1.2840 H       1  UNL1        0.1477
     29 H          -5.1928   -1.3509    1.0385 H       1  UNL1        0.0637
     30 H          -3.3995   -2.9306    1.2640 H       1  UNL1        0.0619
     31 H          -1.0990   -2.3026    0.9058 H       1  UNL1        0.0636
     32 H          -0.1354    1.1079    0.0000 H       1  UNL1        0.1550
     33 H           2.2495   -3.5414    0.9126 H       1  UNL1        0.0831
     34 H           4.3180   -2.3058    0.4314 H       1  UNL1        0.0654
     35 H           5.9384   -1.3430    0.0558 H       1  UNL1        0.0624
     36 H           7.8701    0.0297   -0.4444 H       1  UNL1        0.0618
     37 H           7.6539    2.3613   -0.9923 H       1  UNL1        0.0618
     38 H           5.4450    3.3451   -1.0324 H       1  UNL1        0.0618
     39 H           3.5326    2.0194   -0.5443 H       1  UNL1        0.0624
     40 H          -2.4192    1.5621    0.0922 H       1  UNL1        0.0656
@<TRIPOS>BOND
     1     1     2    1
     2     2     3    1
     3     3     4    2
     4     3     5    2
     5     3     6    1
     6     6     7   ar
     7     6    24   ar
     8     7     8   ar
     9     8     9   ar
    10     9    10   ar
    11    10    11    1
    12    10    24   ar
    13    11    12    1
    14    12    13   ar
    15    12    23   ar
    16    13    14   ar
    17    14    15   ar
    18    15    16   ar
    19    16    17    1
    20    16    23   ar
    21    17    18   ar
    22    17    22   ar
    23    18    19   ar
    24    19    20   ar
    25    20    21   ar
    26    21    22   ar
    27     1    25    1
    28     1    26    1
    29     1    27    1
    30     2    28    1
    31     7    29    1
    32     8    30    1
    33     9    31    1
    34    11    32    1
    35    14    33    1
    36    15    34    1
    37    18    35    1
    38    19    36    1
    39    20    37    1
    40    21    38    1
    41    22    39    1
    42    24    40    1
@<TRIPOS>MOLECULE
../data/bude_mols_rdkit_confs/molecule_69.pdb
 40 42 0 0 0
SMALL
GASTEIGER

@<TRIPOS>ATOM
      1  C1        -6.4710   -1.3100   -0.3770 C.3     1  UNL1        0.0059
      2  N1        -5.8840   -1.7330    0.8690 N.3     1  UNL1       -0.1930
      3  S1        -5.2010   -0.3910    1.7280 S.O2    1  UNL1        0.0582
      4  O1        -4.5690   -0.9540    2.9770 O.2     1  UNL1       -0.1531
      5  O2        -6.2370    0.5910    2.1310 O.2     1  UNL1       -0.1531
      6  C2        -3.9280    0.3310    0.7760 C.ar    1  UNL1        0.1070
      7  C3        -4.2100    1.3490   -0.1090 C.ar    1  UNL1       -0.0352
      8  C4        -3.2100    1.9180   -0.8590 C.ar    1  UNL1       -0.0582
      9  C5        -1.8900    1.4800   -0.7430 C.ar    1  UNL1       -0.0404
     10  C6        -1.5870    0.4780    0.1230 C.ar    1  UNL1        0.0354
     11  N2        -0.3150   -0.0170    0.3230 N.pl3   1  UNL1       -0.2836
     12  C7         0.8990    0.5630   -0.1370 C.ar    1  UNL1        0.2200
     13  N3         0.9430    1.6940   -0.8320 N.ar    1  UNL1       -0.2226
     14  C8         2.0890    2.2320   -1.2610 C.ar    1  UNL1        0.0332
     15  C9         3.3100    1.6130   -0.9910 C.ar    1  UNL1       -0.0174
     16  C10        3.2890    0.4370   -0.2710 C.ar    1  UNL1        0.0760
     17  C11        4.5230   -0.2630    0.0480 C.ar    1  UNL1        0.0005
     18  C12        4.4920   -1.4390    0.7680 C.ar    1  UNL1       -0.0526
     19  C13        5.6230   -2.1420    1.0980 C.ar    1  UNL1       -0.0611
     20  C14        6.8340   -1.6380    0.6830 C.ar    1  UNL1       -0.0617
     21  C15        6.9310   -0.4620   -0.0430 C.ar    1  UNL1       -0.0611
     22  C16        5.7380    0.2060   -0.3460 C.ar    1  UNL1       -0.0526
     23  N4         2.0900   -0.0240    0.1160 N.ar    1  UNL1       -0.2142
     24  C17       -2.6230   -0.0860    0.8770 C.ar    1  UNL1       -0.0141
     25 H          -6.8832   -2.1579   -0.8831 H       1  UNL1        0.0405
     26 H          -5.7192   -0.8591   -0.9905 H       1  UNL1        0.0405
     27 H          -7.2465   -0.5989   -0.1827 H       1  UNL1        0.0405
     28 H          -5.1490   -2.4135    0.6764 H       1  UNL1        0.1477
     29 H          -5.1801    1.6864   -0.2090 H       1  UNL1        0.0637
     30 H          -3.4377    2.6796   -1.5171 H       1  UNL1        0.0619
     31 H          -1.1475    1.9152   -1.3124 H       1  UNL1        0.0636
     32 H          -0.2404   -0.8547    0.8348 H       1  UNL1        0.1550
     33 H           2.0705    3.1137   -1.7971 H       1  UNL1        0.0831
     34 H           4.1991    2.0216   -1.3191 H       1  UNL1        0.0654
     35 H           3.5769   -1.8066    1.0722 H       1  UNL1        0.0624
     36 H           5.5673   -3.0190    1.6391 H       1  UNL1        0.0618
     37 H           7.6970   -2.1519    0.9199 H       1  UNL1        0.0618
     38 H           7.8453   -0.0932   -0.3481 H       1  UNL1        0.0618
     39 H           5.7819    1.0840   -0.8866 H       1  UNL1        0.0624
     40 H          -2.3968   -0.8470    1.5364 H       1  UNL1        0.0656
@<TRIPOS>BOND
     1     1     2    1
     2     2     3    1
     3     3     4    2
     4     3     5    2
     5     3     6    1
     6     6     7   ar
     7     6    24   ar
     8     7     8   ar
     9     8     9   ar
    10     9    10   ar
    11    10    11    1
    12    10    24   ar
    13    11    12    1
    14    12    13   ar
    15    12    23   ar
    16    13    14   ar
    17    14    15   ar
    18    15    16   ar
    19    16    17    1
    20    16    23   ar
    21    17    18   ar
    22    17    22   ar
    23    18    19   ar
    24    19    20   ar
    25    20    21   ar
    26    21    22   ar
    27     1    25    1
    28     1    26    1
    29     1    27    1
    30     2    28    1
    31     7    29    1
    32     8    30    1
    33     9    31    1
    34    11    32    1
    35    14    33    1
    36    15    34    1
    37    18    35    1
    38    19    36    1
    39    20    37    1
    40    21    38    1
    41    22    39    1
    42    24    40    1
@<TRIPOS>MOLECULE
../data/bude_mols_rdkit_confs/molecule_69.pdb
 40 42 0 0 0
SMALL
GASTEIGER

@<TRIPOS>ATOM
      1  C1         5.3450    1.8300    0.2930 C.3     1  UNL1        0.0059
      2  N1         6.1190    0.9780   -0.5560 N.3     1  UNL1       -0.1930
      3  S1         5.2240    0.2880   -1.8470 S.O2    1  UNL1        0.0582
      4  O1         6.1490   -0.5780   -2.6510 O.2     1  UNL1       -0.1531
      5  O2         4.6680    1.3550   -2.7250 O.2     1  UNL1       -0.1531
      6  C2         3.9170   -0.7290   -1.2700 C.ar    1  UNL1        0.1070
      7  C3         4.0680   -2.0580   -1.0310 C.ar    1  UNL1       -0.0352
      8  C4         2.9830   -2.7700   -0.5800 C.ar    1  UNL1       -0.0582
      9  C5         1.7300   -2.1970   -0.3550 C.ar    1  UNL1       -0.0404
     10  C6         1.5780   -0.8650   -0.5940 C.ar    1  UNL1        0.0354
     11  N2         0.3600   -0.2030   -0.3960 N.pl3   1  UNL1       -0.2836
     12  C7        -0.8500   -0.7490    0.0650 C.ar    1  UNL1        0.2200
     13  N3        -1.0410   -2.0310    0.4010 N.ar    1  UNL1       -0.2226
     14  C8        -2.1930   -2.5380    0.8380 C.ar    1  UNL1        0.0332
     15  C9        -3.2820   -1.6880    0.9580 C.ar    1  UNL1       -0.0174
     16  C10       -3.1470   -0.3580    0.6270 C.ar    1  UNL1        0.0760
     17  C11       -4.2650    0.5970    0.7310 C.ar    1  UNL1        0.0005
     18  C12       -5.4950    0.2250    1.1610 C.ar    1  UNL1       -0.0526
     19  C13       -6.5560    1.1410    1.2580 C.ar    1  UNL1       -0.0611
     20  C14       -6.3320    2.4430    0.9070 C.ar    1  UNL1       -0.0617
     21  C15       -5.0960    2.8330    0.4730 C.ar    1  UNL1       -0.0611
     22  C16       -4.0590    1.9130    0.3830 C.ar    1  UNL1       -0.0526
     23  N4        -1.9550    0.0560    0.2000 N.ar    1  UNL1       -0.2142
     24  C17        2.7000   -0.1470   -1.0560 C.ar    1  UNL1       -0.0141
     25 H           5.9683    2.2206    1.0701 H       1  UNL1        0.0405
     26 H           4.5438    1.2688    0.7266 H       1  UNL1        0.0405
     27 H           4.9439    2.6379   -0.2826 H       1  UNL1        0.0405
     28 H           6.5015    0.2210    0.0107 H       1  UNL1        0.1477
     29 H           4.9769   -2.5220   -1.1847 H       1  UNL1        0.0637
     30 H           3.1001   -3.7791   -0.3984 H       1  UNL1        0.0619
     31 H           0.9397   -2.7678   -0.0165 H       1  UNL1        0.0636
     32 H           0.3502    0.7591   -0.6045 H       1  UNL1        0.1550
     33 H          -2.2728   -3.5378    1.0810 H       1  UNL1        0.0831
     34 H          -4.1884   -2.0499    1.2934 H       1  UNL1        0.0654
     35 H          -5.6571   -0.7594    1.4248 H       1  UNL1        0.0624
     36 H          -7.4855    0.8370    1.5875 H       1  UNL1        0.0618
     37 H          -7.0973    3.1325    0.9698 H       1  UNL1        0.0618
     38 H          -4.9320    3.8175    0.2104 H       1  UNL1        0.0618
     39 H          -3.1296    2.2175    0.0536 H       1  UNL1        0.0624
     40 H           2.5972    0.8631   -1.2407 H       1  UNL1        0.0656
@<TRIPOS>BOND
     1     1     2    1
     2     2     3    1
     3     3     4    2
     4     3     5    2
     5     3     6    1
     6     6     7   ar
     7     6    24   ar
     8     7     8   ar
     9     8     9   ar
    10     9    10   ar
    11    10    11    1
    12    10    24   ar
    13    11    12    1
    14    12    13   ar
    15    12    23   ar
    16    13    14   ar
    17    14    15   ar
    18    15    16   ar
    19    16    17    1
    20    16    23   ar
    21    17    18   ar
    22    17    22   ar
    23    18    19   ar
    24    19    20   ar
    25    20    21   ar
    26    21    22   ar
    27     1    25    1
    28     1    26    1
    29     1    27    1
    30     2    28    1
    31     7    29    1
    32     8    30    1
    33     9    31    1
    34    11    32    1
    35    14    33    1
    36    15    34    1
    37    18    35    1
    38    19    36    1
    39    20    37    1
    40    21    38    1
    41    22    39    1
    42    24    40    1
@<TRIPOS>MOLECULE
../data/bude_mols_rdkit_confs/molecule_69.pdb
 40 42 0 0 0
SMALL
GASTEIGER

@<TRIPOS>ATOM
      1  C1         5.9300   -0.9390    1.4100 C.3     1  UNL1        0.0059
      2  N1         6.0960   -0.2630    0.1390 N.3     1  UNL1       -0.1930
      3  S1         5.1280   -1.0320   -1.0690 S.O2    1  UNL1        0.0582
      4  O1         5.5290   -2.4920   -1.1560 O.2     1  UNL1       -0.1531
      5  O2         5.3730   -0.4260   -2.4100 O.2     1  UNL1       -0.1531
      6  C2         3.4360   -0.9370   -0.6360 C.ar    1  UNL1        0.1070
      7  C3         2.8700   -1.9310    0.1140 C.ar    1  UNL1       -0.0352
      8  C4         1.5480   -1.8400    0.4420 C.ar    1  UNL1       -0.0582
      9  C5         0.7970   -0.7450    0.0120 C.ar    1  UNL1       -0.0404
     10  C6         1.3280    0.2720   -0.7420 C.ar    1  UNL1        0.0354
     11  N2         0.6330    1.3910   -1.2030 N.pl3   1  UNL1       -0.2836
     12  C7        -0.7290    1.7140   -1.0080 C.ar    1  UNL1        0.2200
     13  N3        -1.2130    2.8760   -1.5530 N.ar    1  UNL1       -0.2226
     14  C8        -2.4660    3.2890   -1.4420 C.ar    1  UNL1        0.0332
     15  C9        -3.3500    2.4870   -0.7230 C.ar    1  UNL1       -0.0174
     16  C10       -2.9180    1.3130   -0.1560 C.ar    1  UNL1        0.0760
     17  C11       -3.8520    0.4910    0.5890 C.ar    1  UNL1        0.0005
     18  C12       -3.4390   -0.7040    1.1730 C.ar    1  UNL1       -0.0526
     19  C13       -4.3200   -1.5000    1.8880 C.ar    1  UNL1       -0.0611
     20  C14       -5.6380   -1.1480    2.0540 C.ar    1  UNL1       -0.0617
     21  C15       -6.0620    0.0300    1.4830 C.ar    1  UNL1       -0.0611
     22  C16       -5.1730    0.8150    0.7720 C.ar    1  UNL1       -0.0526
     23  N4        -1.6260    1.0000   -0.3370 N.ar    1  UNL1       -0.2142
     24  C17        2.6720    0.1390   -1.0510 C.ar    1  UNL1       -0.0141
     25 H           6.5321   -0.4570    2.1516 H       1  UNL1        0.0405
     26 H           6.2333   -1.9605    1.3130 H       1  UNL1        0.0405
     27 H           4.9019   -0.8986    1.7039 H       1  UNL1        0.0405
     28 H           7.0767   -0.3015   -0.1387 H       1  UNL1        0.1477
     29 H           3.4334   -2.7370    0.4270 H       1  UNL1        0.0637
     30 H           1.1042   -2.5804    1.0076 H       1  UNL1        0.0619
     31 H          -0.2006   -0.6978    0.2721 H       1  UNL1        0.0636
     32 H           1.1573    2.0363   -1.7302 H       1  UNL1        0.1550
     33 H          -2.7770    4.1737   -1.8728 H       1  UNL1        0.0831
     34 H          -4.3347    2.7767   -0.6159 H       1  UNL1        0.0654
     35 H          -2.4565   -1.0030    1.0712 H       1  UNL1        0.0624
     36 H          -3.9776   -2.3791    2.3062 H       1  UNL1        0.0618
     37 H          -6.2872   -1.7464    2.5883 H       1  UNL1        0.0618
     38 H          -7.0447    0.3280    1.5855 H       1  UNL1        0.0618
     39 H          -5.5220    1.6927    0.3562 H       1  UNL1        0.0624
     40 H           3.1232    0.8754   -1.6159 H       1  UNL1        0.0656
@<TRIPOS>BOND
     1     1     2    1
     2     2     3    1
     3     3     4    2
     4     3     5    2
     5     3     6    1
     6     6     7   ar
     7     6    24   ar
     8     7     8   ar
     9     8     9   ar
    10     9    10   ar
    11    10    11    1
    12    10    24   ar
    13    11    12    1
    14    12    13   ar
    15    12    23   ar
    16    13    14   ar
    17    14    15   ar
    18    15    16   ar
    19    16    17    1
    20    16    23   ar
    21    17    18   ar
    22    17    22   ar
    23    18    19   ar
    24    19    20   ar
    25    20    21   ar
    26    21    22   ar
    27     1    25    1
    28     1    26    1
    29     1    27    1
    30     2    28    1
    31     7    29    1
    32     8    30    1
    33     9    31    1
    34    11    32    1
    35    14    33    1
    36    15    34    1
    37    18    35    1
    38    19    36    1
    39    20    37    1
    40    21    38    1
    41    22    39    1
    42    24    40    1
@<TRIPOS>MOLECULE
../data/bude_mols_rdkit_confs/molecule_69.pdb
 40 42 0 0 0
SMALL
GASTEIGER

@<TRIPOS>ATOM
      1  C1         5.1480   -2.1430    1.2280 C.3     1  UNL1        0.0059
      2  N1         6.0710   -1.6780    0.2040 N.3     1  UNL1       -0.1930
      3  S1         5.2490   -1.4980   -1.3060 S.O2    1  UNL1        0.0582
      4  O1         4.7050   -2.8200   -1.7700 O.2     1  UNL1       -0.1531
      5  O2         6.3010   -1.0820   -2.3210 O.2     1  UNL1       -0.1531
      6  C2         3.9710   -0.3120   -1.2020 C.ar    1  UNL1        0.1070
      7  C3         4.2890    1.0030   -1.4890 C.ar    1  UNL1       -0.0352
      8  C4         3.2920    1.9490   -1.4120 C.ar    1  UNL1       -0.0582
      9  C5         1.9960    1.5550   -1.0480 C.ar    1  UNL1       -0.0404
     10  C6         1.6540    0.2590   -0.7590 C.ar    1  UNL1        0.0354
     11  N2         0.3700   -0.1700   -0.3930 N.pl3   1  UNL1       -0.2836
     12  C7        -0.8050    0.5800   -0.2440 C.ar    1  UNL1        0.2200
     13  N3        -0.8290    1.8960   -0.4530 N.ar    1  UNL1       -0.2226
     14  C8        -1.9150    2.6770   -0.3290 C.ar    1  UNL1        0.0332
     15  C9        -3.0750    2.0340    0.0440 C.ar    1  UNL1       -0.0174
     16  C10       -3.1290    0.6810    0.2770 C.ar    1  UNL1        0.0760
     17  C11       -4.3360   -0.0360    0.6720 C.ar    1  UNL1        0.0005
     18  C12       -5.5400    0.5920    0.8480 C.ar    1  UNL1       -0.0526
     19  C13       -6.6850   -0.1250    1.2290 C.ar    1  UNL1       -0.0611
     20  C14       -6.6230   -1.4800    1.4360 C.ar    1  UNL1       -0.0617
     21  C15       -5.4100   -2.1070    1.2570 C.ar    1  UNL1       -0.0611
     22  C16       -4.2820   -1.3970    0.8810 C.ar    1  UNL1       -0.0526
     23  N4        -1.9720    0.0080    0.1190 N.ar    1  UNL1       -0.2142
     24  C17        2.6970   -0.6800   -0.8480 C.ar    1  UNL1       -0.0141
     25 H           5.6694   -2.2499    2.1562 H       1  UNL1        0.0405
     26 H           4.7396   -3.0883    0.9374 H       1  UNL1        0.0405
     27 H           4.3561   -1.4327    1.3435 H       1  UNL1        0.0405
     28 H           6.8255   -2.3561    0.0978 H       1  UNL1        0.1477
     29 H           5.2503    1.2685   -1.7544 H       1  UNL1        0.0637
     30 H           3.4962    2.9389   -1.6202 H       1  UNL1        0.0619
     31 H           1.2617    2.2781   -0.9949 H       1  UNL1        0.0636
     32 H           0.2812   -1.1343   -0.2156 H       1  UNL1        0.1550
     33 H          -1.8824    3.6939   -0.5021 H       1  UNL1        0.0831
     34 H          -3.9373    2.5905    0.1527 H       1  UNL1        0.0654
     35 H          -5.6068    1.6108    0.6978 H       1  UNL1        0.0624
     36 H          -7.5811    0.3712    1.3545 H       1  UNL1        0.0618
     37 H          -7.4604   -2.0134    1.7175 H       1  UNL1        0.0618
     38 H          -5.3402   -3.1258    1.4060 H       1  UNL1        0.0618
     39 H          -3.3869   -1.8950    0.7553 H       1  UNL1        0.0624
     40 H           2.4994   -1.6717   -0.6418 H       1  UNL1        0.0656
@<TRIPOS>BOND
     1     1     2    1
     2     2     3    1
     3     3     4    2
     4     3     5    2
     5     3     6    1
     6     6     7   ar
     7     6    24   ar
     8     7     8   ar
     9     8     9   ar
    10     9    10   ar
    11    10    11    1
    12    10    24   ar
    13    11    12    1
    14    12    13   ar
    15    12    23   ar
    16    13    14   ar
    17    14    15   ar
    18    15    16   ar
    19    16    17    1
    20    16    23   ar
    21    17    18   ar
    22    17    22   ar
    23    18    19   ar
    24    19    20   ar
    25    20    21   ar
    26    21    22   ar
    27     1    25    1
    28     1    26    1
    29     1    27    1
    30     2    28    1
    31     7    29    1
    32     8    30    1
    33     9    31    1
    34    11    32    1
    35    14    33    1
    36    15    34    1
    37    18    35    1
    38    19    36    1
    39    20    37    1
    40    21    38    1
    41    22    39    1
    42    24    40    1
@<TRIPOS>MOLECULE
../data/bude_mols_rdkit_confs/molecule_69.pdb
 40 42 0 0 0
SMALL
GASTEIGER

@<TRIPOS>ATOM
      1  C1         5.9500    0.0590   -0.0670 C.3     1  UNL1        0.0059
      2  N1         5.9410    1.4440    0.3250 N.3     1  UNL1       -0.1930
      3  S1         4.6900    1.7000    1.4620 S.O2    1  UNL1        0.0582
      4  O1         4.9000    0.7470    2.6040 O.2     1  UNL1       -0.1531
      5  O2         4.6990    3.0870    2.0260 O.2     1  UNL1       -0.1531
      6  C2         3.1330    1.3260    0.7270 C.ar    1  UNL1        0.1070
      7  C3         2.3970    2.2820    0.0680 C.ar    1  UNL1       -0.0352
      8  C4         1.1770    2.0140   -0.5140 C.ar    1  UNL1       -0.0582
      9  C5         0.6950    0.7160   -0.4170 C.ar    1  UNL1       -0.0404
     10  C6         1.3730   -0.2910    0.2260 C.ar    1  UNL1        0.0354
     11  N2         0.9110   -1.5970    0.3660 N.pl3   1  UNL1       -0.2836
     12  C7        -0.4090   -2.0430    0.2890 C.ar    1  UNL1        0.2200
     13  N3        -0.7260   -3.3600    0.4170 N.ar    1  UNL1       -0.2226
     14  C8        -1.9860   -3.7960    0.3720 C.ar    1  UNL1        0.0332
     15  C9        -3.0160   -2.8780    0.1880 C.ar    1  UNL1       -0.0174
     16  C10       -2.7250   -1.5400    0.0560 C.ar    1  UNL1        0.0760
     17  C11       -3.7580   -0.5260   -0.1160 C.ar    1  UNL1        0.0005
     18  C12       -3.3950    0.8140   -0.1550 C.ar    1  UNL1       -0.0526
     19  C13       -4.3540    1.7870   -0.3280 C.ar    1  UNL1       -0.0611
     20  C14       -5.6720    1.4230   -0.4610 C.ar    1  UNL1       -0.0617
     21  C15       -6.0690    0.1150   -0.4280 C.ar    1  UNL1       -0.0611
     22  C16       -5.0800   -0.8450   -0.2520 C.ar    1  UNL1       -0.0526
     23  N4        -1.4220   -1.1950    0.1150 N.ar    1  UNL1       -0.2142
     24  C17        2.6090    0.0570    0.7950 C.ar    1  UNL1       -0.0141
     25 H           6.7319   -0.1051   -0.7788 H       1  UNL1        0.0405
     26 H           5.0080   -0.1931   -0.5074 H       1  UNL1        0.0405
     27 H           6.1168   -0.5542    0.7938 H       1  UNL1        0.0405
     28 H           5.7815    2.0294   -0.4950 H       1  UNL1        0.1477
     29 H           2.7740    3.2407    0.0066 H       1  UNL1        0.0637
     30 H           0.6428    2.7494   -1.0027 H       1  UNL1        0.0619
     31 H          -0.2164    0.4969   -0.8486 H       1  UNL1        0.0636
     32 H           1.5939   -2.2846    0.5392 H       1  UNL1        0.1550
     33 H          -2.1945   -4.8017    0.4724 H       1  UNL1        0.0831
     34 H          -3.9956   -3.2004    0.1507 H       1  UNL1        0.0654
     35 H          -2.4034    1.0814   -0.0540 H       1  UNL1        0.0624
     36 H          -4.0845    2.7827   -0.3575 H       1  UNL1        0.0618
     37 H          -6.3839    2.1590   -0.5897 H       1  UNL1        0.0618
     38 H          -7.0617   -0.1482   -0.5296 H       1  UNL1        0.0618
     39 H          -5.3549   -1.8393   -0.2228 H       1  UNL1        0.0624
     40 H           3.1482   -0.6730    1.2864 H       1  UNL1        0.0656
@<TRIPOS>BOND
     1     1     2    1
     2     2     3    1
     3     3     4    2
     4     3     5    2
     5     3     6    1
     6     6     7   ar
     7     6    24   ar
     8     7     8   ar
     9     8     9   ar
    10     9    10   ar
    11    10    11    1
    12    10    24   ar
    13    11    12    1
    14    12    13   ar
    15    12    23   ar
    16    13    14   ar
    17    14    15   ar
    18    15    16   ar
    19    16    17    1
    20    16    23   ar
    21    17    18   ar
    22    17    22   ar
    23    18    19   ar
    24    19    20   ar
    25    20    21   ar
    26    21    22   ar
    27     1    25    1
    28     1    26    1
    29     1    27    1
    30     2    28    1
    31     7    29    1
    32     8    30    1
    33     9    31    1
    34    11    32    1
    35    14    33    1
    36    15    34    1
    37    18    35    1
    38    19    36    1
    39    20    37    1
    40    21    38    1
    41    22    39    1
    42    24    40    1
@<TRIPOS>MOLECULE
../data/bude_mols_rdkit_confs/molecule_69.pdb
 40 42 0 0 0
SMALL
GASTEIGER

@<TRIPOS>ATOM
      1  C1         5.3290   -1.1130    1.4540 C.3     1  UNL1        0.0059
      2  N1         5.6110   -0.9720    0.0600 N.3     1  UNL1       -0.1930
      3  S1         5.1570    0.5740   -0.5560 S.O2    1  UNL1        0.0582
      4  O1         5.5890    0.7670   -1.9650 O.2     1  UNL1       -0.1531
      5  O2         5.8530    1.6070    0.2940 O.2     1  UNL1       -0.1531
      6  C2         3.4300    0.8520   -0.3940 C.ar    1  UNL1        0.1070
      7  C3         2.9400    1.4490    0.7620 C.ar    1  UNL1       -0.0352
      8  C4         1.5850    1.6700    0.8950 C.ar    1  UNL1       -0.0582
      9  C5         0.6920    1.3050   -0.1150 C.ar    1  UNL1       -0.0404
     10  C6         1.1400    0.7140   -1.2680 C.ar    1  UNL1        0.0354
     11  N2         0.3130    0.2870   -2.3280 N.pl3   1  UNL1       -0.2836
     12  C7        -1.0420   -0.0350   -2.2050 C.ar    1  UNL1        0.2200
     13  N3        -1.7290   -0.4130   -3.3460 N.ar    1  UNL1       -0.2226
     14  C8        -3.0140   -0.7500   -3.2480 C.ar    1  UNL1        0.0332
     15  C9        -3.6620   -0.7220   -2.0050 C.ar    1  UNL1       -0.0174
     16  C10       -2.9690   -0.3480   -0.8910 C.ar    1  UNL1        0.0760
     17  C11       -3.5900   -0.3180    0.4140 C.ar    1  UNL1        0.0005
     18  C12       -2.8310    0.0180    1.5240 C.ar    1  UNL1       -0.0526
     19  C13       -3.4300    0.0500    2.7550 C.ar    1  UNL1       -0.0611
     20  C14       -4.7650   -0.2390    2.9440 C.ar    1  UNL1       -0.0617
     21  C15       -5.4950   -0.5690    1.8310 C.ar    1  UNL1       -0.0611
     22  C16       -4.9240   -0.6130    0.5630 C.ar    1  UNL1       -0.0526
     23  N4        -1.6740   -0.0170   -1.0430 N.ar    1  UNL1       -0.2142
     24  C17        2.5350    0.5060   -1.3630 C.ar    1  UNL1       -0.0141
     25 H           5.6293   -2.0862    1.7820 H       1  UNL1        0.0405
     26 H           4.2793   -0.9888    1.6199 H       1  UNL1        0.0405
     27 H           5.8674   -0.3695    2.0038 H       1  UNL1        0.0405
     28 H           5.0985   -1.6906   -0.4512 H       1  UNL1        0.1477
     29 H           3.5870    1.7255    1.5170 H       1  UNL1        0.0637
     30 H           1.2250    2.1124    1.7551 H       1  UNL1        0.0619
     31 H          -0.3172    1.4823    0.0082 H       1  UNL1        0.0636
     32 H           0.7203    0.2100   -3.2210 H       1  UNL1        0.1550
     33 H          -3.5357   -1.0334   -4.0921 H       1  UNL1        0.0831
     34 H          -4.6579   -0.9829   -1.9332 H       1  UNL1        0.0654
     35 H          -1.8283    0.2410    1.4241 H       1  UNL1        0.0624
     36 H          -2.8579    0.3011    3.5764 H       1  UNL1        0.0618
     37 H          -5.1956   -0.2083    3.8814 H       1  UNL1        0.0618
     38 H          -6.4972   -0.7912    1.9370 H       1  UNL1        0.0618
     39 H          -5.4967   -0.8647   -0.2578 H       1  UNL1        0.0624
     40 H           2.8997    0.0637   -2.2211 H       1  UNL1        0.0656
@<TRIPOS>BOND
     1     1     2    1
     2     2     3    1
     3     3     4    2
     4     3     5    2
     5     3     6    1
     6     6     7   ar
     7     6    24   ar
     8     7     8   ar
     9     8     9   ar
    10     9    10   ar
    11    10    11    1
    12    10    24   ar
    13    11    12    1
    14    12    13   ar
    15    12    23   ar
    16    13    14   ar
    17    14    15   ar
    18    15    16   ar
    19    16    17    1
    20    16    23   ar
    21    17    18   ar
    22    17    22   ar
    23    18    19   ar
    24    19    20   ar
    25    20    21   ar
    26    21    22   ar
    27     1    25    1
    28     1    26    1
    29     1    27    1
    30     2    28    1
    31     7    29    1
    32     8    30    1
    33     9    31    1
    34    11    32    1
    35    14    33    1
    36    15    34    1
    37    18    35    1
    38    19    36    1
    39    20    37    1
    40    21    38    1
    41    22    39    1
    42    24    40    1
@<TRIPOS>MOLECULE
../data/bude_mols_rdkit_confs/molecule_69.pdb
 40 42 0 0 0
SMALL
GASTEIGER

@<TRIPOS>ATOM
      1  C1         6.1510    0.6410   -0.3020 C.3     1  UNL1        0.0059
      2  N1         5.2420    0.5880   -1.4160 N.3     1  UNL1       -0.1930
      3  S1         4.4990   -0.9430   -1.5890 S.O2    1  UNL1        0.0582
      4  O1         3.5210   -0.8470   -2.7420 O.2     1  UNL1       -0.1531
      5  O2         5.4790   -2.0500   -1.7980 O.2     1  UNL1       -0.1531
      6  C2         3.5480   -1.3290   -0.1670 C.ar    1  UNL1        0.1070
      7  C3         4.0940   -1.9960    0.9040 C.ar    1  UNL1       -0.0352
      8  C4         3.3180   -2.2890    2.0160 C.ar    1  UNL1       -0.0582
      9  C5         2.0020   -1.9080    2.0420 C.ar    1  UNL1       -0.0404
     10  C6         1.4060   -1.2290    0.9790 C.ar    1  UNL1        0.0354
     11  N2         0.0480   -0.8710    1.0800 N.pl3   1  UNL1       -0.2836
     12  C7        -0.7340   -0.1900    0.1310 C.ar    1  UNL1        0.2200
     13  N3        -0.2990    0.2400   -1.0600 N.ar    1  UNL1       -0.2226
     14  C8        -1.0240    0.8840   -1.9680 C.ar    1  UNL1        0.0332
     15  C9        -2.3640    1.1250   -1.6310 C.ar    1  UNL1       -0.0174
     16  C10       -2.8720    0.7100   -0.4240 C.ar    1  UNL1        0.0760
     17  C11       -4.2620    0.9540   -0.0610 C.ar    1  UNL1        0.0005
     18  C12       -5.1750    1.5970   -0.8480 C.ar    1  UNL1       -0.0526
     19  C13       -6.4960    1.7920   -0.4230 C.ar    1  UNL1       -0.0611
     20  C14       -6.9190    1.3410    0.8040 C.ar    1  UNL1       -0.0617
     21  C15       -6.0010    0.6920    1.6000 C.ar    1  UNL1       -0.0611
     22  C16       -4.7040    0.5040    1.1760 C.ar    1  UNL1       -0.0526
     23  N4        -2.0430    0.0630    0.4220 N.ar    1  UNL1       -0.2142
     24  C17        2.2090   -0.9650   -0.0910 C.ar    1  UNL1       -0.0141
     25 H           6.5848    1.6173   -0.2418 H       1  UNL1        0.0405
     26 H           6.9248   -0.0854   -0.4382 H       1  UNL1        0.0405
     27 H           5.6194    0.4305    0.6024 H       1  UNL1        0.0405
     28 H           5.7593    0.7981   -2.2696 H       1  UNL1        0.1477
     29 H           5.0859   -2.2801    0.8806 H       1  UNL1        0.0637
     30 H           3.7293   -2.7907    2.8186 H       1  UNL1        0.0619
     31 H           1.4338   -2.1304    2.8743 H       1  UNL1        0.0636
     32 H          -0.4077   -1.1281    1.9139 H       1  UNL1        0.1550
     33 H          -0.6244    1.1893   -2.8692 H       1  UNL1        0.0831
     34 H          -2.9760    1.6203   -2.2982 H       1  UNL1        0.0654
     35 H          -4.8858    1.9465   -1.7750 H       1  UNL1        0.0624
     36 H          -7.1615    2.2819   -1.0412 H       1  UNL1        0.0618
     37 H          -7.8915    1.4836    1.1186 H       1  UNL1        0.0618
     38 H          -6.2890    0.3417    2.5270 H       1  UNL1        0.0618
     39 H          -4.0408    0.0139    1.7964 H       1  UNL1        0.0624
     40 H           1.7970   -0.4641   -0.8937 H       1  UNL1        0.0656
@<TRIPOS>BOND
     1     1     2    1
     2     2     3    1
     3     3     4    2
     4     3     5    2
     5     3     6    1
     6     6     7   ar
     7     6    24   ar
     8     7     8   ar
     9     8     9   ar
    10     9    10   ar
    11    10    11    1
    12    10    24   ar
    13    11    12    1
    14    12    13   ar
    15    12    23   ar
    16    13    14   ar
    17    14    15   ar
    18    15    16   ar
    19    16    17    1
    20    16    23   ar
    21    17    18   ar
    22    17    22   ar
    23    18    19   ar
    24    19    20   ar
    25    20    21   ar
    26    21    22   ar
    27     1    25    1
    28     1    26    1
    29     1    27    1
    30     2    28    1
    31     7    29    1
    32     8    30    1
    33     9    31    1
    34    11    32    1
    35    14    33    1
    36    15    34    1
    37    18    35    1
    38    19    36    1
    39    20    37    1
    40    21    38    1
    41    22    39    1
    42    24    40    1
@<TRIPOS>MOLECULE
../data/bude_mols_rdkit_confs/molecule_69.pdb
 40 42 0 0 0
SMALL
GASTEIGER

@<TRIPOS>ATOM
      1  C1         6.0680    0.9220   -0.9680 C.3     1  UNL1        0.0059
      2  N1         6.1110   -0.4000   -0.3370 N.3     1  UNL1       -0.1930
      3  S1         5.0380   -0.3630    1.0400 S.O2    1  UNL1        0.0582
      4  O1         5.4590    0.6840    2.0130 O.2     1  UNL1       -0.1531
      5  O2         5.1080   -1.7230    1.6910 O.2     1  UNL1       -0.1531
      6  C2         3.3960   -0.0350    0.4810 C.ar    1  UNL1        0.1070
      7  C3         2.9300    1.2540    0.3750 C.ar    1  UNL1       -0.0352
      8  C4         1.6460    1.4970   -0.0640 C.ar    1  UNL1       -0.0582
      9  C5         0.8130    0.4250   -0.4030 C.ar    1  UNL1       -0.0404
     10  C6         1.2350   -0.8790   -0.3120 C.ar    1  UNL1        0.0354
     11  N2         0.4520   -2.0120   -0.6110 N.pl3   1  UNL1       -0.2836
     12  C7        -0.9530   -2.0120   -0.6520 C.ar    1  UNL1        0.2200
     13  N3        -1.6240   -3.1690   -0.9800 N.ar    1  UNL1       -0.2226
     14  C8        -2.9530   -3.2590   -1.0190 C.ar    1  UNL1        0.0332
     15  C9        -3.7230   -2.1500   -0.7180 C.ar    1  UNL1       -0.0174
     16  C10       -3.0890   -0.9840   -0.3870 C.ar    1  UNL1        0.0760
     17  C11       -3.8280    0.2110   -0.0450 C.ar    1  UNL1        0.0005
     18  C12       -5.1940    0.3020   -0.0780 C.ar    1  UNL1       -0.0526
     19  C13       -5.8850    1.4730    0.2690 C.ar    1  UNL1       -0.0611
     20  C14       -5.1770    2.5870    0.6620 C.ar    1  UNL1       -0.0617
     21  C15       -3.7860    2.5160    0.7030 C.ar    1  UNL1       -0.0611
     22  C16       -3.1560    1.3590    0.3580 C.ar    1  UNL1       -0.0526
     23  N4        -1.7390   -0.9730   -0.3710 N.ar    1  UNL1       -0.2142
     24  C17        2.5580   -1.0500    0.1440 C.ar    1  UNL1       -0.0141
     25 H           6.7173    0.9326   -1.8184 H       1  UNL1        0.0405
     26 H           6.3881    1.6630   -0.2656 H       1  UNL1        0.0405
     27 H           5.0672    1.1356   -1.2807 H       1  UNL1        0.0405
     28 H           7.0616   -0.6089   -0.0317 H       1  UNL1        0.1477
     29 H           3.5448    2.0441    0.6255 H       1  UNL1        0.0637
     30 H           1.3003    2.4662   -0.1424 H       1  UNL1        0.0619
     31 H          -0.1460    0.6197   -0.7308 H       1  UNL1        0.0636
     32 H           0.9188   -2.8572   -0.8034 H       1  UNL1        0.1550
     33 H          -3.4053   -4.1513   -1.2724 H       1  UNL1        0.0831
     34 H          -4.7534   -2.2012   -0.7426 H       1  UNL1        0.0654
     35 H          -5.7378   -0.5250   -0.3702 H       1  UNL1        0.0624
     36 H          -6.9159    1.4992    0.2300 H       1  UNL1        0.0618
     37 H          -5.6672    3.4574    0.9211 H       1  UNL1        0.0618
     38 H          -3.2345    3.3383    0.9941 H       1  UNL1        0.0618
     39 H          -2.1251    1.3332    0.3979 H       1  UNL1        0.0624
     40 H           2.9153   -2.0145    0.2278 H       1  UNL1        0.0656
@<TRIPOS>BOND
     1     1     2    1
     2     2     3    1
     3     3     4    2
     4     3     5    2
     5     3     6    1
     6     6     7   ar
     7     6    24   ar
     8     7     8   ar
     9     8     9   ar
    10     9    10   ar
    11    10    11    1
    12    10    24   ar
    13    11    12    1
    14    12    13   ar
    15    12    23   ar
    16    13    14   ar
    17    14    15   ar
    18    15    16   ar
    19    16    17    1
    20    16    23   ar
    21    17    18   ar
    22    17    22   ar
    23    18    19   ar
    24    19    20   ar
    25    20    21   ar
    26    21    22   ar
    27     1    25    1
    28     1    26    1
    29     1    27    1
    30     2    28    1
    31     7    29    1
    32     8    30    1
    33     9    31    1
    34    11    32    1
    35    14    33    1
    36    15    34    1
    37    18    35    1
    38    19    36    1
    39    20    37    1
    40    21    38    1
    41    22    39    1
    42    24    40    1
@<TRIPOS>MOLECULE
../data/bude_mols_rdkit_confs/molecule_69.pdb
 40 42 0 0 0
SMALL
GASTEIGER

@<TRIPOS>ATOM
      1  C1         4.3890   -1.8290   -0.1810 C.3     1  UNL1        0.0059
      2  N1         5.5390   -1.0380    0.2630 N.3     1  UNL1       -0.1930
      3  S1         4.9150    0.2250    1.2700 S.O2    1  UNL1        0.0582
      4  O1         5.9950    1.1030    1.8020 O.2     1  UNL1       -0.1531
      5  O2         4.0940   -0.4140    2.3490 O.2     1  UNL1       -0.1531
      6  C2         3.8250    1.2500    0.3380 C.ar    1  UNL1        0.1070
      7  C3         4.2930    2.3490   -0.3380 C.ar    1  UNL1       -0.0352
      8  C4         3.4050    3.1320   -1.0610 C.ar    1  UNL1       -0.0582
      9  C5         2.0670    2.8120   -1.1020 C.ar    1  UNL1       -0.0404
     10  C6         1.5520    1.6970   -0.4250 C.ar    1  UNL1        0.0354
     11  N2         0.1880    1.4460   -0.5190 N.pl3   1  UNL1       -0.2836
     12  C7        -0.5540    0.3930    0.0700 C.ar    1  UNL1        0.2200
     13  N3        -0.0140   -0.5560    0.8380 N.ar    1  UNL1       -0.2226
     14  C8        -0.6980   -1.5600    1.4050 C.ar    1  UNL1        0.0332
     15  C9        -2.0780   -1.6240    1.1760 C.ar    1  UNL1       -0.0174
     16  C10       -2.6660   -0.6620    0.3880 C.ar    1  UNL1        0.0760
     17  C11       -4.1060   -0.7340    0.1530 C.ar    1  UNL1        0.0005
     18  C12       -4.9240   -1.6870    0.6570 C.ar    1  UNL1       -0.0526
     19  C13       -6.2950   -1.6690    0.3730 C.ar    1  UNL1       -0.0611
     20  C14       -6.8450   -0.7030   -0.4100 C.ar    1  UNL1       -0.0617
     21  C15       -6.0370    0.2810   -0.9370 C.ar    1  UNL1       -0.0611
     22  C16       -4.6880    0.2510   -0.6500 C.ar    1  UNL1       -0.0526
     23  N4        -1.9010    0.2960   -0.1290 N.ar    1  UNL1       -0.2142
     24  C17        2.4710    0.9660    0.2680 C.ar    1  UNL1       -0.0141
     25 H           4.7260   -2.6264   -0.8099 H       1  UNL1        0.0405
     26 H           3.7157   -1.2031   -0.7286 H       1  UNL1        0.0405
     27 H           3.8852   -2.2353    0.6711 H       1  UNL1        0.0405
     28 H           6.0232   -0.6394   -0.5414 H       1  UNL1        0.1477
     29 H           5.2959    2.5905   -0.3087 H       1  UNL1        0.0637
     30 H           3.7499    3.9599   -1.5715 H       1  UNL1        0.0619
     31 H           1.4248    3.4092   -1.6461 H       1  UNL1        0.0636
     32 H          -0.3286    2.0817   -1.0651 H       1  UNL1        0.1550
     33 H          -0.2226   -2.2634    1.9917 H       1  UNL1        0.0831
     34 H          -2.6443   -2.3801    1.5914 H       1  UNL1        0.0654
     35 H          -4.5345   -2.4324    1.2550 H       1  UNL1        0.0624
     36 H          -6.9015   -2.4053    0.7667 H       1  UNL1        0.0618
     37 H          -7.8579   -0.7067   -0.6077 H       1  UNL1        0.0618
     38 H          -6.4326    1.0244   -1.5336 H       1  UNL1        0.0618
     39 H          -4.0825    0.9874   -1.0451 H       1  UNL1        0.0624
     40 H           2.1315    0.1368    0.7801 H       1  UNL1        0.0656
@<TRIPOS>BOND
     1     1     2    1
     2     2     3    1
     3     3     4    2
     4     3     5    2
     5     3     6    1
     6     6     7   ar
     7     6    24   ar
     8     7     8   ar
     9     8     9   ar
    10     9    10   ar
    11    10    11    1
    12    10    24   ar
    13    11    12    1
    14    12    13   ar
    15    12    23   ar
    16    13    14   ar
    17    14    15   ar
    18    15    16   ar
    19    16    17    1
    20    16    23   ar
    21    17    18   ar
    22    17    22   ar
    23    18    19   ar
    24    19    20   ar
    25    20    21   ar
    26    21    22   ar
    27     1    25    1
    28     1    26    1
    29     1    27    1
    30     2    28    1
    31     7    29    1
    32     8    30    1
    33     9    31    1
    34    11    32    1
    35    14    33    1
    36    15    34    1
    37    18    35    1
    38    19    36    1
    39    20    37    1
    40    21    38    1
    41    22    39    1
    42    24    40    1
@<TRIPOS>MOLECULE
../data/bude_mols_rdkit_confs/molecule_69.pdb
 40 42 0 0 0
SMALL
GASTEIGER

@<TRIPOS>ATOM
      1  C1         6.1630   -0.2310   -0.8870 C.3     1  UNL1        0.0059
      2  N1         5.3260    0.9440   -1.1390 N.3     1  UNL1       -0.1930
      3  S1         4.6090    1.4190    0.3800 S.O2    1  UNL1        0.0582
      4  O1         3.6860    2.5860    0.0630 O.2     1  UNL1       -0.1531
      5  O2         5.6770    1.8350    1.3220 O.2     1  UNL1       -0.1531
      6  C2         3.5980    0.1460    1.0120 C.ar    1  UNL1        0.1070
      7  C3         4.0940   -0.8250    1.8450 C.ar    1  UNL1       -0.0352
      8  C4         3.2850   -1.8160    2.3320 C.ar    1  UNL1       -0.0582
      9  C5         1.9570   -1.8920    2.0200 C.ar    1  UNL1       -0.0404
     10  C6         1.4080   -0.9230    1.1730 C.ar    1  UNL1        0.0354
     11  N2         0.0460   -1.0510    0.8710 N.pl3   1  UNL1       -0.2836
     12  C7        -0.7430   -0.0680    0.2250 C.ar    1  UNL1        0.2200
     13  N3        -0.2970    1.1240   -0.1800 N.ar    1  UNL1       -0.2226
     14  C8        -1.0260    2.0590   -0.7890 C.ar    1  UNL1        0.0332
     15  C9        -2.3740    1.7610   -1.0210 C.ar    1  UNL1       -0.0174
     16  C10       -2.8980    0.5510   -0.6290 C.ar    1  UNL1        0.0760
     17  C11       -4.3070    0.1800   -0.8440 C.ar    1  UNL1        0.0005
     18  C12       -5.1810    1.0150   -1.4490 C.ar    1  UNL1       -0.0526
     19  C13       -6.5280    0.6750   -1.6610 C.ar    1  UNL1       -0.0611
     20  C14       -6.9530   -0.5590   -1.2310 C.ar    1  UNL1       -0.0617
     21  C15       -6.0730   -1.4240   -0.6120 C.ar    1  UNL1       -0.0611
     22  C16       -4.7530   -1.0700   -0.4130 C.ar    1  UNL1       -0.0526
     23  N4        -2.0660   -0.3100   -0.0240 N.ar    1  UNL1       -0.2142
     24  C17        2.2330    0.0600    0.6960 C.ar    1  UNL1       -0.0141
     25 H           6.6182   -0.5476   -1.8022 H       1  UNL1        0.0405
     26 H           5.5581   -1.0228   -0.4969 H       1  UNL1        0.0405
     27 H           6.9243    0.0188   -0.1778 H       1  UNL1        0.0405
     28 H           4.5946    0.7121   -1.8111 H       1  UNL1        0.1477
     29 H           5.0917   -0.8079    2.1082 H       1  UNL1        0.0637
     30 H           3.6920   -2.5301    2.9561 H       1  UNL1        0.0619
     31 H           1.3698   -2.6499    2.4019 H       1  UNL1        0.0636
     32 H          -0.3981   -1.8911    1.1283 H       1  UNL1        0.1550
     33 H          -0.6155    2.9612   -1.0763 H       1  UNL1        0.0831
     34 H          -2.9788    2.4538   -1.4893 H       1  UNL1        0.0654
     35 H          -4.8462    1.9378   -1.7675 H       1  UNL1        0.0624
     36 H          -7.1766    1.3305   -2.1243 H       1  UNL1        0.0618
     37 H          -7.9358   -0.8408   -1.3716 H       1  UNL1        0.0618
     38 H          -6.4060   -2.3475   -0.2937 H       1  UNL1        0.0618
     39 H          -4.1026   -1.7238    0.0501 H       1  UNL1        0.0624
     40 H           1.8300    0.7756    0.0711 H       1  UNL1        0.0656
@<TRIPOS>BOND
     1     1     2    1
     2     2     3    1
     3     3     4    2
     4     3     5    2
     5     3     6    1
     6     6     7   ar
     7     6    24   ar
     8     7     8   ar
     9     8     9   ar
    10     9    10   ar
    11    10    11    1
    12    10    24   ar
    13    11    12    1
    14    12    13   ar
    15    12    23   ar
    16    13    14   ar
    17    14    15   ar
    18    15    16   ar
    19    16    17    1
    20    16    23   ar
    21    17    18   ar
    22    17    22   ar
    23    18    19   ar
    24    19    20   ar
    25    20    21   ar
    26    21    22   ar
    27     1    25    1
    28     1    26    1
    29     1    27    1
    30     2    28    1
    31     7    29    1
    32     8    30    1
    33     9    31    1
    34    11    32    1
    35    14    33    1
    36    15    34    1
    37    18    35    1
    38    19    36    1
    39    20    37    1
    40    21    38    1
    41    22    39    1
    42    24    40    1
@<TRIPOS>MOLECULE
../data/bude_mols_rdkit_confs/molecule_69.pdb
 40 42 0 0 0
SMALL
GASTEIGER

@<TRIPOS>ATOM
      1  C1         5.7150   -2.0430   -0.1240 C.3     1  UNL1        0.0059
      2  N1         4.9810   -1.5080   -1.2480 N.3     1  UNL1       -0.1930
      3  S1         4.6980    0.1730   -0.9780 S.O2    1  UNL1        0.0582
      4  O1         3.9850    0.7890   -2.1470 O.2     1  UNL1       -0.1531
      5  O2         6.0550    0.8260   -0.8180 O.2     1  UNL1       -0.1531
      6  C2         3.7330    0.4210    0.4590 C.ar    1  UNL1        0.1070
      7  C3         4.3230    0.5830    1.6920 C.ar    1  UNL1       -0.0352
      8  C4         3.5100    0.7780    2.8010 C.ar    1  UNL1       -0.0582
      9  C5         2.1520    0.8140    2.7160 C.ar    1  UNL1       -0.0404
     10  C6         1.5310    0.6500    1.4620 C.ar    1  UNL1        0.0354
     11  N2         0.1320    0.7100    1.4050 N.pl3   1  UNL1       -0.2836
     12  C7        -0.6590    0.2900    0.3110 C.ar    1  UNL1        0.2200
     13  N3        -0.1720   -0.2300   -0.8140 N.ar    1  UNL1       -0.2226
     14  C8        -0.9080   -0.6290   -1.8530 C.ar    1  UNL1        0.0332
     15  C9        -2.3000   -0.4920   -1.7590 C.ar    1  UNL1       -0.0174
     16  C10       -2.8450    0.0400   -0.6150 C.ar    1  UNL1        0.0760
     17  C11       -4.3020    0.1990   -0.4770 C.ar    1  UNL1        0.0005
     18  C12       -4.8260    0.7450    0.7020 C.ar    1  UNL1       -0.0526
     19  C13       -6.1800    0.9210    0.8950 C.ar    1  UNL1       -0.0611
     20  C14       -7.0680    0.5520   -0.1000 C.ar    1  UNL1       -0.0617
     21  C15       -6.5860    0.0120   -1.2710 C.ar    1  UNL1       -0.0611
     22  C16       -5.2070   -0.1550   -1.4380 C.ar    1  UNL1       -0.0526
     23  N4        -2.0200    0.4100    0.3730 N.ar    1  UNL1       -0.2142
     24  C17        2.3480    0.4600    0.3810 C.ar    1  UNL1       -0.0141
     25 H           5.8965   -3.0858   -0.2803 H       1  UNL1        0.0405
     26 H           5.1434   -1.9107    0.7708 H       1  UNL1        0.0405
     27 H           6.6486   -1.5286   -0.0302 H       1  UNL1        0.0405
     28 H           4.0896   -1.9955   -1.3387 H       1  UNL1        0.1477
     29 H           5.3500    0.5600    1.7905 H       1  UNL1        0.0637
     30 H           3.9526    0.9003    3.7252 H       1  UNL1        0.0619
     31 H           1.5816    0.9603    3.5635 H       1  UNL1        0.0636
     32 H          -0.3378    1.0739    2.1899 H       1  UNL1        0.1550
     33 H          -0.4671   -1.0253   -2.6978 H       1  UNL1        0.0831
     34 H          -2.9079   -0.7869   -2.5391 H       1  UNL1        0.0654
     35 H          -4.1756    1.0254    1.4526 H       1  UNL1        0.0624
     36 H          -6.5295    1.3261    1.7775 H       1  UNL1        0.0618
     37 H          -8.0831    0.6805    0.0346 H       1  UNL1        0.0618
     38 H          -7.2376   -0.2678   -2.0208 H       1  UNL1        0.0618
     39 H          -4.8598   -0.5612   -2.3209 H       1  UNL1        0.0624
     40 H           1.9092    0.3388   -0.5452 H       1  UNL1        0.0656
@<TRIPOS>BOND
     1     1     2    1
     2     2     3    1
     3     3     4    2
     4     3     5    2
     5     3     6    1
     6     6     7   ar
     7     6    24   ar
     8     7     8   ar
     9     8     9   ar
    10     9    10   ar
    11    10    11    1
    12    10    24   ar
    13    11    12    1
    14    12    13   ar
    15    12    23   ar
    16    13    14   ar
    17    14    15   ar
    18    15    16   ar
    19    16    17    1
    20    16    23   ar
    21    17    18   ar
    22    17    22   ar
    23    18    19   ar
    24    19    20   ar
    25    20    21   ar
    26    21    22   ar
    27     1    25    1
    28     1    26    1
    29     1    27    1
    30     2    28    1
    31     7    29    1
    32     8    30    1
    33     9    31    1
    34    11    32    1
    35    14    33    1
    36    15    34    1
    37    18    35    1
    38    19    36    1
    39    20    37    1
    40    21    38    1
    41    22    39    1
    42    24    40    1
