@<TRIPOS>MOLECULE
../data/bude_mols_rdkit_confs/molecule_47.pdb
 34 36 0 0 0
SMALL
GASTEIGER

@<TRIPOS>ATOM
      1  O1        -6.4070   -0.8880    0.1470 O.2     1  UNL1       -0.2451
      2  C1        -5.1590   -0.9260    0.0110 C.2     1  UNL1        0.3369
      3  O2        -4.5660   -1.9750   -0.6500 O.3     1  UNL1       -0.4771
      4  C2        -4.3850    0.1710    0.5770 C.ar    1  UNL1        0.0606
      5  C3        -5.0010    1.2110    1.2360 C.ar    1  UNL1       -0.0477
      6  C4        -4.2200    2.2200    1.7510 C.ar    1  UNL1       -0.0592
      7  C5        -2.8550    2.1800    1.6040 C.ar    1  UNL1       -0.0404
      8  C6        -2.1840    1.1440    0.9420 C.ar    1  UNL1        0.0344
      9  N1        -0.7850    1.2000    0.8480 N.pl3   1  UNL1       -0.2836
     10  C7         0.0310    0.2300    0.2110 C.ar    1  UNL1        0.2200
     11  N2        -0.4050   -0.8610   -0.3830 N.ar    1  UNL1       -0.2226
     12  C8         0.3290   -1.7960   -0.9920 C.ar    1  UNL1        0.0332
     13  C9         1.7000   -1.5870   -0.9950 C.ar    1  UNL1       -0.0174
     14  C10        2.2240   -0.4670   -0.3920 C.ar    1  UNL1        0.0775
     15  C11        3.6690   -0.2430   -0.3920 C.ar    1  UNL1        0.0186
     16  C12        4.5700   -1.0950   -0.9680 C.ar    1  UNL1       -0.0497
     17  C13        5.9340   -0.8530   -0.9510 C.ar    1  UNL1       -0.0430
     18  C14        6.3730    0.2920   -0.3260 C.ar    1  UNL1        0.0276
     19  N3         5.5080    1.1410    0.2460 N.ar    1  UNL1       -0.2626
     20  C15        4.1870    0.8910    0.2200 C.ar    1  UNL1        0.0367
     21  N4         1.3860    0.4050    0.1910 N.ar    1  UNL1       -0.2142
     22  C16       -2.9850    0.1580    0.4430 C.ar    1  UNL1       -0.0265
     23 H          -3.6346   -1.9997   -0.7494 H       1  UNL1        0.2954
     24 H          -6.0273    1.2334    1.3416 H       1  UNL1        0.0626
     25 H          -4.6611    3.0089    2.2491 H       1  UNL1        0.0618
     26 H          -2.2961    2.9514    2.0009 H       1  UNL1        0.0636
     27 H          -0.3340    1.9739    1.2566 H       1  UNL1        0.1550
     28 H          -0.0986   -2.6247   -1.4340 H       1  UNL1        0.0831
     29 H           2.3261   -2.2705   -1.4488 H       1  UNL1        0.0654
     30 H           4.2217   -1.9486   -1.4318 H       1  UNL1        0.0625
     31 H           6.5980   -1.5086   -1.3918 H       1  UNL1        0.0633
     32 H           7.3834    0.4999   -0.2974 H       1  UNL1        0.0829
     33 H           3.5406    1.5599    0.6669 H       1  UNL1        0.0836
     34 H          -2.5442   -0.6315   -0.0543 H       1  UNL1        0.0644
@<TRIPOS>BOND
     1     1     2    2
     2     2     3    1
     3     2     4    1
     4     4     5   ar
     5     4    22   ar
     6     5     6   ar
     7     6     7   ar
     8     7     8   ar
     9     8     9    1
    10     8    22   ar
    11     9    10    1
    12    10    11   ar
    13    10    21   ar
    14    11    12   ar
    15    12    13   ar
    16    13    14   ar
    17    14    15    1
    18    14    21   ar
    19    15    16   ar
    20    15    20   ar
    21    16    17   ar
    22    17    18   ar
    23    18    19   ar
    24    19    20   ar
    25     3    23    1
    26     5    24    1
    27     6    25    1
    28     7    26    1
    29     9    27    1
    30    12    28    1
    31    13    29    1
    32    16    30    1
    33    17    31    1
    34    18    32    1
    35    20    33    1
    36    22    34    1
@<TRIPOS>MOLECULE
../data/bude_mols_rdkit_confs/molecule_47.pdb
 34 36 0 0 0
SMALL
GASTEIGER

@<TRIPOS>ATOM
      1  O1         6.9160   -0.8830    0.3270 O.2     1  UNL1       -0.2451
      2  C1         5.7350   -1.0080    0.7260 C.2     1  UNL1        0.3369
      3  O2         5.4890   -1.7610    1.8710 O.3     1  UNL1       -0.4771
      4  C2         4.6640   -0.3740   -0.0030 C.ar    1  UNL1        0.0606
      5  C3         4.9380    0.3600   -1.1250 C.ar    1  UNL1       -0.0477
      6  C4         3.9260    0.9580   -1.8130 C.ar    1  UNL1       -0.0592
      7  C5         2.6140    0.7950   -1.3330 C.ar    1  UNL1       -0.0404
      8  C6         2.2990    0.0700   -0.2180 C.ar    1  UNL1        0.0344
      9  N1         0.9990   -0.1330    0.2840 N.pl3   1  UNL1       -0.2836
     10  C7        -0.1900    0.1070   -0.4270 C.ar    1  UNL1        0.2200
     11  N2        -0.2360    0.5520   -1.6790 N.ar    1  UNL1       -0.2226
     12  C8        -1.3960    0.7600   -2.2960 C.ar    1  UNL1        0.0332
     13  C9        -2.5940    0.5070   -1.6170 C.ar    1  UNL1       -0.0174
     14  C10       -2.5730    0.0480   -0.3240 C.ar    1  UNL1        0.0775
     15  C11       -3.8030   -0.2200    0.3970 C.ar    1  UNL1        0.0186
     16  C12       -3.7830   -0.6880    1.7140 C.ar    1  UNL1       -0.0497
     17  C13       -4.9240   -0.9520    2.4240 C.ar    1  UNL1       -0.0430
     18  C14       -6.1350   -0.7390    1.7920 C.ar    1  UNL1        0.0276
     19  N3        -6.1970   -0.2920    0.5330 N.ar    1  UNL1       -0.2626
     20  C15       -5.0430   -0.0360   -0.1560 C.ar    1  UNL1        0.0367
     21  N4        -1.3780   -0.1390    0.2340 N.ar    1  UNL1       -0.2142
     22  C16        3.3880   -0.5240    0.4490 C.ar    1  UNL1       -0.0265
     23 H           4.6119   -1.8651    2.1838 H       1  UNL1        0.2954
     24 H           5.9123    0.4605   -1.4501 H       1  UNL1        0.0626
     25 H           4.1162    1.5142   -2.6613 H       1  UNL1        0.0618
     26 H           1.8458    1.2484   -1.8520 H       1  UNL1        0.0636
     27 H           0.9162   -0.4695    1.2055 H       1  UNL1        0.1550
     28 H          -1.4128    1.1054   -3.2683 H       1  UNL1        0.0831
     29 H          -3.4967    0.6664   -2.0910 H       1  UNL1        0.0654
     30 H          -2.8702   -0.8410    2.1705 H       1  UNL1        0.0625
     31 H          -4.8813   -1.2974    3.3955 H       1  UNL1        0.0633
     32 H          -7.0110   -0.9292    2.3033 H       1  UNL1        0.0829
     33 H          -5.1089    0.3079   -1.1268 H       1  UNL1        0.0836
     34 H           3.2155   -1.0847    1.2981 H       1  UNL1        0.0644
@<TRIPOS>BOND
     1     1     2    2
     2     2     3    1
     3     2     4    1
     4     4     5   ar
     5     4    22   ar
     6     5     6   ar
     7     6     7   ar
     8     7     8   ar
     9     8     9    1
    10     8    22   ar
    11     9    10    1
    12    10    11   ar
    13    10    21   ar
    14    11    12   ar
    15    12    13   ar
    16    13    14   ar
    17    14    15    1
    18    14    21   ar
    19    15    16   ar
    20    15    20   ar
    21    16    17   ar
    22    17    18   ar
    23    18    19   ar
    24    19    20   ar
    25     3    23    1
    26     5    24    1
    27     6    25    1
    28     7    26    1
    29     9    27    1
    30    12    28    1
    31    13    29    1
    32    16    30    1
    33    17    31    1
    34    18    32    1
    35    20    33    1
    36    22    34    1
@<TRIPOS>MOLECULE
../data/bude_mols_rdkit_confs/molecule_47.pdb
 34 36 0 0 0
SMALL
GASTEIGER

@<TRIPOS>ATOM
      1  O1         4.2600   -1.6100   -2.2220 O.2     1  UNL1       -0.2451
      2  C1         4.9390   -0.8630   -1.4820 C.2     1  UNL1        0.3369
      3  O2         6.3170   -0.8610   -1.6570 O.3     1  UNL1       -0.4771
      4  C2         4.2860   -0.0400   -0.4860 C.ar    1  UNL1        0.0606
      5  C3         5.0450    0.7760    0.3210 C.ar    1  UNL1       -0.0477
      6  C4         4.3700    1.5420    1.2580 C.ar    1  UNL1       -0.0592
      7  C5         3.0100    1.5080    1.3960 C.ar    1  UNL1       -0.0404
      8  C6         2.2260    0.6740    0.5720 C.ar    1  UNL1        0.0344
      9  N1         0.8280    0.6510    0.7270 N.pl3   1  UNL1       -0.2836
     10  C7        -0.1090   -0.1030    0.0120 C.ar    1  UNL1        0.2200
     11  N2         0.2100   -0.9530   -0.9720 N.ar    1  UNL1       -0.2226
     12  C8        -0.6890   -1.6540   -1.6340 C.ar    1  UNL1        0.0332
     13  C9        -2.0370   -1.4980   -1.2860 C.ar    1  UNL1       -0.0174
     14  C10       -2.3960   -0.6320   -0.2800 C.ar    1  UNL1        0.0775
     15  C11       -3.8040   -0.4290    0.1270 C.ar    1  UNL1        0.0186
     16  C12       -4.1070    0.4580    1.1500 C.ar    1  UNL1       -0.0497
     17  C13       -5.4180    0.6470    1.5290 C.ar    1  UNL1       -0.0430
     18  C14       -6.4530   -0.0250    0.9160 C.ar    1  UNL1        0.0276
     19  N3        -6.1290   -0.8770   -0.0700 N.ar    1  UNL1       -0.2626
     20  C15       -4.8490   -1.0900   -0.4710 C.ar    1  UNL1        0.0367
     21  N4        -1.4350    0.0540    0.3570 N.ar    1  UNL1       -0.2142
     22  C16        2.9080   -0.0830   -0.3550 C.ar    1  UNL1       -0.0265
     23 H           6.8566   -0.3141   -1.1206 H       1  UNL1        0.2954
     24 H           6.0724    0.8159    0.2323 H       1  UNL1        0.0626
     25 H           4.9154    2.1628    1.8762 H       1  UNL1        0.0618
     26 H           2.5533    2.0977    2.1092 H       1  UNL1        0.0636
     27 H           0.4629    1.2396    1.4267 H       1  UNL1        0.1550
     28 H          -0.4075   -2.3000   -2.3880 H       1  UNL1        0.0831
     29 H          -2.7628   -2.0347   -1.7862 H       1  UNL1        0.0654
     30 H          -3.3516    0.9753    1.6262 H       1  UNL1        0.0625
     31 H          -5.6303    1.3090    2.2917 H       1  UNL1        0.0633
     32 H          -7.4339    0.1201    1.2020 H       1  UNL1        0.0829
     33 H          -4.6591   -1.7572   -1.2350 H       1  UNL1        0.0836
     34 H           2.3706   -0.7072   -0.9768 H       1  UNL1        0.0644
@<TRIPOS>BOND
     1     1     2    2
     2     2     3    1
     3     2     4    1
     4     4     5   ar
     5     4    22   ar
     6     5     6   ar
     7     6     7   ar
     8     7     8   ar
     9     8     9    1
    10     8    22   ar
    11     9    10    1
    12    10    11   ar
    13    10    21   ar
    14    11    12   ar
    15    12    13   ar
    16    13    14   ar
    17    14    15    1
    18    14    21   ar
    19    15    16   ar
    20    15    20   ar
    21    16    17   ar
    22    17    18   ar
    23    18    19   ar
    24    19    20   ar
    25     3    23    1
    26     5    24    1
    27     6    25    1
    28     7    26    1
    29     9    27    1
    30    12    28    1
    31    13    29    1
    32    16    30    1
    33    17    31    1
    34    18    32    1
    35    20    33    1
    36    22    34    1
@<TRIPOS>MOLECULE
../data/bude_mols_rdkit_confs/molecule_47.pdb
 34 36 0 0 0
SMALL
GASTEIGER

@<TRIPOS>ATOM
      1  O1        -6.2410   -0.8460   -0.5180 O.2     1  UNL1       -0.2451
      2  C1        -5.6690    0.2550   -0.6980 C.2     1  UNL1        0.3369
      3  O2        -6.4610    1.2980   -1.1610 O.3     1  UNL1       -0.4771
      4  C2        -4.2480    0.4590   -0.4440 C.ar    1  UNL1        0.0606
      5  C3        -3.6970    1.7080   -0.6700 C.ar    1  UNL1       -0.0477
      6  C4        -2.3560    1.9290   -0.4380 C.ar    1  UNL1       -0.0592
      7  C5        -1.5710    0.8650    0.0300 C.ar    1  UNL1       -0.0404
      8  C6        -2.0690   -0.3920    0.2690 C.ar    1  UNL1        0.0344
      9  N1        -1.3150   -1.4950    0.7180 N.pl3   1  UNL1       -0.2836
     10  C7         0.0760   -1.6540    0.7420 C.ar    1  UNL1        0.2200
     11  N2         0.5960   -2.8190    1.2450 N.ar    1  UNL1       -0.2226
     12  C8         1.8870   -3.0820    1.3020 C.ar    1  UNL1        0.0332
     13  C9         2.7770   -2.1110    0.8180 C.ar    1  UNL1       -0.0174
     14  C10        2.2810   -0.9350    0.3090 C.ar    1  UNL1        0.0775
     15  C11        3.1880    0.0840   -0.2120 C.ar    1  UNL1        0.0186
     16  C12        4.5510   -0.0480   -0.1780 C.ar    1  UNL1       -0.0497
     17  C13        5.3630    0.9510   -0.6950 C.ar    1  UNL1       -0.0430
     18  C14        4.7840    2.0510   -1.2300 C.ar    1  UNL1        0.0276
     19  N3         3.4370    2.1610   -1.2540 N.ar    1  UNL1       -0.2626
     20  C15        2.6280    1.2250   -0.7680 C.ar    1  UNL1        0.0367
     21  N4         0.9290   -0.7380    0.2860 N.ar    1  UNL1       -0.2142
     22  C16       -3.4440   -0.5430    0.0100 C.ar    1  UNL1       -0.0265
     23 H          -6.0829    2.1419   -1.3122 H       1  UNL1        0.2954
     24 H          -4.2925    2.4776   -1.0138 H       1  UNL1        0.0626
     25 H          -1.9385    2.8579   -0.6052 H       1  UNL1        0.0618
     26 H          -0.5681    1.0356    0.2035 H       1  UNL1        0.0636
     27 H          -1.8367   -2.2562    1.0610 H       1  UNL1        0.1550
     28 H           2.2319   -3.9738    1.6903 H       1  UNL1        0.0831
     29 H           3.7950   -2.2786    0.8441 H       1  UNL1        0.0654
     30 H           4.9754   -0.8938    0.2338 H       1  UNL1        0.0625
     31 H           6.3905    0.8570   -0.6720 H       1  UNL1        0.0633
     32 H           5.3706    2.8055   -1.6195 H       1  UNL1        0.0829
     33 H           1.6036    1.3447   -0.8036 H       1  UNL1        0.0836
     34 H          -3.8692   -1.4689    0.1739 H       1  UNL1        0.0644
@<TRIPOS>BOND
     1     1     2    2
     2     2     3    1
     3     2     4    1
     4     4     5   ar
     5     4    22   ar
     6     5     6   ar
     7     6     7   ar
     8     7     8   ar
     9     8     9    1
    10     8    22   ar
    11     9    10    1
    12    10    11   ar
    13    10    21   ar
    14    11    12   ar
    15    12    13   ar
    16    13    14   ar
    17    14    15    1
    18    14    21   ar
    19    15    16   ar
    20    15    20   ar
    21    16    17   ar
    22    17    18   ar
    23    18    19   ar
    24    19    20   ar
    25     3    23    1
    26     5    24    1
    27     6    25    1
    28     7    26    1
    29     9    27    1
    30    12    28    1
    31    13    29    1
    32    16    30    1
    33    17    31    1
    34    18    32    1
    35    20    33    1
    36    22    34    1
@<TRIPOS>MOLECULE
../data/bude_mols_rdkit_confs/molecule_47.pdb
 34 36 0 0 0
SMALL
GASTEIGER

@<TRIPOS>ATOM
      1  O1        -4.2840   -2.0630    1.3100 O.2     1  UNL1       -0.2451
      2  C1        -4.9630   -1.0720    0.9950 C.2     1  UNL1        0.3369
      3  O2        -6.3620   -1.0420    1.1740 O.3     1  UNL1       -0.4771
      4  C2        -4.3040    0.1000    0.4200 C.ar    1  UNL1        0.0606
      5  C3        -5.0350    1.2190    0.0590 C.ar    1  UNL1       -0.0477
      6  C4        -4.3460    2.2850   -0.4750 C.ar    1  UNL1       -0.0592
      7  C5        -3.0020    2.2620   -0.6510 C.ar    1  UNL1       -0.0404
      8  C6        -2.2680    1.1410   -0.2890 C.ar    1  UNL1        0.0344
      9  N1        -0.8690    1.1150   -0.4850 N.pl3   1  UNL1       -0.2836
     10  C7         0.0710    0.1860   -0.0050 C.ar    1  UNL1        0.2200
     11  N2        -0.2430   -0.8590    0.7530 N.ar    1  UNL1       -0.2226
     12  C8         0.6140   -1.7660    1.2300 C.ar    1  UNL1        0.0332
     13  C9         1.9550   -1.5820    0.8910 C.ar    1  UNL1       -0.0174
     14  C10        2.3420   -0.5190    0.1100 C.ar    1  UNL1        0.0775
     15  C11        3.7610   -0.3090   -0.2590 C.ar    1  UNL1        0.0186
     16  C12        4.7740   -1.1230    0.1300 C.ar    1  UNL1       -0.0497
     17  C13        6.0570   -0.8000   -0.2930 C.ar    1  UNL1       -0.0430
     18  C14        6.3580    0.2820   -1.0740 C.ar    1  UNL1        0.0276
     19  N3         5.3240    1.0740   -1.4450 N.ar    1  UNL1       -0.2626
     20  C15        4.0770    0.7830   -1.0490 C.ar    1  UNL1        0.0367
     21  N4         1.4010    0.3350   -0.3180 N.ar    1  UNL1       -0.2142
     22  C16       -2.9420    0.0790    0.2420 C.ar    1  UNL1       -0.0265
     23 H          -6.8497   -0.2808    0.9274 H       1  UNL1        0.2954
     24 H          -6.0587    1.2530    0.1855 H       1  UNL1        0.0626
     25 H          -4.8705    3.1300   -0.7505 H       1  UNL1        0.0618
     26 H          -2.5227    3.0814   -1.0558 H       1  UNL1        0.0636
     27 H          -0.5025    1.8469   -1.0321 H       1  UNL1        0.1550
     28 H           0.3024   -2.5568    1.8152 H       1  UNL1        0.0831
     29 H           2.6638   -2.2510    1.2302 H       1  UNL1        0.0654
     30 H           4.5979   -1.9521    0.7188 H       1  UNL1        0.0625
     31 H           6.8320   -1.4151    0.0004 H       1  UNL1        0.0633
     32 H           7.3266    0.4850   -1.3665 H       1  UNL1        0.0829
     33 H           3.3113    1.4065   -1.3491 H       1  UNL1        0.0836
     34 H          -2.4133   -0.7634    0.5175 H       1  UNL1        0.0644
@<TRIPOS>BOND
     1     1     2    2
     2     2     3    1
     3     2     4    1
     4     4     5   ar
     5     4    22   ar
     6     5     6   ar
     7     6     7   ar
     8     7     8   ar
     9     8     9    1
    10     8    22   ar
    11     9    10    1
    12    10    11   ar
    13    10    21   ar
    14    11    12   ar
    15    12    13   ar
    16    13    14   ar
    17    14    15    1
    18    14    21   ar
    19    15    16   ar
    20    15    20   ar
    21    16    17   ar
    22    17    18   ar
    23    18    19   ar
    24    19    20   ar
    25     3    23    1
    26     5    24    1
    27     6    25    1
    28     7    26    1
    29     9    27    1
    30    12    28    1
    31    13    29    1
    32    16    30    1
    33    17    31    1
    34    18    32    1
    35    20    33    1
    36    22    34    1
@<TRIPOS>MOLECULE
../data/bude_mols_rdkit_confs/molecule_47.pdb
 34 36 0 0 0
SMALL
GASTEIGER

@<TRIPOS>ATOM
      1  O1         6.9760    1.2150    0.3220 O.2     1  UNL1       -0.2451
      2  C1         5.7600    1.5110    0.4390 C.2     1  UNL1        0.3369
      3  O2         5.4630    2.8050    0.8420 O.3     1  UNL1       -0.4771
      4  C2         4.7160    0.5150    0.1550 C.ar    1  UNL1        0.0606
      5  C3         5.0900   -0.7360   -0.2370 C.ar    1  UNL1       -0.0477
      6  C4         4.1180   -1.6770   -0.5050 C.ar    1  UNL1       -0.0592
      7  C5         2.7710   -1.3540   -0.3780 C.ar    1  UNL1       -0.0404
      8  C6         2.3550   -0.1050    0.0140 C.ar    1  UNL1        0.0344
      9  N1         1.0260    0.3120    0.1700 N.pl3   1  UNL1       -0.2836
     10  C7        -0.1370   -0.4460   -0.0380 C.ar    1  UNL1        0.2200
     11  N2        -0.1760   -1.7270   -0.4290 N.ar    1  UNL1       -0.2226
     12  C8        -1.3130   -2.4170   -0.6170 C.ar    1  UNL1        0.0332
     13  C9        -2.5490   -1.8160   -0.4060 C.ar    1  UNL1       -0.0174
     14  C10       -2.5270   -0.5030   -0.0040 C.ar    1  UNL1        0.0775
     15  C11       -3.7870    0.2020    0.2390 C.ar    1  UNL1        0.0186
     16  C12       -5.0070   -0.3630    0.0910 C.ar    1  UNL1       -0.0497
     17  C13       -6.1580    0.3760    0.3420 C.ar    1  UNL1       -0.0430
     18  C14       -6.0540    1.6840    0.7410 C.ar    1  UNL1        0.0276
     19  N3        -4.8570    2.2300    0.8830 N.ar    1  UNL1       -0.2626
     20  C15       -3.7320    1.5360    0.6460 C.ar    1  UNL1        0.0367
     21  N4        -1.3570    0.1320    0.1660 N.ar    1  UNL1       -0.2142
     22  C16        3.3820    0.8080    0.2730 C.ar    1  UNL1       -0.0265
     23 H           4.5702    3.0710    0.9428 H       1  UNL1        0.2954
     24 H           6.0891   -0.9762   -0.3321 H       1  UNL1        0.0626
     25 H           4.3918   -2.6268   -0.8016 H       1  UNL1        0.0618
     26 H           2.0622   -2.0751   -0.5847 H       1  UNL1        0.0636
     27 H           0.8928    1.2438    0.4587 H       1  UNL1        0.1550
     28 H          -1.2688   -3.4023   -0.9208 H       1  UNL1        0.0831
     29 H          -3.4341   -2.3284   -0.5439 H       1  UNL1        0.0654
     30 H          -5.0840   -1.3472   -0.2096 H       1  UNL1        0.0625
     31 H          -7.0872   -0.0584    0.2284 H       1  UNL1        0.0633
     32 H          -6.9036    2.2388    0.9292 H       1  UNL1        0.0829
     33 H          -2.8154    1.9947    0.7663 H       1  UNL1        0.0836
     34 H           3.1197    1.7605    0.5712 H       1  UNL1        0.0644
@<TRIPOS>BOND
     1     1     2    2
     2     2     3    1
     3     2     4    1
     4     4     5   ar
     5     4    22   ar
     6     5     6   ar
     7     6     7   ar
     8     7     8   ar
     9     8     9    1
    10     8    22   ar
    11     9    10    1
    12    10    11   ar
    13    10    21   ar
    14    11    12   ar
    15    12    13   ar
    16    13    14   ar
    17    14    15    1
    18    14    21   ar
    19    15    16   ar
    20    15    20   ar
    21    16    17   ar
    22    17    18   ar
    23    18    19   ar
    24    19    20   ar
    25     3    23    1
    26     5    24    1
    27     6    25    1
    28     7    26    1
    29     9    27    1
    30    12    28    1
    31    13    29    1
    32    16    30    1
    33    17    31    1
    34    18    32    1
    35    20    33    1
    36    22    34    1
@<TRIPOS>MOLECULE
../data/bude_mols_rdkit_confs/molecule_47.pdb
 34 36 0 0 0
SMALL
GASTEIGER

@<TRIPOS>ATOM
      1  O1        -6.2150   -0.0270   -1.8390 O.2     1  UNL1       -0.2451
      2  C1        -5.5630   -0.3140   -0.8070 C.2     1  UNL1        0.3369
      3  O2        -6.1780   -0.9900    0.2630 O.3     1  UNL1       -0.4771
      4  C2        -4.1640    0.0630   -0.7320 C.ar    1  UNL1        0.0606
      5  C3        -3.5870    0.7200   -1.7840 C.ar    1  UNL1       -0.0477
      6  C4        -2.2670    1.0740   -1.7090 C.ar    1  UNL1       -0.0592
      7  C5        -1.5150    0.7740   -0.5860 C.ar    1  UNL1       -0.0404
      8  C6        -2.0810    0.1140    0.4790 C.ar    1  UNL1        0.0344
      9  N1        -1.4010   -0.2610    1.6640 N.pl3   1  UNL1       -0.2836
     10  C7        -0.0120   -0.3520    1.8620 C.ar    1  UNL1        0.2200
     11  N2         0.4370   -0.7170    3.1030 N.ar    1  UNL1       -0.2226
     12  C8         1.7450   -0.8440    3.3670 C.ar    1  UNL1        0.0332
     13  C9         2.6230   -0.5940    2.3420 C.ar    1  UNL1       -0.0174
     14  C10        2.1910   -0.2230    1.0760 C.ar    1  UNL1        0.0775
     15  C11        3.1330    0.0290   -0.0090 C.ar    1  UNL1        0.0186
     16  C12        4.5010   -0.0340    0.1260 C.ar    1  UNL1       -0.0497
     17  C13        5.3610    0.2110   -0.9530 C.ar    1  UNL1       -0.0430
     18  C14        4.7770    0.5190   -2.1580 C.ar    1  UNL1        0.0276
     19  N3         3.4490    0.5900   -2.3290 N.ar    1  UNL1       -0.2626
     20  C15        2.6490    0.3450   -1.2580 C.ar    1  UNL1        0.0367
     21  N4         0.8550   -0.1130    0.8810 N.ar    1  UNL1       -0.2142
     22  C16       -3.4350   -0.2410    0.3860 C.ar    1  UNL1       -0.0265
     23 H          -5.6833   -1.2005    1.0304 H       1  UNL1        0.2954
     24 H          -4.1409    0.9462   -2.6249 H       1  UNL1        0.0626
     25 H          -1.8269    1.5707   -2.4993 H       1  UNL1        0.0618
     26 H          -0.5208    1.0482   -0.5480 H       1  UNL1        0.0636
     27 H          -1.9666   -0.4836    2.4385 H       1  UNL1        0.1550
     28 H           2.0788   -1.1189    4.3040 H       1  UNL1        0.0831
     29 H           3.6358   -0.6847    2.5180 H       1  UNL1        0.0654
     30 H           4.9045   -0.2680    1.0466 H       1  UNL1        0.0625
     31 H           6.3864    0.1623   -0.8473 H       1  UNL1        0.0633
     32 H           5.3884    0.7041   -2.9685 H       1  UNL1        0.0829
     33 H           1.6266    0.3986   -1.3879 H       1  UNL1        0.0836
     34 H          -3.8869   -0.7373    1.1699 H       1  UNL1        0.0644
@<TRIPOS>BOND
     1     1     2    2
     2     2     3    1
     3     2     4    1
     4     4     5   ar
     5     4    22   ar
     6     5     6   ar
     7     6     7   ar
     8     7     8   ar
     9     8     9    1
    10     8    22   ar
    11     9    10    1
    12    10    11   ar
    13    10    21   ar
    14    11    12   ar
    15    12    13   ar
    16    13    14   ar
    17    14    15    1
    18    14    21   ar
    19    15    16   ar
    20    15    20   ar
    21    16    17   ar
    22    17    18   ar
    23    18    19   ar
    24    19    20   ar
    25     3    23    1
    26     5    24    1
    27     6    25    1
    28     7    26    1
    29     9    27    1
    30    12    28    1
    31    13    29    1
    32    16    30    1
    33    17    31    1
    34    18    32    1
    35    20    33    1
    36    22    34    1
@<TRIPOS>MOLECULE
../data/bude_mols_rdkit_confs/molecule_47.pdb
 34 36 0 0 0
SMALL
GASTEIGER

@<TRIPOS>ATOM
      1  O1         6.3440   -0.7280    1.2230 O.2     1  UNL1       -0.2451
      2  C1         5.1460   -0.8690    0.8440 C.2     1  UNL1        0.3369
      3  O2         4.7160   -1.9910    0.1560 O.3     1  UNL1       -0.4771
      4  C2         4.2100    0.1970    1.1530 C.ar    1  UNL1        0.0606
      5  C3         4.6400    1.3240    1.8430 C.ar    1  UNL1       -0.0477
      6  C4         3.7500    2.3080    2.1220 C.ar    1  UNL1       -0.0592
      7  C5         2.4470    2.1840    1.7240 C.ar    1  UNL1       -0.0404
      8  C6         1.9960    1.0430    1.0210 C.ar    1  UNL1        0.0344
      9  N1         0.6510    1.0400    0.6690 N.pl3   1  UNL1       -0.2836
     10  C7        -0.0530   -0.0220    0.0410 C.ar    1  UNL1        0.2200
     11  N2         0.5070   -1.1880   -0.2980 N.ar    1  UNL1       -0.2226
     12  C8        -0.1370   -2.2070   -0.8920 C.ar    1  UNL1        0.0332
     13  C9        -1.4900   -1.9990   -1.1610 C.ar    1  UNL1       -0.0174
     14  C10       -2.1250   -0.8220   -0.8390 C.ar    1  UNL1        0.0775
     15  C11       -3.5530   -0.5890   -1.1180 C.ar    1  UNL1        0.0186
     16  C12       -4.1150    0.6200   -0.7620 C.ar    1  UNL1       -0.0497
     17  C13       -5.4570    0.8890   -1.0030 C.ar    1  UNL1       -0.0430
     18  C14       -6.2370   -0.0720   -1.6090 C.ar    1  UNL1        0.0276
     19  N3        -5.6650   -1.2370   -1.9440 N.ar    1  UNL1       -0.2626
     20  C15       -4.3530   -1.5180   -1.7150 C.ar    1  UNL1        0.0367
     21  N4        -1.3870    0.1330   -0.2460 N.ar    1  UNL1       -0.2142
     22  C16        2.8970    0.0540    0.7430 C.ar    1  UNL1       -0.0265
     23 H           3.8204   -2.0628   -0.1100 H       1  UNL1        0.2954
     24 H           5.6247    1.4109    2.1394 H       1  UNL1        0.0626
     25 H           4.0553    3.1502    2.6344 H       1  UNL1        0.0618
     26 H           1.7787    2.9397    1.9416 H       1  UNL1        0.0636
     27 H           0.1362    1.8534    0.8751 H       1  UNL1        0.1550
     28 H           0.3401   -3.0894   -1.1343 H       1  UNL1        0.0831
     29 H          -2.0310   -2.7512   -1.6155 H       1  UNL1        0.0654
     30 H          -3.5280    1.3375   -0.3085 H       1  UNL1        0.0625
     31 H          -5.8645    1.7974   -0.7314 H       1  UNL1        0.0633
     32 H          -7.2363    0.1010   -1.8001 H       1  UNL1        0.0829
     33 H          -3.9643   -2.4328   -1.9928 H       1  UNL1        0.0836
     34 H           2.6004   -0.7920    0.2317 H       1  UNL1        0.0644
@<TRIPOS>BOND
     1     1     2    2
     2     2     3    1
     3     2     4    1
     4     4     5   ar
     5     4    22   ar
     6     5     6   ar
     7     6     7   ar
     8     7     8   ar
     9     8     9    1
    10     8    22   ar
    11     9    10    1
    12    10    11   ar
    13    10    21   ar
    14    11    12   ar
    15    12    13   ar
    16    13    14   ar
    17    14    15    1
    18    14    21   ar
    19    15    16   ar
    20    15    20   ar
    21    16    17   ar
    22    17    18   ar
    23    18    19   ar
    24    19    20   ar
    25     3    23    1
    26     5    24    1
    27     6    25    1
    28     7    26    1
    29     9    27    1
    30    12    28    1
    31    13    29    1
    32    16    30    1
    33    17    31    1
    34    18    32    1
    35    20    33    1
    36    22    34    1
@<TRIPOS>MOLECULE
../data/bude_mols_rdkit_confs/molecule_47.pdb
 34 36 0 0 0
SMALL
GASTEIGER

@<TRIPOS>ATOM
      1  O1        -5.0260    2.7390    1.6370 O.2     1  UNL1       -0.2451
      2  C1        -5.4780    1.7720    0.9740 C.2     1  UNL1        0.3369
      3  O2        -6.8420    1.6380    0.8730 O.3     1  UNL1       -0.4771
      4  C2        -4.5380    0.8420    0.3460 C.ar    1  UNL1        0.0606
      5  C3        -5.0070   -0.2290   -0.3870 C.ar    1  UNL1       -0.0477
      6  C4        -4.1080   -1.0950   -0.9720 C.ar    1  UNL1       -0.0592
      7  C5        -2.7260   -0.9490   -0.8620 C.ar    1  UNL1       -0.0404
      8  C6        -2.2510    0.1130   -0.1330 C.ar    1  UNL1        0.0344
      9  N1        -0.8800    0.3680    0.0670 N.pl3   1  UNL1       -0.2836
     10  C7         0.2180   -0.4420   -0.2680 C.ar    1  UNL1        0.2200
     11  N2         0.0630   -1.6240   -0.8460 N.ar    1  UNL1       -0.2226
     12  C8         1.1170   -2.3770   -1.1540 C.ar    1  UNL1        0.0332
     13  C9         2.4120   -1.9720   -0.8920 C.ar    1  UNL1       -0.0174
     14  C10        2.5880   -0.7420   -0.2890 C.ar    1  UNL1        0.0775
     15  C11        3.9330   -0.2280    0.0290 C.ar    1  UNL1        0.0186
     16  C12        3.9950    1.0110    0.6290 C.ar    1  UNL1       -0.0497
     17  C13        5.1970    1.5760    0.9650 C.ar    1  UNL1       -0.0430
     18  C14        6.3510    0.8870    0.6920 C.ar    1  UNL1        0.0276
     19  N3         6.2660   -0.3140    0.1080 N.ar    1  UNL1       -0.2626
     20  C15        5.0810   -0.8970   -0.2340 C.ar    1  UNL1        0.0367
     21  N4         1.4900   -0.0460   -0.0100 N.ar    1  UNL1       -0.2142
     22  C16       -3.1850    0.9850    0.4540 C.ar    1  UNL1       -0.0265
     23 H          -7.2080    0.9267    0.3851 H       1  UNL1        0.2954
     24 H          -6.0220   -0.3803   -0.4963 H       1  UNL1        0.0626
     25 H          -4.4759   -1.8899   -1.5178 H       1  UNL1        0.0618
     26 H          -2.0816   -1.6168   -1.3134 H       1  UNL1        0.0636
     27 H          -0.6629    1.2261    0.4979 H       1  UNL1        0.1550
     28 H           0.9618   -3.2931   -1.6031 H       1  UNL1        0.0831
     29 H           3.2184   -2.5671   -1.1380 H       1  UNL1        0.0654
     30 H           3.1210    1.5221    0.8287 H       1  UNL1        0.0625
     31 H           5.2334    2.5037    1.4156 H       1  UNL1        0.0633
     32 H           7.2706    1.2885    0.9332 H       1  UNL1        0.0829
     33 H           5.0597   -1.8261   -0.6827 H       1  UNL1        0.0836
     34 H          -2.8249    1.7829    1.0006 H       1  UNL1        0.0644
@<TRIPOS>BOND
     1     1     2    2
     2     2     3    1
     3     2     4    1
     4     4     5   ar
     5     4    22   ar
     6     5     6   ar
     7     6     7   ar
     8     7     8   ar
     9     8     9    1
    10     8    22   ar
    11     9    10    1
    12    10    11   ar
    13    10    21   ar
    14    11    12   ar
    15    12    13   ar
    16    13    14   ar
    17    14    15    1
    18    14    21   ar
    19    15    16   ar
    20    15    20   ar
    21    16    17   ar
    22    17    18   ar
    23    18    19   ar
    24    19    20   ar
    25     3    23    1
    26     5    24    1
    27     6    25    1
    28     7    26    1
    29     9    27    1
    30    12    28    1
    31    13    29    1
    32    16    30    1
    33    17    31    1
    34    18    32    1
    35    20    33    1
    36    22    34    1
@<TRIPOS>MOLECULE
../data/bude_mols_rdkit_confs/molecule_47.pdb
 34 36 0 0 0
SMALL
GASTEIGER

@<TRIPOS>ATOM
      1  O1         6.0800    1.3730    1.7660 O.2     1  UNL1       -0.2451
      2  C1         5.3340    0.3890    1.5330 C.2     1  UNL1        0.3369
      3  O2         5.8160   -0.8600    1.8990 O.3     1  UNL1       -0.4771
      4  C2         4.0170    0.5360    0.9090 C.ar    1  UNL1        0.0606
      5  C3         3.5490    1.7740    0.5520 C.ar    1  UNL1       -0.0477
      6  C4         2.3020    1.8640   -0.0340 C.ar    1  UNL1       -0.0592
      7  C5         1.5410    0.7340   -0.2570 C.ar    1  UNL1       -0.0404
      8  C6         1.9740   -0.5260    0.0880 C.ar    1  UNL1        0.0344
      9  N1         1.2560   -1.7220   -0.0840 N.pl3   1  UNL1       -0.2836
     10  C7        -0.1280   -1.8550   -0.3400 C.ar    1  UNL1        0.2200
     11  N2        -0.6480   -3.0910   -0.4980 N.ar    1  UNL1       -0.2226
     12  C8        -1.9350   -3.3580   -0.7270 C.ar    1  UNL1        0.0332
     13  C9        -2.8100   -2.2640   -0.8090 C.ar    1  UNL1       -0.0174
     14  C10       -2.3270   -0.9940   -0.6550 C.ar    1  UNL1        0.0775
     15  C11       -3.2350    0.1410   -0.7220 C.ar    1  UNL1        0.0186
     16  C12       -2.6600    1.3950   -0.4750 C.ar    1  UNL1       -0.0497
     17  C13       -3.4450    2.5080   -0.5280 C.ar    1  UNL1       -0.0430
     18  C14       -4.7910    2.4070   -0.8220 C.ar    1  UNL1        0.0276
     19  N3        -5.2960    1.1880   -1.0500 N.ar    1  UNL1       -0.2626
     20  C15       -4.5620    0.0500   -1.0100 C.ar    1  UNL1        0.0367
     21  N4        -0.9920   -0.8420   -0.4250 N.ar    1  UNL1       -0.2142
     22  C16        3.2460   -0.5670    0.6800 C.ar    1  UNL1       -0.0265
     23 H           5.2975   -1.6254    1.7464 H       1  UNL1        0.2954
     24 H           4.1162    2.6201    0.7176 H       1  UNL1        0.0626
     25 H           1.9340    2.7882   -0.3089 H       1  UNL1        0.0618
     26 H           0.6139    0.8378   -0.6983 H       1  UNL1        0.0636
     27 H           1.7728   -2.5575   -0.0192 H       1  UNL1        0.1550
     28 H          -2.2723   -4.3269   -0.8389 H       1  UNL1        0.0831
     29 H          -3.8152   -2.4175   -0.9850 H       1  UNL1        0.0654
     30 H          -1.6547    1.4747   -0.2557 H       1  UNL1        0.0625
     31 H          -3.0298    3.4352   -0.3467 H       1  UNL1        0.0633
     32 H          -5.3898    3.2464   -0.8647 H       1  UNL1        0.0829
     33 H          -4.9998   -0.8663   -1.1940 H       1  UNL1        0.0836
     34 H           3.6212   -1.4870    0.9591 H       1  UNL1        0.0644
@<TRIPOS>BOND
     1     1     2    2
     2     2     3    1
     3     2     4    1
     4     4     5   ar
     5     4    22   ar
     6     5     6   ar
     7     6     7   ar
     8     7     8   ar
     9     8     9    1
    10     8    22   ar
    11     9    10    1
    12    10    11   ar
    13    10    21   ar
    14    11    12   ar
    15    12    13   ar
    16    13    14   ar
    17    14    15    1
    18    14    21   ar
    19    15    16   ar
    20    15    20   ar
    21    16    17   ar
    22    17    18   ar
    23    18    19   ar
    24    19    20   ar
    25     3    23    1
    26     5    24    1
    27     6    25    1
    28     7    26    1
    29     9    27    1
    30    12    28    1
    31    13    29    1
    32    16    30    1
    33    17    31    1
    34    18    32    1
    35    20    33    1
    36    22    34    1
@<TRIPOS>MOLECULE
../data/bude_mols_rdkit_confs/molecule_47.pdb
 34 36 0 0 0
SMALL
GASTEIGER

@<TRIPOS>ATOM
      1  O1        -6.9890   -0.1160    0.2400 O.2     1  UNL1       -0.2451
      2  C1        -5.8620   -0.5740    0.4980 C.2     1  UNL1        0.3369
      3  O2        -5.7490   -1.8160    1.0800 O.3     1  UNL1       -0.4771
      4  C2        -4.6790    0.2340    0.1710 C.ar    1  UNL1        0.0606
      5  C3        -4.8310    1.4760   -0.4110 C.ar    1  UNL1       -0.0477
      6  C4        -3.7290    2.2340   -0.7180 C.ar    1  UNL1       -0.0592
      7  C5        -2.4540    1.7110   -0.4220 C.ar    1  UNL1       -0.0404
      8  C6        -2.2900    0.4840    0.1530 C.ar    1  UNL1        0.0344
      9  N1        -1.0420   -0.0960    0.4470 N.pl3   1  UNL1       -0.2836
     10  C7         0.1480    0.3180   -0.1770 C.ar    1  UNL1        0.2200
     11  N2         0.2300    1.2580   -1.0920 N.ar    1  UNL1       -0.2226
     12  C8         1.3510    1.6700   -1.7000 C.ar    1  UNL1        0.0332
     13  C9         2.5140    1.0140   -1.2950 C.ar    1  UNL1       -0.0174
     14  C10        2.4910    0.0260   -0.3460 C.ar    1  UNL1        0.0775
     15  C11        3.6760   -0.6920    0.1130 C.ar    1  UNL1        0.0186
     16  C12        4.9310   -0.4300   -0.3770 C.ar    1  UNL1       -0.0497
     17  C13        6.0310   -1.1560    0.1060 C.ar    1  UNL1       -0.0430
     18  C14        5.8940   -2.1320    1.0660 C.ar    1  UNL1        0.0276
     19  N3         4.6560   -2.3710    1.5310 N.ar    1  UNL1       -0.2626
     20  C15        3.5940   -1.6850    1.0790 C.ar    1  UNL1        0.0367
     21  N4         1.3160   -0.3110    0.2010 N.ar    1  UNL1       -0.2142
     22  C16       -3.4360   -0.2760    0.4590 C.ar    1  UNL1       -0.0265
     23 H          -4.9023   -2.1660    1.2766 H       1  UNL1        0.2954
     24 H          -5.7763    1.8359   -0.6160 H       1  UNL1        0.0626
     25 H          -3.8312    3.1635   -1.1546 H       1  UNL1        0.0618
     26 H          -1.6184    2.2733   -0.6470 H       1  UNL1        0.0636
     27 H          -1.0006   -0.8185    1.1144 H       1  UNL1        0.1550
     28 H           1.3538    2.4157   -2.4134 H       1  UNL1        0.0831
     29 H           3.4153    1.2800   -1.7215 H       1  UNL1        0.0654
     30 H           5.0653    0.2971   -1.0969 H       1  UNL1        0.0625
     31 H           6.9701   -0.9517   -0.2700 H       1  UNL1        0.0633
     32 H           6.7094   -2.6595    1.4151 H       1  UNL1        0.0829
     33 H           2.6660   -1.9084    1.4714 H       1  UNL1        0.0836
     34 H          -3.3429   -1.2066    0.8952 H       1  UNL1        0.0644
@<TRIPOS>BOND
     1     1     2    2
     2     2     3    1
     3     2     4    1
     4     4     5   ar
     5     4    22   ar
     6     5     6   ar
     7     6     7   ar
     8     7     8   ar
     9     8     9    1
    10     8    22   ar
    11     9    10    1
    12    10    11   ar
    13    10    21   ar
    14    11    12   ar
    15    12    13   ar
    16    13    14   ar
    17    14    15    1
    18    14    21   ar
    19    15    16   ar
    20    15    20   ar
    21    16    17   ar
    22    17    18   ar
    23    18    19   ar
    24    19    20   ar
    25     3    23    1
    26     5    24    1
    27     6    25    1
    28     7    26    1
    29     9    27    1
    30    12    28    1
    31    13    29    1
    32    16    30    1
    33    17    31    1
    34    18    32    1
    35    20    33    1
    36    22    34    1
@<TRIPOS>MOLECULE
../data/bude_mols_rdkit_confs/molecule_47.pdb
 34 36 0 0 0
SMALL
GASTEIGER

@<TRIPOS>ATOM
      1  O1         5.4330   -1.3060    2.2260 O.2     1  UNL1       -0.2451
      2  C1         5.7230   -0.8910    1.0780 C.2     1  UNL1        0.3369
      3  O2         7.0270   -0.8490    0.6750 O.3     1  UNL1       -0.4771
      4  C2         4.6540   -0.4470    0.1620 C.ar    1  UNL1        0.0606
      5  C3         4.9420    0.0130   -1.1010 C.ar    1  UNL1       -0.0477
      6  C4         3.9420    0.4220   -1.9430 C.ar    1  UNL1       -0.0592
      7  C5         2.6110    0.3690   -1.5050 C.ar    1  UNL1       -0.0404
      8  C6         2.3040   -0.0830   -0.2590 C.ar    1  UNL1        0.0344
      9  N1         1.0080   -0.1720    0.2650 N.pl3   1  UNL1       -0.2836
     10  C7        -0.2030    0.1810   -0.3830 C.ar    1  UNL1        0.2200
     11  N2        -0.2950    0.6620   -1.6170 N.ar    1  UNL1       -0.2226
     12  C8        -1.4510    0.9880   -2.2090 C.ar    1  UNL1        0.0332
     13  C9        -2.6290    0.8070   -1.4710 C.ar    1  UNL1       -0.0174
     14  C10       -2.5870    0.3120   -0.1890 C.ar    1  UNL1        0.0775
     15  C11       -3.7830    0.0980    0.6390 C.ar    1  UNL1        0.0186
     16  C12       -5.0420    0.3770    0.1930 C.ar    1  UNL1       -0.0497
     17  C13       -6.1450    0.1490    1.0360 C.ar    1  UNL1       -0.0430
     18  C14       -5.9650   -0.3530    2.3050 C.ar    1  UNL1        0.0276
     19  N3        -4.7090   -0.6210    2.7220 N.ar    1  UNL1       -0.2626
     20  C15       -3.6560   -0.4020    1.9150 C.ar    1  UNL1        0.0367
     21  N4        -1.3670    0.0150    0.3130 N.ar    1  UNL1       -0.2142
     22  C16        3.3530   -0.4950    0.5800 C.ar    1  UNL1       -0.0265
     23 H           7.2426   -0.5389   -0.1825 H       1  UNL1        0.2954
     24 H           5.9232    0.0506   -1.4185 H       1  UNL1        0.0626
     25 H           4.1659    0.7656   -2.8900 H       1  UNL1        0.0618
     26 H           1.8545    0.6768   -2.1359 H       1  UNL1        0.0636
     27 H           0.9292   -0.5174    1.1836 H       1  UNL1        0.1550
     28 H          -1.4738    1.3584   -3.1720 H       1  UNL1        0.0831
     29 H          -3.5385    1.0481   -1.8950 H       1  UNL1        0.0654
     30 H          -5.1843    0.7532   -0.7574 H       1  UNL1        0.0625
     31 H          -7.0977    0.3600    0.6999 H       1  UNL1        0.0633
     32 H          -6.7730   -0.5210    2.9246 H       1  UNL1        0.0829
     33 H          -2.7107   -0.6184    2.2680 H       1  UNL1        0.0836
     34 H           3.1378   -0.8400    1.5285 H       1  UNL1        0.0644
@<TRIPOS>BOND
     1     1     2    2
     2     2     3    1
     3     2     4    1
     4     4     5   ar
     5     4    22   ar
     6     5     6   ar
     7     6     7   ar
     8     7     8   ar
     9     8     9    1
    10     8    22   ar
    11     9    10    1
    12    10    11   ar
    13    10    21   ar
    14    11    12   ar
    15    12    13   ar
    16    13    14   ar
    17    14    15    1
    18    14    21   ar
    19    15    16   ar
    20    15    20   ar
    21    16    17   ar
    22    17    18   ar
    23    18    19   ar
    24    19    20   ar
    25     3    23    1
    26     5    24    1
    27     6    25    1
    28     7    26    1
    29     9    27    1
    30    12    28    1
    31    13    29    1
    32    16    30    1
    33    17    31    1
    34    18    32    1
    35    20    33    1
    36    22    34    1
@<TRIPOS>MOLECULE
../data/bude_mols_rdkit_confs/molecule_47.pdb
 34 36 0 0 0
SMALL
GASTEIGER

@<TRIPOS>ATOM
      1  O1         3.7950    2.7690    0.1970 O.2     1  UNL1       -0.2451
      2  C1         2.8610    1.9720   -0.0310 C.2     1  UNL1        0.3369
      3  O2         1.6940    2.4320   -0.6240 O.3     1  UNL1       -0.4771
      4  C2         3.0170    0.5650    0.3330 C.ar    1  UNL1        0.0606
      5  C3         4.1850    0.1370    0.9190 C.ar    1  UNL1       -0.0477
      6  C4         4.2870   -1.1940    1.2440 C.ar    1  UNL1       -0.0592
      7  C5         3.2420   -2.0410    0.9800 C.ar    1  UNL1       -0.0404
      8  C6         2.0450   -1.6170    0.3830 C.ar    1  UNL1        0.0344
      9  N1         1.0300   -2.5590    0.1220 N.pl3   1  UNL1       -0.2836
     10  C7        -0.3320   -2.2840   -0.1010 C.ar    1  UNL1        0.2200
     11  N2        -1.1450   -3.3440   -0.3600 N.ar    1  UNL1       -0.2226
     12  C8        -2.4480   -3.1230   -0.5540 C.ar    1  UNL1        0.0332
     13  C9        -2.9520   -1.8190   -0.4890 C.ar    1  UNL1       -0.0174
     14  C10       -2.1290   -0.7490   -0.2270 C.ar    1  UNL1        0.0775
     15  C11       -2.5870    0.6320   -0.1310 C.ar    1  UNL1        0.0186
     16  C12       -1.7290    1.6690    0.1830 C.ar    1  UNL1       -0.0497
     17  C13       -2.1630    2.9760    0.2680 C.ar    1  UNL1       -0.0430
     18  C14       -3.4800    3.3130    0.0420 C.ar    1  UNL1        0.0276
     19  N3        -4.3070    2.3010   -0.2620 N.ar    1  UNL1       -0.2626
     20  C15       -3.8970    1.0050   -0.3500 C.ar    1  UNL1        0.0367
     21  N4        -0.8320   -1.0370   -0.0410 N.ar    1  UNL1       -0.2142
     22  C16        1.9500   -0.3100    0.0650 C.ar    1  UNL1       -0.0265
     23 H           0.9906    1.8376   -0.7970 H       1  UNL1        0.2954
     24 H           4.9587    0.7932    1.1082 H       1  UNL1        0.0626
     25 H           5.1473   -1.5548    1.6853 H       1  UNL1        0.0618
     26 H           3.3402   -3.0369    1.2321 H       1  UNL1        0.0636
     27 H           1.3011   -3.5050    0.0927 H       1  UNL1        0.1550
     28 H          -3.0822   -3.9128   -0.7516 H       1  UNL1        0.0831
     29 H          -3.9600   -1.6575   -0.6405 H       1  UNL1        0.0654
     30 H          -0.7340    1.4595    0.3592 H       1  UNL1        0.0625
     31 H          -1.4862    3.7178    0.5061 H       1  UNL1        0.0633
     32 H          -3.8114    4.2884    0.1031 H       1  UNL1        0.0829
     33 H          -4.5894    0.2779   -0.5885 H       1  UNL1        0.0836
     34 H           1.0897    0.0496   -0.3773 H       1  UNL1        0.0644
@<TRIPOS>BOND
     1     1     2    2
     2     2     3    1
     3     2     4    1
     4     4     5   ar
     5     4    22   ar
     6     5     6   ar
     7     6     7   ar
     8     7     8   ar
     9     8     9    1
    10     8    22   ar
    11     9    10    1
    12    10    11   ar
    13    10    21   ar
    14    11    12   ar
    15    12    13   ar
    16    13    14   ar
    17    14    15    1
    18    14    21   ar
    19    15    16   ar
    20    15    20   ar
    21    16    17   ar
    22    17    18   ar
    23    18    19   ar
    24    19    20   ar
    25     3    23    1
    26     5    24    1
    27     6    25    1
    28     7    26    1
    29     9    27    1
    30    12    28    1
    31    13    29    1
    32    16    30    1
    33    17    31    1
    34    18    32    1
    35    20    33    1
    36    22    34    1
@<TRIPOS>MOLECULE
../data/bude_mols_rdkit_confs/molecule_47.pdb
 34 36 0 0 0
SMALL
GASTEIGER

@<TRIPOS>ATOM
      1  O1         4.7560    2.0760   -3.2680 O.2     1  UNL1       -0.2451
      2  C1         5.2630    1.7380   -2.1730 C.2     1  UNL1        0.3369
      3  O2         6.6040    1.9470   -1.9160 O.3     1  UNL1       -0.4771
      4  C2         4.4290    1.1050   -1.1300 C.ar    1  UNL1        0.0606
      5  C3         4.9730    0.7280    0.0790 C.ar    1  UNL1       -0.0477
      6  C4         4.2120    0.1400    1.0560 C.ar    1  UNL1       -0.0592
      7  C5         2.8550   -0.0890    0.8350 C.ar    1  UNL1       -0.0404
      8  C6         2.2730    0.2710   -0.3530 C.ar    1  UNL1        0.0344
      9  N1         0.9070    0.1000   -0.6650 N.pl3   1  UNL1       -0.2836
     10  C7        -0.1140   -0.1560    0.2830 C.ar    1  UNL1        0.2200
     11  N2         0.1290   -0.2490    1.5860 N.ar    1  UNL1       -0.2226
     12  C8        -0.7960   -0.4870    2.5000 C.ar    1  UNL1        0.0332
     13  C9        -2.1180   -0.6510    2.0670 C.ar    1  UNL1       -0.0174
     14  C10       -2.3900   -0.5590    0.7250 C.ar    1  UNL1        0.0775
     15  C11       -3.7690   -0.7270    0.2390 C.ar    1  UNL1        0.0186
     16  C12       -4.8060   -0.9760    1.0910 C.ar    1  UNL1       -0.0497
     17  C13       -6.0940   -1.1300    0.6020 C.ar    1  UNL1       -0.0430
     18  C14       -6.3310   -1.0320   -0.7410 C.ar    1  UNL1        0.0276
     19  N3        -5.2940   -0.7850   -1.5680 N.ar    1  UNL1       -0.2626
     20  C15       -4.0370   -0.6330   -1.1180 C.ar    1  UNL1        0.0367
     21  N4        -1.3980   -0.3170   -0.1290 N.ar    1  UNL1       -0.2142
     22  C16        3.0990    0.8740   -1.3290 C.ar    1  UNL1       -0.0265
     23 H           6.9690    1.6890   -1.0925 H       1  UNL1        0.2954
     24 H           5.9769    0.8922    0.2529 H       1  UNL1        0.0626
     25 H           4.6430   -0.1325    1.9532 H       1  UNL1        0.0618
     26 H           2.2840   -0.5329    1.5712 H       1  UNL1        0.0636
     27 H           0.6444    0.1634   -1.6117 H       1  UNL1        0.1550
     28 H          -0.5519   -0.5500    3.5007 H       1  UNL1        0.0831
     29 H          -2.8736   -0.8376    2.7447 H       1  UNL1        0.0654
     30 H          -4.6301   -1.0500    2.1052 H       1  UNL1        0.0625
     31 H          -6.8736   -1.3185    1.2514 H       1  UNL1        0.0633
     32 H          -7.2860   -1.1449   -1.1154 H       1  UNL1        0.0829
     33 H          -3.2704   -0.4461   -1.7831 H       1  UNL1        0.0836
     34 H           2.6785    1.1511   -2.2298 H       1  UNL1        0.0644
@<TRIPOS>BOND
     1     1     2    2
     2     2     3    1
     3     2     4    1
     4     4     5   ar
     5     4    22   ar
     6     5     6   ar
     7     6     7   ar
     8     7     8   ar
     9     8     9    1
    10     8    22   ar
    11     9    10    1
    12    10    11   ar
    13    10    21   ar
    14    11    12   ar
    15    12    13   ar
    16    13    14   ar
    17    14    15    1
    18    14    21   ar
    19    15    16   ar
    20    15    20   ar
    21    16    17   ar
    22    17    18   ar
    23    18    19   ar
    24    19    20   ar
    25     3    23    1
    26     5    24    1
    27     6    25    1
    28     7    26    1
    29     9    27    1
    30    12    28    1
    31    13    29    1
    32    16    30    1
    33    17    31    1
    34    18    32    1
    35    20    33    1
    36    22    34    1
