@<TRIPOS>MOLECULE
../data/bude_mols_rdkit_confs/molecule_78.pdb
 48 51 0 0 0
SMALL
GASTEIGER

@<TRIPOS>ATOM
      1  O1         2.7600    1.3480    0.2940 O.2     1  UNL1       -0.2698
      2  C1         3.5440    0.3700    0.0390 C.2     1  UNL1        0.2484
      3  N1         3.0720   -0.9390    0.1570 N.am    1  UNL1       -0.2815
      4  C2         1.7810   -1.3370    0.5440 C.ar    1  UNL1        0.0339
      5  C3         1.4130   -2.6950    0.4420 C.ar    1  UNL1       -0.0405
      6  C4         0.1870   -3.1730    0.8060 C.ar    1  UNL1       -0.0597
      7  C5        -0.7840   -2.3150    1.3090 C.ar    1  UNL1       -0.0581
      8  C6        -0.4730   -1.0030    1.4240 C.ar    1  UNL1       -0.0398
      9  C7        -1.4220   -0.0000    1.9340 C.3     1  UNL1        0.0168
     10  C8        -2.1290    0.7640    0.8970 C.ar    1  UNL1        0.0693
     11  N2        -1.6710    2.0030    0.5400 N.ar    1  UNL1       -0.1753
     12  N3        -2.2300    2.7230   -0.4070 N.ar    1  UNL1       -0.2427
     13  C9        -3.3050    2.2460   -1.0750 C.ar    1  UNL1        0.2682
     14  O2        -3.8150    2.9750   -1.9860 O.2     1  UNL1       -0.2661
     15  C10       -3.8370    1.0100   -0.7860 C.ar    1  UNL1        0.0232
     16  C11       -3.2050    0.2860    0.2310 C.ar    1  UNL1       -0.0158
     17  C12       -3.8060   -1.0190    0.5690 C.3     1  UNL1       -0.0255
     18  C13       -5.3340   -0.8310    0.6190 C.3     1  UNL1       -0.0487
     19  C14       -5.9090   -0.3370   -0.6550 C.3     1  UNL1       -0.0486
     20  C15       -4.9970    0.4690   -1.5180 C.3     1  UNL1       -0.0222
     21  C16        0.7910   -0.5340    1.0450 C.ar    1  UNL1       -0.0369
     22  C17        4.9070    0.7040   -0.3670 C.ar    1  UNL1        0.0424
     23  C18        5.7990   -0.2530   -0.7800 C.ar    1  UNL1       -0.0142
     24  C19        7.0980    0.0900   -1.1570 C.ar    1  UNL1        0.1268
     25  F1         7.9340   -0.8820   -1.5540 F       1  UNL1       -0.2054
     26  C20        7.4960    1.3870   -1.1190 C.ar    1  UNL1        0.0088
     27  C21        6.6160    2.3710   -0.7070 C.ar    1  UNL1        0.1268
     28  F2         7.0530    3.6440   -0.6850 F       1  UNL1       -0.2054
     29  C22        5.3290    2.0070   -0.3360 C.ar    1  UNL1       -0.0142
     30 H           3.7105   -1.6583   -0.0529 H       1  UNL1        0.1551
     31 H           2.1076   -3.3628    0.0725 H       1  UNL1        0.0636
     32 H          -0.0204   -4.1791    0.7069 H       1  UNL1        0.0618
     33 H          -1.7134   -2.6676    1.5862 H       1  UNL1        0.0620
     34 H          -0.8794    0.6911    2.5446 H       1  UNL1        0.0377
     35 H          -2.1716   -0.5415    2.4723 H       1  UNL1        0.0377
     36 H          -1.8660    3.6101   -0.6302 H       1  UNL1        0.1921
     37 H          -3.4480   -1.3495    1.5216 H       1  UNL1        0.0314
     38 H          -3.5422   -1.7541   -0.1624 H       1  UNL1        0.0314
     39 H          -5.5638   -0.1262    1.3906 H       1  UNL1        0.0268
     40 H          -5.7643   -1.7923    0.8077 H       1  UNL1        0.0268
     41 H          -6.7563    0.2715   -0.4170 H       1  UNL1        0.0269
     42 H          -6.1430   -1.2128   -1.2234 H       1  UNL1        0.0269
     43 H          -4.6391   -0.1542   -2.3107 H       1  UNL1        0.0315
     44 H          -5.5590    1.3018   -1.8861 H       1  UNL1        0.0315
     45 H           0.9876    0.4737    1.1491 H       1  UNL1        0.0639
     46 H           5.5048   -1.2417   -0.8124 H       1  UNL1        0.0654
     47 H           8.4570    1.6393   -1.3980 H       1  UNL1        0.0675
     48 H           4.6706    2.7395   -0.0277 H       1  UNL1        0.0654
@<TRIPOS>BOND
     1     1     2    2
     2     2     3   am
     3     2    22    1
     4     3     4    1
     5     4     5   ar
     6     4    21   ar
     7     5     6   ar
     8     6     7   ar
     9     7     8   ar
    10     8     9    1
    11     8    21   ar
    12     9    10    1
    13    10    11   ar
    14    10    16   ar
    15    11    12   ar
    16    12    13   ar
    17    13    14    2
    18    13    15   ar
    19    15    16   ar
    20    15    20    1
    21    16    17    1
    22    17    18    1
    23    18    19    1
    24    19    20    1
    25    22    23   ar
    26    22    29   ar
    27    23    24   ar
    28    24    25    1
    29    24    26   ar
    30    26    27   ar
    31    27    28    1
    32    27    29   ar
    33     3    30    1
    34     5    31    1
    35     6    32    1
    36     7    33    1
    37     9    34    1
    38     9    35    1
    39    12    36    1
    40    17    37    1
    41    17    38    1
    42    18    39    1
    43    18    40    1
    44    19    41    1
    45    19    42    1
    46    20    43    1
    47    20    44    1
    48    21    45    1
    49    23    46    1
    50    26    47    1
    51    29    48    1
@<TRIPOS>MOLECULE
../data/bude_mols_rdkit_confs/molecule_78.pdb
 48 51 0 0 0
SMALL
GASTEIGER

@<TRIPOS>ATOM
      1  O1         3.9630    0.4090   -1.6310 O.2     1  UNL1       -0.2698
      2  C1         3.9360    0.1500   -0.4130 C.2     1  UNL1        0.2484
      3  N1         2.8380   -0.4860    0.1590 N.am    1  UNL1       -0.2815
      4  C2         1.6570   -0.9130   -0.5240 C.ar    1  UNL1        0.0339
      5  C3         1.5000   -0.9670   -1.8790 C.ar    1  UNL1       -0.0405
      6  C4         0.3060   -1.3860   -2.4720 C.ar    1  UNL1       -0.0597
      7  C5        -0.7690   -1.7650   -1.6980 C.ar    1  UNL1       -0.0581
      8  C6        -0.6500   -1.7250   -0.3450 C.ar    1  UNL1       -0.0398
      9  C7        -1.7930   -2.1200    0.5550 C.3     1  UNL1        0.0168
     10  C8        -2.5760   -0.9920    1.0380 C.ar    1  UNL1        0.0693
     11  N2        -2.2480   -0.4410    2.2560 N.ar    1  UNL1       -0.1753
     12  N3        -2.8640    0.6090    2.7500 N.ar    1  UNL1       -0.2427
     13  C9        -3.8700    1.2480    2.1220 C.ar    1  UNL1        0.2682
     14  O2        -4.4630    2.2520    2.5890 O.2     1  UNL1       -0.2661
     15  C10       -4.2350    0.7300    0.8960 C.ar    1  UNL1        0.0232
     16  C11       -3.5910   -0.3750    0.3720 C.ar    1  UNL1       -0.0158
     17  C12       -4.0890   -0.8580   -0.9010 C.3     1  UNL1       -0.0255
     18  C13       -4.0280    0.3120   -1.8740 C.3     1  UNL1       -0.0487
     19  C14       -4.9750    1.3820   -1.3850 C.3     1  UNL1       -0.0486
     20  C15       -5.3240    1.3010    0.0610 C.3     1  UNL1       -0.0222
     21  C16        0.5460   -1.3050    0.2220 C.ar    1  UNL1       -0.0369
     22  C17        5.1020    0.5400    0.3910 C.ar    1  UNL1        0.0424
     23  C18        6.2380    0.9950   -0.2800 C.ar    1  UNL1       -0.0142
     24  C19        7.3670    1.3820    0.3800 C.ar    1  UNL1        0.1268
     25  F1         8.4820    1.8260   -0.2850 F       1  UNL1       -0.2054
     26  C20        7.4040    1.3280    1.7460 C.ar    1  UNL1        0.0088
     27  C21        6.2850    0.8790    2.4270 C.ar    1  UNL1        0.1268
     28  F2         6.3330    0.8300    3.7840 F       1  UNL1       -0.2054
     29  C22        5.1400    0.4870    1.7610 C.ar    1  UNL1       -0.0142
     30 H           2.8786   -0.6584    1.1274 H       1  UNL1        0.1551
     31 H           2.2882   -0.6896   -2.4847 H       1  UNL1        0.0636
     32 H           0.2286   -1.4118   -3.5008 H       1  UNL1        0.0618
     33 H          -1.6497   -2.0740   -2.1384 H       1  UNL1        0.0620
     34 H          -1.3929   -2.6398    1.4003 H       1  UNL1        0.0377
     35 H          -2.4515   -2.7308   -0.0266 H       1  UNL1        0.0377
     36 H          -2.5743    0.9476    3.6279 H       1  UNL1        0.1921
     37 H          -5.0985   -1.1970   -0.7963 H       1  UNL1        0.0314
     38 H          -3.5023   -1.6802   -1.2542 H       1  UNL1        0.0314
     39 H          -4.3216   -0.0130   -2.8502 H       1  UNL1        0.0268
     40 H          -3.0311    0.6969   -1.9273 H       1  UNL1        0.0268
     41 H          -5.8807    1.3070   -1.9498 H       1  UNL1        0.0269
     42 H          -4.4672    2.3144   -1.5183 H       1  UNL1        0.0269
     43 H          -5.5413    2.2874    0.4140 H       1  UNL1        0.0315
     44 H          -6.1669    0.6476    0.1481 H       1  UNL1        0.0315
     45 H           0.6164   -1.2817    1.2513 H       1  UNL1        0.0639
     46 H           6.2232    1.0402   -1.3109 H       1  UNL1        0.0654
     47 H           8.2509    1.6168    2.2602 H       1  UNL1        0.0675
     48 H           4.3185    0.1564    2.2909 H       1  UNL1        0.0654
@<TRIPOS>BOND
     1     1     2    2
     2     2     3   am
     3     2    22    1
     4     3     4    1
     5     4     5   ar
     6     4    21   ar
     7     5     6   ar
     8     6     7   ar
     9     7     8   ar
    10     8     9    1
    11     8    21   ar
    12     9    10    1
    13    10    11   ar
    14    10    16   ar
    15    11    12   ar
    16    12    13   ar
    17    13    14    2
    18    13    15   ar
    19    15    16   ar
    20    15    20    1
    21    16    17    1
    22    17    18    1
    23    18    19    1
    24    19    20    1
    25    22    23   ar
    26    22    29   ar
    27    23    24   ar
    28    24    25    1
    29    24    26   ar
    30    26    27   ar
    31    27    28    1
    32    27    29   ar
    33     3    30    1
    34     5    31    1
    35     6    32    1
    36     7    33    1
    37     9    34    1
    38     9    35    1
    39    12    36    1
    40    17    37    1
    41    17    38    1
    42    18    39    1
    43    18    40    1
    44    19    41    1
    45    19    42    1
    46    20    43    1
    47    20    44    1
    48    21    45    1
    49    23    46    1
    50    26    47    1
    51    29    48    1
@<TRIPOS>MOLECULE
../data/bude_mols_rdkit_confs/molecule_78.pdb
 48 51 0 0 0
SMALL
GASTEIGER

@<TRIPOS>ATOM
      1  O1         3.0970   -0.1250    1.3300 O.2     1  UNL1       -0.2698
      2  C1         3.6280   -0.0850    0.1960 C.2     1  UNL1        0.2484
      3  N1         2.9210   -0.5970   -0.9150 N.am    1  UNL1       -0.2815
      4  C2         1.6290   -1.1640   -0.8880 C.ar    1  UNL1        0.0339
      5  C3         1.2130   -1.8400   -2.0450 C.ar    1  UNL1       -0.0405
      6  C4        -0.0290   -2.4280   -2.1560 C.ar    1  UNL1       -0.0597
      7  C5        -0.9040   -2.3460   -1.0760 C.ar    1  UNL1       -0.0581
      8  C6        -0.5370   -1.6950    0.0700 C.ar    1  UNL1       -0.0398
      9  C7        -1.4420   -1.5830    1.2310 C.3     1  UNL1        0.0168
     10  C8        -2.1230   -0.2900    1.3760 C.ar    1  UNL1        0.0693
     11  N2        -1.6560    0.6290    2.2740 N.ar    1  UNL1       -0.1753
     12  N3        -2.1910    1.8040    2.4710 N.ar    1  UNL1       -0.2427
     13  C9        -3.2860    2.2200    1.7800 C.ar    1  UNL1        0.2682
     14  O2        -3.7860    3.3610    1.9860 O.2     1  UNL1       -0.2661
     15  C10       -3.7970    1.3590    0.8770 C.ar    1  UNL1        0.0232
     16  C11       -3.2310    0.0930    0.6540 C.ar    1  UNL1       -0.0158
     17  C12       -3.7930   -0.8250   -0.3480 C.3     1  UNL1       -0.0255
     18  C13       -5.2110   -0.5640   -0.7080 C.3     1  UNL1       -0.0487
     19  C14       -5.8640    0.4290    0.1980 C.3     1  UNL1       -0.0486
     20  C15       -5.0310    1.7310    0.1070 C.3     1  UNL1       -0.0222
     21  C16        0.7330   -1.1200    0.1220 C.ar    1  UNL1       -0.0369
     22  C17        4.9770    0.4970    0.0660 C.ar    1  UNL1        0.0424
     23  C18        5.7510    0.6380    1.1930 C.ar    1  UNL1       -0.0142
     24  C19        7.0310    1.1870    1.1420 C.ar    1  UNL1        0.1268
     25  F1         7.7840    1.3170    2.2750 F       1  UNL1       -0.2054
     26  C20        7.5330    1.5990   -0.0710 C.ar    1  UNL1        0.0088
     27  C21        6.7640    1.4600   -1.1970 C.ar    1  UNL1        0.1268
     28  F2         7.2340    1.8570   -2.3920 F       1  UNL1       -0.2054
     29  C22        5.4890    0.9110   -1.1330 C.ar    1  UNL1       -0.0142
     30 H           3.3716   -0.5542   -1.7893 H       1  UNL1        0.1551
     31 H           1.8626   -1.8994   -2.8447 H       1  UNL1        0.0636
     32 H          -0.3044   -2.9185   -3.0212 H       1  UNL1        0.0618
     33 H          -1.8379   -2.7803   -1.1406 H       1  UNL1        0.0620
     34 H          -0.8659   -1.7539    2.1164 H       1  UNL1        0.0377
     35 H          -2.2140   -2.3070    1.0741 H       1  UNL1        0.0377
     36 H          -1.7901    2.4059    3.1390 H       1  UNL1        0.1921
     37 H          -3.7257   -1.8206    0.0382 H       1  UNL1        0.0314
     38 H          -3.2239   -0.6790   -1.2423 H       1  UNL1        0.0314
     39 H          -5.7529   -1.4850   -0.6534 H       1  UNL1        0.0268
     40 H          -5.2229   -0.1552   -1.6968 H       1  UNL1        0.0268
     41 H          -5.8680    0.0635    1.2036 H       1  UNL1        0.0269
     42 H          -6.8801    0.6018   -0.0895 H       1  UNL1        0.0269
     43 H          -4.7981    1.9746   -0.9085 H       1  UNL1        0.0315
     44 H          -5.5347    2.5956    0.4860 H       1  UNL1        0.0315
     45 H           1.0056   -0.6293    0.9880 H       1  UNL1        0.0639
     46 H           5.3738    0.3287    2.1024 H       1  UNL1        0.0654
     47 H           8.4784    2.0083   -0.1323 H       1  UNL1        0.0675
     48 H           4.9265    0.8153   -1.9929 H       1  UNL1        0.0654
@<TRIPOS>BOND
     1     1     2    2
     2     2     3   am
     3     2    22    1
     4     3     4    1
     5     4     5   ar
     6     4    21   ar
     7     5     6   ar
     8     6     7   ar
     9     7     8   ar
    10     8     9    1
    11     8    21   ar
    12     9    10    1
    13    10    11   ar
    14    10    16   ar
    15    11    12   ar
    16    12    13   ar
    17    13    14    2
    18    13    15   ar
    19    15    16   ar
    20    15    20    1
    21    16    17    1
    22    17    18    1
    23    18    19    1
    24    19    20    1
    25    22    23   ar
    26    22    29   ar
    27    23    24   ar
    28    24    25    1
    29    24    26   ar
    30    26    27   ar
    31    27    28    1
    32    27    29   ar
    33     3    30    1
    34     5    31    1
    35     6    32    1
    36     7    33    1
    37     9    34    1
    38     9    35    1
    39    12    36    1
    40    17    37    1
    41    17    38    1
    42    18    39    1
    43    18    40    1
    44    19    41    1
    45    19    42    1
    46    20    43    1
    47    20    44    1
    48    21    45    1
    49    23    46    1
    50    26    47    1
    51    29    48    1
@<TRIPOS>MOLECULE
../data/bude_mols_rdkit_confs/molecule_78.pdb
 48 51 0 0 0
SMALL
GASTEIGER

@<TRIPOS>ATOM
      1  O1         2.7780    1.4360   -0.5640 O.2     1  UNL1       -0.2698
      2  C1         3.5300    0.4600   -0.3120 C.2     1  UNL1        0.2484
      3  N1         3.0200   -0.8340   -0.4130 N.am    1  UNL1       -0.2815
      4  C2         1.7170   -1.2160   -0.7790 C.ar    1  UNL1        0.0339
      5  C3         1.3930   -2.5860   -0.7300 C.ar    1  UNL1       -0.0405
      6  C4         0.1540   -3.0680   -1.0700 C.ar    1  UNL1       -0.0597
      7  C5        -0.8420   -2.1920   -1.4830 C.ar    1  UNL1       -0.0581
      8  C6        -0.5760   -0.8700   -1.5440 C.ar    1  UNL1       -0.0398
      9  C7        -1.5760    0.1150   -1.9600 C.3     1  UNL1        0.0168
     10  C8        -2.2540    0.8320   -0.8690 C.ar    1  UNL1        0.0693
     11  N2        -1.8280    2.0810   -0.5070 N.ar    1  UNL1       -0.1753
     12  N3        -2.3630    2.7690    0.4830 N.ar    1  UNL1       -0.2427
     13  C9        -3.3780    2.2700    1.2060 C.ar    1  UNL1        0.2682
     14  O2        -3.8850    2.9450    2.1600 O.2     1  UNL1       -0.2661
     15  C10       -3.8810    1.0050    0.9120 C.ar    1  UNL1        0.0232
     16  C11       -3.2980    0.3200   -0.1270 C.ar    1  UNL1       -0.0158
     17  C12       -3.8280   -1.0120   -0.4880 C.3     1  UNL1       -0.0255
     18  C13       -5.2930   -1.0460   -0.1640 C.3     1  UNL1       -0.0487
     19  C14       -5.5410   -0.8030    1.2850 C.3     1  UNL1       -0.0486
     20  C15       -4.9900    0.5160    1.7600 C.3     1  UNL1       -0.0222
     21  C16        0.6910   -0.4100   -1.1930 C.ar    1  UNL1       -0.0369
     22  C17        4.9400    0.7450    0.0850 C.ar    1  UNL1        0.0424
     23  C18        5.3370    2.0580    0.2750 C.ar    1  UNL1       -0.0142
     24  C19        6.6160    2.4010    0.6370 C.ar    1  UNL1        0.1268
     25  F1         7.0270    3.6750    0.8280 F       1  UNL1       -0.2054
     26  C20        7.5290    1.3840    0.8150 C.ar    1  UNL1        0.0088
     27  C21        7.1660    0.0480    0.6330 C.ar    1  UNL1        0.1268
     28  F2         8.0900   -0.9430    0.8150 F       1  UNL1       -0.2054
     29  C22        5.8720   -0.2330    0.2710 C.ar    1  UNL1       -0.0142
     30 H           3.6450   -1.5653   -0.2037 H       1  UNL1        0.1551
     31 H           2.1175   -3.2550   -0.4258 H       1  UNL1        0.0636
     32 H          -0.0378   -4.0807   -1.0189 H       1  UNL1        0.0618
     33 H          -1.7757   -2.5483   -1.7405 H       1  UNL1        0.0620
     34 H          -2.3223   -0.3951   -2.5324 H       1  UNL1        0.0377
     35 H          -1.0415    0.8597   -2.5119 H       1  UNL1        0.0377
     36 H          -2.0119    3.6639    0.6954 H       1  UNL1        0.1921
     37 H          -3.3171   -1.7674    0.0716 H       1  UNL1        0.0314
     38 H          -3.6792   -1.1950   -1.5317 H       1  UNL1        0.0314
     39 H          -5.6844   -2.0066   -0.4268 H       1  UNL1        0.0268
     40 H          -5.7765   -0.2705   -0.7206 H       1  UNL1        0.0268
     41 H          -5.0797   -1.5881    1.8469 H       1  UNL1        0.0269
     42 H          -6.6008   -0.7797    1.4303 H       1  UNL1        0.0269
     43 H          -5.7768    1.2410    1.7476 H       1  UNL1        0.0315
     44 H          -4.6045    0.3706    2.7475 H       1  UNL1        0.0315
     45 H           0.8678    0.6052   -1.2487 H       1  UNL1        0.0639
     46 H           4.6429    2.8095    0.1389 H       1  UNL1        0.0654
     47 H           8.4975    1.6138    1.0875 H       1  UNL1        0.0675
     48 H           5.5951   -1.2178    0.1350 H       1  UNL1        0.0654
@<TRIPOS>BOND
     1     1     2    2
     2     2     3   am
     3     2    22    1
     4     3     4    1
     5     4     5   ar
     6     4    21   ar
     7     5     6   ar
     8     6     7   ar
     9     7     8   ar
    10     8     9    1
    11     8    21   ar
    12     9    10    1
    13    10    11   ar
    14    10    16   ar
    15    11    12   ar
    16    12    13   ar
    17    13    14    2
    18    13    15   ar
    19    15    16   ar
    20    15    20    1
    21    16    17    1
    22    17    18    1
    23    18    19    1
    24    19    20    1
    25    22    23   ar
    26    22    29   ar
    27    23    24   ar
    28    24    25    1
    29    24    26   ar
    30    26    27   ar
    31    27    28    1
    32    27    29   ar
    33     3    30    1
    34     5    31    1
    35     6    32    1
    36     7    33    1
    37     9    34    1
    38     9    35    1
    39    12    36    1
    40    17    37    1
    41    17    38    1
    42    18    39    1
    43    18    40    1
    44    19    41    1
    45    19    42    1
    46    20    43    1
    47    20    44    1
    48    21    45    1
    49    23    46    1
    50    26    47    1
    51    29    48    1
@<TRIPOS>MOLECULE
../data/bude_mols_rdkit_confs/molecule_78.pdb
 48 51 0 0 0
SMALL
GASTEIGER

@<TRIPOS>ATOM
      1  O1         4.1340    0.0290    1.9770 O.2     1  UNL1       -0.2698
      2  C1         4.0710   -0.1340    0.7410 C.2     1  UNL1        0.2484
      3  N1         2.8970    0.2100    0.0600 N.am    1  UNL1       -0.2815
      4  C2         1.7060    0.7510    0.6040 C.ar    1  UNL1        0.0339
      5  C3         1.4530    0.9870    1.9280 C.ar    1  UNL1       -0.0405
      6  C4         0.2730    1.5250    2.4130 C.ar    1  UNL1       -0.0597
      7  C5        -0.7230    1.8470    1.4910 C.ar    1  UNL1       -0.0581
      8  C6        -0.5320    1.6350    0.1660 C.ar    1  UNL1       -0.0398
      9  C7        -1.5840    1.9630   -0.8550 C.3     1  UNL1        0.0168
     10  C8        -2.3010    0.7440   -1.2440 C.ar    1  UNL1        0.0693
     11  N2        -1.8530    0.0970   -2.3520 N.ar    1  UNL1       -0.1753
     12  N3        -2.4400   -1.0290   -2.6930 N.ar    1  UNL1       -0.2427
     13  C9        -3.4590   -1.5780   -2.0090 C.ar    1  UNL1        0.2682
     14  O2        -4.0100   -2.6550   -2.3460 O.2     1  UNL1       -0.2661
     15  C10       -3.9330   -0.9260   -0.8690 C.ar    1  UNL1        0.0232
     16  C11       -3.3280    0.2730   -0.4830 C.ar    1  UNL1       -0.0158
     17  C12       -3.8920    0.9510    0.7020 C.3     1  UNL1       -0.0255
     18  C13       -5.4110    1.0180    0.4210 C.3     1  UNL1       -0.0487
     19  C14       -6.0190   -0.3480    0.3400 C.3     1  UNL1       -0.0486
     20  C15       -5.0310   -1.4330   -0.0370 C.3     1  UNL1       -0.0222
     21  C16        0.6780    1.0890   -0.2730 C.ar    1  UNL1       -0.0369
     22  C17        5.2430   -0.6900    0.0340 C.ar    1  UNL1        0.0424
     23  C18        6.2020   -1.3120    0.7940 C.ar    1  UNL1       -0.0142
     24  C19        7.3580   -1.8690    0.2340 C.ar    1  UNL1        0.1268
     25  F1         8.2660   -2.4690    1.0410 F       1  UNL1       -0.2054
     26  C20        7.5120   -1.7760   -1.1270 C.ar    1  UNL1        0.0088
     27  C21        6.5600   -1.1530   -1.9250 C.ar    1  UNL1        0.1268
     28  F2         6.7580   -1.0840   -3.2570 F       1  UNL1       -0.2054
     29  C22        5.4220   -0.6120   -1.3180 C.ar    1  UNL1       -0.0142
     30 H           2.8994    0.0578   -0.9127 H       1  UNL1        0.1551
     31 H           2.1901    0.7483    2.6097 H       1  UNL1        0.0636
     32 H           0.1349    1.6826    3.4235 H       1  UNL1        0.0618
     33 H          -1.6137    2.2505    1.8209 H       1  UNL1        0.0620
     34 H          -1.1190    2.3916   -1.7181 H       1  UNL1        0.0377
     35 H          -2.2779    2.6600   -0.4337 H       1  UNL1        0.0377
     36 H          -2.1146   -1.4972   -3.4956 H       1  UNL1        0.1921
     37 H          -3.4826    1.9341    0.8062 H       1  UNL1        0.0314
     38 H          -3.6682    0.4346    1.6120 H       1  UNL1        0.0314
     39 H          -5.5699    1.5242   -0.5082 H       1  UNL1        0.0268
     40 H          -5.8771    1.5437    1.2280 H       1  UNL1        0.0268
     41 H          -6.7963   -0.3287   -0.3950 H       1  UNL1        0.0269
     42 H          -6.3864   -0.5852    1.3166 H       1  UNL1        0.0269
     43 H          -4.6194   -1.8492    0.8587 H       1  UNL1        0.0315
     44 H          -5.5578   -2.1703   -0.6061 H       1  UNL1        0.0315
     45 H           0.8144    0.9307   -1.2836 H       1  UNL1        0.0639
     46 H           6.0660   -1.3712    1.8153 H       1  UNL1        0.0654
     47 H           8.3542   -2.1780   -1.5677 H       1  UNL1        0.0675
     48 H           4.7074   -0.1473   -1.8998 H       1  UNL1        0.0654
@<TRIPOS>BOND
     1     1     2    2
     2     2     3   am
     3     2    22    1
     4     3     4    1
     5     4     5   ar
     6     4    21   ar
     7     5     6   ar
     8     6     7   ar
     9     7     8   ar
    10     8     9    1
    11     8    21   ar
    12     9    10    1
    13    10    11   ar
    14    10    16   ar
    15    11    12   ar
    16    12    13   ar
    17    13    14    2
    18    13    15   ar
    19    15    16   ar
    20    15    20    1
    21    16    17    1
    22    17    18    1
    23    18    19    1
    24    19    20    1
    25    22    23   ar
    26    22    29   ar
    27    23    24   ar
    28    24    25    1
    29    24    26   ar
    30    26    27   ar
    31    27    28    1
    32    27    29   ar
    33     3    30    1
    34     5    31    1
    35     6    32    1
    36     7    33    1
    37     9    34    1
    38     9    35    1
    39    12    36    1
    40    17    37    1
    41    17    38    1
    42    18    39    1
    43    18    40    1
    44    19    41    1
    45    19    42    1
    46    20    43    1
    47    20    44    1
    48    21    45    1
    49    23    46    1
    50    26    47    1
    51    29    48    1
@<TRIPOS>MOLECULE
../data/bude_mols_rdkit_confs/molecule_78.pdb
 48 51 0 0 0
SMALL
GASTEIGER

@<TRIPOS>ATOM
      1  O1         2.7980   -0.0740    1.4320 O.2     1  UNL1       -0.2698
      2  C1         3.4340   -0.1870    0.3590 C.2     1  UNL1        0.2484
      3  N1         2.7970   -0.7700   -0.7420 N.am    1  UNL1       -0.2815
      4  C2         1.4740   -1.2720   -0.8140 C.ar    1  UNL1        0.0339
      5  C3         1.0620   -1.7630   -2.0540 C.ar    1  UNL1       -0.0405
      6  C4        -0.1950   -2.2730   -2.2470 C.ar    1  UNL1       -0.0597
      7  C5        -1.0890   -2.3160   -1.2120 C.ar    1  UNL1       -0.0581
      8  C6        -0.7170   -1.8410    0.0220 C.ar    1  UNL1       -0.0398
      9  C7        -1.6830   -1.8830    1.1360 C.3     1  UNL1        0.0168
     10  C8        -2.2460   -0.5530    1.3650 C.ar    1  UNL1        0.0693
     11  N2        -1.6990    0.1400    2.4150 N.ar    1  UNL1       -0.1753
     12  N3        -2.0630    1.3340    2.7720 N.ar    1  UNL1       -0.2427
     13  C9        -3.0270    1.9590    2.0990 C.ar    1  UNL1        0.2682
     14  O2        -3.3790    3.1120    2.4420 O.2     1  UNL1       -0.2661
     15  C10       -3.6360    1.3150    1.0110 C.ar    1  UNL1        0.0232
     16  C11       -3.2420    0.0660    0.6520 C.ar    1  UNL1       -0.0158
     17  C12       -3.8410   -0.6630   -0.4700 C.3     1  UNL1       -0.0255
     18  C13       -5.1920   -0.0300   -0.8410 C.3     1  UNL1       -0.0487
     19  C14       -4.9910    1.4660   -1.0210 C.3     1  UNL1       -0.0486
     20  C15       -4.6960    2.0450    0.3290 C.3     1  UNL1       -0.0222
     21  C16        0.5730   -1.3210    0.2030 C.ar    1  UNL1       -0.0369
     22  C17        4.8220    0.3060    0.3300 C.ar    1  UNL1        0.0424
     23  C18        5.3720    0.8840    1.4630 C.ar    1  UNL1       -0.0142
     24  C19        6.6620    1.3680    1.5140 C.ar    1  UNL1        0.1268
     25  F1         7.1630    1.9310    2.6540 F       1  UNL1       -0.2054
     26  C20        7.4650    1.2860    0.3930 C.ar    1  UNL1        0.0088
     27  C21        6.9350    0.7130   -0.7480 C.ar    1  UNL1        0.1268
     28  F2         7.7420    0.6410   -1.8400 F       1  UNL1       -0.2054
     29  C22        5.6410    0.2390   -0.7620 C.ar    1  UNL1       -0.0142
     30 H           3.3323   -0.8397   -1.5653 H       1  UNL1        0.1551
     31 H           1.7221   -1.7413   -2.8470 H       1  UNL1        0.0636
     32 H          -0.4687   -2.6263   -3.1772 H       1  UNL1        0.0618
     33 H          -2.0349   -2.7021   -1.3573 H       1  UNL1        0.0620
     34 H          -1.1852   -2.2139    2.0235 H       1  UNL1        0.0377
     35 H          -2.4739   -2.5595    0.8876 H       1  UNL1        0.0377
     36 H          -1.6281    1.7754    3.5370 H       1  UNL1        0.1921
     37 H          -3.9925   -1.6844   -0.1895 H       1  UNL1        0.0314
     38 H          -3.1846   -0.6141   -1.3136 H       1  UNL1        0.0314
     39 H          -5.9005   -0.2074   -0.0590 H       1  UNL1        0.0268
     40 H          -5.5623   -0.4616   -1.7473 H       1  UNL1        0.0268
     41 H          -5.8787    1.9084   -1.4225 H       1  UNL1        0.0269
     42 H          -4.1861    1.6598   -1.6989 H       1  UNL1        0.0269
     43 H          -4.3933    3.0644    0.2100 H       1  UNL1        0.0315
     44 H          -5.5836    1.9740    0.9224 H       1  UNL1        0.0315
     45 H           0.8455   -0.9661    1.1330 H       1  UNL1        0.0639
     46 H           4.7872    0.9557    2.3103 H       1  UNL1        0.0654
     47 H           8.4334    1.6425    0.4069 H       1  UNL1        0.0675
     48 H           5.2765   -0.1828   -1.6305 H       1  UNL1        0.0654
@<TRIPOS>BOND
     1     1     2    2
     2     2     3   am
     3     2    22    1
     4     3     4    1
     5     4     5   ar
     6     4    21   ar
     7     5     6   ar
     8     6     7   ar
     9     7     8   ar
    10     8     9    1
    11     8    21   ar
    12     9    10    1
    13    10    11   ar
    14    10    16   ar
    15    11    12   ar
    16    12    13   ar
    17    13    14    2
    18    13    15   ar
    19    15    16   ar
    20    15    20    1
    21    16    17    1
    22    17    18    1
    23    18    19    1
    24    19    20    1
    25    22    23   ar
    26    22    29   ar
    27    23    24   ar
    28    24    25    1
    29    24    26   ar
    30    26    27   ar
    31    27    28    1
    32    27    29   ar
    33     3    30    1
    34     5    31    1
    35     6    32    1
    36     7    33    1
    37     9    34    1
    38     9    35    1
    39    12    36    1
    40    17    37    1
    41    17    38    1
    42    18    39    1
    43    18    40    1
    44    19    41    1
    45    19    42    1
    46    20    43    1
    47    20    44    1
    48    21    45    1
    49    23    46    1
    50    26    47    1
    51    29    48    1
@<TRIPOS>MOLECULE
../data/bude_mols_rdkit_confs/molecule_78.pdb
 48 51 0 0 0
SMALL
GASTEIGER

@<TRIPOS>ATOM
      1  O1         3.9120   -0.4870   -2.2450 O.2     1  UNL1       -0.2698
      2  C1         3.9390   -0.4000   -0.9850 C.2     1  UNL1        0.2484
      3  N1         2.8260    0.1480   -0.3500 N.am    1  UNL1       -0.2815
      4  C2         1.6290    0.6400   -0.9170 C.ar    1  UNL1        0.0339
      5  C3         1.3560    0.6550   -2.2560 C.ar    1  UNL1       -0.0405
      6  C4         0.1430    1.1730   -2.7490 C.ar    1  UNL1       -0.0597
      7  C5        -0.7910    1.6750   -1.8720 C.ar    1  UNL1       -0.0581
      8  C6        -0.5560    1.6760   -0.5360 C.ar    1  UNL1       -0.0398
      9  C7        -1.4680    2.1730    0.5340 C.3     1  UNL1        0.0168
     10  C8        -2.2400    1.1470    1.2070 C.ar    1  UNL1        0.0693
     11  N2        -1.7340    0.6070    2.3340 N.ar    1  UNL1       -0.1753
     12  N3        -2.3700   -0.3880    2.9640 N.ar    1  UNL1       -0.2427
     13  C9        -3.5400   -0.8920    2.5030 C.ar    1  UNL1        0.2682
     14  O2        -4.1090   -1.8420    3.1400 O.2     1  UNL1       -0.2661
     15  C10       -4.0950   -0.3770    1.3660 C.ar    1  UNL1        0.0232
     16  C11       -3.4120    0.6650    0.7220 C.ar    1  UNL1       -0.0158
     17  C12       -4.1260    1.1870   -0.4860 C.3     1  UNL1       -0.0255
     18  C13       -4.4350   -0.0340   -1.3260 C.3     1  UNL1       -0.0487
     19  C14       -5.5550   -0.7680   -0.6270 C.3     1  UNL1       -0.0486
     20  C15       -5.3640   -0.9140    0.8550 C.3     1  UNL1       -0.0222
     21  C16        0.6510    1.1610   -0.0640 C.ar    1  UNL1       -0.0369
     22  C17        5.1050   -0.8610   -0.2390 C.ar    1  UNL1        0.0424
     23  C18        5.2720   -0.6900    1.1070 C.ar    1  UNL1       -0.0142
     24  C19        6.3990   -1.1360    1.8000 C.ar    1  UNL1        0.1268
     25  F1         6.5220   -0.9420    3.1470 F       1  UNL1       -0.2054
     26  C20        7.3680   -1.7740    1.0680 C.ar    1  UNL1        0.0088
     27  C21        7.2630   -1.9770   -0.2710 C.ar    1  UNL1        0.1268
     28  F2         8.2050   -2.6020   -1.0090 F       1  UNL1       -0.2054
     29  C22        6.1230   -1.5160   -0.9280 C.ar    1  UNL1       -0.0142
     30 H           2.8816    0.1995    0.6316 H       1  UNL1        0.1551
     31 H           2.0523    0.2794   -2.9186 H       1  UNL1        0.0636
     32 H          -0.0447    1.1761   -3.7638 H       1  UNL1        0.0618
     33 H          -1.6795    2.0547   -2.2344 H       1  UNL1        0.0620
     34 H          -2.1523    2.8663    0.0912 H       1  UNL1        0.0377
     35 H          -0.8406    2.6130    1.2808 H       1  UNL1        0.0377
     36 H          -1.9769   -0.7638    3.7847 H       1  UNL1        0.1921
     37 H          -3.5003    1.8656   -1.0271 H       1  UNL1        0.0314
     38 H          -5.0126    1.7256   -0.2237 H       1  UNL1        0.0314
     39 H          -3.5709   -0.6611   -1.3974 H       1  UNL1        0.0268
     40 H          -4.7174    0.2435   -2.3200 H       1  UNL1        0.0268
     41 H          -5.6326   -1.7463   -1.0534 H       1  UNL1        0.0269
     42 H          -6.4403   -0.1835   -0.7670 H       1  UNL1        0.0269
     43 H          -6.1647   -0.4018    1.3464 H       1  UNL1        0.0315
     44 H          -5.3505   -1.9648    1.0561 H       1  UNL1        0.0315
     45 H           0.8290    1.1645    0.9525 H       1  UNL1        0.0639
     46 H           4.5290   -0.2078    1.6366 H       1  UNL1        0.0654
     47 H           8.2120   -2.1139    1.5549 H       1  UNL1        0.0675
     48 H           6.0316   -1.6630   -1.9454 H       1  UNL1        0.0654
@<TRIPOS>BOND
     1     1     2    2
     2     2     3   am
     3     2    22    1
     4     3     4    1
     5     4     5   ar
     6     4    21   ar
     7     5     6   ar
     8     6     7   ar
     9     7     8   ar
    10     8     9    1
    11     8    21   ar
    12     9    10    1
    13    10    11   ar
    14    10    16   ar
    15    11    12   ar
    16    12    13   ar
    17    13    14    2
    18    13    15   ar
    19    15    16   ar
    20    15    20    1
    21    16    17    1
    22    17    18    1
    23    18    19    1
    24    19    20    1
    25    22    23   ar
    26    22    29   ar
    27    23    24   ar
    28    24    25    1
    29    24    26   ar
    30    26    27   ar
    31    27    28    1
    32    27    29   ar
    33     3    30    1
    34     5    31    1
    35     6    32    1
    36     7    33    1
    37     9    34    1
    38     9    35    1
    39    12    36    1
    40    17    37    1
    41    17    38    1
    42    18    39    1
    43    18    40    1
    44    19    41    1
    45    19    42    1
    46    20    43    1
    47    20    44    1
    48    21    45    1
    49    23    46    1
    50    26    47    1
    51    29    48    1
@<TRIPOS>MOLECULE
../data/bude_mols_rdkit_confs/molecule_78.pdb
 48 51 0 0 0
SMALL
GASTEIGER

@<TRIPOS>ATOM
      1  O1         4.4610   -0.5400    1.9870 O.2     1  UNL1       -0.2698
      2  C1         4.2990   -0.0550    0.8550 C.2     1  UNL1        0.2484
      3  N1         3.0020    0.0820    0.3210 N.am    1  UNL1       -0.2815
      4  C2         1.7970   -0.2990    0.9770 C.ar    1  UNL1        0.0339
      5  C3         1.7930   -1.2020    2.0060 C.ar    1  UNL1       -0.0405
      6  C4         0.6140   -1.5140    2.7170 C.ar    1  UNL1       -0.0597
      7  C5        -0.5270   -0.8720    2.3330 C.ar    1  UNL1       -0.0581
      8  C6        -0.5820    0.0410    1.3080 C.ar    1  UNL1       -0.0398
      9  C7        -1.8520    0.7210    1.0060 C.3     1  UNL1        0.0168
     10  C8        -2.8330   -0.2570    0.5190 C.ar    1  UNL1        0.0693
     11  N2        -2.7050   -1.5740    0.9710 N.ar    1  UNL1       -0.1753
     12  N3        -3.5620   -2.4830    0.5980 N.ar    1  UNL1       -0.2427
     13  C9        -4.6090   -2.2070   -0.2340 C.ar    1  UNL1        0.2682
     14  O2        -5.3900   -3.1320   -0.5440 O.2     1  UNL1       -0.2661
     15  C10       -4.7770   -0.9340   -0.7030 C.ar    1  UNL1        0.0232
     16  C11       -3.8390    0.0240   -0.2850 C.ar    1  UNL1       -0.0158
     17  C12       -4.0890    1.3940   -0.8150 C.3     1  UNL1       -0.0255
     18  C13       -4.2060    1.2260   -2.3370 C.3     1  UNL1       -0.0487
     19  C14       -5.3910    0.3770   -2.7020 C.3     1  UNL1       -0.0486
     20  C15       -5.8740   -0.4810   -1.5810 C.3     1  UNL1       -0.0222
     21  C16        0.5880    0.3140    0.6420 C.ar    1  UNL1       -0.0369
     22  C17        5.5250    0.3600    0.1350 C.ar    1  UNL1        0.0424
     23  C18        6.6040    0.8620    0.8910 C.ar    1  UNL1       -0.0142
     24  C19        7.7460    1.2500    0.2460 C.ar    1  UNL1        0.1268
     25  F1         8.8160    1.7520    0.9530 F       1  UNL1       -0.2054
     26  C20        7.8480    1.1540   -1.1230 C.ar    1  UNL1        0.0088
     27  C21        6.7950    0.6600   -1.9050 C.ar    1  UNL1        0.1268
     28  F2         6.9210    0.5790   -3.2210 F       1  UNL1       -0.2054
     29  C22        5.6530    0.2800   -1.1950 C.ar    1  UNL1       -0.0142
     30 H           2.9226    0.4730   -0.5790 H       1  UNL1        0.1551
     31 H           2.6758   -1.6672    2.2690 H       1  UNL1        0.0636
     32 H           0.6151   -2.1961    3.4914 H       1  UNL1        0.0618
     33 H          -1.3992   -1.0846    2.8420 H       1  UNL1        0.0620
     34 H          -1.6875    1.4644    0.2542 H       1  UNL1        0.0377
     35 H          -2.2255    1.1854    1.8947 H       1  UNL1        0.0377
     36 H          -3.4500   -3.4035    0.9288 H       1  UNL1        0.1921
     37 H          -3.2749    2.0442   -0.5714 H       1  UNL1        0.0314
     38 H          -4.9707    1.8296   -0.3933 H       1  UNL1        0.0314
     39 H          -3.3162    0.7600   -2.7058 H       1  UNL1        0.0268
     40 H          -4.3354    2.1936   -2.7751 H       1  UNL1        0.0268
     41 H          -5.1155   -0.2563   -3.5192 H       1  UNL1        0.0269
     42 H          -6.1894    1.0423   -2.9567 H       1  UNL1        0.0269
     43 H          -6.5725    0.0799   -0.9959 H       1  UNL1        0.0315
     44 H          -6.3281   -1.3502   -2.0090 H       1  UNL1        0.0315
     45 H           0.5729    0.9957   -0.1327 H       1  UNL1        0.0639
     46 H           6.5330    0.9358    1.9179 H       1  UNL1        0.0654
     47 H           8.7210    1.4530   -1.5850 H       1  UNL1        0.0675
     48 H           4.8530   -0.0877   -1.7333 H       1  UNL1        0.0654
@<TRIPOS>BOND
     1     1     2    2
     2     2     3   am
     3     2    22    1
     4     3     4    1
     5     4     5   ar
     6     4    21   ar
     7     5     6   ar
     8     6     7   ar
     9     7     8   ar
    10     8     9    1
    11     8    21   ar
    12     9    10    1
    13    10    11   ar
    14    10    16   ar
    15    11    12   ar
    16    12    13   ar
    17    13    14    2
    18    13    15   ar
    19    15    16   ar
    20    15    20    1
    21    16    17    1
    22    17    18    1
    23    18    19    1
    24    19    20    1
    25    22    23   ar
    26    22    29   ar
    27    23    24   ar
    28    24    25    1
    29    24    26   ar
    30    26    27   ar
    31    27    28    1
    32    27    29   ar
    33     3    30    1
    34     5    31    1
    35     6    32    1
    36     7    33    1
    37     9    34    1
    38     9    35    1
    39    12    36    1
    40    17    37    1
    41    17    38    1
    42    18    39    1
    43    18    40    1
    44    19    41    1
    45    19    42    1
    46    20    43    1
    47    20    44    1
    48    21    45    1
    49    23    46    1
    50    26    47    1
    51    29    48    1
@<TRIPOS>MOLECULE
../data/bude_mols_rdkit_confs/molecule_78.pdb
 48 51 0 0 0
SMALL
GASTEIGER

@<TRIPOS>ATOM
      1  O1         3.0110   -0.1330   -1.3140 O.2     1  UNL1       -0.2698
      2  C1         3.5480   -0.2350   -0.1820 C.2     1  UNL1        0.2484
      3  N1         2.7960   -0.8390    0.8500 N.am    1  UNL1       -0.2815
      4  C2         1.4770   -1.3500    0.7590 C.ar    1  UNL1        0.0339
      5  C3         1.0440   -2.0990    1.8610 C.ar    1  UNL1       -0.0405
      6  C4        -0.2100   -2.6500    1.9230 C.ar    1  UNL1       -0.0597
      7  C5        -1.0590   -2.4510    0.8590 C.ar    1  UNL1       -0.0581
      8  C6        -0.6850   -1.7250   -0.2450 C.ar    1  UNL1       -0.0398
      9  C7        -1.5930   -1.4860   -1.4170 C.3     1  UNL1        0.0168
     10  C8        -2.1220   -0.1050   -1.2950 C.ar    1  UNL1        0.0693
     11  N2        -1.5250    0.8800   -2.0490 N.ar    1  UNL1       -0.1753
     12  N3        -1.9060    2.1410   -1.9990 N.ar    1  UNL1       -0.2427
     13  C9        -2.9040    2.5680   -1.2110 C.ar    1  UNL1        0.2682
     14  O2        -3.2800    3.7670   -1.1510 O.2     1  UNL1       -0.2661
     15  C10       -3.5460    1.6460   -0.4310 C.ar    1  UNL1        0.0232
     16  C11       -3.1430    0.3040   -0.4820 C.ar    1  UNL1       -0.0158
     17  C12       -3.8470   -0.7050    0.3480 C.3     1  UNL1       -0.0255
     18  C13       -5.3270   -0.4320    0.5020 C.3     1  UNL1       -0.0487
     19  C14       -5.7470    0.9610    0.2090 C.3     1  UNL1       -0.0486
     20  C15       -4.6530    1.9700    0.4770 C.3     1  UNL1       -0.0222
     21  C16        0.6060   -1.1850   -0.2570 C.ar    1  UNL1       -0.0369
     22  C17        4.9150    0.2660    0.0310 C.ar    1  UNL1        0.0424
     23  C18        5.5390    0.3390    1.2470 C.ar    1  UNL1       -0.0142
     24  C19        6.8470    0.8260    1.3730 C.ar    1  UNL1        0.1268
     25  F1         7.4380    0.8850    2.5970 F       1  UNL1       -0.2054
     26  C20        7.5400    1.2460    0.2590 C.ar    1  UNL1        0.0088
     27  C21        6.9210    1.1770   -0.9740 C.ar    1  UNL1        0.1268
     28  F2         7.6150    1.5940   -2.0510 F       1  UNL1       -0.2054
     29  C22        5.6220    0.6910   -1.0750 C.ar    1  UNL1       -0.0142
     30 H           3.2357   -0.9131    1.7277 H       1  UNL1        0.1551
     31 H           1.6906   -2.2408    2.6527 H       1  UNL1        0.0636
     32 H          -0.5085   -3.1985    2.7446 H       1  UNL1        0.0618
     33 H          -2.0060   -2.8598    0.8915 H       1  UNL1        0.0620
     34 H          -2.3996   -2.1890   -1.4039 H       1  UNL1        0.0377
     35 H          -1.0610   -1.6065   -2.3375 H       1  UNL1        0.0377
     36 H          -1.4381    2.7974   -2.5642 H       1  UNL1        0.1921
     37 H          -3.4012   -0.7144    1.3206 H       1  UNL1        0.0314
     38 H          -3.7505   -1.6465   -0.1512 H       1  UNL1        0.0314
     39 H          -5.6013   -0.6548    1.5120 H       1  UNL1        0.0268
     40 H          -5.8192   -1.0485   -0.2208 H       1  UNL1        0.0268
     41 H          -6.5907    1.2001    0.8221 H       1  UNL1        0.0269
     42 H          -5.9865    1.0136   -0.8325 H       1  UNL1        0.0269
     43 H          -5.0098    2.9602    0.2843 H       1  UNL1        0.0315
     44 H          -4.3361    1.9308    1.4983 H       1  UNL1        0.0315
     45 H           0.9043   -0.6368   -1.0789 H       1  UNL1        0.0639
     46 H           5.0340    0.0279    2.0915 H       1  UNL1        0.0654
     47 H           8.5036    1.6055    0.3440 H       1  UNL1        0.0675
     48 H           5.1740    0.6470   -2.0037 H       1  UNL1        0.0654
@<TRIPOS>BOND
     1     1     2    2
     2     2     3   am
     3     2    22    1
     4     3     4    1
     5     4     5   ar
     6     4    21   ar
     7     5     6   ar
     8     6     7   ar
     9     7     8   ar
    10     8     9    1
    11     8    21   ar
    12     9    10    1
    13    10    11   ar
    14    10    16   ar
    15    11    12   ar
    16    12    13   ar
    17    13    14    2
    18    13    15   ar
    19    15    16   ar
    20    15    20    1
    21    16    17    1
    22    17    18    1
    23    18    19    1
    24    19    20    1
    25    22    23   ar
    26    22    29   ar
    27    23    24   ar
    28    24    25    1
    29    24    26   ar
    30    26    27   ar
    31    27    28    1
    32    27    29   ar
    33     3    30    1
    34     5    31    1
    35     6    32    1
    36     7    33    1
    37     9    34    1
    38     9    35    1
    39    12    36    1
    40    17    37    1
    41    17    38    1
    42    18    39    1
    43    18    40    1
    44    19    41    1
    45    19    42    1
    46    20    43    1
    47    20    44    1
    48    21    45    1
    49    23    46    1
    50    26    47    1
    51    29    48    1
@<TRIPOS>MOLECULE
../data/bude_mols_rdkit_confs/molecule_78.pdb
 48 51 0 0 0
SMALL
GASTEIGER

@<TRIPOS>ATOM
      1  O1         4.0880   -1.6700    1.2770 O.2     1  UNL1       -0.2698
      2  C1         3.9820   -0.6380    0.5790 C.2     1  UNL1        0.2484
      3  N1         2.7660   -0.3340   -0.0470 N.am    1  UNL1       -0.2815
      4  C2         1.5580   -1.0950    0.0170 C.ar    1  UNL1        0.0339
      5  C3         1.3300   -2.1340    0.8730 C.ar    1  UNL1       -0.0405
      6  C4         0.1450   -2.8130    0.8500 C.ar    1  UNL1       -0.0597
      7  C5        -0.8480   -2.4520   -0.0490 C.ar    1  UNL1       -0.0581
      8  C6        -0.6650   -1.4190   -0.9230 C.ar    1  UNL1       -0.0398
      9  C7        -1.7360   -1.0350   -1.8670 C.3     1  UNL1        0.0168
     10  C8        -2.3690    0.2060   -1.3740 C.ar    1  UNL1        0.0693
     11  N2        -1.9860    1.4000   -1.8930 N.ar    1  UNL1       -0.1753
     12  N3        -2.4490    2.5650   -1.5000 N.ar    1  UNL1       -0.2427
     13  C9        -3.3640    2.5920   -0.5160 C.ar    1  UNL1        0.2682
     14  O2        -3.8270    3.6980   -0.1170 O.2     1  UNL1       -0.2661
     15  C10       -3.8050    1.4230    0.0620 C.ar    1  UNL1        0.0232
     16  C11       -3.2910    0.1970   -0.3840 C.ar    1  UNL1       -0.0158
     17  C12       -3.8030   -1.0470    0.2250 C.3     1  UNL1       -0.0255
     18  C13       -5.3080   -0.9430    0.3670 C.3     1  UNL1       -0.0487
     19  C14       -5.8210    0.3480    0.8680 C.3     1  UNL1       -0.0486
     20  C15       -4.7900    1.3780    1.1550 C.3     1  UNL1       -0.0222
     21  C16        0.5430   -0.7550   -0.8740 C.ar    1  UNL1       -0.0369
     22  C17        5.1740    0.2000    0.4660 C.ar    1  UNL1        0.0424
     23  C18        5.1950    1.4570   -0.0830 C.ar    1  UNL1       -0.0142
     24  C19        6.3730    2.2100   -0.1690 C.ar    1  UNL1        0.1268
     25  F1         6.3280    3.4490   -0.7240 F       1  UNL1       -0.2054
     26  C20        7.5620    1.7010    0.3040 C.ar    1  UNL1        0.0088
     27  C21        7.5540    0.4390    0.8580 C.ar    1  UNL1        0.1268
     28  F2         8.7360   -0.0630    1.3260 F       1  UNL1       -0.2054
     29  C22        6.3940   -0.2740    0.9300 C.ar    1  UNL1       -0.0142
     30 H           2.7411    0.4890   -0.5868 H       1  UNL1        0.1551
     31 H           2.0622   -2.4098    1.5459 H       1  UNL1        0.0636
     32 H          -0.0120   -3.5965    1.5030 H       1  UNL1        0.0618
     33 H          -1.7391   -2.9724   -0.0573 H       1  UNL1        0.0620
     34 H          -2.4658   -1.8155   -1.9226 H       1  UNL1        0.0377
     35 H          -1.3267   -0.8765   -2.8428 H       1  UNL1        0.0377
     36 H          -2.1329    3.3991   -1.9167 H       1  UNL1        0.1921
     37 H          -3.3601   -1.1831    1.1895 H       1  UNL1        0.0314
     38 H          -3.5551   -1.8824   -0.3960 H       1  UNL1        0.0314
     39 H          -5.6270   -1.7075    1.0442 H       1  UNL1        0.0268
     40 H          -5.7000   -1.0456   -0.6233 H       1  UNL1        0.0268
     41 H          -6.3597    0.1597    1.7731 H       1  UNL1        0.0269
     42 H          -6.4256    0.7489    0.0815 H       1  UNL1        0.0269
     43 H          -5.2608    2.3344    1.2473 H       1  UNL1        0.0315
     44 H          -4.2903    1.1297    2.0680 H       1  UNL1        0.0315
     45 H           0.7018    0.0286   -1.5266 H       1  UNL1        0.0639
     46 H           4.3161    1.8601   -0.4436 H       1  UNL1        0.0654
     47 H           8.4345    2.2491    0.2453 H       1  UNL1        0.0675
     48 H           6.4243   -1.2155    1.3515 H       1  UNL1        0.0654
@<TRIPOS>BOND
     1     1     2    2
     2     2     3   am
     3     2    22    1
     4     3     4    1
     5     4     5   ar
     6     4    21   ar
     7     5     6   ar
     8     6     7   ar
     9     7     8   ar
    10     8     9    1
    11     8    21   ar
    12     9    10    1
    13    10    11   ar
    14    10    16   ar
    15    11    12   ar
    16    12    13   ar
    17    13    14    2
    18    13    15   ar
    19    15    16   ar
    20    15    20    1
    21    16    17    1
    22    17    18    1
    23    18    19    1
    24    19    20    1
    25    22    23   ar
    26    22    29   ar
    27    23    24   ar
    28    24    25    1
    29    24    26   ar
    30    26    27   ar
    31    27    28    1
    32    27    29   ar
    33     3    30    1
    34     5    31    1
    35     6    32    1
    36     7    33    1
    37     9    34    1
    38     9    35    1
    39    12    36    1
    40    17    37    1
    41    17    38    1
    42    18    39    1
    43    18    40    1
    44    19    41    1
    45    19    42    1
    46    20    43    1
    47    20    44    1
    48    21    45    1
    49    23    46    1
    50    26    47    1
    51    29    48    1
@<TRIPOS>MOLECULE
../data/bude_mols_rdkit_confs/molecule_78.pdb
 48 51 0 0 0
SMALL
GASTEIGER

@<TRIPOS>ATOM
      1  O1        -3.8970   -0.7270    1.7080 O.2     1  UNL1       -0.2698
      2  C1        -3.6600    0.0790    0.7490 C.2     1  UNL1        0.2484
      3  N1        -2.5780   -0.1650   -0.0940 N.am    1  UNL1       -0.2815
      4  C2        -1.6770   -1.2530   -0.0110 C.ar    1  UNL1        0.0339
      5  C3        -1.8110   -2.3550    0.7820 C.ar    1  UNL1       -0.0405
      6  C4        -0.8700   -3.3840    0.8190 C.ar    1  UNL1       -0.0597
      7  C5         0.2490   -3.3030    0.0270 C.ar    1  UNL1       -0.0581
      8  C6         0.4300   -2.2070   -0.7930 C.ar    1  UNL1       -0.0398
      9  C7         1.6620   -2.2080   -1.6240 C.3     1  UNL1        0.0168
     10  C8         2.7940   -1.8260   -0.7610 C.ar    1  UNL1        0.0693
     11  N2         3.5940   -2.8080   -0.2260 N.ar    1  UNL1       -0.1753
     12  N3         4.5860   -2.5370    0.5790 N.ar    1  UNL1       -0.2427
     13  C9         4.8700   -1.2880    0.9210 C.ar    1  UNL1        0.2682
     14  O2         5.8310   -1.0200    1.7010 O.2     1  UNL1       -0.2661
     15  C10        4.1170   -0.2510    0.4270 C.ar    1  UNL1        0.0232
     16  C11        3.0680   -0.5480   -0.4260 C.ar    1  UNL1       -0.0158
     17  C12        2.3000    0.5790   -0.9750 C.3     1  UNL1       -0.0255
     18  C13        3.3350    1.6150   -1.4640 C.3     1  UNL1       -0.0487
     19  C14        4.2730    2.0530   -0.3990 C.3     1  UNL1       -0.0486
     20  C15        4.3640    1.1560    0.7830 C.3     1  UNL1       -0.0222
     21  C16       -0.5170   -1.2200   -0.8000 C.ar    1  UNL1       -0.0369
     22  C17       -4.5690    1.2230    0.6120 C.ar    1  UNL1        0.0424
     23  C18       -5.4670    1.5230    1.6110 C.ar    1  UNL1       -0.0142
     24  C19       -6.3470    2.5990    1.5090 C.ar    1  UNL1        0.1268
     25  F1        -7.2030    2.8520    2.5100 F       1  UNL1       -0.2054
     26  C20       -6.3280    3.4030    0.3670 C.ar    1  UNL1        0.0088
     27  C21       -5.4320    3.1060   -0.6330 C.ar    1  UNL1        0.1268
     28  F2        -5.4150    3.8910   -1.7460 F       1  UNL1       -0.2054
     29  C22       -4.5570    2.0190   -0.5090 C.ar    1  UNL1       -0.0142
     30 H          -2.4252    0.4834   -0.8189 H       1  UNL1        0.1551
     31 H          -2.6471   -2.4308    1.3822 H       1  UNL1        0.0636
     32 H          -1.0134   -4.1988    1.4359 H       1  UNL1        0.0618
     33 H           0.9519   -4.0584    0.0447 H       1  UNL1        0.0620
     34 H           1.5613   -1.5040   -2.4235 H       1  UNL1        0.0377
     35 H           1.8260   -3.1782   -2.0443 H       1  UNL1        0.0377
     36 H           5.1324   -3.2730    0.9381 H       1  UNL1        0.1921
     37 H           1.6778    1.0070   -0.2170 H       1  UNL1        0.0314
     38 H           1.6622    0.2614   -1.7733 H       1  UNL1        0.0314
     39 H           2.8106    2.4732   -1.8293 H       1  UNL1        0.0268
     40 H           3.9185    1.1451   -2.2279 H       1  UNL1        0.0268
     41 H           3.9574    3.0168   -0.0578 H       1  UNL1        0.0269
     42 H           5.2456    2.0503   -0.8451 H       1  UNL1        0.0269
     43 H           5.3437    1.2388    1.2051 H       1  UNL1        0.0315
     44 H           3.6141    1.4563    1.4847 H       1  UNL1        0.0315
     45 H          -0.3705   -0.4073   -1.4189 H       1  UNL1        0.0639
     46 H          -5.4893    0.9351    2.4589 H       1  UNL1        0.0654
     47 H          -6.9730    4.2034    0.2756 H       1  UNL1        0.0675
     48 H          -3.8927    1.8124   -1.2713 H       1  UNL1        0.0654
@<TRIPOS>BOND
     1     1     2    2
     2     2     3   am
     3     2    22    1
     4     3     4    1
     5     4     5   ar
     6     4    21   ar
     7     5     6   ar
     8     6     7   ar
     9     7     8   ar
    10     8     9    1
    11     8    21   ar
    12     9    10    1
    13    10    11   ar
    14    10    16   ar
    15    11    12   ar
    16    12    13   ar
    17    13    14    2
    18    13    15   ar
    19    15    16   ar
    20    15    20    1
    21    16    17    1
    22    17    18    1
    23    18    19    1
    24    19    20    1
    25    22    23   ar
    26    22    29   ar
    27    23    24   ar
    28    24    25    1
    29    24    26   ar
    30    26    27   ar
    31    27    28    1
    32    27    29   ar
    33     3    30    1
    34     5    31    1
    35     6    32    1
    36     7    33    1
    37     9    34    1
    38     9    35    1
    39    12    36    1
    40    17    37    1
    41    17    38    1
    42    18    39    1
    43    18    40    1
    44    19    41    1
    45    19    42    1
    46    20    43    1
    47    20    44    1
    48    21    45    1
    49    23    46    1
    50    26    47    1
    51    29    48    1
@<TRIPOS>MOLECULE
../data/bude_mols_rdkit_confs/molecule_78.pdb
 48 51 0 0 0
SMALL
GASTEIGER

@<TRIPOS>ATOM
      1  O1         2.8400    1.1790    0.0470 O.2     1  UNL1       -0.2698
      2  C1         3.3020    0.0390    0.2960 C.2     1  UNL1        0.2484
      3  N1         2.6560   -1.0850   -0.2460 N.am    1  UNL1       -0.2815
      4  C2         1.5080   -1.1190   -1.0590 C.ar    1  UNL1        0.0339
      5  C3         1.1820   -2.3400   -1.6560 C.ar    1  UNL1       -0.0405
      6  C4         0.0770   -2.4900   -2.4670 C.ar    1  UNL1       -0.0597
      7  C5        -0.7540   -1.4210   -2.7160 C.ar    1  UNL1       -0.0581
      8  C6        -0.4770   -0.2160   -2.1570 C.ar    1  UNL1       -0.0398
      9  C7        -1.3000    0.9940   -2.3430 C.3     1  UNL1        0.0168
     10  C8        -1.8750    1.3850   -1.0210 C.ar    1  UNL1        0.0693
     11  N2        -1.1550    2.2960   -0.2860 N.ar    1  UNL1       -0.1753
     12  N3        -1.5540    2.6620    0.9090 N.ar    1  UNL1       -0.2427
     13  C9        -2.6720    2.1580    1.4440 C.ar    1  UNL1        0.2682
     14  O2        -3.0550    2.5130    2.5980 O.2     1  UNL1       -0.2661
     15  C10       -3.4360    1.2380    0.7470 C.ar    1  UNL1        0.0232
     16  C11       -3.0070    0.8550   -0.5210 C.ar    1  UNL1       -0.0158
     17  C12       -3.8360   -0.0900   -1.3220 C.3     1  UNL1       -0.0255
     18  C13       -4.6470   -0.9770   -0.4000 C.3     1  UNL1       -0.0487
     19  C14       -5.4830   -0.1160    0.4860 C.3     1  UNL1       -0.0486
     20  C15       -4.6440    0.7130    1.3730 C.3     1  UNL1       -0.0222
     21  C16        0.6660   -0.0910   -1.3290 C.ar    1  UNL1       -0.0369
     22  C17        4.5090   -0.0290    1.1510 C.ar    1  UNL1        0.0424
     23  C18        5.0120   -1.1950    1.6470 C.ar    1  UNL1       -0.0142
     24  C19        6.1250   -1.2650    2.4300 C.ar    1  UNL1        0.1268
     25  F1         6.5840   -2.4690    2.9000 F       1  UNL1       -0.2054
     26  C20        6.7880   -0.0990    2.7450 C.ar    1  UNL1        0.0088
     27  C21        6.3280    1.1150    2.2740 C.ar    1  UNL1        0.1268
     28  F2         6.9880    2.2410    2.5920 F       1  UNL1       -0.2054
     29  C22        5.1860    1.1380    1.4760 C.ar    1  UNL1       -0.0142
     30 H           3.0567   -1.9579   -0.0299 H       1  UNL1        0.1551
     31 H           1.7888   -3.1568   -1.4840 H       1  UNL1        0.0636
     32 H          -0.1283   -3.4088   -2.8897 H       1  UNL1        0.0618
     33 H          -1.5809   -1.5352   -3.3229 H       1  UNL1        0.0620
     34 H          -2.0908    0.7897   -3.0342 H       1  UNL1        0.0377
     35 H          -0.6989    1.7898   -2.7307 H       1  UNL1        0.0377
     36 H          -1.0237    3.3162    1.4189 H       1  UNL1        0.1921
     37 H          -3.1959   -0.6983   -1.9263 H       1  UNL1        0.0314
     38 H          -4.5012    0.4688   -1.9466 H       1  UNL1        0.0314
     39 H          -3.9882   -1.5732    0.1961 H       1  UNL1        0.0268
     40 H          -5.2759   -1.6218   -0.9776 H       1  UNL1        0.0268
     41 H          -6.1131   -0.7399    1.0849 H       1  UNL1        0.0269
     42 H          -6.0694    0.5339   -0.1294 H       1  UNL1        0.0269
     43 H          -5.2318    1.5407    1.7112 H       1  UNL1        0.0315
     44 H          -4.3212    0.0754    2.1694 H       1  UNL1        0.0315
     45 H           0.8681    0.8301   -0.9097 H       1  UNL1        0.0639
     46 H           4.5224   -2.0738    1.4166 H       1  UNL1        0.0654
     47 H           7.6331   -0.1330    3.3363 H       1  UNL1        0.0675
     48 H           4.8365    2.0412    1.1194 H       1  UNL1        0.0654
@<TRIPOS>BOND
     1     1     2    2
     2     2     3   am
     3     2    22    1
     4     3     4    1
     5     4     5   ar
     6     4    21   ar
     7     5     6   ar
     8     6     7   ar
     9     7     8   ar
    10     8     9    1
    11     8    21   ar
    12     9    10    1
    13    10    11   ar
    14    10    16   ar
    15    11    12   ar
    16    12    13   ar
    17    13    14    2
    18    13    15   ar
    19    15    16   ar
    20    15    20    1
    21    16    17    1
    22    17    18    1
    23    18    19    1
    24    19    20    1
    25    22    23   ar
    26    22    29   ar
    27    23    24   ar
    28    24    25    1
    29    24    26   ar
    30    26    27   ar
    31    27    28    1
    32    27    29   ar
    33     3    30    1
    34     5    31    1
    35     6    32    1
    36     7    33    1
    37     9    34    1
    38     9    35    1
    39    12    36    1
    40    17    37    1
    41    17    38    1
    42    18    39    1
    43    18    40    1
    44    19    41    1
    45    19    42    1
    46    20    43    1
    47    20    44    1
    48    21    45    1
    49    23    46    1
    50    26    47    1
    51    29    48    1
@<TRIPOS>MOLECULE
../data/bude_mols_rdkit_confs/molecule_78.pdb
 48 51 0 0 0
SMALL
GASTEIGER

@<TRIPOS>ATOM
      1  O1         3.4470    1.2930   -0.3500 O.2     1  UNL1       -0.2698
      2  C1         4.0590    0.2290   -0.0450 C.2     1  UNL1        0.2484
      3  N1         3.3030   -0.9040    0.3100 N.am    1  UNL1       -0.2815
      4  C2         1.9150   -1.0470    0.3720 C.ar    1  UNL1        0.0339
      5  C3         1.3760   -2.1940    0.9680 C.ar    1  UNL1       -0.0405
      6  C4         0.0260   -2.4060    1.0520 C.ar    1  UNL1       -0.0597
      7  C5        -0.8430   -1.4400    0.5210 C.ar    1  UNL1       -0.0581
      8  C6        -0.3690   -0.3060   -0.0700 C.ar    1  UNL1       -0.0398
      9  C7        -1.1940    0.7380   -0.6650 C.3     1  UNL1        0.0168
     10  C8        -2.3850    1.1550    0.0590 C.ar    1  UNL1        0.0693
     11  N2        -2.2830    2.0980    1.0500 N.ar    1  UNL1       -0.1753
     12  N3        -3.3220    2.4550    1.7690 N.ar    1  UNL1       -0.2427
     13  C9        -4.5340    1.9410    1.5980 C.ar    1  UNL1        0.2682
     14  O2        -5.5210    2.2920    2.2960 O.2     1  UNL1       -0.2661
     15  C10       -4.7250    0.9770    0.6100 C.ar    1  UNL1        0.0232
     16  C11       -3.6330    0.6070   -0.1400 C.ar    1  UNL1       -0.0158
     17  C12       -3.7840   -0.3740   -1.2660 C.3     1  UNL1       -0.0255
     18  C13       -5.2650   -0.4090   -1.6880 C.3     1  UNL1       -0.0487
     19  C14       -6.1030   -0.7370   -0.4570 C.3     1  UNL1       -0.0486
     20  C15       -6.0930    0.4520    0.4290 C.3     1  UNL1       -0.0222
     21  C16        1.0320   -0.1340   -0.1320 C.ar    1  UNL1       -0.0369
     22  C17        5.5230    0.1920   -0.0650 C.ar    1  UNL1        0.0424
     23  C18        6.1970    1.4030   -0.0280 C.ar    1  UNL1       -0.0142
     24  C19        7.5840    1.4130   -0.0550 C.ar    1  UNL1        0.1268
     25  F1         8.2770    2.5570   -0.0190 F       1  UNL1       -0.2054
     26  C20        8.3170    0.2290   -0.1190 C.ar    1  UNL1        0.0088
     27  C21        7.6350   -0.9770   -0.1560 C.ar    1  UNL1        0.1268
     28  F2         8.2430   -2.1810   -0.2200 F       1  UNL1       -0.2054
     29  C22        6.2310   -0.9760   -0.1280 C.ar    1  UNL1       -0.0142
     30 H           3.8238   -1.7052    0.5470 H       1  UNL1        0.1551
     31 H           2.0175   -2.9028    1.3567 H       1  UNL1        0.0636
     32 H          -0.3456   -3.2597    1.4972 H       1  UNL1        0.0618
     33 H          -1.8622   -1.5911    0.5791 H       1  UNL1        0.0620
     34 H          -1.5104    0.3868   -1.6249 H       1  UNL1        0.0377
     35 H          -0.5668    1.6048   -0.6750 H       1  UNL1        0.0377
     36 H          -3.1962    3.1364    2.4683 H       1  UNL1        0.1921
     37 H          -3.4782   -1.3465   -0.9410 H       1  UNL1        0.0314
     38 H          -3.1737   -0.0789   -2.0938 H       1  UNL1        0.0314
     39 H          -5.4109   -1.1599   -2.4362 H       1  UNL1        0.0268
     40 H          -5.5568    0.5377   -2.0925 H       1  UNL1        0.0268
     41 H          -5.6827   -1.5767    0.0561 H       1  UNL1        0.0269
     42 H          -7.1049   -0.9821   -0.7417 H       1  UNL1        0.0269
     43 H          -6.7042    1.2152   -0.0056 H       1  UNL1        0.0315
     44 H          -6.4719    0.1618    1.3866 H       1  UNL1        0.0315
     45 H           1.4049    0.7189   -0.5776 H       1  UNL1        0.0639
     46 H           5.6712    2.2898    0.0192 H       1  UNL1        0.0654
     47 H           9.3486    0.2501   -0.1385 H       1  UNL1        0.0675
     48 H           5.7237   -1.8743   -0.1555 H       1  UNL1        0.0654
@<TRIPOS>BOND
     1     1     2    2
     2     2     3   am
     3     2    22    1
     4     3     4    1
     5     4     5   ar
     6     4    21   ar
     7     5     6   ar
     8     6     7   ar
     9     7     8   ar
    10     8     9    1
    11     8    21   ar
    12     9    10    1
    13    10    11   ar
    14    10    16   ar
    15    11    12   ar
    16    12    13   ar
    17    13    14    2
    18    13    15   ar
    19    15    16   ar
    20    15    20    1
    21    16    17    1
    22    17    18    1
    23    18    19    1
    24    19    20    1
    25    22    23   ar
    26    22    29   ar
    27    23    24   ar
    28    24    25    1
    29    24    26   ar
    30    26    27   ar
    31    27    28    1
    32    27    29   ar
    33     3    30    1
    34     5    31    1
    35     6    32    1
    36     7    33    1
    37     9    34    1
    38     9    35    1
    39    12    36    1
    40    17    37    1
    41    17    38    1
    42    18    39    1
    43    18    40    1
    44    19    41    1
    45    19    42    1
    46    20    43    1
    47    20    44    1
    48    21    45    1
    49    23    46    1
    50    26    47    1
    51    29    48    1
@<TRIPOS>MOLECULE
../data/bude_mols_rdkit_confs/molecule_78.pdb
 48 51 0 0 0
SMALL
GASTEIGER

@<TRIPOS>ATOM
      1  O1         2.7090   -1.1590   -1.0050 O.2     1  UNL1       -0.2698
      2  C1         3.2760   -0.2630   -0.3560 C.2     1  UNL1        0.2484
      3  N1         2.6360    0.9940   -0.2050 N.am    1  UNL1       -0.2815
      4  C2         1.3790    1.3770   -0.7160 C.ar    1  UNL1        0.0339
      5  C3         1.0490    2.7380   -0.5640 C.ar    1  UNL1       -0.0405
      6  C4        -0.1630    3.1800   -1.0330 C.ar    1  UNL1       -0.0597
      7  C5        -1.0500    2.3230   -1.6440 C.ar    1  UNL1       -0.0581
      8  C6        -0.7500    1.0110   -1.7970 C.ar    1  UNL1       -0.0398
      9  C7        -1.6510   -0.0130   -2.4350 C.3     1  UNL1        0.0168
     10  C8        -2.1800   -0.8620   -1.3450 C.ar    1  UNL1        0.0693
     11  N2        -1.4680   -1.9910   -1.1020 N.ar    1  UNL1       -0.1753
     12  N3        -1.7850   -2.8170   -0.1290 N.ar    1  UNL1       -0.2427
     13  C9        -2.8340   -2.5890    0.6830 C.ar    1  UNL1        0.2682
     14  O2        -3.1440   -3.3730    1.6180 O.2     1  UNL1       -0.2661
     15  C10       -3.5800   -1.4720    0.4820 C.ar    1  UNL1        0.0232
     16  C11       -3.2370   -0.6080   -0.5490 C.ar    1  UNL1       -0.0158
     17  C12       -4.1070    0.5490   -0.7460 C.3     1  UNL1       -0.0255
     18  C13       -4.4130    1.2870    0.5310 C.3     1  UNL1       -0.0487
     19  C14       -4.5920    0.3560    1.7040 C.3     1  UNL1       -0.0486
     20  C15       -4.7700   -1.0900    1.3150 C.3     1  UNL1       -0.0222
     21  C16        0.4800    0.5450   -1.3250 C.ar    1  UNL1       -0.0369
     22  C17        4.6050   -0.5080    0.2500 C.ar    1  UNL1        0.0424
     23  C18        5.1790    0.3010    1.1880 C.ar    1  UNL1       -0.0142
     24  C19        6.4270    0.0540    1.7320 C.ar    1  UNL1        0.1268
     25  F1         7.0170    0.8380    2.6590 F       1  UNL1       -0.2054
     26  C20        7.1020   -1.0630    1.2960 C.ar    1  UNL1        0.0088
     27  C21        6.5770   -1.9210    0.3510 C.ar    1  UNL1        0.1268
     28  F2         7.2340   -3.0190   -0.0820 F       1  UNL1       -0.2054
     29  C22        5.3300   -1.6290   -0.1600 C.ar    1  UNL1       -0.0142
     30 H           3.1234    1.6740    0.3139 H       1  UNL1        0.1551
     31 H           1.7061    3.3905   -0.1086 H       1  UNL1        0.0636
     32 H          -0.4143    4.1751   -0.9253 H       1  UNL1        0.0618
     33 H          -1.9531    2.6839   -1.9892 H       1  UNL1        0.0620
     34 H          -1.0962   -0.6092   -3.1290 H       1  UNL1        0.0377
     35 H          -2.4469    0.4598   -2.9716 H       1  UNL1        0.0377
     36 H          -1.2397   -3.6249    0.0094 H       1  UNL1        0.1921
     37 H          -5.0285    0.2125   -1.1732 H       1  UNL1        0.0314
     38 H          -3.5896    1.2293   -1.3897 H       1  UNL1        0.0314
     39 H          -5.3144    1.8475    0.3964 H       1  UNL1        0.0268
     40 H          -3.5823    1.9263    0.7456 H       1  UNL1        0.0268
     41 H          -5.4573    0.6665    2.2515 H       1  UNL1        0.0269
     42 H          -3.6955    0.4131    2.2853 H       1  UNL1        0.0269
     43 H          -4.8170   -1.7028    2.1909 H       1  UNL1        0.0315
     44 H          -5.6788   -1.2284    0.7675 H       1  UNL1        0.0315
     45 H           0.7164   -0.4531   -1.4389 H       1  UNL1        0.0639
     46 H           4.6589    1.1339    1.5055 H       1  UNL1        0.0654
     47 H           8.0340   -1.2664    1.6897 H       1  UNL1        0.0675
     48 H           4.9197   -2.2584   -0.8674 H       1  UNL1        0.0654
@<TRIPOS>BOND
     1     1     2    2
     2     2     3   am
     3     2    22    1
     4     3     4    1
     5     4     5   ar
     6     4    21   ar
     7     5     6   ar
     8     6     7   ar
     9     7     8   ar
    10     8     9    1
    11     8    21   ar
    12     9    10    1
    13    10    11   ar
    14    10    16   ar
    15    11    12   ar
    16    12    13   ar
    17    13    14    2
    18    13    15   ar
    19    15    16   ar
    20    15    20    1
    21    16    17    1
    22    17    18    1
    23    18    19    1
    24    19    20    1
    25    22    23   ar
    26    22    29   ar
    27    23    24   ar
    28    24    25    1
    29    24    26   ar
    30    26    27   ar
    31    27    28    1
    32    27    29   ar
    33     3    30    1
    34     5    31    1
    35     6    32    1
    36     7    33    1
    37     9    34    1
    38     9    35    1
    39    12    36    1
    40    17    37    1
    41    17    38    1
    42    18    39    1
    43    18    40    1
    44    19    41    1
    45    19    42    1
    46    20    43    1
    47    20    44    1
    48    21    45    1
    49    23    46    1
    50    26    47    1
    51    29    48    1
@<TRIPOS>MOLECULE
../data/bude_mols_rdkit_confs/molecule_78.pdb
 48 51 0 0 0
SMALL
GASTEIGER

@<TRIPOS>ATOM
      1  O1         4.4770   -1.8740    0.1980 O.2     1  UNL1       -0.2698
      2  C1         4.2510   -0.6650   -0.0260 C.2     1  UNL1        0.2484
      3  N1         3.0240   -0.1940   -0.5230 N.am    1  UNL1       -0.2815
      4  C2         1.9250   -1.0170   -0.8290 C.ar    1  UNL1        0.0339
      5  C3         2.0120   -2.3550   -0.9900 C.ar    1  UNL1       -0.0405
      6  C4         0.8910   -3.1020   -1.2680 C.ar    1  UNL1       -0.0597
      7  C5        -0.3280   -2.4970   -1.3870 C.ar    1  UNL1       -0.0581
      8  C6        -0.4790   -1.1340   -1.2350 C.ar    1  UNL1       -0.0398
      9  C7        -1.8210   -0.5310   -1.3740 C.3     1  UNL1        0.0168
     10  C8        -2.4880   -0.5080   -0.0580 C.ar    1  UNL1        0.0693
     11  N2        -1.8530   -1.0060    1.0440 N.ar    1  UNL1       -0.1753
     12  N3        -2.3690   -1.0250    2.2380 N.ar    1  UNL1       -0.2427
     13  C9        -3.5970   -0.5480    2.5090 C.ar    1  UNL1        0.2682
     14  O2        -4.0930   -0.5670    3.6650 O.2     1  UNL1       -0.2661
     15  C10       -4.2930   -0.0240    1.4110 C.ar    1  UNL1        0.0232
     16  C11       -3.7410   -0.0100    0.1590 C.ar    1  UNL1       -0.0158
     17  C12       -4.5160    0.5570   -0.9580 C.3     1  UNL1       -0.0255
     18  C13       -5.0500    1.8950   -0.4260 C.3     1  UNL1       -0.0487
     19  C14       -6.0250    1.6230    0.6660 C.3     1  UNL1       -0.0486
     20  C15       -5.6580    0.5240    1.5960 C.3     1  UNL1       -0.0222
     21  C16        0.6590   -0.4290   -0.9590 C.ar    1  UNL1       -0.0369
     22  C17        5.3610    0.2570    0.2650 C.ar    1  UNL1        0.0424
     23  C18        5.2740    1.6090    0.0730 C.ar    1  UNL1       -0.0142
     24  C19        6.3500    2.4500    0.3620 C.ar    1  UNL1        0.1268
     25  F1         6.2660    3.7720    0.1750 F       1  UNL1       -0.2054
     26  C20        7.5180    1.9030    0.8480 C.ar    1  UNL1        0.0088
     27  C21        7.6410    0.5410    1.0540 C.ar    1  UNL1        0.1268
     28  F2         8.7960    0.0180    1.5330 F       1  UNL1       -0.2054
     29  C22        6.5390   -0.2420    0.7490 C.ar    1  UNL1       -0.0142
     30 H           2.9272    0.7752   -0.6664 H       1  UNL1        0.1551
     31 H           2.9285   -2.8215   -0.9036 H       1  UNL1        0.0636
     32 H           0.9712   -4.1240   -1.3872 H       1  UNL1        0.0618
     33 H          -1.1574   -3.0744   -1.5960 H       1  UNL1        0.0620
     34 H          -2.4035   -1.1109   -2.0591 H       1  UNL1        0.0377
     35 H          -1.7266    0.4686   -1.7438 H       1  UNL1        0.0377
     36 H          -1.8379   -1.4048    2.9748 H       1  UNL1        0.1921
     37 H          -5.3239   -0.0922   -1.2240 H       1  UNL1        0.0314
     38 H          -3.9223    0.6810   -1.8395 H       1  UNL1        0.0314
     39 H          -5.5352    2.4284   -1.2166 H       1  UNL1        0.0268
     40 H          -4.2406    2.4862   -0.0515 H       1  UNL1        0.0268
     41 H          -6.9628    1.3733    0.2153 H       1  UNL1        0.0269
     42 H          -6.0536    2.5121    1.2607 H       1  UNL1        0.0269
     43 H          -5.7333    0.8966    2.5962 H       1  UNL1        0.0315
     44 H          -6.3334   -0.2800    1.3900 H       1  UNL1        0.0315
     45 H           0.5820    0.5932   -0.8396 H       1  UNL1        0.0639
     46 H           4.3977    2.0140   -0.2918 H       1  UNL1        0.0654
     47 H           8.3159    2.5215    1.0622 H       1  UNL1        0.0675
     48 H           6.6114   -1.2610    0.8956 H       1  UNL1        0.0654
@<TRIPOS>BOND
     1     1     2    2
     2     2     3   am
     3     2    22    1
     4     3     4    1
     5     4     5   ar
     6     4    21   ar
     7     5     6   ar
     8     6     7   ar
     9     7     8   ar
    10     8     9    1
    11     8    21   ar
    12     9    10    1
    13    10    11   ar
    14    10    16   ar
    15    11    12   ar
    16    12    13   ar
    17    13    14    2
    18    13    15   ar
    19    15    16   ar
    20    15    20    1
    21    16    17    1
    22    17    18    1
    23    18    19    1
    24    19    20    1
    25    22    23   ar
    26    22    29   ar
    27    23    24   ar
    28    24    25    1
    29    24    26   ar
    30    26    27   ar
    31    27    28    1
    32    27    29   ar
    33     3    30    1
    34     5    31    1
    35     6    32    1
    36     7    33    1
    37     9    34    1
    38     9    35    1
    39    12    36    1
    40    17    37    1
    41    17    38    1
    42    18    39    1
    43    18    40    1
    44    19    41    1
    45    19    42    1
    46    20    43    1
    47    20    44    1
    48    21    45    1
    49    23    46    1
    50    26    47    1
    51    29    48    1
@<TRIPOS>MOLECULE
../data/bude_mols_rdkit_confs/molecule_78.pdb
 48 51 0 0 0
SMALL
GASTEIGER

@<TRIPOS>ATOM
      1  O1         3.9360   -1.6170   -0.8750 O.2     1  UNL1       -0.2698
      2  C1         3.7370   -0.4670   -0.4040 C.2     1  UNL1        0.2484
      3  N1         2.5980   -0.1480    0.3590 N.am    1  UNL1       -0.2815
      4  C2         1.5840   -1.0760    0.6680 C.ar    1  UNL1        0.0339
      5  C3         1.6030   -2.4210    0.4380 C.ar    1  UNL1       -0.0405
      6  C4         0.5330   -3.2340    0.7770 C.ar    1  UNL1       -0.0597
      7  C5        -0.5900   -2.7170    1.3600 C.ar    1  UNL1       -0.0581
      8  C6        -0.6470   -1.3620    1.6090 C.ar    1  UNL1       -0.0398
      9  C7        -1.8790   -0.8460    2.2690 C.3     1  UNL1        0.0168
     10  C8        -3.0730   -0.8550    1.4220 C.ar    1  UNL1        0.0693
     11  N2        -3.8780   -1.9580    1.5580 N.ar    1  UNL1       -0.1753
     12  N3        -4.9630   -2.1550    0.8480 N.ar    1  UNL1       -0.2427
     13  C9        -5.3170   -1.2390   -0.0630 C.ar    1  UNL1        0.2682
     14  O2        -6.3460   -1.3870   -0.7640 O.2     1  UNL1       -0.2661
     15  C10       -4.5640   -0.1110   -0.2550 C.ar    1  UNL1        0.0232
     16  C11       -3.4070    0.0930    0.5080 C.ar    1  UNL1       -0.0158
     17  C12       -2.6320    1.3020    0.3280 C.3     1  UNL1       -0.0255
     18  C13       -2.4880    1.7390   -1.1030 C.3     1  UNL1       -0.0487
     19  C14       -3.6120    1.2820   -1.9840 C.3     1  UNL1       -0.0486
     20  C15       -4.8730    0.9550   -1.2370 C.3     1  UNL1       -0.0222
     21  C16        0.4170   -0.5860    1.2660 C.ar    1  UNL1       -0.0369
     22  C17        4.7730    0.5250   -0.7030 C.ar    1  UNL1        0.0424
     23  C18        4.5090    1.8590   -0.5810 C.ar    1  UNL1       -0.0142
     24  C19        5.5040    2.8020   -0.8580 C.ar    1  UNL1        0.1268
     25  F1         5.2820    4.1330   -0.7480 F       1  UNL1       -0.2054
     26  C20        6.7530    2.4030   -1.2540 C.ar    1  UNL1        0.0088
     27  C21        7.0100    1.0360   -1.3760 C.ar    1  UNL1        0.1268
     28  F2         8.2550    0.6870   -1.7710 F       1  UNL1       -0.2054
     29  C22        6.0140    0.1030   -1.0990 C.ar    1  UNL1       -0.0142
     30 H           2.5050    0.7728    0.6947 H       1  UNL1        0.1551
     31 H           2.4362   -2.8440    0.0000 H       1  UNL1        0.0636
     32 H           0.5850   -4.2468    0.5860 H       1  UNL1        0.0618
     33 H          -1.3816   -3.3303    1.6095 H       1  UNL1        0.0620
     34 H          -1.6956    0.1623    2.5767 H       1  UNL1        0.0377
     35 H          -2.0829   -1.5039    3.0878 H       1  UNL1        0.0377
     36 H          -5.5087   -2.9633    0.9825 H       1  UNL1        0.1921
     37 H          -1.6534    1.1349    0.7271 H       1  UNL1        0.0314
     38 H          -3.1608    2.0824    0.8342 H       1  UNL1        0.0314
     39 H          -1.5725    1.3410   -1.4882 H       1  UNL1        0.0268
     40 H          -2.4993    2.8089   -1.1080 H       1  UNL1        0.0268
     41 H          -3.2941    0.4056   -2.5092 H       1  UNL1        0.0269
     42 H          -3.8414    2.0934   -2.6426 H       1  UNL1        0.0269
     43 H          -5.2284    1.8259   -0.7269 H       1  UNL1        0.0315
     44 H          -5.6308    0.6245   -1.9163 H       1  UNL1        0.0315
     45 H           0.3600    0.4263    1.4586 H       1  UNL1        0.0639
     46 H           3.5719    2.1726   -0.2833 H       1  UNL1        0.0654
     47 H           7.4883    3.0978   -1.4578 H       1  UNL1        0.0675
     48 H           6.2110   -0.9057   -1.1921 H       1  UNL1        0.0654
@<TRIPOS>BOND
     1     1     2    2
     2     2     3   am
     3     2    22    1
     4     3     4    1
     5     4     5   ar
     6     4    21   ar
     7     5     6   ar
     8     6     7   ar
     9     7     8   ar
    10     8     9    1
    11     8    21   ar
    12     9    10    1
    13    10    11   ar
    14    10    16   ar
    15    11    12   ar
    16    12    13   ar
    17    13    14    2
    18    13    15   ar
    19    15    16   ar
    20    15    20    1
    21    16    17    1
    22    17    18    1
    23    18    19    1
    24    19    20    1
    25    22    23   ar
    26    22    29   ar
    27    23    24   ar
    28    24    25    1
    29    24    26   ar
    30    26    27   ar
    31    27    28    1
    32    27    29   ar
    33     3    30    1
    34     5    31    1
    35     6    32    1
    36     7    33    1
    37     9    34    1
    38     9    35    1
    39    12    36    1
    40    17    37    1
    41    17    38    1
    42    18    39    1
    43    18    40    1
    44    19    41    1
    45    19    42    1
    46    20    43    1
    47    20    44    1
    48    21    45    1
    49    23    46    1
    50    26    47    1
    51    29    48    1
@<TRIPOS>MOLECULE
../data/bude_mols_rdkit_confs/molecule_78.pdb
 48 51 0 0 0
SMALL
GASTEIGER

@<TRIPOS>ATOM
      1  O1         4.1070    1.6490    1.3110 O.2     1  UNL1       -0.2698
      2  C1         4.0610    0.7260    0.4750 C.2     1  UNL1        0.2484
      3  N1         2.8530    0.4660   -0.1730 N.am    1  UNL1       -0.2815
      4  C2         1.6080    1.1150   -0.0220 C.ar    1  UNL1        0.0339
      5  C3         1.3320    1.9970    0.9690 C.ar    1  UNL1       -0.0405
      6  C4         0.1150    2.6400    1.0970 C.ar    1  UNL1       -0.0597
      7  C5        -0.8620    2.3580    0.1580 C.ar    1  UNL1       -0.0581
      8  C6        -0.6390    1.4790   -0.8580 C.ar    1  UNL1       -0.0398
      9  C7        -1.7180    1.1970   -1.8390 C.3     1  UNL1        0.0168
     10  C8        -2.3930   -0.0930   -1.6350 C.ar    1  UNL1        0.0693
     11  N2        -2.0360   -1.1670   -2.3970 N.ar    1  UNL1       -0.1753
     12  N3        -2.5860   -2.3510   -2.2270 N.ar    1  UNL1       -0.2427
     13  C9        -3.5290   -2.5880   -1.3000 C.ar    1  UNL1        0.2682
     14  O2        -4.0190   -3.7630   -1.1900 O.2     1  UNL1       -0.2661
     15  C10       -3.9240   -1.5530   -0.5100 C.ar    1  UNL1        0.0232
     16  C11       -3.3500   -0.3000   -0.6850 C.ar    1  UNL1       -0.0158
     17  C12       -3.8700    0.7670    0.2020 C.3     1  UNL1       -0.0255
     18  C13       -5.3840    0.7080    0.3430 C.3     1  UNL1       -0.0487
     19  C14       -5.9230   -0.6360    0.6620 C.3     1  UNL1       -0.0486
     20  C15       -4.9300   -1.7430    0.5430 C.3     1  UNL1       -0.0222
     21  C16        0.5860    0.8660   -0.9430 C.ar    1  UNL1       -0.0369
     22  C17        5.3010   -0.0260    0.2360 C.ar    1  UNL1        0.0424
     23  C18        6.4880    0.3900    0.8530 C.ar    1  UNL1       -0.0142
     24  C19        7.6740   -0.2800    0.6590 C.ar    1  UNL1        0.1268
     25  F1         8.8380    0.1040    1.2440 F       1  UNL1       -0.2054
     26  C20        7.7180   -1.3880   -0.1570 C.ar    1  UNL1        0.0088
     27  C21        6.5800   -1.8280   -0.7790 C.ar    1  UNL1        0.1268
     28  F2         6.6060   -2.9180   -1.5860 F       1  UNL1       -0.2054
     29  C22        5.3840   -1.1300   -0.5670 C.ar    1  UNL1       -0.0142
     30 H           2.8711   -0.2713   -0.8252 H       1  UNL1        0.1551
     31 H           2.0680    2.1990    1.6637 H       1  UNL1        0.0636
     32 H          -0.0589    3.3066    1.8654 H       1  UNL1        0.0618
     33 H          -1.7799    2.8242    0.2294 H       1  UNL1        0.0620
     34 H          -1.2899    1.2008   -2.8196 H       1  UNL1        0.0377
     35 H          -2.4597    1.9572   -1.7087 H       1  UNL1        0.0377
     36 H          -2.2940   -3.0938   -2.8034 H       1  UNL1        0.1921
     37 H          -3.5985    1.7179   -0.2066 H       1  UNL1        0.0314
     38 H          -3.4432    0.6250    1.1729 H       1  UNL1        0.0314
     39 H          -5.8179    1.0309   -0.5802 H       1  UNL1        0.0268
     40 H          -5.6361    1.3394    1.1692 H       1  UNL1        0.0268
     41 H          -6.7325   -0.8393   -0.0075 H       1  UNL1        0.0269
     42 H          -6.2266   -0.6074    1.6876 H       1  UNL1        0.0269
     43 H          -4.4197   -1.8354    1.4790 H       1  UNL1        0.0315
     44 H          -5.4839   -2.6193    0.2779 H       1  UNL1        0.0315
     45 H           0.7584    0.1995   -1.7118 H       1  UNL1        0.0639
     46 H           6.4725    1.2188    1.4677 H       1  UNL1        0.0654
     47 H           8.6096   -1.8876   -0.3001 H       1  UNL1        0.0675
     48 H           4.5281   -1.4635   -1.0374 H       1  UNL1        0.0654
@<TRIPOS>BOND
     1     1     2    2
     2     2     3   am
     3     2    22    1
     4     3     4    1
     5     4     5   ar
     6     4    21   ar
     7     5     6   ar
     8     6     7   ar
     9     7     8   ar
    10     8     9    1
    11     8    21   ar
    12     9    10    1
    13    10    11   ar
    14    10    16   ar
    15    11    12   ar
    16    12    13   ar
    17    13    14    2
    18    13    15   ar
    19    15    16   ar
    20    15    20    1
    21    16    17    1
    22    17    18    1
    23    18    19    1
    24    19    20    1
    25    22    23   ar
    26    22    29   ar
    27    23    24   ar
    28    24    25    1
    29    24    26   ar
    30    26    27   ar
    31    27    28    1
    32    27    29   ar
    33     3    30    1
    34     5    31    1
    35     6    32    1
    36     7    33    1
    37     9    34    1
    38     9    35    1
    39    12    36    1
    40    17    37    1
    41    17    38    1
    42    18    39    1
    43    18    40    1
    44    19    41    1
    45    19    42    1
    46    20    43    1
    47    20    44    1
    48    21    45    1
    49    23    46    1
    50    26    47    1
    51    29    48    1
@<TRIPOS>MOLECULE
../data/bude_mols_rdkit_confs/molecule_78.pdb
 48 51 0 0 0
SMALL
GASTEIGER

@<TRIPOS>ATOM
      1  O1         4.0080   -1.7940   -1.6040 O.2     1  UNL1       -0.2698
      2  C1         4.2830   -0.8660   -0.8050 C.2     1  UNL1        0.2484
      3  N1         3.2500   -0.2150   -0.1200 N.am    1  UNL1       -0.2815
      4  C2         1.8520   -0.4920   -0.2080 C.ar    1  UNL1        0.0339
      5  C3         1.3030   -1.6120   -0.7650 C.ar    1  UNL1       -0.0405
      6  C4        -0.0560   -1.7900   -0.8210 C.ar    1  UNL1       -0.0597
      7  C5        -0.9440   -0.8430   -0.3170 C.ar    1  UNL1       -0.0581
      8  C6        -0.4260    0.2850    0.2440 C.ar    1  UNL1       -0.0398
      9  C7        -1.2900    1.3440    0.7790 C.3     1  UNL1        0.0168
     10  C8        -2.5520    0.9250    1.3780 C.ar    1  UNL1        0.0693
     11  N2        -2.6040    0.5740    2.6930 N.ar    1  UNL1       -0.1753
     12  N3        -3.7140    0.1170    3.2650 N.ar    1  UNL1       -0.2427
     13  C9        -4.8430   -0.0170    2.5510 C.ar    1  UNL1        0.2682
     14  O2        -5.8840   -0.4540    3.1150 O.2     1  UNL1       -0.2661
     15  C10       -4.8770    0.3180    1.2100 C.ar    1  UNL1        0.0232
     16  C11       -3.6970    0.7980    0.6330 C.ar    1  UNL1       -0.0158
     17  C12       -3.7180    1.2400   -0.7660 C.3     1  UNL1       -0.0255
     18  C13       -4.8510    0.5720   -1.5630 C.3     1  UNL1       -0.0487
     19  C14       -6.1590    0.8360   -0.8370 C.3     1  UNL1       -0.0486
     20  C15       -6.1510    0.1380    0.4910 C.3     1  UNL1       -0.0222
     21  C16        0.9390    0.4450    0.2920 C.ar    1  UNL1       -0.0369
     22  C17        5.7080   -0.5050   -0.6280 C.ar    1  UNL1        0.0424
     23  C18        6.6010   -0.9720   -1.5700 C.ar    1  UNL1       -0.0142
     24  C19        7.9620   -0.7260   -1.5290 C.ar    1  UNL1        0.1268
     25  F1         8.7690   -1.2250   -2.5020 F       1  UNL1       -0.2054
     26  C20        8.4310    0.0340   -0.4780 C.ar    1  UNL1        0.0088
     27  C21        7.5420    0.5070    0.4720 C.ar    1  UNL1        0.1268
     28  F2         8.0160    1.2470    1.4940 F       1  UNL1       -0.2054
     29  C22        6.1730    0.2420    0.4040 C.ar    1  UNL1       -0.0142
     30 H           3.5162    0.5122    0.4879 H       1  UNL1        0.1551
     31 H           1.9240   -2.3398   -1.1520 H       1  UNL1        0.0636
     32 H          -0.4313   -2.6508   -1.2491 H       1  UNL1        0.0618
     33 H          -1.9640   -0.9914   -0.3670 H       1  UNL1        0.0620
     34 H          -1.5195    2.0113   -0.0253 H       1  UNL1        0.0377
     35 H          -0.7321    1.7815    1.5804 H       1  UNL1        0.0377
     36 H          -3.7079   -0.1249    4.2193 H       1  UNL1        0.1921
     37 H          -2.7821    0.9914   -1.2211 H       1  UNL1        0.0314
     38 H          -3.8843    2.2969   -0.7767 H       1  UNL1        0.0314
     39 H          -4.6775   -0.4820   -1.6258 H       1  UNL1        0.0268
     40 H          -4.8910    0.9708   -2.5551 H       1  UNL1        0.0268
     41 H          -6.9731    0.4692   -1.4265 H       1  UNL1        0.0269
     42 H          -6.2721    1.8888   -0.6829 H       1  UNL1        0.0269
     43 H          -6.9438    0.5323    1.0917 H       1  UNL1        0.0315
     44 H          -6.2803   -0.9088    0.3113 H       1  UNL1        0.0315
     45 H           1.3124    1.3058    0.7216 H       1  UNL1        0.0639
     46 H           6.2326   -1.5377   -2.3506 H       1  UNL1        0.0654
     47 H           9.4375    0.2486   -0.4003 H       1  UNL1        0.0675
     48 H           5.5290    0.6065    1.1233 H       1  UNL1        0.0654
@<TRIPOS>BOND
     1     1     2    2
     2     2     3   am
     3     2    22    1
     4     3     4    1
     5     4     5   ar
     6     4    21   ar
     7     5     6   ar
     8     6     7   ar
     9     7     8   ar
    10     8     9    1
    11     8    21   ar
    12     9    10    1
    13    10    11   ar
    14    10    16   ar
    15    11    12   ar
    16    12    13   ar
    17    13    14    2
    18    13    15   ar
    19    15    16   ar
    20    15    20    1
    21    16    17    1
    22    17    18    1
    23    18    19    1
    24    19    20    1
    25    22    23   ar
    26    22    29   ar
    27    23    24   ar
    28    24    25    1
    29    24    26   ar
    30    26    27   ar
    31    27    28    1
    32    27    29   ar
    33     3    30    1
    34     5    31    1
    35     6    32    1
    36     7    33    1
    37     9    34    1
    38     9    35    1
    39    12    36    1
    40    17    37    1
    41    17    38    1
    42    18    39    1
    43    18    40    1
    44    19    41    1
    45    19    42    1
    46    20    43    1
    47    20    44    1
    48    21    45    1
    49    23    46    1
    50    26    47    1
    51    29    48    1
@<TRIPOS>MOLECULE
../data/bude_mols_rdkit_confs/molecule_78.pdb
 48 51 0 0 0
SMALL
GASTEIGER

@<TRIPOS>ATOM
      1  O1         4.1380   -0.3900    1.8180 O.2     1  UNL1       -0.2698
      2  C1         3.7950    0.1580    0.7150 C.2     1  UNL1        0.2484
      3  N1         2.5440   -0.1930    0.1670 N.am    1  UNL1       -0.2815
      4  C2         1.6140   -1.1010    0.7180 C.ar    1  UNL1        0.0339
      5  C3         1.6930   -1.7510    1.9120 C.ar    1  UNL1       -0.0405
      6  C4         0.7410   -2.6430    2.3920 C.ar    1  UNL1       -0.0597
      7  C5        -0.3700   -2.9070    1.6280 C.ar    1  UNL1       -0.0581
      8  C6        -0.5020   -2.2660    0.3910 C.ar    1  UNL1       -0.0398
      9  C7        -1.7270   -2.6050   -0.4050 C.3     1  UNL1        0.0168
     10  C8        -2.8550   -1.8630    0.1620 C.ar    1  UNL1        0.0693
     11  N2        -3.6860   -2.4840    1.0240 N.ar    1  UNL1       -0.1753
     12  N3        -4.7000   -1.8900    1.6110 N.ar    1  UNL1       -0.2427
     13  C9        -4.9660   -0.6020    1.3760 C.ar    1  UNL1        0.2682
     14  O2        -5.9590   -0.0190    1.9510 O.2     1  UNL1       -0.2661
     15  C10       -4.1800    0.1150    0.5150 C.ar    1  UNL1        0.0232
     16  C11       -3.1090   -0.5520   -0.0940 C.ar    1  UNL1       -0.0158
     17  C12       -2.2940    0.2100   -1.0430 C.3     1  UNL1       -0.0255
     18  C13       -3.2800    0.9930   -1.9340 C.3     1  UNL1       -0.0487
     19  C14       -4.1100    1.9630   -1.1530 C.3     1  UNL1       -0.0486
     20  C15       -4.4200    1.5430    0.2340 C.3     1  UNL1       -0.0222
     21  C16        0.4680   -1.3910   -0.0410 C.ar    1  UNL1       -0.0369
     22  C17        4.7060    1.1120    0.0800 C.ar    1  UNL1        0.0424
     23  C18        5.7150    1.6920    0.8070 C.ar    1  UNL1       -0.0142
     24  C19        6.5780    2.5930    0.1810 C.ar    1  UNL1        0.1268
     25  F1         7.5810    3.1850    0.8550 F       1  UNL1       -0.2054
     26  C20        6.4080    2.8920   -1.1580 C.ar    1  UNL1        0.0088
     27  C21        5.3980    2.3130   -1.8890 C.ar    1  UNL1        0.1268
     28  F2         5.1950    2.5750   -3.1970 F       1  UNL1       -0.2054
     29  C22        4.5550    1.4200   -1.2420 C.ar    1  UNL1       -0.0142
     30 H           2.2948    0.2371   -0.6828 H       1  UNL1        0.1551
     31 H           2.5190   -1.5682    2.5030 H       1  UNL1        0.0636
     32 H           0.8669   -3.1001    3.3086 H       1  UNL1        0.0618
     33 H          -1.0927   -3.5648    1.9597 H       1  UNL1        0.0620
     34 H          -1.9181   -3.6562   -0.3473 H       1  UNL1        0.0377
     35 H          -1.5874   -2.3410   -1.4325 H       1  UNL1        0.0377
     36 H          -5.2703   -2.3996    2.2310 H       1  UNL1        0.1921
     37 H          -1.7032   -0.4535   -1.6394 H       1  UNL1        0.0314
     38 H          -1.6226    0.8701   -0.5347 H       1  UNL1        0.0314
     39 H          -3.9314    0.2967   -2.4195 H       1  UNL1        0.0268
     40 H          -2.7052    1.5525   -2.6421 H       1  UNL1        0.0268
     41 H          -5.0349    2.1029   -1.6726 H       1  UNL1        0.0269
     42 H          -3.5297    2.8584   -1.0730 H       1  UNL1        0.0269
     43 H          -3.8134    2.1201    0.9002 H       1  UNL1        0.0315
     44 H          -5.4687    1.7054    0.3711 H       1  UNL1        0.0315
     45 H           0.3492   -0.9305   -0.9569 H       1  UNL1        0.0639
     46 H           5.8346    1.4644    1.8065 H       1  UNL1        0.0654
     47 H           7.0486    3.5595   -1.6154 H       1  UNL1        0.0675
     48 H           3.7916    0.9757   -1.7757 H       1  UNL1        0.0654
@<TRIPOS>BOND
     1     1     2    2
     2     2     3   am
     3     2    22    1
     4     3     4    1
     5     4     5   ar
     6     4    21   ar
     7     5     6   ar
     8     6     7   ar
     9     7     8   ar
    10     8     9    1
    11     8    21   ar
    12     9    10    1
    13    10    11   ar
    14    10    16   ar
    15    11    12   ar
    16    12    13   ar
    17    13    14    2
    18    13    15   ar
    19    15    16   ar
    20    15    20    1
    21    16    17    1
    22    17    18    1
    23    18    19    1
    24    19    20    1
    25    22    23   ar
    26    22    29   ar
    27    23    24   ar
    28    24    25    1
    29    24    26   ar
    30    26    27   ar
    31    27    28    1
    32    27    29   ar
    33     3    30    1
    34     5    31    1
    35     6    32    1
    36     7    33    1
    37     9    34    1
    38     9    35    1
    39    12    36    1
    40    17    37    1
    41    17    38    1
    42    18    39    1
    43    18    40    1
    44    19    41    1
    45    19    42    1
    46    20    43    1
    47    20    44    1
    48    21    45    1
    49    23    46    1
    50    26    47    1
    51    29    48    1
@<TRIPOS>MOLECULE
../data/bude_mols_rdkit_confs/molecule_78.pdb
 48 51 0 0 0
SMALL
GASTEIGER

@<TRIPOS>ATOM
      1  O1        -3.6460    1.4150   -1.9060 O.2     1  UNL1       -0.2698
      2  C1        -3.7520    0.6660   -0.9130 C.2     1  UNL1        0.2484
      3  N1        -2.7270   -0.2580   -0.6420 N.am    1  UNL1       -0.2815
      4  C2        -1.5320   -0.4670   -1.3750 C.ar    1  UNL1        0.0339
      5  C3        -1.2610    0.0520   -2.6160 C.ar    1  UNL1       -0.0405
      6  C4        -0.0620   -0.1670   -3.2910 C.ar    1  UNL1       -0.0597
      7  C5         0.9210   -0.9480   -2.6920 C.ar    1  UNL1       -0.0581
      8  C6         0.6700   -1.4720   -1.4580 C.ar    1  UNL1       -0.0398
      9  C7         1.6700   -2.3150   -0.7300 C.3     1  UNL1        0.0168
     10  C8         2.3160   -1.5900    0.3700 C.ar    1  UNL1        0.0693
     11  N2         1.7630   -1.6970    1.6210 N.ar    1  UNL1       -0.1753
     12  N3         2.2160   -1.0550    2.6760 N.ar    1  UNL1       -0.2427
     13  C9         3.2950   -0.2340    2.5340 C.ar    1  UNL1        0.2682
     14  O2         3.7650    0.4050    3.5260 O.2     1  UNL1       -0.2661
     15  C10        3.8990   -0.0780    1.3170 C.ar    1  UNL1        0.0232
     16  C11        3.3860   -0.7780    0.2330 C.ar    1  UNL1       -0.0158
     17  C12        4.1250   -0.6020   -1.0340 C.3     1  UNL1       -0.0255
     18  C13        4.3020    0.8830   -1.2650 C.3     1  UNL1       -0.0487
     19  C14        5.0940    1.5350   -0.1600 C.3     1  UNL1       -0.0486
     20  C15        5.0680    0.8070    1.1420 C.3     1  UNL1       -0.0222
     21  C16       -0.5280   -1.2450   -0.7990 C.ar    1  UNL1       -0.0369
     22  C17       -4.9590    0.7850   -0.0620 C.ar    1  UNL1        0.0424
     23  C18       -5.1180    0.1110    1.1250 C.ar    1  UNL1       -0.0142
     24  C19       -6.2670    0.2670    1.8760 C.ar    1  UNL1        0.1268
     25  F1        -6.3990   -0.4080    3.0500 F       1  UNL1       -0.2054
     26  C20       -7.2500    1.1090    1.4170 C.ar    1  UNL1        0.0088
     27  C21       -7.1240    1.8070    0.2220 C.ar    1  UNL1        0.1268
     28  F2        -8.1440    2.6190   -0.1580 F       1  UNL1       -0.2054
     29  C22       -5.9670    1.6270   -0.5000 C.ar    1  UNL1       -0.0142
     30 H          -2.8547   -0.8273    0.1510 H       1  UNL1        0.1551
     31 H          -1.9812    0.6336   -3.0721 H       1  UNL1        0.0636
     32 H           0.0949    0.2452   -4.2240 H       1  UNL1        0.0618
     33 H           1.8182   -1.1266   -3.1696 H       1  UNL1        0.0620
     34 H           2.4223   -2.6309   -1.4222 H       1  UNL1        0.0377
     35 H           1.1493   -3.1499   -0.3097 H       1  UNL1        0.0377
     36 H           1.7831   -1.1656    3.5533 H       1  UNL1        0.1921
     37 H           3.5703   -1.0322   -1.8415 H       1  UNL1        0.0314
     38 H           5.0769   -1.0877   -0.9815 H       1  UNL1        0.0314
     39 H           3.3369    1.3423   -1.3159 H       1  UNL1        0.0268
     40 H           4.8410    1.0137   -2.1800 H       1  UNL1        0.0268
     41 H           4.6978    2.5161   -0.0007 H       1  UNL1        0.0269
     42 H           6.1142    1.5389   -0.4826 H       1  UNL1        0.0269
     43 H           5.9537    0.2106    1.2108 H       1  UNL1        0.0315
     44 H           5.0085    1.5506    1.9091 H       1  UNL1        0.0315
     45 H          -0.6797   -1.6589    0.1341 H       1  UNL1        0.0639
     46 H          -4.3713   -0.5183    1.4589 H       1  UNL1        0.0654
     47 H          -8.1089    1.2270    1.9769 H       1  UNL1        0.0675
     48 H          -5.8472    2.1328   -1.3915 H       1  UNL1        0.0654
@<TRIPOS>BOND
     1     1     2    2
     2     2     3   am
     3     2    22    1
     4     3     4    1
     5     4     5   ar
     6     4    21   ar
     7     5     6   ar
     8     6     7   ar
     9     7     8   ar
    10     8     9    1
    11     8    21   ar
    12     9    10    1
    13    10    11   ar
    14    10    16   ar
    15    11    12   ar
    16    12    13   ar
    17    13    14    2
    18    13    15   ar
    19    15    16   ar
    20    15    20    1
    21    16    17    1
    22    17    18    1
    23    18    19    1
    24    19    20    1
    25    22    23   ar
    26    22    29   ar
    27    23    24   ar
    28    24    25    1
    29    24    26   ar
    30    26    27   ar
    31    27    28    1
    32    27    29   ar
    33     3    30    1
    34     5    31    1
    35     6    32    1
    36     7    33    1
    37     9    34    1
    38     9    35    1
    39    12    36    1
    40    17    37    1
    41    17    38    1
    42    18    39    1
    43    18    40    1
    44    19    41    1
    45    19    42    1
    46    20    43    1
    47    20    44    1
    48    21    45    1
    49    23    46    1
    50    26    47    1
    51    29    48    1
@<TRIPOS>MOLECULE
../data/bude_mols_rdkit_confs/molecule_78.pdb
 48 51 0 0 0
SMALL
GASTEIGER

@<TRIPOS>ATOM
      1  O1         4.4060   -1.4850    0.5160 O.2     1  UNL1       -0.2698
      2  C1         3.8990   -0.3440    0.4660 C.2     1  UNL1        0.2484
      3  N1         2.5520   -0.1550    0.0920 N.am    1  UNL1       -0.2815
      4  C2         1.6640   -1.2020   -0.2470 C.ar    1  UNL1        0.0339
      5  C3         1.8880   -2.5240   -0.0090 C.ar    1  UNL1       -0.0405
      6  C4         0.9350   -3.4490   -0.4130 C.ar    1  UNL1       -0.0597
      7  C5        -0.2110   -3.0410   -1.0390 C.ar    1  UNL1       -0.0581
      8  C6        -0.4760   -1.6960   -1.3000 C.ar    1  UNL1       -0.0398
      9  C7        -1.7440   -1.3160   -2.0010 C.3     1  UNL1        0.0168
     10  C8        -2.9230   -1.3300   -1.1050 C.ar    1  UNL1        0.0693
     11  N2        -3.7260   -2.4050   -1.0830 N.ar    1  UNL1       -0.1753
     12  N3        -4.7530   -2.4680   -0.2690 N.ar    1  UNL1       -0.2427
     13  C9        -5.0670   -1.4750    0.5870 C.ar    1  UNL1        0.2682
     14  O2        -6.0300   -1.4830    1.3810 O.2     1  UNL1       -0.2661
     15  C10       -4.2470   -0.3680    0.5690 C.ar    1  UNL1        0.0232
     16  C11       -3.1640   -0.2780   -0.2770 C.ar    1  UNL1       -0.0158
     17  C12       -2.3750    0.9750   -0.2350 C.3     1  UNL1       -0.0255
     18  C13       -3.3830    2.1340   -0.2680 C.3     1  UNL1       -0.0487
     19  C14       -4.4700    2.0270    0.7270 C.3     1  UNL1       -0.0486
     20  C15       -4.5140    0.7540    1.4890 C.3     1  UNL1       -0.0222
     21  C16        0.4820   -0.8100   -0.8900 C.ar    1  UNL1       -0.0369
     22  C17        4.7790    0.7920    0.8180 C.ar    1  UNL1        0.0424
     23  C18        6.1110    0.5410    0.9760 C.ar    1  UNL1       -0.0142
     24  C19        7.0000    1.5390    1.3070 C.ar    1  UNL1        0.1268
     25  F1         8.3140    1.2410    1.4540 F       1  UNL1       -0.2054
     26  C20        6.5170    2.8150    1.4780 C.ar    1  UNL1        0.0088
     27  C21        5.1830    3.1190    1.3300 C.ar    1  UNL1        0.1268
     28  F2         4.6910    4.3640    1.4930 F       1  UNL1       -0.2054
     29  C22        4.3120    2.0730    0.9920 C.ar    1  UNL1       -0.0142
     30 H           2.2074    0.7668    0.0652 H       1  UNL1        0.1551
     31 H           2.7517   -2.8330    0.4638 H       1  UNL1        0.0636
     32 H           1.0925   -4.4540   -0.2395 H       1  UNL1        0.0618
     33 H          -0.9020   -3.7511   -1.3276 H       1  UNL1        0.0620
     34 H          -1.9135   -2.0079   -2.7994 H       1  UNL1        0.0377
     35 H          -1.6252   -0.3152   -2.3605 H       1  UNL1        0.0377
     36 H          -5.3179   -3.2741   -0.2839 H       1  UNL1        0.1921
     37 H          -1.7235    1.0289   -1.0821 H       1  UNL1        0.0314
     38 H          -1.7684    1.0180    0.6454 H       1  UNL1        0.0314
     39 H          -3.8236    2.1665   -1.2425 H       1  UNL1        0.0268
     40 H          -2.8356    3.0213   -0.0275 H       1  UNL1        0.0268
     41 H          -5.4012    2.1351    0.2112 H       1  UNL1        0.0269
     42 H          -4.2855    2.7955    1.4483 H       1  UNL1        0.0269
     43 H          -3.7708    0.7711    2.2586 H       1  UNL1        0.0315
     44 H          -5.4794    0.6334    1.9345 H       1  UNL1        0.0315
     45 H           0.3270    0.1956   -1.0624 H       1  UNL1        0.0639
     46 H           6.4608   -0.4209    0.8441 H       1  UNL1        0.0654
     47 H           7.1764    3.5693    1.7254 H       1  UNL1        0.0675
     48 H           3.3057    2.2680    0.8722 H       1  UNL1        0.0654
@<TRIPOS>BOND
     1     1     2    2
     2     2     3   am
     3     2    22    1
     4     3     4    1
     5     4     5   ar
     6     4    21   ar
     7     5     6   ar
     8     6     7   ar
     9     7     8   ar
    10     8     9    1
    11     8    21   ar
    12     9    10    1
    13    10    11   ar
    14    10    16   ar
    15    11    12   ar
    16    12    13   ar
    17    13    14    2
    18    13    15   ar
    19    15    16   ar
    20    15    20    1
    21    16    17    1
    22    17    18    1
    23    18    19    1
    24    19    20    1
    25    22    23   ar
    26    22    29   ar
    27    23    24   ar
    28    24    25    1
    29    24    26   ar
    30    26    27   ar
    31    27    28    1
    32    27    29   ar
    33     3    30    1
    34     5    31    1
    35     6    32    1
    36     7    33    1
    37     9    34    1
    38     9    35    1
    39    12    36    1
    40    17    37    1
    41    17    38    1
    42    18    39    1
    43    18    40    1
    44    19    41    1
    45    19    42    1
    46    20    43    1
    47    20    44    1
    48    21    45    1
    49    23    46    1
    50    26    47    1
    51    29    48    1
@<TRIPOS>MOLECULE
../data/bude_mols_rdkit_confs/molecule_78.pdb
 48 51 0 0 0
SMALL
GASTEIGER

@<TRIPOS>ATOM
      1  O1         4.2400   -1.8550    0.3160 O.2     1  UNL1       -0.2698
      2  C1         3.8740   -0.6340    0.3360 C.2     1  UNL1        0.2484
      3  N1         2.5560   -0.3320   -0.0220 N.am    1  UNL1       -0.2815
      4  C2         1.5420   -1.2480   -0.4130 C.ar    1  UNL1        0.0339
      5  C3         1.6240   -2.6080   -0.2540 C.ar    1  UNL1       -0.0405
      6  C4         0.5710   -3.4230   -0.6940 C.ar    1  UNL1       -0.0597
      7  C5        -0.5600   -2.9360   -1.2860 C.ar    1  UNL1       -0.0581
      8  C6        -0.6550   -1.5570   -1.4520 C.ar    1  UNL1       -0.0398
      9  C7        -1.8190   -0.9870   -2.0920 C.3     1  UNL1        0.0168
     10  C8        -3.0820   -0.9660   -1.3290 C.ar    1  UNL1        0.0693
     11  N2        -4.0440   -1.8690   -1.5280 N.ar    1  UNL1       -0.1753
     12  N3        -5.1520   -1.8710   -0.8490 N.ar    1  UNL1       -0.2427
     13  C9        -5.3850   -0.9530    0.0980 C.ar    1  UNL1        0.2682
     14  O2        -6.4790   -0.9960    0.7330 O.2     1  UNL1       -0.2661
     15  C10       -4.4470    0.0100    0.3640 C.ar    1  UNL1        0.0232
     16  C11       -3.2560   -0.0000   -0.3780 C.ar    1  UNL1       -0.0158
     17  C12       -2.2280    1.0740   -0.0990 C.3     1  UNL1       -0.0255
     18  C13       -2.9520    2.2800    0.4770 C.3     1  UNL1       -0.0487
     19  C14       -3.6190    1.9030    1.7620 C.3     1  UNL1       -0.0486
     20  C15       -4.7640    0.9880    1.4160 C.3     1  UNL1       -0.0222
     21  C16        0.3710   -0.7560   -1.0250 C.ar    1  UNL1       -0.0369
     22  C17        4.8650    0.3810    0.7370 C.ar    1  UNL1        0.0424
     23  C18        4.5980    1.7100    0.5820 C.ar    1  UNL1       -0.0142
     24  C19        5.5340    2.6860    0.9640 C.ar    1  UNL1        0.1268
     25  F1         5.2590    3.9990    0.8050 F       1  UNL1       -0.2054
     26  C20        6.7390    2.3080    1.5020 C.ar    1  UNL1        0.0088
     27  C21        7.0140    0.9620    1.6600 C.ar    1  UNL1        0.1268
     28  F2         8.2160    0.5740    2.1970 F       1  UNL1       -0.2054
     29  C22        6.0750    0.0200    1.2760 C.ar    1  UNL1       -0.0142
     30 H           2.3030    0.6192   -0.0008 H       1  UNL1        0.1551
     31 H           2.4564   -3.0293    0.1872 H       1  UNL1        0.0636
     32 H           0.6547   -4.4433   -0.5639 H       1  UNL1        0.0618
     33 H          -1.3151   -3.5664   -1.5982 H       1  UNL1        0.0620
     34 H          -1.9963   -1.5450   -2.9876 H       1  UNL1        0.0377
     35 H          -1.5716    0.0445   -2.2325 H       1  UNL1        0.0377
     36 H          -5.8316   -2.5589   -1.0338 H       1  UNL1        0.1921
     37 H          -1.7331    1.3475   -1.0074 H       1  UNL1        0.0314
     38 H          -1.4948    0.7155    0.5930 H       1  UNL1        0.0314
     39 H          -3.6896    2.6183   -0.2204 H       1  UNL1        0.0268
     40 H          -2.2454    3.0621    0.6613 H       1  UNL1        0.0268
     41 H          -3.9855    2.7787    2.2558 H       1  UNL1        0.0269
     42 H          -2.9294    1.4172    2.4203 H       1  UNL1        0.0269
     43 H          -5.0472    0.4537    2.2987 H       1  UNL1        0.0315
     44 H          -5.5527    1.6053    1.0394 H       1  UNL1        0.0315
     45 H           0.2819    0.2634   -1.1586 H       1  UNL1        0.0639
     46 H           3.6947    2.0030    0.1780 H       1  UNL1        0.0654
     47 H           7.4310    3.0194    1.7850 H       1  UNL1        0.0675
     48 H           6.2906   -0.9818    1.3983 H       1  UNL1        0.0654
@<TRIPOS>BOND
     1     1     2    2
     2     2     3   am
     3     2    22    1
     4     3     4    1
     5     4     5   ar
     6     4    21   ar
     7     5     6   ar
     8     6     7   ar
     9     7     8   ar
    10     8     9    1
    11     8    21   ar
    12     9    10    1
    13    10    11   ar
    14    10    16   ar
    15    11    12   ar
    16    12    13   ar
    17    13    14    2
    18    13    15   ar
    19    15    16   ar
    20    15    20    1
    21    16    17    1
    22    17    18    1
    23    18    19    1
    24    19    20    1
    25    22    23   ar
    26    22    29   ar
    27    23    24   ar
    28    24    25    1
    29    24    26   ar
    30    26    27   ar
    31    27    28    1
    32    27    29   ar
    33     3    30    1
    34     5    31    1
    35     6    32    1
    36     7    33    1
    37     9    34    1
    38     9    35    1
    39    12    36    1
    40    17    37    1
    41    17    38    1
    42    18    39    1
    43    18    40    1
    44    19    41    1
    45    19    42    1
    46    20    43    1
    47    20    44    1
    48    21    45    1
    49    23    46    1
    50    26    47    1
    51    29    48    1
@<TRIPOS>MOLECULE
../data/bude_mols_rdkit_confs/molecule_78.pdb
 48 51 0 0 0
SMALL
GASTEIGER

@<TRIPOS>ATOM
      1  O1        -2.6870    1.0280    0.5700 O.2     1  UNL1       -0.2698
      2  C1        -3.3590    0.1720   -0.0610 C.2     1  UNL1        0.2484
      3  N1        -2.7900   -1.0970   -0.3020 N.am    1  UNL1       -0.2815
      4  C2        -1.5150   -1.5380    0.1010 C.ar    1  UNL1        0.0339
      5  C3        -1.0780   -2.7780   -0.3820 C.ar    1  UNL1       -0.0405
      6  C4         0.1420   -3.3070   -0.0350 C.ar    1  UNL1       -0.0597
      7  C5         1.0050   -2.6160    0.8250 C.ar    1  UNL1       -0.0581
      8  C6         0.5940   -1.4210    1.2950 C.ar    1  UNL1       -0.0398
      9  C7         1.4130   -0.5920    2.2000 C.3     1  UNL1        0.0168
     10  C8         2.0560    0.5510    1.5420 C.ar    1  UNL1        0.0693
     11  N2         1.4460    1.7740    1.5320 N.ar    1  UNL1       -0.1753
     12  N3         1.9540    2.8220    0.9110 N.ar    1  UNL1       -0.2427
     13  C9         3.1210    2.7600    0.2360 C.ar    1  UNL1        0.2682
     14  O2         3.6230    3.7540   -0.3670 O.2     1  UNL1       -0.2661
     15  C10        3.7610    1.5480    0.2260 C.ar    1  UNL1        0.0232
     16  C11        3.2310    0.4300    0.8830 C.ar    1  UNL1       -0.0158
     17  C12        4.0770   -0.7770    0.8130 C.3     1  UNL1       -0.0255
     18  C13        4.2960   -1.0530   -0.6680 C.3     1  UNL1       -0.0487
     19  C14        5.0420    0.0630   -1.3280 C.3     1  UNL1       -0.0486
     20  C15        5.0500    1.2950   -0.4660 C.3     1  UNL1       -0.0222
     21  C16       -0.6610   -0.8900    0.9320 C.ar    1  UNL1       -0.0369
     22  C17       -4.6800    0.5800   -0.4890 C.ar    1  UNL1        0.0424
     23  C18       -5.4740   -0.1810   -1.3020 C.ar    1  UNL1       -0.0142
     24  C19       -6.7370    0.2080   -1.7020 C.ar    1  UNL1        0.1268
     25  F1        -7.4490   -0.6110   -2.5090 F       1  UNL1       -0.2054
     26  C20       -7.2110    1.4200   -1.2580 C.ar    1  UNL1        0.0088
     27  C21       -6.4420    2.2290   -0.4310 C.ar    1  UNL1        0.1268
     28  F2        -6.9840    3.4020   -0.0420 F       1  UNL1       -0.2054
     29  C22       -5.1880    1.7870   -0.0640 C.ar    1  UNL1       -0.0142
     30 H          -3.3415   -1.7401   -0.8036 H       1  UNL1        0.1551
     31 H          -1.6913   -3.3110   -1.0183 H       1  UNL1        0.0636
     32 H           0.4257   -4.2245   -0.4127 H       1  UNL1        0.0618
     33 H           1.9225   -3.0075    1.0894 H       1  UNL1        0.0620
     34 H           2.1768   -1.2100    2.6238 H       1  UNL1        0.0377
     35 H           0.7504   -0.1920    2.9389 H       1  UNL1        0.0377
     36 H           1.4659    3.6765    0.9412 H       1  UNL1        0.1921
     37 H           3.5819   -1.6050    1.2759 H       1  UNL1        0.0314
     38 H           5.0052   -0.6343    1.3257 H       1  UNL1        0.0314
     39 H           3.3450   -1.1658   -1.1452 H       1  UNL1        0.0268
     40 H           4.8767   -1.9469   -0.7611 H       1  UNL1        0.0268
     41 H           4.5723    0.2930   -2.2615 H       1  UNL1        0.0269
     42 H           6.0536   -0.2497   -1.4822 H       1  UNL1        0.0269
     43 H           5.8147    1.1843    0.2742 H       1  UNL1        0.0315
     44 H           5.2259    2.1284   -1.1136 H       1  UNL1        0.0315
     45 H          -0.9405    0.0273    1.3135 H       1  UNL1        0.0639
     46 H          -5.1119   -1.0892   -1.6322 H       1  UNL1        0.0654
     47 H          -8.1520    1.7333   -1.5434 H       1  UNL1        0.0675
     48 H          -4.6104    2.3818    0.5506 H       1  UNL1        0.0654
@<TRIPOS>BOND
     1     1     2    2
     2     2     3   am
     3     2    22    1
     4     3     4    1
     5     4     5   ar
     6     4    21   ar
     7     5     6   ar
     8     6     7   ar
     9     7     8   ar
    10     8     9    1
    11     8    21   ar
    12     9    10    1
    13    10    11   ar
    14    10    16   ar
    15    11    12   ar
    16    12    13   ar
    17    13    14    2
    18    13    15   ar
    19    15    16   ar
    20    15    20    1
    21    16    17    1
    22    17    18    1
    23    18    19    1
    24    19    20    1
    25    22    23   ar
    26    22    29   ar
    27    23    24   ar
    28    24    25    1
    29    24    26   ar
    30    26    27   ar
    31    27    28    1
    32    27    29   ar
    33     3    30    1
    34     5    31    1
    35     6    32    1
    36     7    33    1
    37     9    34    1
    38     9    35    1
    39    12    36    1
    40    17    37    1
    41    17    38    1
    42    18    39    1
    43    18    40    1
    44    19    41    1
    45    19    42    1
    46    20    43    1
    47    20    44    1
    48    21    45    1
    49    23    46    1
    50    26    47    1
    51    29    48    1
