@<TRIPOS>MOLECULE
../data/bude_mols_rdkit_confs/molecule_67.pdb
 38 40 0 0 0
SMALL
GASTEIGER

@<TRIPOS>ATOM
      1  O1        -0.4450    0.7870    1.7420 O.2     1  UNL1       -0.2917
      2  C1         0.2660    0.1570    0.9310 C.2     1  UNL1        0.1678
      3  C2        -0.3080   -1.0340    0.2630 C.3     1  UNL1        0.0362
      4  C3        -1.6910   -1.2970    0.6770 C.ar    1  UNL1       -0.0322
      5  C4        -1.9790   -2.3200    1.5650 C.ar    1  UNL1       -0.0576
      6  C5        -3.2580   -2.5760    1.9580 C.ar    1  UNL1       -0.0609
      7  C6        -4.2600   -1.7830    1.4420 C.ar    1  UNL1       -0.0540
      8  C7        -3.9960   -0.7450    0.5440 C.ar    1  UNL1       -0.0176
      9  C8        -5.0680    0.0090    0.0700 C.ar    1  UNL1       -0.0540
     10  C9        -4.7730    1.0370   -0.8240 C.ar    1  UNL1       -0.0612
     11  C10       -3.4820    1.2810   -1.2080 C.ar    1  UNL1       -0.0612
     12  C11       -2.4230    0.5200   -0.7260 C.ar    1  UNL1       -0.0538
     13  C12       -2.7020   -0.5090    0.1660 C.ar    1  UNL1       -0.0143
     14  C13        1.6300    0.5630    0.6310 C.ar    1  UNL1        0.0276
     15  C14        2.2070    1.6770    1.2440 C.ar    1  UNL1       -0.0056
     16  C15        3.4990    2.0570    0.9530 C.ar    1  UNL1        0.1656
     17  O2         4.1090    3.1450    1.5320 O.3     1  UNL1       -0.5031
     18  C16        4.2260    1.3020    0.0280 C.ar    1  UNL1        0.2293
     19  O3         5.5190    1.6380   -0.2970 O.3     1  UNL1       -0.4990
     20  C17        3.6660    0.1930   -0.5880 C.ar    1  UNL1        0.2363
     21  N1         4.3720   -0.5920   -1.5260 N.3     1  UNL1       -0.2394
     22  O4         5.4860   -1.1490   -1.0010 O.co2   1  UNL1       -0.5715
     23  F1         4.6790    0.2130   -2.5910 F       1  UNL1        0.0273
     24  C18        2.3790   -0.1550   -0.2760 C.ar    1  UNL1        0.0224
     25 H           0.2913   -1.8864    0.5064 H       1  UNL1        0.0394
     26 H          -0.3136   -0.8456   -0.7903 H       1  UNL1        0.0394
     27 H          -1.2099   -2.8995    1.9361 H       1  UNL1        0.0621
     28 H          -3.4696   -3.3386    2.6203 H       1  UNL1        0.0618
     29 H          -5.2356   -1.9611    1.7275 H       1  UNL1        0.0624
     30 H          -6.0369   -0.1851    0.3676 H       1  UNL1        0.0624
     31 H          -5.5364    1.6206   -1.2005 H       1  UNL1        0.0618
     32 H          -3.2902    2.0481   -1.8711 H       1  UNL1        0.0618
     33 H          -1.4539    0.7142   -1.0230 H       1  UNL1        0.0624
     34 H           1.6575    2.2239    1.9252 H       1  UNL1        0.0662
     35 H           3.6428    3.6670    2.1550 H       1  UNL1        0.2923
     36 H           5.9243    2.3822    0.1029 H       1  UNL1        0.2925
     37 H           5.0435   -1.2842   -1.7239 H       1  UNL1        0.4312
     38 H           1.9577   -0.9787   -0.7332 H       1  UNL1        0.0691
@<TRIPOS>UNITY_ATOM_ATTR
21 1
charge 1
22 1
charge -1
@<TRIPOS>BOND
     1     1     2    2
     2     2     3    1
     3     2    14    1
     4     3     4    1
     5     4     5   ar
     6     4    13   ar
     7     5     6   ar
     8     6     7   ar
     9     7     8   ar
    10     8     9   ar
    11     8    13   ar
    12     9    10   ar
    13    10    11   ar
    14    11    12   ar
    15    12    13   ar
    16    14    15   ar
    17    14    24   ar
    18    15    16   ar
    19    16    17    1
    20    16    18   ar
    21    18    19    1
    22    18    20   ar
    23    20    21    1
    24    20    24   ar
    25    21    22    1
    26    21    23    1
    27     3    25    1
    28     3    26    1
    29     5    27    1
    30     6    28    1
    31     7    29    1
    32     9    30    1
    33    10    31    1
    34    11    32    1
    35    12    33    1
    36    15    34    1
    37    17    35    1
    38    19    36    1
    39    21    37    1
    40    24    38    1
@<TRIPOS>MOLECULE
../data/bude_mols_rdkit_confs/molecule_67.pdb
 38 40 0 0 0
SMALL
GASTEIGER

@<TRIPOS>ATOM
      1  O1         0.2700   -1.4370   -0.5910 O.2     1  UNL1       -0.2917
      2  C1        -0.2810   -0.6240    0.1860 C.2     1  UNL1        0.1678
      3  C2         0.5040    0.0380    1.2540 C.3     1  UNL1        0.0362
      4  C3         1.8770   -0.4330    1.1760 C.ar    1  UNL1       -0.0322
      5  C4         2.3470   -1.3510    2.0970 C.ar    1  UNL1       -0.0576
      6  C5         3.6330   -1.8470    2.0970 C.ar    1  UNL1       -0.0609
      7  C6         4.4880   -1.3940    1.1170 C.ar    1  UNL1       -0.0540
      8  C7         4.0450   -0.4730    0.1780 C.ar    1  UNL1       -0.0176
      9  C8         4.8800   -0.0040   -0.8140 C.ar    1  UNL1       -0.0540
     10  C9         4.4560    0.9100   -1.7560 C.ar    1  UNL1       -0.0612
     11  C10        3.1620    1.3720   -1.7090 C.ar    1  UNL1       -0.0612
     12  C11        2.2850    0.9210   -0.7180 C.ar    1  UNL1       -0.0538
     13  C12        2.7440    0.0120    0.2000 C.ar    1  UNL1       -0.0143
     14  C13       -1.7040   -0.3650   -0.0060 C.ar    1  UNL1        0.0276
     15  C14       -2.4250   -0.9780   -0.9900 C.ar    1  UNL1       -0.0056
     16  C15       -3.7680   -0.6820   -1.1090 C.ar    1  UNL1        0.1656
     17  O2        -4.4880   -1.2970   -2.0960 O.3     1  UNL1       -0.5031
     18  C16       -4.3770    0.2120   -0.2560 C.ar    1  UNL1        0.2293
     19  O3        -5.7190    0.5540   -0.3200 O.3     1  UNL1       -0.4990
     20  C17       -3.6260    0.8260    0.7410 C.ar    1  UNL1        0.2363
     21  N1        -4.2610    1.7620    1.6370 N.3     1  UNL1       -0.2394
     22  O4        -4.0290    3.0370    1.1880 O.co2   1  UNL1       -0.5715
     23  F1        -3.7310    1.6760    2.8720 F       1  UNL1        0.0273
     24  C18       -2.2950    0.5390    0.8660 C.ar    1  UNL1        0.0224
     25 H           0.0917   -0.2079    2.2103 H       1  UNL1        0.0394
     26 H           0.4728    1.1000    1.1275 H       1  UNL1        0.0394
     27 H           1.6974   -1.6840    2.8265 H       1  UNL1        0.0621
     28 H           3.9433   -2.5315    2.8042 H       1  UNL1        0.0618
     29 H           5.4596   -1.7399    1.0808 H       1  UNL1        0.0624
     30 H           5.8524   -0.3475   -0.8529 H       1  UNL1        0.0624
     31 H           5.1028    1.2433   -2.4878 H       1  UNL1        0.0618
     32 H           2.8360    2.0560   -2.4096 H       1  UNL1        0.0618
     33 H           1.3128    1.2650   -0.6783 H       1  UNL1        0.0624
     34 H          -1.9750   -1.6492   -1.6319 H       1  UNL1        0.0662
     35 H          -4.0682   -1.9042   -2.6731 H       1  UNL1        0.2923
     36 H          -6.2699    0.1692   -0.9730 H       1  UNL1        0.2925
     37 H          -4.5002    1.2399    0.8374 H       1  UNL1        0.4312
     38 H          -1.7333    0.9916    1.6040 H       1  UNL1        0.0691
@<TRIPOS>UNITY_ATOM_ATTR
21 1
charge 1
22 1
charge -1
@<TRIPOS>BOND
     1     1     2    2
     2     2     3    1
     3     2    14    1
     4     3     4    1
     5     4     5   ar
     6     4    13   ar
     7     5     6   ar
     8     6     7   ar
     9     7     8   ar
    10     8     9   ar
    11     8    13   ar
    12     9    10   ar
    13    10    11   ar
    14    11    12   ar
    15    12    13   ar
    16    14    15   ar
    17    14    24   ar
    18    15    16   ar
    19    16    17    1
    20    16    18   ar
    21    18    19    1
    22    18    20   ar
    23    20    21    1
    24    20    24   ar
    25    21    22    1
    26    21    23    1
    27     3    25    1
    28     3    26    1
    29     5    27    1
    30     6    28    1
    31     7    29    1
    32     9    30    1
    33    10    31    1
    34    11    32    1
    35    12    33    1
    36    15    34    1
    37    17    35    1
    38    19    36    1
    39    21    37    1
    40    24    38    1
@<TRIPOS>MOLECULE
../data/bude_mols_rdkit_confs/molecule_67.pdb
 38 40 0 0 0
SMALL
GASTEIGER

@<TRIPOS>ATOM
      1  O1        -0.0880   -0.9750   -1.1390 O.2     1  UNL1       -0.2917
      2  C1         0.2910   -0.5240   -0.0320 C.2     1  UNL1        0.1678
      3  C2        -0.6520   -0.4160    1.1060 C.3     1  UNL1        0.0362
      4  C3        -2.0030   -0.9060    0.7020 C.ar    1  UNL1       -0.0322
      5  C4        -2.4500   -2.1330    1.1100 C.ar    1  UNL1       -0.0576
      6  C5        -3.7060   -2.5380    0.7090 C.ar    1  UNL1       -0.0609
      7  C6        -4.5070   -1.7420   -0.0830 C.ar    1  UNL1       -0.0540
      8  C7        -4.0470   -0.4950   -0.4940 C.ar    1  UNL1       -0.0176
      9  C8        -4.8540    0.2970   -1.2860 C.ar    1  UNL1       -0.0540
     10  C9        -4.3920    1.5310   -1.6910 C.ar    1  UNL1       -0.0612
     11  C10       -3.1390    1.9250   -1.2850 C.ar    1  UNL1       -0.0612
     12  C11       -2.3160    1.1440   -0.4910 C.ar    1  UNL1       -0.0538
     13  C12       -2.7830   -0.0880   -0.0900 C.ar    1  UNL1       -0.0143
     14  C13        1.6800   -0.1110    0.0960 C.ar    1  UNL1        0.0276
     15  C14        2.1220    0.3880    1.2990 C.ar    1  UNL1       -0.0056
     16  C15        3.4440    0.7910    1.4550 C.ar    1  UNL1        0.1656
     17  O2         3.8360    1.2840    2.6830 O.3     1  UNL1       -0.5031
     18  C16        4.3280    0.6960    0.4080 C.ar    1  UNL1        0.2293
     19  O3         5.6550    1.1000    0.5600 O.3     1  UNL1       -0.4990
     20  C17        3.9100    0.1990   -0.8110 C.ar    1  UNL1        0.2363
     21  N1         4.8300    0.1030   -1.8930 N.3     1  UNL1       -0.2394
     22  O4         4.9670    1.3400   -2.4270 O.co2   1  UNL1       -0.5715
     23  F1         4.2340   -0.6830   -2.8380 F       1  UNL1        0.0273
     24  C18        2.5870   -0.1920   -0.9280 C.ar    1  UNL1        0.0224
     25 H          -0.7233    0.6073    1.4105 H       1  UNL1        0.0394
     26 H          -0.2913   -1.0133    1.9172 H       1  UNL1        0.0394
     27 H          -1.8624   -2.7400    1.7027 H       1  UNL1        0.0621
     28 H          -4.0558   -3.4612    1.0096 H       1  UNL1        0.0618
     29 H          -5.4428   -2.0698   -0.3692 H       1  UNL1        0.0624
     30 H          -5.7903   -0.0303   -1.5710 H       1  UNL1        0.0624
     31 H          -4.9725    2.1441   -2.2845 H       1  UNL1        0.0618
     32 H          -2.7943    2.8496   -1.5872 H       1  UNL1        0.0618
     33 H          -1.3805    1.4753   -0.2082 H       1  UNL1        0.0624
     34 H           1.4670    0.4641    2.0929 H       1  UNL1        0.0662
     35 H           3.2172    1.3405    3.3844 H       1  UNL1        0.2923
     36 H           5.9503    1.4388    1.3822 H       1  UNL1        0.2925
     37 H           4.2855    0.6178   -2.5315 H       1  UNL1        0.4312
     38 H           2.2666   -0.5646   -1.8355 H       1  UNL1        0.0691
@<TRIPOS>UNITY_ATOM_ATTR
21 1
charge 1
22 1
charge -1
@<TRIPOS>BOND
     1     1     2    2
     2     2     3    1
     3     2    14    1
     4     3     4    1
     5     4     5   ar
     6     4    13   ar
     7     5     6   ar
     8     6     7   ar
     9     7     8   ar
    10     8     9   ar
    11     8    13   ar
    12     9    10   ar
    13    10    11   ar
    14    11    12   ar
    15    12    13   ar
    16    14    15   ar
    17    14    24   ar
    18    15    16   ar
    19    16    17    1
    20    16    18   ar
    21    18    19    1
    22    18    20   ar
    23    20    21    1
    24    20    24   ar
    25    21    22    1
    26    21    23    1
    27     3    25    1
    28     3    26    1
    29     5    27    1
    30     6    28    1
    31     7    29    1
    32     9    30    1
    33    10    31    1
    34    11    32    1
    35    12    33    1
    36    15    34    1
    37    17    35    1
    38    19    36    1
    39    21    37    1
    40    24    38    1
@<TRIPOS>MOLECULE
../data/bude_mols_rdkit_confs/molecule_67.pdb
 38 40 0 0 0
SMALL
GASTEIGER

@<TRIPOS>ATOM
      1  O1        -0.2630    1.0780    0.8730 O.2     1  UNL1       -0.2917
      2  C1         0.2270   -0.0210    0.5230 C.2     1  UNL1        0.1678
      3  C2        -0.6260   -1.2240    0.4070 C.3     1  UNL1        0.0362
      4  C3        -2.0180   -0.8330    0.7570 C.ar    1  UNL1       -0.0322
      5  C4        -2.5250   -1.1750    1.9920 C.ar    1  UNL1       -0.0576
      6  C5        -3.8080   -0.8200    2.3500 C.ar    1  UNL1       -0.0609
      7  C6        -4.5720   -0.1130    1.4390 C.ar    1  UNL1       -0.0540
      8  C7        -4.0690    0.2290    0.2040 C.ar    1  UNL1       -0.0176
      9  C8        -4.8150    0.9360   -0.7270 C.ar    1  UNL1       -0.0540
     10  C9        -4.2670    1.2550   -1.9510 C.ar    1  UNL1       -0.0612
     11  C10       -2.9780    0.8890   -2.2880 C.ar    1  UNL1       -0.0612
     12  C11       -2.2340    0.1910   -1.3780 C.ar    1  UNL1       -0.0538
     13  C12       -2.7880   -0.1290   -0.1440 C.ar    1  UNL1       -0.0143
     14  C13        1.6350   -0.1360    0.2250 C.ar    1  UNL1        0.0276
     15  C14        2.1950   -1.3360   -0.1660 C.ar    1  UNL1       -0.0056
     16  C15        3.5520   -1.4340   -0.4520 C.ar    1  UNL1        0.1656
     17  O2         4.1250   -2.6350   -0.8460 O.3     1  UNL1       -0.5031
     18  C16        4.3820   -0.3260   -0.3510 C.ar    1  UNL1        0.2293
     19  O3         5.7030   -0.4610   -0.6390 O.3     1  UNL1       -0.4990
     20  C17        3.7960    0.8530    0.0400 C.ar    1  UNL1        0.2363
     21  N1         4.5960    2.0200    0.1610 N.3     1  UNL1       -0.2394
     22  O4         4.2610    2.5840    1.3550 O.co2   1  UNL1       -0.5715
     23  F1         4.1700    2.8660   -0.8250 F       1  UNL1        0.0273
     24  C18        2.4560    0.9690    0.3270 C.ar    1  UNL1        0.0224
     25 H          -0.2808   -1.9807    1.0801 H       1  UNL1        0.0394
     26 H          -0.5875   -1.6136   -0.5888 H       1  UNL1        0.0394
     27 H          -1.9375   -1.7028    2.6563 H       1  UNL1        0.0621
     28 H          -4.1890   -1.0753    3.2745 H       1  UNL1        0.0618
     29 H          -5.5346    0.1625    1.6892 H       1  UNL1        0.0624
     30 H          -5.7806    1.2234   -0.5034 H       1  UNL1        0.0624
     31 H          -4.8346    1.7811   -2.6337 H       1  UNL1        0.0618
     32 H          -2.5844    1.1378   -3.2090 H       1  UNL1        0.0618
     33 H          -1.2691   -0.0959   -1.6053 H       1  UNL1        0.0624
     34 H           1.5970   -2.1731   -0.2472 H       1  UNL1        0.0662
     35 H           3.5947   -3.4035   -0.9248 H       1  UNL1        0.2923
     36 H           6.0427   -1.2941   -0.9008 H       1  UNL1        0.2925
     37 H           4.6266    1.1407    0.6028 H       1  UNL1        0.4312
     38 H           2.0656    1.8790    0.6176 H       1  UNL1        0.0691
@<TRIPOS>UNITY_ATOM_ATTR
21 1
charge 1
22 1
charge -1
@<TRIPOS>BOND
     1     1     2    2
     2     2     3    1
     3     2    14    1
     4     3     4    1
     5     4     5   ar
     6     4    13   ar
     7     5     6   ar
     8     6     7   ar
     9     7     8   ar
    10     8     9   ar
    11     8    13   ar
    12     9    10   ar
    13    10    11   ar
    14    11    12   ar
    15    12    13   ar
    16    14    15   ar
    17    14    24   ar
    18    15    16   ar
    19    16    17    1
    20    16    18   ar
    21    18    19    1
    22    18    20   ar
    23    20    21    1
    24    20    24   ar
    25    21    22    1
    26    21    23    1
    27     3    25    1
    28     3    26    1
    29     5    27    1
    30     6    28    1
    31     7    29    1
    32     9    30    1
    33    10    31    1
    34    11    32    1
    35    12    33    1
    36    15    34    1
    37    17    35    1
    38    19    36    1
    39    21    37    1
    40    24    38    1
@<TRIPOS>MOLECULE
../data/bude_mols_rdkit_confs/molecule_67.pdb
 38 40 0 0 0
SMALL
GASTEIGER

@<TRIPOS>ATOM
      1  O1        -0.0830    0.6330   -1.2620 O.2     1  UNL1       -0.2917
      2  C1         0.3360    0.4620   -0.0930 C.2     1  UNL1        0.1678
      3  C2        -0.5990    0.6590    1.0380 C.3     1  UNL1        0.0362
      4  C3        -1.9010    1.0110    0.5530 C.ar    1  UNL1       -0.0322
      5  C4        -2.3060    2.3310    0.6010 C.ar    1  UNL1       -0.0576
      6  C5        -3.5400    2.7590    0.1540 C.ar    1  UNL1       -0.0609
      7  C6        -4.4250    1.8480   -0.3680 C.ar    1  UNL1       -0.0540
      8  C7        -4.0660    0.5250   -0.4350 C.ar    1  UNL1       -0.0176
      9  C8        -4.9440   -0.4250   -0.9540 C.ar    1  UNL1       -0.0540
     10  C9        -4.5700   -1.7690   -1.0120 C.ar    1  UNL1       -0.0612
     11  C10       -3.3390   -2.1780   -0.5630 C.ar    1  UNL1       -0.0612
     12  C11       -2.4890   -1.2120   -0.0530 C.ar    1  UNL1       -0.0538
     13  C12       -2.8320    0.1220    0.0160 C.ar    1  UNL1       -0.0143
     14  C13        1.7420    0.0750    0.1220 C.ar    1  UNL1        0.0276
     15  C14        2.2130   -0.1430    1.3980 C.ar    1  UNL1       -0.0056
     16  C15        3.5370   -0.5070    1.6130 C.ar    1  UNL1        0.1656
     17  O2         4.0220   -0.7290    2.8950 O.3     1  UNL1       -0.5031
     18  C16        4.4190   -0.6590    0.5350 C.ar    1  UNL1        0.2293
     19  O3         5.7230   -1.0210    0.8140 O.3     1  UNL1       -0.4990
     20  C17        3.9460   -0.4410   -0.7370 C.ar    1  UNL1        0.2363
     21  N1         4.8300   -0.5910   -1.8380 N.3     1  UNL1       -0.2394
     22  O4         5.2910   -1.8640   -1.8150 O.co2   1  UNL1       -0.5715
     23  F1         5.8140    0.3300   -1.8180 F       1  UNL1        0.0273
     24  C18        2.6190   -0.0790   -0.9200 C.ar    1  UNL1        0.0224
     25 H          -0.2325    1.4439    1.6661 H       1  UNL1        0.0394
     26 H          -0.6698   -0.2529    1.5933 H       1  UNL1        0.0394
     27 H          -1.6547    3.0308    0.9897 H       1  UNL1        0.0621
     28 H          -3.7957    3.7571    0.2118 H       1  UNL1        0.0618
     29 H          -5.3504    2.1549   -0.7064 H       1  UNL1        0.0624
     30 H          -5.8731   -0.1342   -1.2964 H       1  UNL1        0.0624
     31 H          -5.2280   -2.4643   -1.3976 H       1  UNL1        0.0618
     32 H          -3.0574   -3.1700   -0.6042 H       1  UNL1        0.0618
     33 H          -1.5599   -1.5021    0.2899 H       1  UNL1        0.0624
     34 H           1.5761   -0.0349    2.2028 H       1  UNL1        0.0662
     35 H           3.4536   -0.6343    3.6339 H       1  UNL1        0.2923
     36 H           5.9918   -1.1571    1.7012 H       1  UNL1        0.2925
     37 H           3.9399   -0.9261   -2.0923 H       1  UNL1        0.4312
     38 H           2.2781    0.0810   -1.8809 H       1  UNL1        0.0691
@<TRIPOS>UNITY_ATOM_ATTR
21 1
charge 1
22 1
charge -1
@<TRIPOS>BOND
     1     1     2    2
     2     2     3    1
     3     2    14    1
     4     3     4    1
     5     4     5   ar
     6     4    13   ar
     7     5     6   ar
     8     6     7   ar
     9     7     8   ar
    10     8     9   ar
    11     8    13   ar
    12     9    10   ar
    13    10    11   ar
    14    11    12   ar
    15    12    13   ar
    16    14    15   ar
    17    14    24   ar
    18    15    16   ar
    19    16    17    1
    20    16    18   ar
    21    18    19    1
    22    18    20   ar
    23    20    21    1
    24    20    24   ar
    25    21    22    1
    26    21    23    1
    27     3    25    1
    28     3    26    1
    29     5    27    1
    30     6    28    1
    31     7    29    1
    32     9    30    1
    33    10    31    1
    34    11    32    1
    35    12    33    1
    36    15    34    1
    37    17    35    1
    38    19    36    1
    39    21    37    1
    40    24    38    1
@<TRIPOS>MOLECULE
../data/bude_mols_rdkit_confs/molecule_67.pdb
 38 40 0 0 0
SMALL
GASTEIGER

@<TRIPOS>ATOM
      1  O1        -0.2560    0.4980   -1.3630 O.2     1  UNL1       -0.2917
      2  C1         0.3030   -0.2400   -0.5150 C.2     1  UNL1        0.1678
      3  C2        -0.4860   -1.2980    0.1700 C.3     1  UNL1        0.0362
      4  C3        -1.8620   -1.2540   -0.3300 C.ar    1  UNL1       -0.0322
      5  C4        -2.2810   -2.2270   -1.2130 C.ar    1  UNL1       -0.0576
      6  C5        -3.5670   -2.2030   -1.6870 C.ar    1  UNL1       -0.0609
      7  C6        -4.4390   -1.2140   -1.2850 C.ar    1  UNL1       -0.0540
      8  C7        -3.9920   -0.2490   -0.3970 C.ar    1  UNL1       -0.0176
      9  C8        -4.8340    0.7550    0.0250 C.ar    1  UNL1       -0.0540
     10  C9        -4.4270    1.7190    0.8950 C.ar    1  UNL1       -0.0612
     11  C10       -3.1210    1.6840    1.3670 C.ar    1  UNL1       -0.0612
     12  C11       -2.2420    0.7030    0.9760 C.ar    1  UNL1       -0.0538
     13  C12       -2.6960   -0.2450    0.1010 C.ar    1  UNL1       -0.0143
     14  C13        1.7110   -0.0290   -0.2360 C.ar    1  UNL1        0.0276
     15  C14        2.3150   -0.8560    0.7030 C.ar    1  UNL1       -0.0056
     16  C15        3.6330   -0.7120    1.0130 C.ar    1  UNL1        0.1656
     17  O2         4.2610   -1.5220    1.9440 O.3     1  UNL1       -0.5031
     18  C16        4.3570    0.2830    0.3650 C.ar    1  UNL1        0.2293
     19  O3         5.6810    0.4190    0.6850 O.3     1  UNL1       -0.4990
     20  C17        3.7570    1.0990   -0.5620 C.ar    1  UNL1        0.2363
     21  N1         4.4960    2.1100   -1.2180 N.3     1  UNL1       -0.2394
     22  O4         3.6530    3.0740   -1.6580 O.co2   1  UNL1       -0.5715
     23  F1         5.1290    1.5230   -2.2740 F       1  UNL1        0.0273
     24  C18        2.4100    0.9570   -0.8820 C.ar    1  UNL1        0.0224
     25 H          -0.4807   -1.1247    1.2259 H       1  UNL1        0.0394
     26 H          -0.0568   -2.2583   -0.0264 H       1  UNL1        0.0394
     27 H          -1.6302   -2.9688   -1.5151 H       1  UNL1        0.0621
     28 H          -3.8840   -2.9291   -2.3483 H       1  UNL1        0.0618
     29 H          -5.4080   -1.1927   -1.6393 H       1  UNL1        0.0624
     30 H          -5.8031    0.7773   -0.3291 H       1  UNL1        0.0624
     31 H          -5.0761    2.4618    1.1983 H       1  UNL1        0.0618
     32 H          -2.8037    2.4116    2.0265 H       1  UNL1        0.0618
     33 H          -1.2729    0.6822    1.3303 H       1  UNL1        0.0624
     34 H           1.7581   -1.5880    1.1710 H       1  UNL1        0.0662
     35 H           3.7770   -2.1936    2.3829 H       1  UNL1        0.2923
     36 H           6.0701   -0.1489    1.3207 H       1  UNL1        0.2925
     37 H           3.6055    1.7377   -1.0240 H       1  UNL1        0.4312
     38 H           1.9559    1.5694   -1.5776 H       1  UNL1        0.0691
@<TRIPOS>UNITY_ATOM_ATTR
21 1
charge 1
22 1
charge -1
@<TRIPOS>BOND
     1     1     2    2
     2     2     3    1
     3     2    14    1
     4     3     4    1
     5     4     5   ar
     6     4    13   ar
     7     5     6   ar
     8     6     7   ar
     9     7     8   ar
    10     8     9   ar
    11     8    13   ar
    12     9    10   ar
    13    10    11   ar
    14    11    12   ar
    15    12    13   ar
    16    14    15   ar
    17    14    24   ar
    18    15    16   ar
    19    16    17    1
    20    16    18   ar
    21    18    19    1
    22    18    20   ar
    23    20    21    1
    24    20    24   ar
    25    21    22    1
    26    21    23    1
    27     3    25    1
    28     3    26    1
    29     5    27    1
    30     6    28    1
    31     7    29    1
    32     9    30    1
    33    10    31    1
    34    11    32    1
    35    12    33    1
    36    15    34    1
    37    17    35    1
    38    19    36    1
    39    21    37    1
    40    24    38    1
@<TRIPOS>MOLECULE
../data/bude_mols_rdkit_confs/molecule_67.pdb
 38 40 0 0 0
SMALL
GASTEIGER

@<TRIPOS>ATOM
      1  O1        -0.3070   -1.4120   -1.0390 O.2     1  UNL1       -0.2917
      2  C1         0.2900   -0.4030   -0.6240 C.2     1  UNL1        0.1678
      3  C2        -0.4580    0.8700   -0.4750 C.3     1  UNL1        0.0362
      4  C3        -1.8690    0.7460   -0.8570 C.ar    1  UNL1       -0.0322
      5  C4        -2.2990    1.2580   -2.0790 C.ar    1  UNL1       -0.0576
      6  C5        -3.6090    1.1570   -2.4610 C.ar    1  UNL1       -0.0609
      7  C6        -4.4850    0.5390   -1.6100 C.ar    1  UNL1       -0.0540
      8  C7        -4.0840    0.0180   -0.3820 C.ar    1  UNL1       -0.0176
      9  C8        -4.9960   -0.6010    0.4550 C.ar    1  UNL1       -0.0540
     10  C9        -4.5900   -1.1160    1.6710 C.ar    1  UNL1       -0.0612
     11  C10       -3.2790   -1.0210    2.0670 C.ar    1  UNL1       -0.0612
     12  C11       -2.3900   -0.4010    1.2160 C.ar    1  UNL1       -0.0538
     13  C12       -2.7580    0.1220   -0.0010 C.ar    1  UNL1       -0.0143
     14  C13        1.7120   -0.4040   -0.2700 C.ar    1  UNL1        0.0276
     15  C14        2.4320   -1.5710   -0.4000 C.ar    1  UNL1       -0.0056
     16  C15        3.7790   -1.6010   -0.0710 C.ar    1  UNL1        0.1656
     17  O2         4.4230   -2.8130   -0.2330 O.3     1  UNL1       -0.5031
     18  C16        4.4090   -0.4570    0.3900 C.ar    1  UNL1        0.2293
     19  O3         5.7490   -0.4940    0.7150 O.3     1  UNL1       -0.4990
     20  C17        3.6910    0.7380    0.5290 C.ar    1  UNL1        0.2363
     21  N1         4.3520    1.9030    1.0040 N.3     1  UNL1       -0.2394
     22  O4         5.2290    1.6170    1.9920 O.co2   1  UNL1       -0.5715
     23  F1         3.4800    2.8030    1.5030 F       1  UNL1        0.0273
     24  C18        2.3620    0.7020    0.1870 C.ar    1  UNL1        0.0224
     25 H           0.0007    1.6112   -1.0956 H       1  UNL1        0.0394
     26 H          -0.4261    1.1443    0.5587 H       1  UNL1        0.0394
     27 H          -1.6204    1.7197   -2.7046 H       1  UNL1        0.0621
     28 H          -3.9279    1.5365   -3.3662 H       1  UNL1        0.0618
     29 H          -5.4756    0.4563   -1.8874 H       1  UNL1        0.0624
     30 H          -5.9846   -0.6783    0.1693 H       1  UNL1        0.0624
     31 H          -5.2783   -1.5762    2.2870 H       1  UNL1        0.0618
     32 H          -2.9687   -1.4023    2.9744 H       1  UNL1        0.0618
     33 H          -1.4023   -0.3258    1.5056 H       1  UNL1        0.0624
     34 H           1.9675   -2.4261   -0.7435 H       1  UNL1        0.0662
     35 H           3.9489   -3.5569   -0.5488 H       1  UNL1        0.2923
     36 H           6.2315   -1.2919    0.6230 H       1  UNL1        0.2925
     37 H           4.1594    1.8764    1.9691 H       1  UNL1        0.4312
     38 H           1.8177    1.5735    0.2829 H       1  UNL1        0.0691
@<TRIPOS>UNITY_ATOM_ATTR
21 1
charge 1
22 1
charge -1
@<TRIPOS>BOND
     1     1     2    2
     2     2     3    1
     3     2    14    1
     4     3     4    1
     5     4     5   ar
     6     4    13   ar
     7     5     6   ar
     8     6     7   ar
     9     7     8   ar
    10     8     9   ar
    11     8    13   ar
    12     9    10   ar
    13    10    11   ar
    14    11    12   ar
    15    12    13   ar
    16    14    15   ar
    17    14    24   ar
    18    15    16   ar
    19    16    17    1
    20    16    18   ar
    21    18    19    1
    22    18    20   ar
    23    20    21    1
    24    20    24   ar
    25    21    22    1
    26    21    23    1
    27     3    25    1
    28     3    26    1
    29     5    27    1
    30     6    28    1
    31     7    29    1
    32     9    30    1
    33    10    31    1
    34    11    32    1
    35    12    33    1
    36    15    34    1
    37    17    35    1
    38    19    36    1
    39    21    37    1
    40    24    38    1
@<TRIPOS>MOLECULE
../data/bude_mols_rdkit_confs/molecule_67.pdb
 38 40 0 0 0
SMALL
GASTEIGER

@<TRIPOS>ATOM
      1  O1         0.0850    1.7080   -0.0070 O.2     1  UNL1       -0.2917
      2  C1        -0.3070    0.6660   -0.5820 C.2     1  UNL1        0.1678
      3  C2         0.6270   -0.1000   -1.4160 C.3     1  UNL1        0.0362
      4  C3         1.7320   -0.5940   -0.5890 C.ar    1  UNL1       -0.0322
      5  C4         1.6200   -1.8690   -0.0430 C.ar    1  UNL1       -0.0576
      6  C5         2.5910   -2.3940    0.7930 C.ar    1  UNL1       -0.0609
      7  C6         3.7140   -1.6590    1.1140 C.ar    1  UNL1       -0.0540
      8  C7         3.8360   -0.3960    0.5790 C.ar    1  UNL1       -0.0176
      9  C8         4.9640    0.3230    0.8850 C.ar    1  UNL1       -0.0540
     10  C9         5.1160    1.5840    0.3420 C.ar    1  UNL1       -0.0612
     11  C10        4.1540    2.1270   -0.4990 C.ar    1  UNL1       -0.0612
     12  C11        3.0270    1.3730   -0.7870 C.ar    1  UNL1       -0.0538
     13  C12        2.8470    0.1210   -0.2640 C.ar    1  UNL1       -0.0143
     14  C13       -1.7180    0.2790   -0.3670 C.ar    1  UNL1        0.0276
     15  C14       -2.2810   -0.8610   -0.8890 C.ar    1  UNL1       -0.0056
     16  C15       -3.6290   -1.1730   -0.6520 C.ar    1  UNL1        0.1656
     17  O2        -4.1770   -2.3280   -1.1880 O.3     1  UNL1       -0.5031
     18  C16       -4.4400   -0.3610    0.1050 C.ar    1  UNL1        0.2293
     19  O3        -5.7780   -0.6570    0.3500 O.3     1  UNL1       -0.4990
     20  C17       -3.8800    0.7810    0.6280 C.ar    1  UNL1        0.2363
     21  N1        -4.6620    1.6800    1.4250 N.3     1  UNL1       -0.2394
     22  O4        -4.4650    2.9240    0.8930 O.co2   1  UNL1       -0.5715
     23  F1        -4.1590    1.6730    2.6570 F       1  UNL1        0.0273
     24  C18       -2.5500    1.0880    0.3940 C.ar    1  UNL1        0.0224
     25 H           1.0146    0.5309   -2.1884 H       1  UNL1        0.0394
     26 H           0.1133   -0.9294   -1.8555 H       1  UNL1        0.0394
     27 H           0.7898   -2.4394   -0.2675 H       1  UNL1        0.0621
     28 H           2.4738   -3.3437    1.1796 H       1  UNL1        0.0618
     29 H           4.4410   -2.0446    1.7367 H       1  UNL1        0.0624
     30 H           5.6853   -0.0710    1.5091 H       1  UNL1        0.0624
     31 H           5.9608    2.1330    0.5657 H       1  UNL1        0.0618
     32 H           4.2751    3.0700   -0.9004 H       1  UNL1        0.0618
     33 H           2.3054    1.7656   -1.4116 H       1  UNL1        0.0624
     34 H          -1.7049   -1.4963   -1.4630 H       1  UNL1        0.0662
     35 H          -3.6476   -2.9001   -1.7080 H       1  UNL1        0.2923
     36 H          -6.1586   -1.4353   -0.0068 H       1  UNL1        0.2925
     37 H          -5.0536    0.8417    1.0887 H       1  UNL1        0.4312
     38 H          -2.1621    1.9530    0.8019 H       1  UNL1        0.0691
@<TRIPOS>UNITY_ATOM_ATTR
21 1
charge 1
22 1
charge -1
@<TRIPOS>BOND
     1     1     2    2
     2     2     3    1
     3     2    14    1
     4     3     4    1
     5     4     5   ar
     6     4    13   ar
     7     5     6   ar
     8     6     7   ar
     9     7     8   ar
    10     8     9   ar
    11     8    13   ar
    12     9    10   ar
    13    10    11   ar
    14    11    12   ar
    15    12    13   ar
    16    14    15   ar
    17    14    24   ar
    18    15    16   ar
    19    16    17    1
    20    16    18   ar
    21    18    19    1
    22    18    20   ar
    23    20    21    1
    24    20    24   ar
    25    21    22    1
    26    21    23    1
    27     3    25    1
    28     3    26    1
    29     5    27    1
    30     6    28    1
    31     7    29    1
    32     9    30    1
    33    10    31    1
    34    11    32    1
    35    12    33    1
    36    15    34    1
    37    17    35    1
    38    19    36    1
    39    21    37    1
    40    24    38    1
@<TRIPOS>MOLECULE
../data/bude_mols_rdkit_confs/molecule_67.pdb
 38 40 0 0 0
SMALL
GASTEIGER

@<TRIPOS>ATOM
      1  O1        -0.1230   -1.3340    0.3940 O.2     1  UNL1       -0.2917
      2  C1         0.3150   -0.4360   -0.3610 C.2     1  UNL1        0.1678
      3  C2        -0.5600    0.1270   -1.3970 C.3     1  UNL1        0.0362
      4  C3        -1.8960   -0.5250   -1.3560 C.ar    1  UNL1       -0.0322
      5  C4        -2.2000   -1.4590   -2.3440 C.ar    1  UNL1       -0.0576
      6  C5        -3.4260   -2.0670   -2.3220 C.ar    1  UNL1       -0.0609
      7  C6        -4.3070   -1.7310   -1.3260 C.ar    1  UNL1       -0.0540
      8  C7        -4.0180   -0.8150   -0.3510 C.ar    1  UNL1       -0.0176
      9  C8        -4.8970   -0.4750    0.6520 C.ar    1  UNL1       -0.0540
     10  C9        -4.5620    0.4420    1.6000 C.ar    1  UNL1       -0.0612
     11  C10       -3.3420    1.0760    1.6150 C.ar    1  UNL1       -0.0612
     12  C11       -2.4530    0.7400    0.6130 C.ar    1  UNL1       -0.0538
     13  C12       -2.7780   -0.1910   -0.3590 C.ar    1  UNL1       -0.0143
     14  C13        1.6750    0.0640   -0.2350 C.ar    1  UNL1        0.0276
     15  C14        2.1730    1.0450   -1.0500 C.ar    1  UNL1       -0.0056
     16  C15        3.4690    1.5160   -0.9280 C.ar    1  UNL1        0.1656
     17  O2         3.9250    2.5100   -1.7780 O.3     1  UNL1       -0.5031
     18  C16        4.2480    0.9530    0.0570 C.ar    1  UNL1        0.2293
     19  O3         5.5520    1.3790    0.2300 O.3     1  UNL1       -0.4990
     20  C17        3.7850   -0.0390    0.9010 C.ar    1  UNL1        0.2363
     21  N1         4.6150   -0.6000    1.9090 N.3     1  UNL1       -0.2394
     22  O4         4.2510   -0.1820    3.1230 O.co2   1  UNL1       -0.5715
     23  F1         5.9140   -0.3700    1.6220 F       1  UNL1        0.0273
     24  C18        2.4880   -0.4700    0.7350 C.ar    1  UNL1        0.0224
     25 H          -0.1180   -0.0344   -2.3580 H       1  UNL1        0.0394
     26 H          -0.6792    1.1754   -1.2192 H       1  UNL1        0.0394
     27 H          -1.5131   -1.6883   -3.0793 H       1  UNL1        0.0621
     28 H          -3.6820   -2.7633   -3.0394 H       1  UNL1        0.0618
     29 H          -5.2310   -2.1903   -1.3110 H       1  UNL1        0.0624
     30 H          -5.8260   -0.9231    0.6857 H       1  UNL1        0.0624
     31 H          -5.2494    0.6701    2.3352 H       1  UNL1        0.0618
     32 H          -3.1021    1.7698    2.3404 H       1  UNL1        0.0618
     33 H          -1.5260    1.1928    0.5881 H       1  UNL1        0.0624
     34 H           1.5624    1.4463   -1.7788 H       1  UNL1        0.0662
     35 H           3.3565    2.8626   -2.4341 H       1  UNL1        0.2923
     36 H           5.9029    2.0497   -0.3223 H       1  UNL1        0.2925
     37 H           4.1832   -0.9636    1.1024 H       1  UNL1        0.4312
     38 H           2.1187   -1.2099    1.3524 H       1  UNL1        0.0691
@<TRIPOS>UNITY_ATOM_ATTR
21 1
charge 1
22 1
charge -1
@<TRIPOS>BOND
     1     1     2    2
     2     2     3    1
     3     2    14    1
     4     3     4    1
     5     4     5   ar
     6     4    13   ar
     7     5     6   ar
     8     6     7   ar
     9     7     8   ar
    10     8     9   ar
    11     8    13   ar
    12     9    10   ar
    13    10    11   ar
    14    11    12   ar
    15    12    13   ar
    16    14    15   ar
    17    14    24   ar
    18    15    16   ar
    19    16    17    1
    20    16    18   ar
    21    18    19    1
    22    18    20   ar
    23    20    21    1
    24    20    24   ar
    25    21    22    1
    26    21    23    1
    27     3    25    1
    28     3    26    1
    29     5    27    1
    30     6    28    1
    31     7    29    1
    32     9    30    1
    33    10    31    1
    34    11    32    1
    35    12    33    1
    36    15    34    1
    37    17    35    1
    38    19    36    1
    39    21    37    1
    40    24    38    1
@<TRIPOS>MOLECULE
../data/bude_mols_rdkit_confs/molecule_67.pdb
 38 40 0 0 0
SMALL
GASTEIGER

@<TRIPOS>ATOM
      1  O1        -0.3460   -0.8120   -1.4450 O.2     1  UNL1       -0.2917
      2  C1         0.2700   -0.5810   -0.3680 C.2     1  UNL1        0.1678
      3  C2        -0.3910   -0.6460    0.9400 C.3     1  UNL1        0.0362
      4  C3        -1.8280   -0.9810    0.8140 C.ar    1  UNL1       -0.0322
      5  C4        -2.2290   -2.2810    1.0980 C.ar    1  UNL1       -0.0576
      6  C5        -3.5690   -2.5940    0.9770 C.ar    1  UNL1       -0.0609
      7  C6        -4.4640   -1.6240    0.5830 C.ar    1  UNL1       -0.0540
      8  C7        -4.0870   -0.3310    0.2970 C.ar    1  UNL1       -0.0176
      9  C8        -4.9780    0.6410   -0.0940 C.ar    1  UNL1       -0.0540
     10  C9        -4.5930    1.9410   -0.3780 C.ar    1  UNL1       -0.0612
     11  C10       -3.2540    2.2560   -0.2570 C.ar    1  UNL1       -0.0612
     12  C11       -2.3530    1.2850    0.1350 C.ar    1  UNL1       -0.0538
     13  C12       -2.7530   -0.0220    0.4180 C.ar    1  UNL1       -0.0143
     14  C13        1.6820   -0.2410   -0.4570 C.ar    1  UNL1        0.0276
     15  C14        2.3460   -0.1980   -1.6610 C.ar    1  UNL1       -0.0056
     16  C15        3.7060    0.1400   -1.7280 C.ar    1  UNL1        0.1656
     17  O2         4.3170    0.1650   -2.9750 O.3     1  UNL1       -0.5031
     18  C16        4.3310    0.4210   -0.5470 C.ar    1  UNL1        0.2293
     19  O3         5.6590    0.7610   -0.5100 O.3     1  UNL1       -0.4990
     20  C17        3.6920    0.3870    0.6910 C.ar    1  UNL1        0.2363
     21  N1         4.3990    0.6950    1.8910 N.3     1  UNL1       -0.2394
     22  O4         3.7940    0.1870    2.9780 O.co2   1  UNL1       -0.5715
     23  F1         4.4720    2.0440    1.9960 F       1  UNL1        0.0273
     24  C18        2.3620    0.0530    0.7230 C.ar    1  UNL1        0.0224
     25 H          -0.2980    0.3044    1.4227 H       1  UNL1        0.0394
     26 H           0.0811   -1.4163    1.5133 H       1  UNL1        0.0394
     27 H          -1.5433   -2.9942    1.3917 H       1  UNL1        0.0621
     28 H          -3.8981   -3.5506    1.1810 H       1  UNL1        0.0618
     29 H          -5.4608   -1.8775    0.4985 H       1  UNL1        0.0624
     30 H          -5.9757    0.3913   -0.1794 H       1  UNL1        0.0624
     31 H          -5.2835    2.6501   -0.6701 H       1  UNL1        0.0618
     32 H          -2.9274    3.2139   -0.4588 H       1  UNL1        0.0618
     33 H          -1.3550    1.5332    0.2211 H       1  UNL1        0.0624
     34 H           1.8349   -0.4182   -2.5301 H       1  UNL1        0.0662
     35 H           3.8218   -0.0403   -3.7435 H       1  UNL1        0.2923
     36 H           6.1538    0.8043   -1.3045 H       1  UNL1        0.2925
     37 H           3.7343   -0.0070    2.0770 H       1  UNL1        0.4312
     38 H           1.8626    0.0193    1.6255 H       1  UNL1        0.0691
@<TRIPOS>UNITY_ATOM_ATTR
21 1
charge 1
22 1
charge -1
@<TRIPOS>BOND
     1     1     2    2
     2     2     3    1
     3     2    14    1
     4     3     4    1
     5     4     5   ar
     6     4    13   ar
     7     5     6   ar
     8     6     7   ar
     9     7     8   ar
    10     8     9   ar
    11     8    13   ar
    12     9    10   ar
    13    10    11   ar
    14    11    12   ar
    15    12    13   ar
    16    14    15   ar
    17    14    24   ar
    18    15    16   ar
    19    16    17    1
    20    16    18   ar
    21    18    19    1
    22    18    20   ar
    23    20    21    1
    24    20    24   ar
    25    21    22    1
    26    21    23    1
    27     3    25    1
    28     3    26    1
    29     5    27    1
    30     6    28    1
    31     7    29    1
    32     9    30    1
    33    10    31    1
    34    11    32    1
    35    12    33    1
    36    15    34    1
    37    17    35    1
    38    19    36    1
    39    21    37    1
    40    24    38    1
@<TRIPOS>MOLECULE
../data/bude_mols_rdkit_confs/molecule_67.pdb
 38 40 0 0 0
SMALL
GASTEIGER

@<TRIPOS>ATOM
      1  O1        -0.0340    1.3110   -0.7710 O.2     1  UNL1       -0.2917
      2  C1         0.3280    0.5540    0.1400 C.2     1  UNL1        0.1678
      3  C2        -0.6110    0.0970    1.1900 C.3     1  UNL1        0.0362
      4  C3        -1.9650    0.6190    1.0280 C.ar    1  UNL1       -0.0322
      5  C4        -2.4010    1.6420    1.8390 C.ar    1  UNL1       -0.0576
      6  C5        -3.6730    2.1590    1.7140 C.ar    1  UNL1       -0.0609
      7  C6        -4.5390    1.6570    0.7700 C.ar    1  UNL1       -0.0540
      8  C7        -4.1390    0.6370   -0.0550 C.ar    1  UNL1       -0.0176
      9  C8        -4.9840    0.1140   -1.0100 C.ar    1  UNL1       -0.0540
     10  C9        -4.5900   -0.9110   -1.8410 C.ar    1  UNL1       -0.0612
     11  C10       -3.2970   -1.4170   -1.6970 C.ar    1  UNL1       -0.0612
     12  C11       -2.4730   -0.8860   -0.7440 C.ar    1  UNL1       -0.0538
     13  C12       -2.8500    0.1350    0.0930 C.ar    1  UNL1       -0.0143
     14  C13        1.7160    0.0630    0.2310 C.ar    1  UNL1        0.0276
     15  C14        2.1290   -0.7810    1.2380 C.ar    1  UNL1       -0.0056
     16  C15        3.4170   -1.2570    1.3500 C.ar    1  UNL1        0.1656
     17  O2         3.7330   -2.1030    2.4040 O.3     1  UNL1       -0.5031
     18  C16        4.3590   -0.8830    0.4150 C.ar    1  UNL1        0.2293
     19  O3         5.6820   -1.3560    0.5060 O.3     1  UNL1       -0.4990
     20  C17        3.9550   -0.0360   -0.6020 C.ar    1  UNL1        0.2363
     21  N1         4.9510    0.3380   -1.5610 N.3     1  UNL1       -0.2394
     22  O4         4.4820    1.2860   -2.4050 O.co2   1  UNL1       -0.5715
     23  F1         5.3060   -0.7190   -2.3140 F       1  UNL1        0.0273
     24  C18        2.6630    0.4420   -0.7130 C.ar    1  UNL1        0.0224
     25 H          -0.2369    0.4151    2.1406 H       1  UNL1        0.0394
     26 H          -0.6734   -0.9685    1.1143 H       1  UNL1        0.0394
     27 H          -1.7645    2.0289    2.5533 H       1  UNL1        0.0621
     28 H          -3.9774    2.9272    2.3323 H       1  UNL1        0.0618
     29 H          -5.4900    2.0482    0.6827 H       1  UNL1        0.0624
     30 H          -5.9362    0.5004   -1.1047 H       1  UNL1        0.0624
     31 H          -5.2332   -1.2947   -2.5510 H       1  UNL1        0.0618
     32 H          -2.9666   -2.1838   -2.3035 H       1  UNL1        0.0618
     33 H          -1.5205   -1.2717   -0.6491 H       1  UNL1        0.0624
     34 H           1.4370   -1.0723    1.9461 H       1  UNL1        0.0662
     35 H           3.0746   -2.3422    3.0263 H       1  UNL1        0.2923
     36 H           5.9277   -1.9288    1.2057 H       1  UNL1        0.2925
     37 H           4.7803    0.8405   -2.3902 H       1  UNL1        0.4312
     38 H           2.4045    1.0729   -1.4877 H       1  UNL1        0.0691
@<TRIPOS>UNITY_ATOM_ATTR
21 1
charge 1
22 1
charge -1
@<TRIPOS>BOND
     1     1     2    2
     2     2     3    1
     3     2    14    1
     4     3     4    1
     5     4     5   ar
     6     4    13   ar
     7     5     6   ar
     8     6     7   ar
     9     7     8   ar
    10     8     9   ar
    11     8    13   ar
    12     9    10   ar
    13    10    11   ar
    14    11    12   ar
    15    12    13   ar
    16    14    15   ar
    17    14    24   ar
    18    15    16   ar
    19    16    17    1
    20    16    18   ar
    21    18    19    1
    22    18    20   ar
    23    20    21    1
    24    20    24   ar
    25    21    22    1
    26    21    23    1
    27     3    25    1
    28     3    26    1
    29     5    27    1
    30     6    28    1
    31     7    29    1
    32     9    30    1
    33    10    31    1
    34    11    32    1
    35    12    33    1
    36    15    34    1
    37    17    35    1
    38    19    36    1
    39    21    37    1
    40    24    38    1
@<TRIPOS>MOLECULE
../data/bude_mols_rdkit_confs/molecule_67.pdb
 38 40 0 0 0
SMALL
GASTEIGER

@<TRIPOS>ATOM
      1  O1        -0.1790    0.4960    1.1970 O.2     1  UNL1       -0.2917
      2  C1         0.2940   -0.3580    0.3780 C.2     1  UNL1        0.1678
      3  C2        -0.6330   -1.3960   -0.1450 C.3     1  UNL1        0.0362
      4  C3        -1.9680   -1.1690    0.4540 C.ar    1  UNL1       -0.0322
      5  C4        -2.4550   -1.9840    1.4600 C.ar    1  UNL1       -0.0576
      6  C5        -3.6900   -1.8170    2.0410 C.ar    1  UNL1       -0.0609
      7  C6        -4.4980   -0.7940    1.6140 C.ar    1  UNL1       -0.0540
      8  C7        -4.0550    0.0440    0.6140 C.ar    1  UNL1       -0.0176
      9  C8        -4.8700    1.0930    0.1710 C.ar    1  UNL1       -0.0540
     10  C9        -4.3890    1.9070   -0.8290 C.ar    1  UNL1       -0.0612
     11  C10       -3.1490    1.7290   -1.4020 C.ar    1  UNL1       -0.0612
     12  C11       -2.3360    0.6960   -0.9710 C.ar    1  UNL1       -0.0538
     13  C12       -2.8000   -0.1490    0.0450 C.ar    1  UNL1       -0.0143
     14  C13        1.6820   -0.2670    0.0130 C.ar    1  UNL1        0.0276
     15  C14        2.2810   -1.1440   -0.8630 C.ar    1  UNL1       -0.0056
     16  C15        3.6310   -1.0290   -1.1960 C.ar    1  UNL1        0.1656
     17  O2         4.1900   -1.9340   -2.0820 O.3     1  UNL1       -0.5031
     18  C16        4.3920   -0.0290   -0.6500 C.ar    1  UNL1        0.2293
     19  O3         5.7510    0.1070   -0.9680 O.3     1  UNL1       -0.4990
     20  C17        3.8190    0.8500    0.2200 C.ar    1  UNL1        0.2363
     21  N1         4.5160    1.9290    0.8470 N.3     1  UNL1       -0.2394
     22  O4         5.1850    1.5370    1.9390 O.co2   1  UNL1       -0.5715
     23  F1         3.6480    2.9460    1.1390 F       1  UNL1        0.0273
     24  C18        2.4660    0.7260    0.5470 C.ar    1  UNL1        0.0224
     25 H          -0.2763   -2.3684    0.1234 H       1  UNL1        0.0394
     26 H          -0.6916   -1.3353   -1.2117 H       1  UNL1        0.0394
     27 H          -1.8596   -2.7587    1.7922 H       1  UNL1        0.0621
     28 H          -4.0053   -2.4537    2.7894 H       1  UNL1        0.0618
     29 H          -5.4285   -0.6534    2.0376 H       1  UNL1        0.0624
     30 H          -5.8033    1.2509    0.5821 H       1  UNL1        0.0624
     31 H          -4.9817    2.6828   -1.1634 H       1  UNL1        0.0618
     32 H          -2.8278    2.3637   -2.1497 H       1  UNL1        0.0618
     33 H          -1.4044    0.5507   -1.3906 H       1  UNL1        0.0624
     34 H           1.7199   -1.9021   -1.2820 H       1  UNL1        0.0662
     35 H           3.6628   -2.6150   -2.4510 H       1  UNL1        0.2923
     36 H           6.1547   -0.4919   -1.5649 H       1  UNL1        0.2925
     37 H           4.7948    2.4435    0.0553 H       1  UNL1        0.4312
     38 H           2.0450    1.3983    1.2071 H       1  UNL1        0.0691
@<TRIPOS>UNITY_ATOM_ATTR
21 1
charge 1
22 1
charge -1
@<TRIPOS>BOND
     1     1     2    2
     2     2     3    1
     3     2    14    1
     4     3     4    1
     5     4     5   ar
     6     4    13   ar
     7     5     6   ar
     8     6     7   ar
     9     7     8   ar
    10     8     9   ar
    11     8    13   ar
    12     9    10   ar
    13    10    11   ar
    14    11    12   ar
    15    12    13   ar
    16    14    15   ar
    17    14    24   ar
    18    15    16   ar
    19    16    17    1
    20    16    18   ar
    21    18    19    1
    22    18    20   ar
    23    20    21    1
    24    20    24   ar
    25    21    22    1
    26    21    23    1
    27     3    25    1
    28     3    26    1
    29     5    27    1
    30     6    28    1
    31     7    29    1
    32     9    30    1
    33    10    31    1
    34    11    32    1
    35    12    33    1
    36    15    34    1
    37    17    35    1
    38    19    36    1
    39    21    37    1
    40    24    38    1
@<TRIPOS>MOLECULE
../data/bude_mols_rdkit_confs/molecule_67.pdb
 38 40 0 0 0
SMALL
GASTEIGER

@<TRIPOS>ATOM
      1  O1         0.3020   -0.8660   -1.1350 O.2     1  UNL1       -0.2917
      2  C1        -0.2800   -0.0180   -0.4180 C.2     1  UNL1        0.1678
      3  C2         0.5130    1.0620    0.2190 C.3     1  UNL1        0.0362
      4  C3         1.9200    0.9110   -0.1600 C.ar    1  UNL1       -0.0322
      5  C4         2.4310    1.7300   -1.1540 C.ar    1  UNL1       -0.0576
      6  C5         3.7300    1.6770   -1.6090 C.ar    1  UNL1       -0.0609
      7  C6         4.5590    0.7310   -1.0130 C.ar    1  UNL1       -0.0540
      8  C7         4.1000   -0.1080   -0.0200 C.ar    1  UNL1       -0.0176
      9  C8         4.9230   -1.0480    0.5780 C.ar    1  UNL1       -0.0540
     10  C9         4.4560   -1.8810    1.5740 C.ar    1  UNL1       -0.0612
     11  C10        3.1450   -1.7870    1.9930 C.ar    1  UNL1       -0.0612
     12  C11        2.3390   -0.8330    1.3750 C.ar    1  UNL1       -0.0538
     13  C12        2.7920   -0.0040    0.3890 C.ar    1  UNL1       -0.0143
     14  C13       -1.7140   -0.1010   -0.2200 C.ar    1  UNL1        0.0276
     15  C14       -2.4340   -1.1100   -0.8190 C.ar    1  UNL1       -0.0056
     16  C15       -3.7820   -1.2290   -0.6660 C.ar    1  UNL1        0.1656
     17  O2        -4.5000   -2.2640   -1.2830 O.3     1  UNL1       -0.5031
     18  C16       -4.4590   -0.3270    0.1040 C.ar    1  UNL1        0.2293
     19  O3        -5.8370   -0.4660    0.2460 O.3     1  UNL1       -0.4990
     20  C17       -3.7580    0.6900    0.7120 C.ar    1  UNL1        0.2363
     21  N1        -4.5270    1.6000    1.5060 N.3     1  UNL1       -0.2394
     22  O4        -4.6370    1.1850    2.7730 O.co2   1  UNL1       -0.5715
     23  F1        -5.7700    1.7690    0.9930 F       1  UNL1        0.0273
     24  C18       -2.4010    0.8140    0.5610 C.ar    1  UNL1        0.0224
     25 H           0.4194    0.9955    1.2828 H       1  UNL1        0.0394
     26 H           0.1520    2.0148   -0.1076 H       1  UNL1        0.0394
     27 H           1.7978    2.4242   -1.5808 H       1  UNL1        0.0621
     28 H           4.0708    2.3058   -2.3529 H       1  UNL1        0.0618
     29 H           5.5408    0.6558   -1.3218 H       1  UNL1        0.0624
     30 H           5.9055   -1.1270    0.2724 H       1  UNL1        0.0624
     31 H           5.0873   -2.5741    2.0054 H       1  UNL1        0.0618
     32 H           2.7751   -2.4001    2.7362 H       1  UNL1        0.0618
     33 H           1.3554   -0.7492    1.6760 H       1  UNL1        0.0624
     34 H          -1.9356   -1.7992   -1.4035 H       1  UNL1        0.0662
     35 H          -4.0525   -2.8922   -1.8150 H       1  UNL1        0.2923
     36 H          -6.2834   -1.1701   -0.1818 H       1  UNL1        0.2925
     37 H          -4.5472    2.5654    1.3140 H       1  UNL1        0.4312
     38 H          -1.8947    1.5837    1.0260 H       1  UNL1        0.0691
@<TRIPOS>UNITY_ATOM_ATTR
21 1
charge 1
22 1
charge -1
@<TRIPOS>BOND
     1     1     2    2
     2     2     3    1
     3     2    14    1
     4     3     4    1
     5     4     5   ar
     6     4    13   ar
     7     5     6   ar
     8     6     7   ar
     9     7     8   ar
    10     8     9   ar
    11     8    13   ar
    12     9    10   ar
    13    10    11   ar
    14    11    12   ar
    15    12    13   ar
    16    14    15   ar
    17    14    24   ar
    18    15    16   ar
    19    16    17    1
    20    16    18   ar
    21    18    19    1
    22    18    20   ar
    23    20    21    1
    24    20    24   ar
    25    21    22    1
    26    21    23    1
    27     3    25    1
    28     3    26    1
    29     5    27    1
    30     6    28    1
    31     7    29    1
    32     9    30    1
    33    10    31    1
    34    11    32    1
    35    12    33    1
    36    15    34    1
    37    17    35    1
    38    19    36    1
    39    21    37    1
    40    24    38    1
@<TRIPOS>MOLECULE
../data/bude_mols_rdkit_confs/molecule_67.pdb
 38 40 0 0 0
SMALL
GASTEIGER

@<TRIPOS>ATOM
      1  O1        -0.0300   -0.8530   -1.0640 O.2     1  UNL1       -0.2917
      2  C1        -0.3970    0.1300   -0.3760 C.2     1  UNL1        0.1678
      3  C2         0.5580    1.2490   -0.1990 C.3     1  UNL1        0.0362
      4  C3         1.8000    0.9500   -0.9070 C.ar    1  UNL1       -0.0322
      5  C4         2.0640    1.5860   -2.1010 C.ar    1  UNL1       -0.0576
      6  C5         3.2220    1.3510   -2.8220 C.ar    1  UNL1       -0.0609
      7  C6         4.1510    0.4710   -2.3670 C.ar    1  UNL1       -0.0540
      8  C7         3.9320   -0.2030   -1.1580 C.ar    1  UNL1       -0.0176
      9  C8         4.8650   -1.1010   -0.6830 C.ar    1  UNL1       -0.0540
     10  C9         4.6000   -1.7370    0.5080 C.ar    1  UNL1       -0.0612
     11  C10        3.4460   -1.5010    1.2220 C.ar    1  UNL1       -0.0612
     12  C11        2.5180   -0.6000    0.7390 C.ar    1  UNL1       -0.0538
     13  C12        2.7630    0.0500   -0.4550 C.ar    1  UNL1       -0.0143
     14  C13       -1.7300    0.1340    0.2150 C.ar    1  UNL1        0.0276
     15  C14       -2.1470    1.2010    0.9700 C.ar    1  UNL1       -0.0056
     16  C15       -3.4130    1.1870    1.5230 C.ar    1  UNL1        0.1656
     17  O2        -3.8470    2.2630    2.2900 O.3     1  UNL1       -0.5031
     18  C16       -4.2390    0.1050    1.3080 C.ar    1  UNL1        0.2293
     19  O3        -5.5000    0.1130    1.8710 O.3     1  UNL1       -0.4990
     20  C17       -3.8380   -0.9790    0.5510 C.ar    1  UNL1        0.2363
     21  N1        -4.7290   -2.0520    0.3710 N.3     1  UNL1       -0.2394
     22  O4        -5.4900   -1.7970   -0.7210 O.co2   1  UNL1       -0.5715
     23  F1        -5.5650   -2.0880    1.4260 F       1  UNL1        0.0273
     24  C18       -2.5590   -0.9440    0.0040 C.ar    1  UNL1        0.0224
     25 H           0.7645    1.3795    0.8427 H       1  UNL1        0.0394
     26 H           0.1307    2.1467   -0.5947 H       1  UNL1        0.0394
     27 H           1.3751    2.2601   -2.4699 H       1  UNL1        0.0621
     28 H           3.3807    1.8484   -3.7122 H       1  UNL1        0.0618
     29 H           5.0128    0.2997   -2.9082 H       1  UNL1        0.0624
     30 H           5.7350   -1.2900   -1.2048 H       1  UNL1        0.0624
     31 H           5.2874   -2.4120    0.8779 H       1  UNL1        0.0618
     32 H           3.2761   -1.9945    2.1123 H       1  UNL1        0.0618
     33 H           1.6498   -0.4140    1.2649 H       1  UNL1        0.0624
     34 H          -1.5207    2.0067    1.1234 H       1  UNL1        0.0662
     35 H          -3.2805    2.9956    2.4324 H       1  UNL1        0.2923
     36 H          -5.7787    0.8448    2.3856 H       1  UNL1        0.2925
     37 H          -4.6947   -1.1991    0.8616 H       1  UNL1        0.4312
     38 H          -2.2277   -1.7369   -0.5675 H       1  UNL1        0.0691
@<TRIPOS>UNITY_ATOM_ATTR
21 1
charge 1
22 1
charge -1
@<TRIPOS>BOND
     1     1     2    2
     2     2     3    1
     3     2    14    1
     4     3     4    1
     5     4     5   ar
     6     4    13   ar
     7     5     6   ar
     8     6     7   ar
     9     7     8   ar
    10     8     9   ar
    11     8    13   ar
    12     9    10   ar
    13    10    11   ar
    14    11    12   ar
    15    12    13   ar
    16    14    15   ar
    17    14    24   ar
    18    15    16   ar
    19    16    17    1
    20    16    18   ar
    21    18    19    1
    22    18    20   ar
    23    20    21    1
    24    20    24   ar
    25    21    22    1
    26    21    23    1
    27     3    25    1
    28     3    26    1
    29     5    27    1
    30     6    28    1
    31     7    29    1
    32     9    30    1
    33    10    31    1
    34    11    32    1
    35    12    33    1
    36    15    34    1
    37    17    35    1
    38    19    36    1
    39    21    37    1
    40    24    38    1
@<TRIPOS>MOLECULE
../data/bude_mols_rdkit_confs/molecule_67.pdb
 38 40 0 0 0
SMALL
GASTEIGER

@<TRIPOS>ATOM
      1  O1        -0.4140   -1.3250   -0.9860 O.2     1  UNL1       -0.2917
      2  C1         0.2500   -0.3240   -0.6300 C.2     1  UNL1        0.1678
      3  C2        -0.3040    1.0570   -0.5580 C.3     1  UNL1        0.0362
      4  C3        -1.7160    0.9790   -0.9960 C.ar    1  UNL1       -0.0322
      5  C4        -2.0670    1.4360   -2.2540 C.ar    1  UNL1       -0.0576
      6  C5        -3.3780    1.3780   -2.6700 C.ar    1  UNL1       -0.0609
      7  C6        -4.3250    0.8590   -1.8180 C.ar    1  UNL1       -0.0540
      8  C7        -3.9930    0.4010   -0.5670 C.ar    1  UNL1       -0.0176
      9  C8        -4.9510   -0.1240    0.2980 C.ar    1  UNL1       -0.0540
     10  C9        -4.5720   -0.5700    1.5370 C.ar    1  UNL1       -0.0612
     11  C10       -3.2560   -0.5000    1.9290 C.ar    1  UNL1       -0.0612
     12  C11       -2.2690    0.0200    1.0920 C.ar    1  UNL1       -0.0538
     13  C12       -2.6640    0.4600   -0.1410 C.ar    1  UNL1       -0.0143
     14  C13        1.6440   -0.5080   -0.2630 C.ar    1  UNL1        0.0276
     15  C14        2.1790   -1.7760   -0.3210 C.ar    1  UNL1       -0.0056
     16  C15        3.4860   -2.0250    0.0040 C.ar    1  UNL1        0.1656
     17  O2         4.0060   -3.3090   -0.0610 O.3     1  UNL1       -0.5031
     18  C16        4.2530   -0.9440    0.3970 C.ar    1  UNL1        0.2293
     19  O3         5.5810   -1.1460    0.7350 O.3     1  UNL1       -0.4990
     20  C17        3.7480    0.3370    0.4660 C.ar    1  UNL1        0.2363
     21  N1         4.5900    1.4160    0.8730 N.3     1  UNL1       -0.2394
     22  O4         3.8630    2.5540    0.9740 O.co2   1  UNL1       -0.5715
     23  F1         5.5520    1.5660   -0.0750 F       1  UNL1        0.0273
     24  C18        2.4350    0.5750    0.1370 C.ar    1  UNL1        0.0224
     25 H           0.2462    1.7080   -1.2048 H       1  UNL1        0.0394
     26 H          -0.2330    1.4461    0.4362 H       1  UNL1        0.0394
     27 H          -1.3443    1.8212   -2.8819 H       1  UNL1        0.0621
     28 H          -3.6461    1.7186   -3.6065 H       1  UNL1        0.0618
     29 H          -5.3087    0.8128   -2.1265 H       1  UNL1        0.0624
     30 H          -5.9398   -0.1766    0.0073 H       1  UNL1        0.0624
     31 H          -5.2786   -0.9608    2.1797 H       1  UNL1        0.0618
     32 H          -2.9918   -0.8410    2.8665 H       1  UNL1        0.0618
     33 H          -1.2824    0.0706    1.3905 H       1  UNL1        0.0624
     34 H           1.5779   -2.5607   -0.6178 H       1  UNL1        0.0662
     35 H           3.4613   -4.0219   -0.3311 H       1  UNL1        0.2923
     36 H           5.9485   -2.0071    0.6965 H       1  UNL1        0.2925
     37 H           5.1197    0.7975    0.3197 H       1  UNL1        0.4312
     38 H           2.0423    1.5282    0.1837 H       1  UNL1        0.0691
@<TRIPOS>UNITY_ATOM_ATTR
21 1
charge 1
22 1
charge -1
@<TRIPOS>BOND
     1     1     2    2
     2     2     3    1
     3     2    14    1
     4     3     4    1
     5     4     5   ar
     6     4    13   ar
     7     5     6   ar
     8     6     7   ar
     9     7     8   ar
    10     8     9   ar
    11     8    13   ar
    12     9    10   ar
    13    10    11   ar
    14    11    12   ar
    15    12    13   ar
    16    14    15   ar
    17    14    24   ar
    18    15    16   ar
    19    16    17    1
    20    16    18   ar
    21    18    19    1
    22    18    20   ar
    23    20    21    1
    24    20    24   ar
    25    21    22    1
    26    21    23    1
    27     3    25    1
    28     3    26    1
    29     5    27    1
    30     6    28    1
    31     7    29    1
    32     9    30    1
    33    10    31    1
    34    11    32    1
    35    12    33    1
    36    15    34    1
    37    17    35    1
    38    19    36    1
    39    21    37    1
    40    24    38    1
@<TRIPOS>MOLECULE
../data/bude_mols_rdkit_confs/molecule_67.pdb
 38 40 0 0 0
SMALL
GASTEIGER

@<TRIPOS>ATOM
      1  O1        -0.3320   -2.6780   -0.2200 O.2     1  UNL1       -0.2917
      2  C1        -0.5030   -1.4620   -0.1490 C.2     1  UNL1        0.1678
      3  C2         0.5230   -0.4570   -0.0760 C.3     1  UNL1        0.0362
      4  C3         1.9280   -0.8460   -0.0810 C.ar    1  UNL1       -0.0322
      5  C4         2.4600   -2.0890   -0.1880 C.ar    1  UNL1       -0.0576
      6  C5         3.8400   -2.2720   -0.1760 C.ar    1  UNL1       -0.0609
      7  C6         4.7260   -1.2350   -0.0600 C.ar    1  UNL1       -0.0540
      8  C7         4.1940    0.0500    0.0500 C.ar    1  UNL1       -0.0176
      9  C8         5.0680    1.1170    0.1690 C.ar    1  UNL1       -0.0540
     10  C9         4.5870    2.4040    0.2800 C.ar    1  UNL1       -0.0612
     11  C10        3.2320    2.6290    0.2740 C.ar    1  UNL1       -0.0612
     12  C11        2.3960    1.5390    0.1540 C.ar    1  UNL1       -0.0538
     13  C12        2.8350    0.2300    0.0390 C.ar    1  UNL1       -0.0143
     14  C13       -1.9050   -0.9840   -0.1370 C.ar    1  UNL1        0.0276
     15  C14       -2.9200   -1.8920   -0.2090 C.ar    1  UNL1       -0.0056
     16  C15       -4.2480   -1.4490   -0.1950 C.ar    1  UNL1        0.1656
     17  O2        -5.2690   -2.3810   -0.2700 O.3     1  UNL1       -0.5031
     18  C16       -4.5580   -0.1170   -0.1100 C.ar    1  UNL1        0.2293
     19  O3        -5.8490    0.4020   -0.0900 O.3     1  UNL1       -0.4990
     20  C17       -3.5050    0.8150   -0.0350 C.ar    1  UNL1        0.2363
     21  N1        -3.8180    2.2040    0.0560 N.3     1  UNL1       -0.2394
     22  O4        -5.0110    2.4040   -0.5260 O.co2   1  UNL1       -0.5715
     23  F1        -2.9100    2.9830   -0.5510 F       1  UNL1        0.0273
     24  C18       -2.2160    0.3560   -0.0510 C.ar    1  UNL1        0.0224
     25 H           0.3570    0.0883    0.8295 H       1  UNL1        0.0394
     26 H           0.4122    0.0740   -0.9983 H       1  UNL1        0.0394
     27 H           1.8364   -2.9062   -0.2791 H       1  UNL1        0.0621
     28 H           4.2113   -3.2314   -0.2581 H       1  UNL1        0.0618
     29 H           5.7452   -1.3970   -0.0542 H       1  UNL1        0.0624
     30 H           6.0860    0.9478    0.1746 H       1  UNL1        0.0624
     31 H           5.2429    3.1960    0.3673 H       1  UNL1        0.0618
     32 H           2.8513    3.5846    0.3568 H       1  UNL1        0.0618
     33 H           1.3781    1.7092    0.1496 H       1  UNL1        0.0624
     34 H          -2.7103   -2.9004   -0.2735 H       1  UNL1        0.0662
     35 H          -5.0666   -3.2940   -0.3284 H       1  UNL1        0.2923
     36 H          -6.5864   -0.1742   -0.1374 H       1  UNL1        0.2925
     37 H          -4.5712    2.5589   -0.4693 H       1  UNL1        0.4312
     38 H          -1.4458    1.0407    0.0035 H       1  UNL1        0.0691
@<TRIPOS>UNITY_ATOM_ATTR
21 1
charge 1
22 1
charge -1
@<TRIPOS>BOND
     1     1     2    2
     2     2     3    1
     3     2    14    1
     4     3     4    1
     5     4     5   ar
     6     4    13   ar
     7     5     6   ar
     8     6     7   ar
     9     7     8   ar
    10     8     9   ar
    11     8    13   ar
    12     9    10   ar
    13    10    11   ar
    14    11    12   ar
    15    12    13   ar
    16    14    15   ar
    17    14    24   ar
    18    15    16   ar
    19    16    17    1
    20    16    18   ar
    21    18    19    1
    22    18    20   ar
    23    20    21    1
    24    20    24   ar
    25    21    22    1
    26    21    23    1
    27     3    25    1
    28     3    26    1
    29     5    27    1
    30     6    28    1
    31     7    29    1
    32     9    30    1
    33    10    31    1
    34    11    32    1
    35    12    33    1
    36    15    34    1
    37    17    35    1
    38    19    36    1
    39    21    37    1
    40    24    38    1
@<TRIPOS>MOLECULE
../data/bude_mols_rdkit_confs/molecule_67.pdb
 38 40 0 0 0
SMALL
GASTEIGER

@<TRIPOS>ATOM
      1  O1         0.2670   -1.7300   -0.5720 O.2     1  UNL1       -0.2917
      2  C1         0.4190   -0.8650    0.3540 C.2     1  UNL1        0.1678
      3  C2        -0.6600   -0.5530    1.3130 C.3     1  UNL1        0.0362
      4  C3        -1.8060    0.1630    0.7110 C.ar    1  UNL1       -0.0322
      5  C4        -1.8700    1.5670    0.7850 C.ar    1  UNL1       -0.0576
      6  C5        -2.8820    2.2690    0.1930 C.ar    1  UNL1       -0.0609
      7  C6        -3.8700    1.6330   -0.4950 C.ar    1  UNL1       -0.0540
      8  C7        -3.8350    0.2420   -0.5850 C.ar    1  UNL1       -0.0176
      9  C8        -4.8300   -0.4400   -1.2640 C.ar    1  UNL1       -0.0540
     10  C9        -4.8690   -1.8070   -1.3820 C.ar    1  UNL1       -0.0612
     11  C10       -3.8390   -2.4910   -0.7720 C.ar    1  UNL1       -0.0612
     12  C11       -2.8400   -1.8590   -0.0940 C.ar    1  UNL1       -0.0538
     13  C12       -2.8020   -0.4700    0.0210 C.ar    1  UNL1       -0.0143
     14  C13        1.7480   -0.2330    0.3540 C.ar    1  UNL1        0.0276
     15  C14        2.0600    0.7610    1.2590 C.ar    1  UNL1       -0.0056
     16  C15        3.3180    1.3160    1.1960 C.ar    1  UNL1        0.1656
     17  O2         3.6520    2.3120    2.0900 O.3     1  UNL1       -0.5031
     18  C16        4.2730    0.9160    0.2660 C.ar    1  UNL1        0.2293
     19  O3         5.4950    1.5070    0.2570 O.3     1  UNL1       -0.4990
     20  C17        3.9800   -0.0730   -0.6420 C.ar    1  UNL1        0.2363
     21  N1         4.8230   -0.5900   -1.6320 N.3     1  UNL1       -0.2394
     22  O4         4.4910   -1.9300   -1.7730 O.co2   1  UNL1       -0.5715
     23  F1         6.1270   -0.5100   -1.4300 F       1  UNL1        0.0273
     24  C18        2.7150   -0.6150   -0.5610 C.ar    1  UNL1        0.0224
     25 H          -0.2528    0.0570    2.0921 H       1  UNL1        0.0394
     26 H          -1.0331   -1.4875    1.6769 H       1  UNL1        0.0394
     27 H          -1.1353    2.0784    1.2985 H       1  UNL1        0.0621
     28 H          -2.8977    3.2981    0.2686 H       1  UNL1        0.0618
     29 H          -4.6300    2.1700   -0.9412 H       1  UNL1        0.0624
     30 H          -5.5837    0.1094   -1.7057 H       1  UNL1        0.0624
     31 H          -5.6217   -2.2921   -1.8949 H       1  UNL1        0.0618
     32 H          -3.8240   -3.5212   -0.8311 H       1  UNL1        0.0618
     33 H          -2.0942   -2.4216    0.3445 H       1  UNL1        0.0624
     34 H           1.3724    1.0779    1.9603 H       1  UNL1        0.0662
     35 H           3.0270    2.5994    2.7262 H       1  UNL1        0.2923
     36 H           5.6939    2.1813    0.8765 H       1  UNL1        0.2925
     37 H           5.5345   -0.2984   -2.2467 H       1  UNL1        0.4312
     38 H           2.4705   -1.3603   -1.2316 H       1  UNL1        0.0691
@<TRIPOS>UNITY_ATOM_ATTR
21 1
charge 1
22 1
charge -1
@<TRIPOS>BOND
     1     1     2    2
     2     2     3    1
     3     2    14    1
     4     3     4    1
     5     4     5   ar
     6     4    13   ar
     7     5     6   ar
     8     6     7   ar
     9     7     8   ar
    10     8     9   ar
    11     8    13   ar
    12     9    10   ar
    13    10    11   ar
    14    11    12   ar
    15    12    13   ar
    16    14    15   ar
    17    14    24   ar
    18    15    16   ar
    19    16    17    1
    20    16    18   ar
    21    18    19    1
    22    18    20   ar
    23    20    21    1
    24    20    24   ar
    25    21    22    1
    26    21    23    1
    27     3    25    1
    28     3    26    1
    29     5    27    1
    30     6    28    1
    31     7    29    1
    32     9    30    1
    33    10    31    1
    34    11    32    1
    35    12    33    1
    36    15    34    1
    37    17    35    1
    38    19    36    1
    39    21    37    1
    40    24    38    1
@<TRIPOS>MOLECULE
../data/bude_mols_rdkit_confs/molecule_67.pdb
 38 40 0 0 0
SMALL
GASTEIGER

@<TRIPOS>ATOM
      1  O1         0.4720   -1.5650    0.3150 O.2     1  UNL1       -0.2917
      2  C1        -0.2280   -0.6260   -0.1320 C.2     1  UNL1        0.1678
      3  C2         0.4340    0.4030   -0.9640 C.3     1  UNL1        0.0362
      4  C3         1.8660    0.0710   -1.0820 C.ar    1  UNL1       -0.0322
      5  C4         2.3380   -0.4720   -2.2550 C.ar    1  UNL1       -0.0576
      6  C5         3.6800   -0.8040   -2.4240 C.ar    1  UNL1       -0.0609
      7  C6         4.5370   -0.5760   -1.3850 C.ar    1  UNL1       -0.0540
      8  C7         4.0890   -0.0320   -0.1950 C.ar    1  UNL1       -0.0176
      9  C8         4.9790    0.1830    0.8370 C.ar    1  UNL1       -0.0540
     10  C9         4.5370    0.7280    2.0350 C.ar    1  UNL1       -0.0612
     11  C10        3.1930    1.0600    2.2040 C.ar    1  UNL1       -0.0612
     12  C11        2.3190    0.8370    1.1610 C.ar    1  UNL1       -0.0538
     13  C12        2.7390    0.2950   -0.0420 C.ar    1  UNL1       -0.0143
     14  C13       -1.6550   -0.5660    0.1700 C.ar    1  UNL1        0.0276
     15  C14       -2.2350   -1.5350    0.9360 C.ar    1  UNL1       -0.0056
     16  C15       -3.5830   -1.5050    1.2380 C.ar    1  UNL1        0.1656
     17  O2        -4.1770   -2.4810    2.0120 O.3     1  UNL1       -0.5031
     18  C16       -4.3780   -0.4780    0.7620 C.ar    1  UNL1        0.2293
     19  O3        -5.7300   -0.4270    1.0500 O.3     1  UNL1       -0.4990
     20  C17       -3.8030    0.4970   -0.0080 C.ar    1  UNL1        0.2363
     21  N1        -4.5850    1.5830   -0.5240 N.3     1  UNL1       -0.2394
     22  O4        -5.2310    1.2200   -1.6610 O.co2   1  UNL1       -0.5715
     23  F1        -3.7520    2.6070   -0.8620 F       1  UNL1        0.0273
     24  C18       -2.4340    0.4480   -0.3020 C.ar    1  UNL1        0.0224
     25 H           0.3243    1.3627   -0.5037 H       1  UNL1        0.0394
     26 H          -0.0142    0.4282   -1.9353 H       1  UNL1        0.0394
     27 H           1.6789   -0.6379   -3.0315 H       1  UNL1        0.0621
     28 H           4.0178   -1.2112   -3.3101 H       1  UNL1        0.0618
     29 H           5.5358   -0.8137   -1.4898 H       1  UNL1        0.0624
     30 H           5.9745   -0.0616    0.7183 H       1  UNL1        0.0624
     31 H           5.2062    0.8882    2.8041 H       1  UNL1        0.0618
     32 H           2.8590    1.4648    3.0926 H       1  UNL1        0.0618
     33 H           1.3234    1.0810    1.2804 H       1  UNL1        0.0624
     34 H          -1.6540   -2.3074    1.2978 H       1  UNL1        0.0662
     35 H          -3.6637   -3.1890    2.3484 H       1  UNL1        0.2923
     36 H          -6.1222   -1.0950    1.5771 H       1  UNL1        0.2925
     37 H          -4.1949    2.3395   -0.0292 H       1  UNL1        0.4312
     38 H          -2.0104    1.1884   -0.8828 H       1  UNL1        0.0691
@<TRIPOS>UNITY_ATOM_ATTR
21 1
charge 1
22 1
charge -1
@<TRIPOS>BOND
     1     1     2    2
     2     2     3    1
     3     2    14    1
     4     3     4    1
     5     4     5   ar
     6     4    13   ar
     7     5     6   ar
     8     6     7   ar
     9     7     8   ar
    10     8     9   ar
    11     8    13   ar
    12     9    10   ar
    13    10    11   ar
    14    11    12   ar
    15    12    13   ar
    16    14    15   ar
    17    14    24   ar
    18    15    16   ar
    19    16    17    1
    20    16    18   ar
    21    18    19    1
    22    18    20   ar
    23    20    21    1
    24    20    24   ar
    25    21    22    1
    26    21    23    1
    27     3    25    1
    28     3    26    1
    29     5    27    1
    30     6    28    1
    31     7    29    1
    32     9    30    1
    33    10    31    1
    34    11    32    1
    35    12    33    1
    36    15    34    1
    37    17    35    1
    38    19    36    1
    39    21    37    1
    40    24    38    1
