@<TRIPOS>MOLECULE
../data/bude_mols_rdkit_confs/molecule_1.pdb
 47 50 0 0 0
SMALL
GASTEIGER

@<TRIPOS>ATOM
      1  O1        -0.6640   -1.7700    1.4390 O.2     1  UNL1       -0.2748
      2  C1        -0.7570   -1.0970    0.3820 C.2     1  UNL1        0.2251
      3  N1         0.4380   -0.4400   -0.0640 N.am    1  UNL1       -0.3089
      4  C2         1.6850   -0.5490    0.6680 C.3     1  UNL1        0.0562
      5  C3         2.7030    0.2460   -0.0660 C.ar    1  UNL1        0.0863
      6  N2         2.4140    0.9110   -1.2020 N.ar    1  UNL1       -0.1737
      7  N3         3.2730    1.6230   -1.8840 N.ar    1  UNL1       -0.2424
      8  C4         4.5550    1.7410   -1.4790 C.ar    1  UNL1        0.2725
      9  O2         5.3820    2.4290   -2.1390 O.2     1  UNL1       -0.2658
     10  C5         4.9310    1.0880   -0.3220 C.ar    1  UNL1        0.0496
     11  C6         6.2320    1.2110    0.0870 C.ar    1  UNL1       -0.0487
     12  C7         6.6250    0.5630    1.2440 C.ar    1  UNL1       -0.0610
     13  C8         5.7030   -0.1780    1.9410 C.ar    1  UNL1       -0.0611
     14  C9         4.3870   -0.3070    1.5350 C.ar    1  UNL1       -0.0520
     15  C10        4.0150    0.3430    0.3860 C.ar    1  UNL1        0.0118
     16  C11       -2.0080   -0.9490   -0.4110 C.3     1  UNL1        0.0855
     17  C12       -3.1410   -1.6720    0.1810 C.ar    1  UNL1       -0.0312
     18  C13       -4.0260   -2.3660   -0.6290 C.ar    1  UNL1       -0.0575
     19  C14       -5.0990   -3.0580   -0.1640 C.ar    1  UNL1       -0.0615
     20  C15       -5.3390   -3.0820    1.1850 C.ar    1  UNL1       -0.0617
     21  C16       -4.4980   -2.4120    2.0510 C.ar    1  UNL1       -0.0615
     22  C17       -3.4150   -1.7180    1.5390 C.ar    1  UNL1       -0.0575
     23  C18       -2.3300    0.4830   -0.6870 C.ar    1  UNL1       -0.0312
     24  C19       -2.1080    1.4680    0.2580 C.ar    1  UNL1       -0.0575
     25  C20       -2.4050    2.7900    0.0020 C.ar    1  UNL1       -0.0615
     26  C21       -2.9390    3.1700   -1.2210 C.ar    1  UNL1       -0.0617
     27  C22       -3.1660    2.2150   -2.1680 C.ar    1  UNL1       -0.0615
     28  C23       -2.8600    0.9020   -1.8860 C.ar    1  UNL1       -0.0575
     29 H           0.4107    0.0984   -0.8878 H       1  UNL1        0.1491
     30 H           1.9896   -1.5734    0.7208 H       1  UNL1        0.0528
     31 H           1.5694   -0.1838    1.6671 H       1  UNL1        0.0528
     32 H           2.9801    2.0799   -2.7054 H       1  UNL1        0.1921
     33 H           6.9045    1.7748   -0.4561 H       1  UNL1        0.0625
     34 H           7.5984    0.6355    1.5790 H       1  UNL1        0.0618
     35 H           6.0042   -0.6585    2.8032 H       1  UNL1        0.0618
     36 H           3.7117   -0.8701    2.0753 H       1  UNL1        0.0624
     37 H          -1.8231   -1.4118   -1.3578 H       1  UNL1        0.0492
     38 H          -3.8599   -2.3566   -1.6475 H       1  UNL1        0.0621
     39 H          -5.7233   -3.5576   -0.8164 H       1  UNL1        0.0618
     40 H          -6.1502   -3.6021    1.5544 H       1  UNL1        0.0618
     41 H          -4.6745   -2.4283    3.0677 H       1  UNL1        0.0618
     42 H          -2.7904   -1.2178    2.1907 H       1  UNL1        0.0621
     43 H          -1.7115    1.2080    1.1746 H       1  UNL1        0.0621
     44 H          -2.2285    3.5033    0.7266 H       1  UNL1        0.0618
     45 H          -3.1609    4.1598   -1.4111 H       1  UNL1        0.0618
     46 H          -3.5624    2.4732   -3.0852 H       1  UNL1        0.0618
     47 H          -3.0381    0.1929   -2.6144 H       1  UNL1        0.0621
@<TRIPOS>BOND
     1     1     2    2
     2     2     3   am
     3     2    16    1
     4     3     4    1
     5     4     5    1
     6     5     6   ar
     7     5    15   ar
     8     6     7   ar
     9     7     8   ar
    10     8     9    2
    11     8    10   ar
    12    10    11   ar
    13    10    15   ar
    14    11    12   ar
    15    12    13   ar
    16    13    14   ar
    17    14    15   ar
    18    16    17    1
    19    16    23    1
    20    17    18   ar
    21    17    22   ar
    22    18    19   ar
    23    19    20   ar
    24    20    21   ar
    25    21    22   ar
    26    23    24   ar
    27    23    28   ar
    28    24    25   ar
    29    25    26   ar
    30    26    27   ar
    31    27    28   ar
    32     3    29    1
    33     4    30    1
    34     4    31    1
    35     7    32    1
    36    11    33    1
    37    12    34    1
    38    13    35    1
    39    14    36    1
    40    16    37    1
    41    18    38    1
    42    19    39    1
    43    20    40    1
    44    21    41    1
    45    22    42    1
    46    24    43    1
    47    25    44    1
    48    26    45    1
    49    27    46    1
    50    28    47    1
@<TRIPOS>MOLECULE
../data/bude_mols_rdkit_confs/molecule_1.pdb
 47 50 0 0 0
SMALL
GASTEIGER

@<TRIPOS>ATOM
      1  O1         0.0460    0.8960    1.2480 O.2     1  UNL1       -0.2748
      2  C1        -0.5690   -0.1970    1.0980 C.2     1  UNL1        0.2251
      3  N1         0.2380   -1.3600    1.0500 N.am    1  UNL1       -0.3089
      4  C2         1.6720   -1.3430    1.1610 C.3     1  UNL1        0.0562
      5  C3         2.3150   -0.5440    0.0910 C.ar    1  UNL1        0.0863
      6  N2         1.6400    0.0960   -0.8760 N.ar    1  UNL1       -0.1737
      7  N3         2.1880    0.8080   -1.8310 N.ar    1  UNL1       -0.2424
      8  C4         3.5110    0.9400   -1.8930 C.ar    1  UNL1        0.2725
      9  O2         4.0770    1.6160   -2.7960 O.2     1  UNL1       -0.2658
     10  C5         4.3060    0.3300   -0.9560 C.ar    1  UNL1        0.0496
     11  C6         5.6910    0.4670   -1.0190 C.ar    1  UNL1       -0.0487
     12  C7         6.4640   -0.1580   -0.0630 C.ar    1  UNL1       -0.0610
     13  C8         5.8310   -0.9040    0.9320 C.ar    1  UNL1       -0.0611
     14  C9         4.4680   -1.0290    0.9800 C.ar    1  UNL1       -0.0520
     15  C10        3.6930   -0.4120    0.0350 C.ar    1  UNL1        0.0118
     16  C11       -2.0400   -0.2230    0.9840 C.3     1  UNL1        0.0855
     17  C12       -2.6170    1.1260    1.0520 C.ar    1  UNL1       -0.0312
     18  C13       -2.0900    2.2110    0.3430 C.ar    1  UNL1       -0.0575
     19  C14       -2.6460    3.4700    0.4230 C.ar    1  UNL1       -0.0615
     20  C15       -3.7480    3.7150    1.2090 C.ar    1  UNL1       -0.0617
     21  C16       -4.2920    2.6650    1.9230 C.ar    1  UNL1       -0.0615
     22  C17       -3.7220    1.4180    1.8280 C.ar    1  UNL1       -0.0575
     23  C18       -2.5400   -1.0200   -0.1600 C.ar    1  UNL1       -0.0312
     24  C19       -3.6730   -1.8010   -0.0180 C.ar    1  UNL1       -0.0575
     25  C20       -4.1940   -2.5670   -1.0390 C.ar    1  UNL1       -0.0615
     26  C21       -3.5720   -2.5700   -2.2700 C.ar    1  UNL1       -0.0617
     27  C22       -2.4430   -1.7910   -2.4090 C.ar    1  UNL1       -0.0615
     28  C23       -1.9170   -1.0230   -1.3930 C.ar    1  UNL1       -0.0575
     29 H          -0.2081   -2.2299    0.9340 H       1  UNL1        0.1491
     30 H           2.0326   -2.3487    1.1020 H       1  UNL1        0.0528
     31 H           1.9201   -0.8903    2.0983 H       1  UNL1        0.0528
     32 H           1.6191    1.2464   -2.5043 H       1  UNL1        0.1921
     33 H           6.1304    1.0258   -1.7671 H       1  UNL1        0.0625
     34 H           7.4925   -0.0754   -0.0831 H       1  UNL1        0.0618
     35 H           6.4046   -1.3735    1.6500 H       1  UNL1        0.0618
     36 H           4.0260   -1.5872    1.7270 H       1  UNL1        0.0624
     37 H          -2.3935   -0.7511    1.8449 H       1  UNL1        0.0492
     38 H          -1.2625    2.0649   -0.2562 H       1  UNL1        0.0621
     39 H          -2.2275    4.2434   -0.1171 H       1  UNL1        0.0618
     40 H          -4.1584    4.6603    1.2639 H       1  UNL1        0.0618
     41 H          -5.1187    2.8155    2.5221 H       1  UNL1        0.0618
     42 H          -4.1468    0.6503    2.3714 H       1  UNL1        0.0621
     43 H          -4.1513   -1.8107    0.8964 H       1  UNL1        0.0621
     44 H          -5.0425   -3.1335   -0.8835 H       1  UNL1        0.0618
     45 H          -3.9367   -3.1322   -3.0548 H       1  UNL1        0.0618
     46 H          -1.9658   -1.7826   -3.3240 H       1  UNL1        0.0618
     47 H          -1.0685   -0.4573   -1.5512 H       1  UNL1        0.0621
@<TRIPOS>BOND
     1     1     2    2
     2     2     3   am
     3     2    16    1
     4     3     4    1
     5     4     5    1
     6     5     6   ar
     7     5    15   ar
     8     6     7   ar
     9     7     8   ar
    10     8     9    2
    11     8    10   ar
    12    10    11   ar
    13    10    15   ar
    14    11    12   ar
    15    12    13   ar
    16    13    14   ar
    17    14    15   ar
    18    16    17    1
    19    16    23    1
    20    17    18   ar
    21    17    22   ar
    22    18    19   ar
    23    19    20   ar
    24    20    21   ar
    25    21    22   ar
    26    23    24   ar
    27    23    28   ar
    28    24    25   ar
    29    25    26   ar
    30    26    27   ar
    31    27    28   ar
    32     3    29    1
    33     4    30    1
    34     4    31    1
    35     7    32    1
    36    11    33    1
    37    12    34    1
    38    13    35    1
    39    14    36    1
    40    16    37    1
    41    18    38    1
    42    19    39    1
    43    20    40    1
    44    21    41    1
    45    22    42    1
    46    24    43    1
    47    25    44    1
    48    26    45    1
    49    27    46    1
    50    28    47    1
@<TRIPOS>MOLECULE
../data/bude_mols_rdkit_confs/molecule_1.pdb
 47 50 0 0 0
SMALL
GASTEIGER

@<TRIPOS>ATOM
      1  O1         0.4060   -0.8380   -1.5270 O.2     1  UNL1       -0.2748
      2  C1        -0.4390   -0.5400   -0.6050 C.2     1  UNL1        0.2251
      3  N1         0.1130   -0.5150    0.6960 N.am    1  UNL1       -0.3089
      4  C2         1.5090   -0.8030    0.9630 C.3     1  UNL1        0.0562
      5  C3         2.4210    0.1180    0.2750 C.ar    1  UNL1        0.0863
      6  N2         2.0110    1.1250   -0.5190 N.ar    1  UNL1       -0.1737
      7  N3         2.8790    1.9400   -1.1260 N.ar    1  UNL1       -0.2424
      8  C4         4.2090    1.8090   -0.9840 C.ar    1  UNL1        0.2725
      9  O2         5.0100    2.5880   -1.5640 O.2     1  UNL1       -0.2658
     10  C5         4.6990    0.7960   -0.1820 C.ar    1  UNL1        0.0496
     11  C6         6.0630    0.6530   -0.0300 C.ar    1  UNL1       -0.0487
     12  C7         6.5410   -0.3640    0.7750 C.ar    1  UNL1       -0.0610
     13  C8         5.6420   -1.2040    1.3990 C.ar    1  UNL1       -0.0611
     14  C9         4.2900   -1.0430    1.2330 C.ar    1  UNL1       -0.0520
     15  C10        3.7820   -0.0350    0.4350 C.ar    1  UNL1        0.0118
     16  C11       -1.8270   -0.2650   -0.9480 C.3     1  UNL1        0.0855
     17  C12       -2.3390    1.0460   -0.4740 C.ar    1  UNL1       -0.0312
     18  C13       -2.4250    2.1270   -1.3600 C.ar    1  UNL1       -0.0575
     19  C14       -2.9110    3.3480   -0.9470 C.ar    1  UNL1       -0.0615
     20  C15       -3.3320    3.5610    0.3470 C.ar    1  UNL1       -0.0617
     21  C16       -3.2520    2.5060    1.2290 C.ar    1  UNL1       -0.0615
     22  C17       -2.7590    1.2620    0.8150 C.ar    1  UNL1       -0.0575
     23  C18       -2.7760   -1.3710   -0.6280 C.ar    1  UNL1       -0.0312
     24  C19       -3.9380   -1.4310   -1.3940 C.ar    1  UNL1       -0.0575
     25  C20       -4.8940   -2.4000   -1.2090 C.ar    1  UNL1       -0.0615
     26  C21       -4.6630   -3.3320   -0.2180 C.ar    1  UNL1       -0.0617
     27  C22       -3.5130   -3.2850    0.5510 C.ar    1  UNL1       -0.0615
     28  C23       -2.5770   -2.3030    0.3390 C.ar    1  UNL1       -0.0575
     29 H          -0.4754   -0.2926    1.4533 H       1  UNL1        0.1491
     30 H           1.7206   -1.8002    0.6379 H       1  UNL1        0.0528
     31 H           1.6666   -0.6867    2.0149 H       1  UNL1        0.0528
     32 H           2.5317    2.6623   -1.6977 H       1  UNL1        0.1921
     33 H           6.7148    1.2940   -0.5089 H       1  UNL1        0.0625
     34 H           7.5563   -0.4931    0.9074 H       1  UNL1        0.0618
     35 H           5.9924   -1.9659    2.0005 H       1  UNL1        0.0618
     36 H           3.6404   -1.6859    1.7124 H       1  UNL1        0.0624
     37 H          -1.7889   -0.1993   -2.0153 H       1  UNL1        0.0492
     38 H          -2.1193    2.0070   -2.3383 H       1  UNL1        0.0621
     39 H          -2.9610    4.1240   -1.6254 H       1  UNL1        0.0618
     40 H          -3.6950    4.4797    0.6456 H       1  UNL1        0.0618
     41 H          -3.5588    2.6336    2.2060 H       1  UNL1        0.0618
     42 H          -2.7103    0.4883    1.4962 H       1  UNL1        0.0621
     43 H          -4.0862   -0.7208   -2.1280 H       1  UNL1        0.0621
     44 H          -5.7487   -2.4297   -1.7867 H       1  UNL1        0.0618
     45 H          -5.3582   -4.0754   -0.0476 H       1  UNL1        0.0618
     46 H          -3.3584   -3.9914    1.2872 H       1  UNL1        0.0618
     47 H          -1.7214   -2.2733    0.9153 H       1  UNL1        0.0621
@<TRIPOS>BOND
     1     1     2    2
     2     2     3   am
     3     2    16    1
     4     3     4    1
     5     4     5    1
     6     5     6   ar
     7     5    15   ar
     8     6     7   ar
     9     7     8   ar
    10     8     9    2
    11     8    10   ar
    12    10    11   ar
    13    10    15   ar
    14    11    12   ar
    15    12    13   ar
    16    13    14   ar
    17    14    15   ar
    18    16    17    1
    19    16    23    1
    20    17    18   ar
    21    17    22   ar
    22    18    19   ar
    23    19    20   ar
    24    20    21   ar
    25    21    22   ar
    26    23    24   ar
    27    23    28   ar
    28    24    25   ar
    29    25    26   ar
    30    26    27   ar
    31    27    28   ar
    32     3    29    1
    33     4    30    1
    34     4    31    1
    35     7    32    1
    36    11    33    1
    37    12    34    1
    38    13    35    1
    39    14    36    1
    40    16    37    1
    41    18    38    1
    42    19    39    1
    43    20    40    1
    44    21    41    1
    45    22    42    1
    46    24    43    1
    47    25    44    1
    48    26    45    1
    49    27    46    1
    50    28    47    1
@<TRIPOS>MOLECULE
../data/bude_mols_rdkit_confs/molecule_1.pdb
 47 50 0 0 0
SMALL
GASTEIGER

@<TRIPOS>ATOM
      1  O1         0.3180   -0.6440    1.6600 O.2     1  UNL1       -0.2748
      2  C1        -0.4920   -0.5750    0.6710 C.2     1  UNL1        0.2251
      3  N1         0.0590   -0.8970   -0.5840 N.am    1  UNL1       -0.3089
      4  C2         1.4720   -1.2790   -0.7270 C.3     1  UNL1        0.0562
      5  C3         2.3640   -0.2090   -0.2710 C.ar    1  UNL1        0.0863
      6  N2         1.9280    0.9640    0.2140 N.ar    1  UNL1       -0.1737
      7  N3         2.7240    1.9240    0.6240 N.ar    1  UNL1       -0.2424
      8  C4         4.0500    1.7790    0.5780 C.ar    1  UNL1        0.2725
      9  O2         4.8070    2.7190    0.9790 O.2     1  UNL1       -0.2658
     10  C5         4.6080    0.6160    0.0990 C.ar    1  UNL1        0.0496
     11  C6         5.9680    0.4360    0.0400 C.ar    1  UNL1       -0.0487
     12  C7         6.4680   -0.7430   -0.4460 C.ar    1  UNL1       -0.0610
     13  C8         5.6040   -1.7300   -0.8680 C.ar    1  UNL1       -0.0611
     14  C9         4.2470   -1.5600   -0.8130 C.ar    1  UNL1       -0.0520
     15  C10        3.7220   -0.3770   -0.3250 C.ar    1  UNL1        0.0118
     16  C11       -1.8790   -0.1760    0.9510 C.3     1  UNL1        0.0855
     17  C12       -2.8910   -1.1450    0.4820 C.ar    1  UNL1       -0.0312
     18  C13       -4.2240   -0.8470    0.5930 C.ar    1  UNL1       -0.0575
     19  C14       -5.1940   -1.7670    0.1660 C.ar    1  UNL1       -0.0615
     20  C15       -4.7830   -2.9730   -0.3660 C.ar    1  UNL1       -0.0617
     21  C16       -3.4630   -3.2710   -0.4770 C.ar    1  UNL1       -0.0615
     22  C17       -2.5140   -2.3420   -0.0460 C.ar    1  UNL1       -0.0575
     23  C18       -2.1860    1.2300    0.5890 C.ar    1  UNL1       -0.0312
     24  C19       -1.7600    1.8770   -0.5440 C.ar    1  UNL1       -0.0575
     25  C20       -2.1130    3.2130   -0.7900 C.ar    1  UNL1       -0.0615
     26  C21       -2.8990    3.9100    0.1020 C.ar    1  UNL1       -0.0617
     27  C22       -3.3370    3.2820    1.2410 C.ar    1  UNL1       -0.0615
     28  C23       -2.9850    1.9780    1.4690 C.ar    1  UNL1       -0.0575
     29 H          -0.5144   -0.8657   -1.3837 H       1  UNL1        0.1491
     30 H           1.6743   -1.4855   -1.7572 H       1  UNL1        0.0528
     31 H           1.6494   -2.1451   -0.1242 H       1  UNL1        0.0528
     32 H           2.3381    2.7612    0.9697 H       1  UNL1        0.1921
     33 H           6.6068    1.1813    0.3585 H       1  UNL1        0.0625
     34 H           7.4880   -0.8915   -0.4959 H       1  UNL1        0.0618
     35 H           5.9880   -2.6156   -1.2330 H       1  UNL1        0.0618
     36 H           3.6176   -2.3120   -1.1346 H       1  UNL1        0.0624
     37 H          -1.9523   -0.2047    2.0181 H       1  UNL1        0.0492
     38 H          -4.5160    0.0586    0.9926 H       1  UNL1        0.0621
     39 H          -6.1986   -1.5456    0.2483 H       1  UNL1        0.0618
     40 H          -5.4880   -3.6566   -0.6833 H       1  UNL1        0.0618
     41 H          -3.1643   -4.1747   -0.8758 H       1  UNL1        0.0618
     42 H          -1.5101   -2.5664   -0.1290 H       1  UNL1        0.0621
     43 H          -1.1710    1.3734   -1.2256 H       1  UNL1        0.0621
     44 H          -1.7801    3.6787   -1.6487 H       1  UNL1        0.0618
     45 H          -3.1551    4.8922   -0.0842 H       1  UNL1        0.0618
     46 H          -3.9267    3.7880    1.9201 H       1  UNL1        0.0618
     47 H          -3.3240    1.5223    2.3307 H       1  UNL1        0.0621
@<TRIPOS>BOND
     1     1     2    2
     2     2     3   am
     3     2    16    1
     4     3     4    1
     5     4     5    1
     6     5     6   ar
     7     5    15   ar
     8     6     7   ar
     9     7     8   ar
    10     8     9    2
    11     8    10   ar
    12    10    11   ar
    13    10    15   ar
    14    11    12   ar
    15    12    13   ar
    16    13    14   ar
    17    14    15   ar
    18    16    17    1
    19    16    23    1
    20    17    18   ar
    21    17    22   ar
    22    18    19   ar
    23    19    20   ar
    24    20    21   ar
    25    21    22   ar
    26    23    24   ar
    27    23    28   ar
    28    24    25   ar
    29    25    26   ar
    30    26    27   ar
    31    27    28   ar
    32     3    29    1
    33     4    30    1
    34     4    31    1
    35     7    32    1
    36    11    33    1
    37    12    34    1
    38    13    35    1
    39    14    36    1
    40    16    37    1
    41    18    38    1
    42    19    39    1
    43    20    40    1
    44    21    41    1
    45    22    42    1
    46    24    43    1
    47    25    44    1
    48    26    45    1
    49    27    46    1
    50    28    47    1
@<TRIPOS>MOLECULE
../data/bude_mols_rdkit_confs/molecule_1.pdb
 47 50 0 0 0
SMALL
GASTEIGER

@<TRIPOS>ATOM
      1  O1         0.1380    0.9100    0.1150 O.2     1  UNL1       -0.2748
      2  C1        -0.4650   -0.1880    0.0130 C.2     1  UNL1        0.2251
      3  N1         0.2810   -1.4040    0.1710 N.am    1  UNL1       -0.3089
      4  C2         1.6970   -1.2940    0.4410 C.3     1  UNL1        0.0562
      5  C3         2.3980   -0.5790   -0.6540 C.ar    1  UNL1        0.0863
      6  N2         1.7790   -0.1040   -1.7430 N.ar    1  UNL1       -0.1737
      7  N3         2.4520    0.5380   -2.7110 N.ar    1  UNL1       -0.2424
      8  C4         3.7730    0.7440   -2.6520 C.ar    1  UNL1        0.2725
      9  O2         4.4140    1.3490   -3.5600 O.2     1  UNL1       -0.2658
     10  C5         4.4690    0.2730   -1.5430 C.ar    1  UNL1        0.0496
     11  C6         5.8160    0.4640   -1.4480 C.ar    1  UNL1       -0.0487
     12  C7         6.4960   -0.0080   -0.3450 C.ar    1  UNL1       -0.0610
     13  C8         5.7990   -0.6690    0.6490 C.ar    1  UNL1       -0.0611
     14  C9         4.4400   -0.8600    0.5510 C.ar    1  UNL1       -0.0520
     15  C10        3.7580   -0.3900   -0.5490 C.ar    1  UNL1        0.0118
     16  C11       -1.8980   -0.1930   -0.2620 C.3     1  UNL1        0.0855
     17  C12       -2.4240    1.1890   -0.3540 C.ar    1  UNL1       -0.0312
     18  C13       -2.1320    2.1460    0.5940 C.ar    1  UNL1       -0.0575
     19  C14       -2.5980    3.4510    0.5480 C.ar    1  UNL1       -0.0615
     20  C15       -3.4000    3.7900   -0.5220 C.ar    1  UNL1       -0.0617
     21  C16       -3.7230    2.8680   -1.5000 C.ar    1  UNL1       -0.0615
     22  C17       -3.2380    1.5830   -1.4120 C.ar    1  UNL1       -0.0575
     23  C18       -2.7100   -1.0480    0.6380 C.ar    1  UNL1       -0.0312
     24  C19       -2.4380   -1.1810    1.9780 C.ar    1  UNL1       -0.0575
     25  C20       -3.2450   -1.9940    2.7370 C.ar    1  UNL1       -0.0615
     26  C21       -4.3240   -2.6940    2.2410 C.ar    1  UNL1       -0.0617
     27  C22       -4.5880   -2.5550    0.9000 C.ar    1  UNL1       -0.0615
     28  C23       -3.7860   -1.7430    0.1260 C.ar    1  UNL1       -0.0575
     29 H          -0.1566   -2.2829    0.0980 H       1  UNL1        0.1491
     30 H           2.1111   -2.2758    0.5380 H       1  UNL1        0.0528
     31 H           1.8272   -0.7385    1.3462 H       1  UNL1        0.0528
     32 H           1.9552    0.8697   -3.4936 H       1  UNL1        0.1921
     33 H           6.3238    0.9592   -2.1976 H       1  UNL1        0.0625
     34 H           7.5153    0.1309   -0.2625 H       1  UNL1        0.0618
     35 H           6.3047   -1.0239    1.4756 H       1  UNL1        0.0618
     36 H           3.9324   -1.3549    1.3010 H       1  UNL1        0.0624
     37 H          -2.0019   -0.6622   -1.2180 H       1  UNL1        0.0492
     38 H          -1.5295    1.8745    1.3867 H       1  UNL1        0.0621
     39 H          -2.3561    4.1369    1.2802 H       1  UNL1        0.0618
     40 H          -3.7665    4.7520   -0.5938 H       1  UNL1        0.0618
     41 H          -4.3249    3.1419   -2.2923 H       1  UNL1        0.0618
     42 H          -3.4826    0.8985   -2.1445 H       1  UNL1        0.0621
     43 H          -1.6435   -0.6804    2.4060 H       1  UNL1        0.0621
     44 H          -3.0296   -2.0864    3.7420 H       1  UNL1        0.0618
     45 H          -4.9052   -3.2934    2.8476 H       1  UNL1        0.0618
     46 H          -5.3831   -3.0561    0.4737 H       1  UNL1        0.0618
     47 H          -4.0000   -1.6513   -0.8794 H       1  UNL1        0.0621
@<TRIPOS>BOND
     1     1     2    2
     2     2     3   am
     3     2    16    1
     4     3     4    1
     5     4     5    1
     6     5     6   ar
     7     5    15   ar
     8     6     7   ar
     9     7     8   ar
    10     8     9    2
    11     8    10   ar
    12    10    11   ar
    13    10    15   ar
    14    11    12   ar
    15    12    13   ar
    16    13    14   ar
    17    14    15   ar
    18    16    17    1
    19    16    23    1
    20    17    18   ar
    21    17    22   ar
    22    18    19   ar
    23    19    20   ar
    24    20    21   ar
    25    21    22   ar
    26    23    24   ar
    27    23    28   ar
    28    24    25   ar
    29    25    26   ar
    30    26    27   ar
    31    27    28   ar
    32     3    29    1
    33     4    30    1
    34     4    31    1
    35     7    32    1
    36    11    33    1
    37    12    34    1
    38    13    35    1
    39    14    36    1
    40    16    37    1
    41    18    38    1
    42    19    39    1
    43    20    40    1
    44    21    41    1
    45    22    42    1
    46    24    43    1
    47    25    44    1
    48    26    45    1
    49    27    46    1
    50    28    47    1
@<TRIPOS>MOLECULE
../data/bude_mols_rdkit_confs/molecule_1.pdb
 47 50 0 0 0
SMALL
GASTEIGER

@<TRIPOS>ATOM
      1  O1        -0.6670   -1.5010    1.2480 O.2     1  UNL1       -0.2748
      2  C1        -0.6810   -1.1630    0.0180 C.2     1  UNL1        0.2251
      3  N1         0.6230   -1.0850   -0.6030 N.am    1  UNL1       -0.3089
      4  C2         1.7260   -1.2850    0.3030 C.3     1  UNL1        0.0562
      5  C3         3.0820   -1.2670   -0.1910 C.ar    1  UNL1        0.0863
      6  N2         3.7910   -2.2710   -0.7340 N.ar    1  UNL1       -0.1737
      7  N3         5.1070   -2.1790   -0.9160 N.ar    1  UNL1       -0.2424
      8  C4         5.8530   -1.1140   -0.5990 C.ar    1  UNL1        0.2725
      9  O2         7.1090   -1.0440   -0.7820 O.2     1  UNL1       -0.2658
     10  C5         5.1930   -0.0190   -0.0340 C.ar    1  UNL1        0.0496
     11  C6         5.8830    1.1470    0.2570 C.ar    1  UNL1       -0.0487
     12  C7         5.2130    2.2490    0.7480 C.ar    1  UNL1       -0.0610
     13  C8         3.8600    2.1330    0.9260 C.ar    1  UNL1       -0.0611
     14  C9         3.1770    0.9710    0.6370 C.ar    1  UNL1       -0.0520
     15  C10        3.8490   -0.1370    0.1450 C.ar    1  UNL1        0.0118
     16  C11       -1.8600   -0.8490   -0.7710 C.3     1  UNL1        0.0855
     17  C12       -3.1660   -1.2810   -0.1700 C.ar    1  UNL1       -0.0312
     18  C13       -3.3390   -2.2580    0.7450 C.ar    1  UNL1       -0.0575
     19  C14       -4.5900   -2.5180    1.3180 C.ar    1  UNL1       -0.0615
     20  C15       -5.6760   -1.7650    0.9470 C.ar    1  UNL1       -0.0617
     21  C16       -5.5440   -0.7660    0.0200 C.ar    1  UNL1       -0.0615
     22  C17       -4.2770   -0.5300   -0.5400 C.ar    1  UNL1       -0.0575
     23  C18       -2.0260    0.6890   -0.5920 C.ar    1  UNL1       -0.0312
     24  C19       -1.9250    1.1860    0.6830 C.ar    1  UNL1       -0.0575
     25  C20       -2.2050    2.5260    0.9590 C.ar    1  UNL1       -0.0615
     26  C21       -2.5880    3.3620   -0.0490 C.ar    1  UNL1       -0.0617
     27  C22       -2.6820    2.8480   -1.3320 C.ar    1  UNL1       -0.0615
     28  C23       -2.3970    1.4970   -1.6110 C.ar    1  UNL1       -0.0575
     29 H           0.7468   -0.9100   -1.5639 H       1  UNL1        0.1491
     30 H           1.5781   -2.2398    0.7627 H       1  UNL1        0.0528
     31 H           1.6841   -0.4216    0.9336 H       1  UNL1        0.0528
     32 H           5.5662   -2.9535   -1.3141 H       1  UNL1        0.1921
     33 H           6.9029    1.1914    0.1058 H       1  UNL1        0.0625
     34 H           5.7111    3.1247    0.9719 H       1  UNL1        0.0618
     35 H           3.3338    2.9432    1.2889 H       1  UNL1        0.0618
     36 H           2.1571    0.9256    0.7882 H       1  UNL1        0.0624
     37 H          -1.7096   -1.2894   -1.7345 H       1  UNL1        0.0492
     38 H          -2.5277   -2.8286    1.0299 H       1  UNL1        0.0621
     39 H          -4.6948   -3.2715    2.0153 H       1  UNL1        0.0618
     40 H          -6.5985   -1.9531    1.3697 H       1  UNL1        0.0618
     41 H          -6.3583   -0.1980   -0.2616 H       1  UNL1        0.0618
     42 H          -4.1681    0.2182   -1.2424 H       1  UNL1        0.0621
     43 H          -1.6374    0.5591    1.4507 H       1  UNL1        0.0621
     44 H          -2.1224    2.8833    1.9236 H       1  UNL1        0.0618
     45 H          -2.8026    4.3536    0.1399 H       1  UNL1        0.0618
     46 H          -2.9682    3.4710   -2.1033 H       1  UNL1        0.0618
     47 H          -2.4698    1.1313   -2.5733 H       1  UNL1        0.0621
@<TRIPOS>BOND
     1     1     2    2
     2     2     3   am
     3     2    16    1
     4     3     4    1
     5     4     5    1
     6     5     6   ar
     7     5    15   ar
     8     6     7   ar
     9     7     8   ar
    10     8     9    2
    11     8    10   ar
    12    10    11   ar
    13    10    15   ar
    14    11    12   ar
    15    12    13   ar
    16    13    14   ar
    17    14    15   ar
    18    16    17    1
    19    16    23    1
    20    17    18   ar
    21    17    22   ar
    22    18    19   ar
    23    19    20   ar
    24    20    21   ar
    25    21    22   ar
    26    23    24   ar
    27    23    28   ar
    28    24    25   ar
    29    25    26   ar
    30    26    27   ar
    31    27    28   ar
    32     3    29    1
    33     4    30    1
    34     4    31    1
    35     7    32    1
    36    11    33    1
    37    12    34    1
    38    13    35    1
    39    14    36    1
    40    16    37    1
    41    18    38    1
    42    19    39    1
    43    20    40    1
    44    21    41    1
    45    22    42    1
    46    24    43    1
    47    25    44    1
    48    26    45    1
    49    27    46    1
    50    28    47    1
@<TRIPOS>MOLECULE
../data/bude_mols_rdkit_confs/molecule_1.pdb
 47 50 0 0 0
SMALL
GASTEIGER

@<TRIPOS>ATOM
      1  O1        -0.3590    1.5140   -0.3980 O.2     1  UNL1       -0.2748
      2  C1        -0.7260    0.3630    0.1150 C.2     1  UNL1        0.2251
      3  N1         0.2540   -0.6730    0.0120 N.am    1  UNL1       -0.3089
      4  C2         1.4190   -0.2840   -0.6740 C.3     1  UNL1        0.0562
      5  C3         2.6800   -0.9540   -0.6730 C.ar    1  UNL1        0.0863
      6  N2         3.0470   -2.0580   -1.2950 N.ar    1  UNL1       -0.1737
      7  N3         4.3670   -2.3390   -1.4360 N.ar    1  UNL1       -0.2424
      8  C4         5.3590   -1.5590   -0.9650 C.ar    1  UNL1        0.2725
      9  O2         6.5610   -1.8660   -1.1100 O.2     1  UNL1       -0.2658
     10  C5         5.0340   -0.4080   -0.3080 C.ar    1  UNL1        0.0496
     11  C6         5.9840    0.4150    0.2820 C.ar    1  UNL1       -0.0487
     12  C7         5.5580    1.5140    1.0070 C.ar    1  UNL1       -0.0610
     13  C8         4.2420    1.8240    1.1850 C.ar    1  UNL1       -0.0611
     14  C9         3.3700    0.9540    0.5720 C.ar    1  UNL1       -0.0520
     15  C10        3.7380   -0.1480   -0.1790 C.ar    1  UNL1        0.0118
     16  C11       -2.0570    0.4020    0.6610 C.3     1  UNL1        0.0855
     17  C12       -2.7910    1.2600   -0.3150 C.ar    1  UNL1       -0.0312
     18  C13       -2.3500    1.2790   -1.6550 C.ar    1  UNL1       -0.0575
     19  C14       -2.8220    2.1660   -2.5860 C.ar    1  UNL1       -0.0615
     20  C15       -3.7760    3.0750   -2.2240 C.ar    1  UNL1       -0.0617
     21  C16       -4.2480    3.0760   -0.9420 C.ar    1  UNL1       -0.0615
     22  C17       -3.7430    2.1660    0.0080 C.ar    1  UNL1       -0.0575
     23  C18       -2.6190   -0.8500    1.0670 C.ar    1  UNL1       -0.0312
     24  C19       -3.2930   -1.0180    2.2900 C.ar    1  UNL1       -0.0575
     25  C20       -3.8460   -2.1540    2.7390 C.ar    1  UNL1       -0.0615
     26  C21       -3.7420   -3.2730    1.9220 C.ar    1  UNL1       -0.0617
     27  C22       -3.0870   -3.1900    0.7170 C.ar    1  UNL1       -0.0615
     28  C23       -2.5380   -2.0080    0.2930 C.ar    1  UNL1       -0.0575
     29 H           0.1255   -1.5745    0.3862 H       1  UNL1        0.1491
     30 H           1.6309    0.7033   -0.3200 H       1  UNL1        0.0528
     31 H           1.1097   -0.5003   -1.6752 H       1  UNL1        0.0528
     32 H           4.6151   -3.1642   -1.9121 H       1  UNL1        0.1921
     33 H           6.9906    0.2106    0.1816 H       1  UNL1        0.0625
     34 H           6.2698    2.1279    1.4331 H       1  UNL1        0.0618
     35 H           3.9274    2.6405    1.7321 H       1  UNL1        0.0618
     36 H           2.3605    1.1383    0.6812 H       1  UNL1        0.0624
     37 H          -2.1097    0.8293    1.6405 H       1  UNL1        0.0492
     38 H          -1.6378    0.5919   -1.9477 H       1  UNL1        0.0621
     39 H          -2.4603    2.1480   -3.5524 H       1  UNL1        0.0618
     40 H          -4.1364    3.7541   -2.9124 H       1  UNL1        0.0618
     41 H          -4.9806    3.7489   -0.6670 H       1  UNL1        0.0618
     42 H          -4.1078    2.1910    0.9730 H       1  UNL1        0.0621
     43 H          -3.3691   -0.1886    2.8994 H       1  UNL1        0.0621
     44 H          -4.3275   -2.1953    3.6509 H       1  UNL1        0.0618
     45 H          -4.1578   -4.1689    2.2210 H       1  UNL1        0.0618
     46 H          -3.0073   -4.0299    0.1226 H       1  UNL1        0.0618
     47 H          -2.0545   -1.9738   -0.6181 H       1  UNL1        0.0621
@<TRIPOS>BOND
     1     1     2    2
     2     2     3   am
     3     2    16    1
     4     3     4    1
     5     4     5    1
     6     5     6   ar
     7     5    15   ar
     8     6     7   ar
     9     7     8   ar
    10     8     9    2
    11     8    10   ar
    12    10    11   ar
    13    10    15   ar
    14    11    12   ar
    15    12    13   ar
    16    13    14   ar
    17    14    15   ar
    18    16    17    1
    19    16    23    1
    20    17    18   ar
    21    17    22   ar
    22    18    19   ar
    23    19    20   ar
    24    20    21   ar
    25    21    22   ar
    26    23    24   ar
    27    23    28   ar
    28    24    25   ar
    29    25    26   ar
    30    26    27   ar
    31    27    28   ar
    32     3    29    1
    33     4    30    1
    34     4    31    1
    35     7    32    1
    36    11    33    1
    37    12    34    1
    38    13    35    1
    39    14    36    1
    40    16    37    1
    41    18    38    1
    42    19    39    1
    43    20    40    1
    44    21    41    1
    45    22    42    1
    46    24    43    1
    47    25    44    1
    48    26    45    1
    49    27    46    1
    50    28    47    1
@<TRIPOS>MOLECULE
../data/bude_mols_rdkit_confs/molecule_1.pdb
 47 50 0 0 0
SMALL
GASTEIGER

@<TRIPOS>ATOM
      1  O1        -0.1440   -1.4570   -0.4880 O.2     1  UNL1       -0.2748
      2  C1        -0.6330   -0.4280   -0.9740 C.2     1  UNL1        0.2251
      3  N1         0.2960    0.4610   -1.6280 N.am    1  UNL1       -0.3089
      4  C2         1.7050    0.1360   -1.6960 C.3     1  UNL1        0.0562
      5  C3         2.3500   -0.0140   -0.3820 C.ar    1  UNL1        0.0863
      6  N2         1.7560    0.1220    0.7960 N.ar    1  UNL1       -0.1737
      7  N3         2.3360   -0.0120    1.9760 N.ar    1  UNL1       -0.2424
      8  C4         3.6420   -0.3140    2.0370 C.ar    1  UNL1        0.2725
      9  O2         4.2680   -0.4600    3.1130 O.2     1  UNL1       -0.2658
     10  C5         4.3380   -0.4750    0.8590 C.ar    1  UNL1        0.0496
     11  C6         5.6810   -0.7850    0.8320 C.ar    1  UNL1       -0.0487
     12  C7         6.3790   -0.9450   -0.3430 C.ar    1  UNL1       -0.0610
     13  C8         5.7140   -0.7910   -1.5410 C.ar    1  UNL1       -0.0611
     14  C9         4.3740   -0.4810   -1.5780 C.ar    1  UNL1       -0.0520
     15  C10        3.7090   -0.3280   -0.3810 C.ar    1  UNL1        0.0118
     16  C11       -2.0460   -0.0170   -0.9580 C.3     1  UNL1        0.0855
     17  C12       -2.2250    1.2950   -0.2640 C.ar    1  UNL1       -0.0312
     18  C13       -3.0510    2.2900   -0.7460 C.ar    1  UNL1       -0.0575
     19  C14       -3.2150    3.4960   -0.1030 C.ar    1  UNL1       -0.0615
     20  C15       -2.5330    3.7170    1.0600 C.ar    1  UNL1       -0.0617
     21  C16       -1.6910    2.7560    1.5890 C.ar    1  UNL1       -0.0615
     22  C17       -1.5530    1.5490    0.9080 C.ar    1  UNL1       -0.0575
     23  C18       -2.9670   -0.9830   -0.3650 C.ar    1  UNL1       -0.0312
     24  C19       -2.6290   -1.7150    0.7640 C.ar    1  UNL1       -0.0575
     25  C20       -3.5640   -2.6040    1.2510 C.ar    1  UNL1       -0.0615
     26  C21       -4.8060   -2.8010    0.6800 C.ar    1  UNL1       -0.0617
     27  C22       -5.1380   -2.0680   -0.4460 C.ar    1  UNL1       -0.0615
     28  C23       -4.2050   -1.1770   -0.9370 C.ar    1  UNL1       -0.0575
     29 H          -0.0315    1.2969   -2.0320 H       1  UNL1        0.1491
     30 H           2.2050    0.9177   -2.2287 H       1  UNL1        0.0528
     31 H           1.7802   -0.8117   -2.1871 H       1  UNL1        0.0528
     32 H           1.8148    0.1086    2.8024 H       1  UNL1        0.1921
     33 H           6.1818   -0.9015    1.7268 H       1  UNL1        0.0625
     34 H           7.3846   -1.1767   -0.3278 H       1  UNL1        0.0618
     35 H           6.2309   -0.9105   -2.4262 H       1  UNL1        0.0618
     36 H           3.8808   -0.3663   -2.4772 H       1  UNL1        0.0624
     37 H          -2.2991    0.0591   -1.9948 H       1  UNL1        0.0492
     38 H          -3.5667    2.1231   -1.6242 H       1  UNL1        0.0621
     39 H          -3.8407    4.2188   -0.4917 H       1  UNL1        0.0618
     40 H          -2.6482    4.6167    1.5522 H       1  UNL1        0.0618
     41 H          -1.1773    2.9290    2.4672 H       1  UNL1        0.0618
     42 H          -0.9281    0.8243    1.2944 H       1  UNL1        0.0621
     43 H          -1.7118   -1.5985    1.2224 H       1  UNL1        0.0621
     44 H          -3.3218   -3.1536    2.0902 H       1  UNL1        0.0618
     45 H          -5.4711   -3.4791    1.0836 H       1  UNL1        0.0618
     46 H          -6.0552   -2.1840   -0.9046 H       1  UNL1        0.0618
     47 H          -4.4476   -0.6276   -1.7763 H       1  UNL1        0.0621
@<TRIPOS>BOND
     1     1     2    2
     2     2     3   am
     3     2    16    1
     4     3     4    1
     5     4     5    1
     6     5     6   ar
     7     5    15   ar
     8     6     7   ar
     9     7     8   ar
    10     8     9    2
    11     8    10   ar
    12    10    11   ar
    13    10    15   ar
    14    11    12   ar
    15    12    13   ar
    16    13    14   ar
    17    14    15   ar
    18    16    17    1
    19    16    23    1
    20    17    18   ar
    21    17    22   ar
    22    18    19   ar
    23    19    20   ar
    24    20    21   ar
    25    21    22   ar
    26    23    24   ar
    27    23    28   ar
    28    24    25   ar
    29    25    26   ar
    30    26    27   ar
    31    27    28   ar
    32     3    29    1
    33     4    30    1
    34     4    31    1
    35     7    32    1
    36    11    33    1
    37    12    34    1
    38    13    35    1
    39    14    36    1
    40    16    37    1
    41    18    38    1
    42    19    39    1
    43    20    40    1
    44    21    41    1
    45    22    42    1
    46    24    43    1
    47    25    44    1
    48    26    45    1
    49    27    46    1
    50    28    47    1
@<TRIPOS>MOLECULE
../data/bude_mols_rdkit_confs/molecule_1.pdb
 47 50 0 0 0
SMALL
GASTEIGER

@<TRIPOS>ATOM
      1  O1         0.1470    0.6020   -1.9360 O.2     1  UNL1       -0.2748
      2  C1        -0.5170   -0.1390   -1.1690 C.2     1  UNL1        0.2251
      3  N1         0.1270   -1.2440   -0.5950 N.am    1  UNL1       -0.3089
      4  C2         1.4270   -1.7580   -0.6640 C.3     1  UNL1        0.0562
      5  C3         2.5640   -0.8850   -1.0000 C.ar    1  UNL1        0.0863
      6  N2         2.9750   -0.6280   -2.2750 N.ar    1  UNL1       -0.1737
      7  N3         4.1310   -0.0740   -2.5980 N.ar    1  UNL1       -0.2424
      8  C4         5.0110    0.2910   -1.6490 C.ar    1  UNL1        0.2725
      9  O2         6.1250    0.8170   -1.8710 O.2     1  UNL1       -0.2658
     10  C5         4.6510    0.0630   -0.3290 C.ar    1  UNL1        0.0496
     11  C6         5.4660    0.5190    0.7110 C.ar    1  UNL1       -0.0487
     12  C7         5.0420    0.3840    2.0130 C.ar    1  UNL1       -0.0610
     13  C8         3.8400   -0.1860    2.2980 C.ar    1  UNL1       -0.0611
     14  C9         3.0030   -0.6550    1.3060 C.ar    1  UNL1       -0.0520
     15  C10        3.4540   -0.5110   -0.0030 C.ar    1  UNL1        0.0118
     16  C11       -1.9490    0.2010   -0.9120 C.3     1  UNL1        0.0855
     17  C12       -2.1800    1.5140   -0.3060 C.ar    1  UNL1       -0.0312
     18  C13       -1.3280    2.1840    0.5560 C.ar    1  UNL1       -0.0575
     19  C14       -1.6610    3.4030    1.0820 C.ar    1  UNL1       -0.0615
     20  C15       -2.8510    4.0570    0.8160 C.ar    1  UNL1       -0.0617
     21  C16       -3.7140    3.4080   -0.0370 C.ar    1  UNL1       -0.0615
     22  C17       -3.3830    2.1850   -0.5770 C.ar    1  UNL1       -0.0575
     23  C18       -2.7040   -0.9100   -0.2840 C.ar    1  UNL1       -0.0312
     24  C19       -3.2490   -1.8850   -1.1310 C.ar    1  UNL1       -0.0575
     25  C20       -3.9850   -2.9370   -0.6330 C.ar    1  UNL1       -0.0615
     26  C21       -4.1940   -3.0430    0.7110 C.ar    1  UNL1       -0.0617
     27  C22       -3.6750   -2.0990    1.5690 C.ar    1  UNL1       -0.0615
     28  C23       -2.9270   -1.0330    1.0570 C.ar    1  UNL1       -0.0575
     29 H          -0.4657   -1.7755   -0.0158 H       1  UNL1        0.1491
     30 H           1.4099   -2.5344   -1.4001 H       1  UNL1        0.0528
     31 H           1.6289   -2.0325    0.3503 H       1  UNL1        0.0528
     32 H           4.3506    0.0734   -3.5463 H       1  UNL1        0.1921
     33 H           6.3788    0.9536    0.5039 H       1  UNL1        0.0625
     34 H           5.6428    0.7190    2.7823 H       1  UNL1        0.0618
     35 H           3.5459   -0.2700    3.2836 H       1  UNL1        0.0618
     36 H           2.0921   -1.0889    1.5229 H       1  UNL1        0.0624
     37 H          -2.3759    0.3185   -1.8861 H       1  UNL1        0.0492
     38 H          -0.4234    1.7554    0.8069 H       1  UNL1        0.0621
     39 H          -0.9854    3.8608    1.7136 H       1  UNL1        0.0618
     40 H          -3.0772    4.9742    1.2314 H       1  UNL1        0.0618
     41 H          -4.6194    3.8425   -0.2747 H       1  UNL1        0.0618
     42 H          -4.0572    1.7366   -1.2168 H       1  UNL1        0.0621
     43 H          -3.0955   -1.8129   -2.1490 H       1  UNL1        0.0621
     44 H          -4.3775   -3.6434   -1.2748 H       1  UNL1        0.0618
     45 H          -4.7425   -3.8328    1.0858 H       1  UNL1        0.0618
     46 H          -3.8371   -2.1775    2.5852 H       1  UNL1        0.0618
     47 H          -2.5379   -0.3288    1.7033 H       1  UNL1        0.0621
@<TRIPOS>BOND
     1     1     2    2
     2     2     3   am
     3     2    16    1
     4     3     4    1
     5     4     5    1
     6     5     6   ar
     7     5    15   ar
     8     6     7   ar
     9     7     8   ar
    10     8     9    2
    11     8    10   ar
    12    10    11   ar
    13    10    15   ar
    14    11    12   ar
    15    12    13   ar
    16    13    14   ar
    17    14    15   ar
    18    16    17    1
    19    16    23    1
    20    17    18   ar
    21    17    22   ar
    22    18    19   ar
    23    19    20   ar
    24    20    21   ar
    25    21    22   ar
    26    23    24   ar
    27    23    28   ar
    28    24    25   ar
    29    25    26   ar
    30    26    27   ar
    31    27    28   ar
    32     3    29    1
    33     4    30    1
    34     4    31    1
    35     7    32    1
    36    11    33    1
    37    12    34    1
    38    13    35    1
    39    14    36    1
    40    16    37    1
    41    18    38    1
    42    19    39    1
    43    20    40    1
    44    21    41    1
    45    22    42    1
    46    24    43    1
    47    25    44    1
    48    26    45    1
    49    27    46    1
    50    28    47    1
@<TRIPOS>MOLECULE
../data/bude_mols_rdkit_confs/molecule_1.pdb
 47 50 0 0 0
SMALL
GASTEIGER

@<TRIPOS>ATOM
      1  O1         0.1530    0.4430    1.7520 O.2     1  UNL1       -0.2748
      2  C1        -0.5910    0.0190    0.8110 C.2     1  UNL1        0.2251
      3  N1        -0.0210   -1.0020    0.0120 N.am    1  UNL1       -0.3089
      4  C2         1.3190   -1.5140    0.2590 C.3     1  UNL1        0.0562
      5  C3         2.3430   -0.4420    0.1550 C.ar    1  UNL1        0.0863
      6  N2         2.0450    0.8410   -0.1310 N.ar    1  UNL1       -0.1737
      7  N3         2.9590    1.7930   -0.2220 N.ar    1  UNL1       -0.2424
      8  C4         4.2690    1.5440   -0.0320 C.ar    1  UNL1        0.2725
      9  O2         5.1060    2.4800   -0.1280 O.2     1  UNL1       -0.2658
     10  C5         4.6610    0.2470    0.2670 C.ar    1  UNL1        0.0496
     11  C6         5.9960   -0.0420    0.4680 C.ar    1  UNL1       -0.0487
     12  C7         6.3270   -1.3450    0.7620 C.ar    1  UNL1       -0.0610
     13  C8         5.3470   -2.3190    0.8500 C.ar    1  UNL1       -0.0611
     14  C9         4.0180   -2.0230    0.6490 C.ar    1  UNL1       -0.0520
     15  C10        3.6790   -0.7220    0.3540 C.ar    1  UNL1        0.0118
     16  C11       -1.9250    0.6150    0.6600 C.3     1  UNL1        0.0855
     17  C12       -2.0320    1.4230   -0.5700 C.ar    1  UNL1       -0.0312
     18  C13       -3.1120    2.3080   -0.6630 C.ar    1  UNL1       -0.0575
     19  C14       -3.2720    3.1040   -1.7750 C.ar    1  UNL1       -0.0615
     20  C15       -2.3700    3.0440   -2.8210 C.ar    1  UNL1       -0.0617
     21  C16       -1.3130    2.1860   -2.7430 C.ar    1  UNL1       -0.0615
     22  C17       -1.1700    1.3970   -1.6200 C.ar    1  UNL1       -0.0575
     23  C18       -3.0320   -0.3820    0.7560 C.ar    1  UNL1       -0.0312
     24  C19       -3.7750   -0.5510    1.8990 C.ar    1  UNL1       -0.0575
     25  C20       -4.8090   -1.4390    2.0270 C.ar    1  UNL1       -0.0615
     26  C21       -5.1290   -2.2220    0.9260 C.ar    1  UNL1       -0.0617
     27  C22       -4.3970   -2.0680   -0.2300 C.ar    1  UNL1       -0.0615
     28  C23       -3.3500   -1.1540   -0.3250 C.ar    1  UNL1       -0.0575
     29 H          -0.5462   -1.3762   -0.7319 H       1  UNL1        0.1491
     30 H           1.5382   -2.2744   -0.4612 H       1  UNL1        0.0528
     31 H           1.3481   -1.9087    1.2531 H       1  UNL1        0.0528
     32 H           2.6732    2.7107   -0.4349 H       1  UNL1        0.1921
     33 H           6.7186    0.6917    0.4003 H       1  UNL1        0.0625
     34 H           7.3151   -1.5985    0.9184 H       1  UNL1        0.0618
     35 H           5.6193   -3.2895    1.0714 H       1  UNL1        0.0618
     36 H           3.2953   -2.7565    0.7176 H       1  UNL1        0.0624
     37 H          -2.0429    1.2738    1.4948 H       1  UNL1        0.0492
     38 H          -3.7947    2.3645    0.1089 H       1  UNL1        0.0621
     39 H          -4.0734    3.7520   -1.8282 H       1  UNL1        0.0618
     40 H          -2.4953    3.6424   -3.6524 H       1  UNL1        0.0618
     41 H          -0.6291    2.1275   -3.5136 H       1  UNL1        0.0618
     42 H          -0.3652    0.7526   -1.5752 H       1  UNL1        0.0621
     43 H          -3.5374    0.0313    2.7172 H       1  UNL1        0.0621
     44 H          -5.3330   -1.5236    2.9121 H       1  UNL1        0.0618
     45 H          -5.9003   -2.9060    0.9731 H       1  UNL1        0.0618
     46 H          -4.6312   -2.6474   -1.0512 H       1  UNL1        0.0618
     47 H          -2.8190   -1.0609   -1.2050 H       1  UNL1        0.0621
@<TRIPOS>BOND
     1     1     2    2
     2     2     3   am
     3     2    16    1
     4     3     4    1
     5     4     5    1
     6     5     6   ar
     7     5    15   ar
     8     6     7   ar
     9     7     8   ar
    10     8     9    2
    11     8    10   ar
    12    10    11   ar
    13    10    15   ar
    14    11    12   ar
    15    12    13   ar
    16    13    14   ar
    17    14    15   ar
    18    16    17    1
    19    16    23    1
    20    17    18   ar
    21    17    22   ar
    22    18    19   ar
    23    19    20   ar
    24    20    21   ar
    25    21    22   ar
    26    23    24   ar
    27    23    28   ar
    28    24    25   ar
    29    25    26   ar
    30    26    27   ar
    31    27    28   ar
    32     3    29    1
    33     4    30    1
    34     4    31    1
    35     7    32    1
    36    11    33    1
    37    12    34    1
    38    13    35    1
    39    14    36    1
    40    16    37    1
    41    18    38    1
    42    19    39    1
    43    20    40    1
    44    21    41    1
    45    22    42    1
    46    24    43    1
    47    25    44    1
    48    26    45    1
    49    27    46    1
    50    28    47    1
@<TRIPOS>MOLECULE
../data/bude_mols_rdkit_confs/molecule_1.pdb
 47 50 0 0 0
SMALL
GASTEIGER

@<TRIPOS>ATOM
      1  O1        -0.3740    1.9210   -0.0940 O.2     1  UNL1       -0.2748
      2  C1        -0.5390    0.6410   -0.0440 C.2     1  UNL1        0.2251
      3  N1         0.5950   -0.1800   -0.4900 N.am    1  UNL1       -0.3089
      4  C2         1.7260    0.6280   -0.7740 C.3     1  UNL1        0.0562
      5  C3         3.0280    0.0970   -1.1000 C.ar    1  UNL1        0.0863
      6  N2         3.5880   -0.0930   -2.2870 N.ar    1  UNL1       -0.1737
      7  N3         4.9210   -0.3050   -2.4200 N.ar    1  UNL1       -0.2424
      8  C4         5.7810   -0.3440   -1.3730 C.ar    1  UNL1        0.2725
      9  O2         7.0170   -0.5400   -1.5770 O.2     1  UNL1       -0.2658
     10  C5         5.2440   -0.1600   -0.1240 C.ar    1  UNL1        0.0496
     11  C6         6.0680   -0.2860    0.9980 C.ar    1  UNL1       -0.0487
     12  C7         5.4590   -0.1910    2.2600 C.ar    1  UNL1       -0.0610
     13  C8         4.1040    0.0210    2.4020 C.ar    1  UNL1       -0.0611
     14  C9         3.3110    0.1470    1.2650 C.ar    1  UNL1       -0.0520
     15  C10        3.9110    0.0530    0.0200 C.ar    1  UNL1        0.0118
     16  C11       -1.8140    0.2160    0.4520 C.3     1  UNL1        0.0855
     17  C12       -2.8470    1.2530    0.0980 C.ar    1  UNL1       -0.0312
     18  C13       -3.6630    1.8250    1.0320 C.ar    1  UNL1       -0.0575
     19  C14       -4.6210    2.7310    0.5710 C.ar    1  UNL1       -0.0615
     20  C15       -4.7600    3.0560   -0.7530 C.ar    1  UNL1       -0.0617
     21  C16       -3.9360    2.4750   -1.6820 C.ar    1  UNL1       -0.0615
     22  C17       -2.9780    1.5760   -1.2460 C.ar    1  UNL1       -0.0575
     23  C18       -2.4140   -1.0590    0.3370 C.ar    1  UNL1       -0.0312
     24  C19       -2.8690   -1.6930    1.5130 C.ar    1  UNL1       -0.0575
     25  C20       -3.4900   -2.9160    1.5280 C.ar    1  UNL1       -0.0615
     26  C21       -3.7020   -3.5930    0.3380 C.ar    1  UNL1       -0.0617
     27  C22       -3.2740   -3.0070   -0.8370 C.ar    1  UNL1       -0.0615
     28  C23       -2.6470   -1.7690   -0.8130 C.ar    1  UNL1       -0.0575
     29 H           0.5729   -1.1601   -0.5798 H       1  UNL1        0.1491
     30 H           1.8698    1.2423    0.0902 H       1  UNL1        0.0528
     31 H           1.4400    1.0624   -1.7091 H       1  UNL1        0.0528
     32 H           5.2835   -0.4377   -3.3257 H       1  UNL1        0.1921
     33 H           7.0836   -0.4426    0.9029 H       1  UNL1        0.0625
     34 H           6.0429   -0.2826    3.1060 H       1  UNL1        0.0618
     35 H           3.6821    0.0856    3.3416 H       1  UNL1        0.0618
     36 H           2.2949    0.3075    1.3480 H       1  UNL1        0.0624
     37 H          -1.4788    0.0890    1.4602 H       1  UNL1        0.0492
     38 H          -3.5756    1.5977    2.0349 H       1  UNL1        0.0621
     39 H          -5.2513    3.1748    1.2571 H       1  UNL1        0.0618
     40 H          -5.4801    3.7335   -1.0488 H       1  UNL1        0.0618
     41 H          -4.0279    2.7029   -2.6843 H       1  UNL1        0.0618
     42 H          -2.3476    1.1364   -1.9347 H       1  UNL1        0.0621
     43 H          -2.7263   -1.2088    2.4131 H       1  UNL1        0.0621
     44 H          -3.7979   -3.3300    2.4218 H       1  UNL1        0.0618
     45 H          -4.1687   -4.5134    0.3298 H       1  UNL1        0.0618
     46 H          -3.4209   -3.4915   -1.7363 H       1  UNL1        0.0618
     47 H          -2.3394   -1.3605   -1.7094 H       1  UNL1        0.0621
@<TRIPOS>BOND
     1     1     2    2
     2     2     3   am
     3     2    16    1
     4     3     4    1
     5     4     5    1
     6     5     6   ar
     7     5    15   ar
     8     6     7   ar
     9     7     8   ar
    10     8     9    2
    11     8    10   ar
    12    10    11   ar
    13    10    15   ar
    14    11    12   ar
    15    12    13   ar
    16    13    14   ar
    17    14    15   ar
    18    16    17    1
    19    16    23    1
    20    17    18   ar
    21    17    22   ar
    22    18    19   ar
    23    19    20   ar
    24    20    21   ar
    25    21    22   ar
    26    23    24   ar
    27    23    28   ar
    28    24    25   ar
    29    25    26   ar
    30    26    27   ar
    31    27    28   ar
    32     3    29    1
    33     4    30    1
    34     4    31    1
    35     7    32    1
    36    11    33    1
    37    12    34    1
    38    13    35    1
    39    14    36    1
    40    16    37    1
    41    18    38    1
    42    19    39    1
    43    20    40    1
    44    21    41    1
    45    22    42    1
    46    24    43    1
    47    25    44    1
    48    26    45    1
    49    27    46    1
    50    28    47    1
@<TRIPOS>MOLECULE
../data/bude_mols_rdkit_confs/molecule_1.pdb
 47 50 0 0 0
SMALL
GASTEIGER

@<TRIPOS>ATOM
      1  O1         0.3170   -0.0590    1.7900 O.2     1  UNL1       -0.2748
      2  C1        -0.4320    0.2720    0.7960 C.2     1  UNL1        0.2251
      3  N1         0.2490    1.0140   -0.1990 N.am    1  UNL1       -0.3089
      4  C2         1.6500    1.3640   -0.1170 C.3     1  UNL1        0.0562
      5  C3         2.4680    0.1510   -0.0700 C.ar    1  UNL1        0.0863
      6  N2         1.8820   -1.0540   -0.1140 N.ar    1  UNL1       -0.1737
      7  N3         2.5690   -2.1850   -0.0800 N.ar    1  UNL1       -0.2424
      8  C4         3.9100   -2.1840    0.0030 C.ar    1  UNL1        0.2725
      9  O2         4.5730   -3.2550    0.0360 O.2     1  UNL1       -0.2658
     10  C5         4.5790   -1.0020    0.0520 C.ar    1  UNL1        0.0496
     11  C6         5.9530   -0.9710    0.1360 C.ar    1  UNL1       -0.0487
     12  C7         6.5810    0.2590    0.1830 C.ar    1  UNL1       -0.0610
     13  C8         5.8770    1.4450    0.1480 C.ar    1  UNL1       -0.0611
     14  C9         4.4990    1.3720    0.0630 C.ar    1  UNL1       -0.0520
     15  C10        3.8460    0.1690    0.0150 C.ar    1  UNL1        0.0118
     16  C11       -1.8180   -0.1290    0.8030 C.3     1  UNL1        0.0855
     17  C12       -2.2640   -1.0880   -0.2190 C.ar    1  UNL1       -0.0312
     18  C13       -3.4380   -1.7920    0.0830 C.ar    1  UNL1       -0.0575
     19  C14       -3.9840   -2.7300   -0.7620 C.ar    1  UNL1       -0.0615
     20  C15       -3.3750   -3.0090   -1.9570 C.ar    1  UNL1       -0.0617
     21  C16       -2.2210   -2.3270   -2.2700 C.ar    1  UNL1       -0.0615
     22  C17       -1.6730   -1.3740   -1.4030 C.ar    1  UNL1       -0.0575
     23  C18       -2.8060    0.9960    0.7870 C.ar    1  UNL1       -0.0312
     24  C19       -3.0810    1.7220   -0.3570 C.ar    1  UNL1       -0.0575
     25  C20       -3.9870    2.7650   -0.3380 C.ar    1  UNL1       -0.0615
     26  C21       -4.6200    3.0750    0.8450 C.ar    1  UNL1       -0.0617
     27  C22       -4.3820    2.3830    2.0140 C.ar    1  UNL1       -0.0615
     28  C23       -3.4710    1.3540    1.9430 C.ar    1  UNL1       -0.0575
     29 H          -0.2587    1.3077   -0.9897 H       1  UNL1        0.1491
     30 H           1.8199    1.9403    0.7684 H       1  UNL1        0.0528
     31 H           1.9199    1.9360   -0.9801 H       1  UNL1        0.0528
     32 H           2.0881   -3.0433   -0.1162 H       1  UNL1        0.1921
     33 H           6.5006   -1.8453    0.1632 H       1  UNL1        0.0625
     34 H           7.6105    0.2915    0.2464 H       1  UNL1        0.0618
     35 H           6.3622    2.3551    0.1840 H       1  UNL1        0.0618
     36 H           3.9492    2.2449    0.0350 H       1  UNL1        0.0624
     37 H          -1.8147   -0.6308    1.7480 H       1  UNL1        0.0492
     38 H          -3.9133   -1.5981    0.9783 H       1  UNL1        0.0621
     39 H          -4.8509   -3.2227   -0.4962 H       1  UNL1        0.0618
     40 H          -3.7698   -3.7098   -2.6035 H       1  UNL1        0.0618
     41 H          -1.7480   -2.5230   -3.1660 H       1  UNL1        0.0618
     42 H          -0.8059   -0.8824   -1.6704 H       1  UNL1        0.0621
     43 H          -2.6021    1.4811   -1.2389 H       1  UNL1        0.0621
     44 H          -4.1860    3.3027   -1.1961 H       1  UNL1        0.0618
     45 H          -5.2972    3.8536    0.8573 H       1  UNL1        0.0618
     46 H          -4.8617    2.6241    2.8954 H       1  UNL1        0.0618
     47 H          -3.2735    0.8191    2.8032 H       1  UNL1        0.0621
@<TRIPOS>BOND
     1     1     2    2
     2     2     3   am
     3     2    16    1
     4     3     4    1
     5     4     5    1
     6     5     6   ar
     7     5    15   ar
     8     6     7   ar
     9     7     8   ar
    10     8     9    2
    11     8    10   ar
    12    10    11   ar
    13    10    15   ar
    14    11    12   ar
    15    12    13   ar
    16    13    14   ar
    17    14    15   ar
    18    16    17    1
    19    16    23    1
    20    17    18   ar
    21    17    22   ar
    22    18    19   ar
    23    19    20   ar
    24    20    21   ar
    25    21    22   ar
    26    23    24   ar
    27    23    28   ar
    28    24    25   ar
    29    25    26   ar
    30    26    27   ar
    31    27    28   ar
    32     3    29    1
    33     4    30    1
    34     4    31    1
    35     7    32    1
    36    11    33    1
    37    12    34    1
    38    13    35    1
    39    14    36    1
    40    16    37    1
    41    18    38    1
    42    19    39    1
    43    20    40    1
    44    21    41    1
    45    22    42    1
    46    24    43    1
    47    25    44    1
    48    26    45    1
    49    27    46    1
    50    28    47    1
@<TRIPOS>MOLECULE
../data/bude_mols_rdkit_confs/molecule_1.pdb
 47 50 0 0 0
SMALL
GASTEIGER

@<TRIPOS>ATOM
      1  O1        -0.8250    1.6180    1.1250 O.2     1  UNL1       -0.2748
      2  C1        -0.7960    0.8880    0.1050 C.2     1  UNL1        0.2251
      3  N1         0.4650    0.3270   -0.2370 N.am    1  UNL1       -0.3089
      4  C2         1.6390    0.5990    0.5650 C.3     1  UNL1        0.0562
      5  C3         2.7900   -0.0950   -0.0040 C.ar    1  UNL1        0.0863
      6  N2         2.6330   -0.8390   -1.1110 N.ar    1  UNL1       -0.1737
      7  N3         3.6470   -1.4780   -1.6520 N.ar    1  UNL1       -0.2424
      8  C4         4.8880   -1.4450   -1.1630 C.ar    1  UNL1        0.2725
      9  O2         5.8590   -2.0510   -1.6720 O.2     1  UNL1       -0.2658
     10  C5         5.1110   -0.6930   -0.0210 C.ar    1  UNL1        0.0496
     11  C6         6.3640   -0.5990    0.5580 C.ar    1  UNL1       -0.0487
     12  C7         6.5870    0.1500    1.6950 C.ar    1  UNL1       -0.0610
     13  C8         5.5020    0.8100    2.2390 C.ar    1  UNL1       -0.0611
     14  C9         4.2420    0.7340    1.6830 C.ar    1  UNL1       -0.0520
     15  C10        4.0640   -0.0290    0.5430 C.ar    1  UNL1        0.0118
     16  C11       -2.0310    0.6730   -0.6380 C.3     1  UNL1        0.0855
     17  C12       -3.1590    1.3830    0.0080 C.ar    1  UNL1       -0.0312
     18  C13       -4.0160    2.1490   -0.7500 C.ar    1  UNL1       -0.0575
     19  C14       -5.0770    2.8230   -0.2140 C.ar    1  UNL1       -0.0615
     20  C15       -5.2900    2.7290    1.1350 C.ar    1  UNL1       -0.0617
     21  C16       -4.4460    1.9700    1.9160 C.ar    1  UNL1       -0.0615
     22  C17       -3.3640    1.2840    1.3530 C.ar    1  UNL1       -0.0575
     23  C18       -2.3780   -0.7320   -0.8840 C.ar    1  UNL1       -0.0312
     24  C19       -2.1170   -1.7650   -0.0010 C.ar    1  UNL1       -0.0575
     25  C20       -2.4730   -3.0690   -0.2940 C.ar    1  UNL1       -0.0615
     26  C21       -3.1040   -3.3740   -1.4870 C.ar    1  UNL1       -0.0617
     27  C22       -3.3720   -2.3630   -2.3780 C.ar    1  UNL1       -0.0615
     28  C23       -3.0070   -1.0730   -2.0610 C.ar    1  UNL1       -0.0575
     29 H           0.5406   -0.2533   -1.0287 H       1  UNL1        0.1491
     30 H           1.4747    0.2561    1.5652 H       1  UNL1        0.0528
     31 H           1.8274    1.6522    0.5748 H       1  UNL1        0.0528
     32 H           3.4812   -2.0106   -2.4633 H       1  UNL1        0.1921
     33 H           7.1544   -1.1036    0.1271 H       1  UNL1        0.0625
     34 H           7.5247    0.2145    2.1211 H       1  UNL1        0.0618
     35 H           5.6388    1.3786    3.0893 H       1  UNL1        0.0618
     36 H           3.4477    1.2365    2.1091 H       1  UNL1        0.0624
     37 H          -1.8436    1.0844   -1.6078 H       1  UNL1        0.0492
     38 H          -3.8500    2.2170   -1.7663 H       1  UNL1        0.0621
     39 H          -5.7014    3.3881   -0.8105 H       1  UNL1        0.0618
     40 H          -6.0836    3.2272    1.5675 H       1  UNL1        0.0618
     41 H          -4.6144    1.9064    2.9322 H       1  UNL1        0.0618
     42 H          -2.7353    0.7160    1.9421 H       1  UNL1        0.0621
     43 H          -1.6472   -1.5582    0.8943 H       1  UNL1        0.0621
     44 H          -2.2664   -3.8204    0.3825 H       1  UNL1        0.0618
     45 H          -3.3696   -4.3472   -1.7045 H       1  UNL1        0.0618
     46 H          -3.8412   -2.5676   -3.2741 H       1  UNL1        0.0618
     47 H          -3.2154   -0.3241   -2.7398 H       1  UNL1        0.0621
@<TRIPOS>BOND
     1     1     2    2
     2     2     3   am
     3     2    16    1
     4     3     4    1
     5     4     5    1
     6     5     6   ar
     7     5    15   ar
     8     6     7   ar
     9     7     8   ar
    10     8     9    2
    11     8    10   ar
    12    10    11   ar
    13    10    15   ar
    14    11    12   ar
    15    12    13   ar
    16    13    14   ar
    17    14    15   ar
    18    16    17    1
    19    16    23    1
    20    17    18   ar
    21    17    22   ar
    22    18    19   ar
    23    19    20   ar
    24    20    21   ar
    25    21    22   ar
    26    23    24   ar
    27    23    28   ar
    28    24    25   ar
    29    25    26   ar
    30    26    27   ar
    31    27    28   ar
    32     3    29    1
    33     4    30    1
    34     4    31    1
    35     7    32    1
    36    11    33    1
    37    12    34    1
    38    13    35    1
    39    14    36    1
    40    16    37    1
    41    18    38    1
    42    19    39    1
    43    20    40    1
    44    21    41    1
    45    22    42    1
    46    24    43    1
    47    25    44    1
    48    26    45    1
    49    27    46    1
    50    28    47    1
@<TRIPOS>MOLECULE
../data/bude_mols_rdkit_confs/molecule_1.pdb
 47 50 0 0 0
SMALL
GASTEIGER

@<TRIPOS>ATOM
      1  O1         0.4540    0.6100    1.6390 O.2     1  UNL1       -0.2748
      2  C1        -0.4110    0.5800    0.6800 C.2     1  UNL1        0.2251
      3  N1         0.1640    0.8280   -0.5960 N.am    1  UNL1       -0.3089
      4  C2         1.5830    1.0750   -0.7670 C.3     1  UNL1        0.0562
      5  C3         2.4120   -0.0490   -0.3180 C.ar    1  UNL1        0.0863
      6  N2         1.8340   -1.1510    0.1810 N.ar    1  UNL1       -0.1737
      7  N3         2.5060   -2.2030    0.6040 N.ar    1  UNL1       -0.2424
      8  C4         3.8420   -2.1740    0.5330 C.ar    1  UNL1        0.2725
      9  O2         4.4820   -3.1740    0.9350 O.2     1  UNL1       -0.2658
     10  C5         4.5220   -1.0880    0.0360 C.ar    1  UNL1        0.0496
     11  C6         5.9010   -1.0420   -0.0440 C.ar    1  UNL1       -0.0487
     12  C7         6.5850    0.0450   -0.5420 C.ar    1  UNL1       -0.0610
     13  C8         5.8410    1.1230   -0.9730 C.ar    1  UNL1       -0.0611
     14  C9         4.4550    1.1030   -0.9030 C.ar    1  UNL1       -0.0520
     15  C10        3.7850   -0.0050   -0.3970 C.ar    1  UNL1        0.0118
     16  C11       -1.8260    0.3150    0.9460 C.3     1  UNL1        0.0855
     17  C12       -2.3310   -0.9950    0.4730 C.ar    1  UNL1       -0.0312
     18  C13       -2.0860   -1.5700   -0.7360 C.ar    1  UNL1       -0.0575
     19  C14       -2.6150   -2.8170   -1.0820 C.ar    1  UNL1       -0.0615
     20  C15       -3.4130   -3.5280   -0.2110 C.ar    1  UNL1       -0.0617
     21  C16       -3.6720   -2.9630    1.0180 C.ar    1  UNL1       -0.0615
     22  C17       -3.1490   -1.7500    1.3360 C.ar    1  UNL1       -0.0575
     23  C18       -2.7350    1.4230    0.5620 C.ar    1  UNL1       -0.0312
     24  C19       -2.2320    2.5410   -0.0330 C.ar    1  UNL1       -0.0575
     25  C20       -3.0870    3.5870   -0.4120 C.ar    1  UNL1       -0.0615
     26  C21       -4.4380    3.4730   -0.1760 C.ar    1  UNL1       -0.0617
     27  C22       -4.9350    2.3370    0.4270 C.ar    1  UNL1       -0.0615
     28  C23       -4.0720    1.2980    0.8010 C.ar    1  UNL1       -0.0575
     29 H          -0.4195    0.8323   -1.3890 H       1  UNL1        0.1491
     30 H           1.8496    1.9439   -0.2023 H       1  UNL1        0.0528
     31 H           1.7633    1.2117   -1.8128 H       1  UNL1        0.0528
     32 H           2.0368   -2.9904    0.9632 H       1  UNL1        0.1921
     33 H           6.4418   -1.8576    0.2836 H       1  UNL1        0.0625
     34 H           7.6158    0.0523   -0.5907 H       1  UNL1        0.0618
     35 H           6.3204    1.9545   -1.3521 H       1  UNL1        0.0618
     36 H           3.9158    1.9198   -1.2302 H       1  UNL1        0.0624
     37 H          -1.8443    0.2538    2.0141 H       1  UNL1        0.0492
     38 H          -1.4925   -1.0710   -1.4171 H       1  UNL1        0.0621
     39 H          -2.4033   -3.2144   -2.0106 H       1  UNL1        0.0618
     40 H          -3.8014   -4.4484   -0.4701 H       1  UNL1        0.0618
     41 H          -4.2649   -3.4623    1.6993 H       1  UNL1        0.0618
     42 H          -3.3641   -1.3581    2.2661 H       1  UNL1        0.0621
     43 H          -1.2175    2.6187   -0.2057 H       1  UNL1        0.0621
     44 H          -2.7065    4.4335   -0.8633 H       1  UNL1        0.0618
     45 H          -5.0773    4.2356   -0.4496 H       1  UNL1        0.0618
     46 H          -5.9481    2.2513    0.6039 H       1  UNL1        0.0618
     47 H          -4.4440    0.4477    1.2523 H       1  UNL1        0.0621
@<TRIPOS>BOND
     1     1     2    2
     2     2     3   am
     3     2    16    1
     4     3     4    1
     5     4     5    1
     6     5     6   ar
     7     5    15   ar
     8     6     7   ar
     9     7     8   ar
    10     8     9    2
    11     8    10   ar
    12    10    11   ar
    13    10    15   ar
    14    11    12   ar
    15    12    13   ar
    16    13    14   ar
    17    14    15   ar
    18    16    17    1
    19    16    23    1
    20    17    18   ar
    21    17    22   ar
    22    18    19   ar
    23    19    20   ar
    24    20    21   ar
    25    21    22   ar
    26    23    24   ar
    27    23    28   ar
    28    24    25   ar
    29    25    26   ar
    30    26    27   ar
    31    27    28   ar
    32     3    29    1
    33     4    30    1
    34     4    31    1
    35     7    32    1
    36    11    33    1
    37    12    34    1
    38    13    35    1
    39    14    36    1
    40    16    37    1
    41    18    38    1
    42    19    39    1
    43    20    40    1
    44    21    41    1
    45    22    42    1
    46    24    43    1
    47    25    44    1
    48    26    45    1
    49    27    46    1
    50    28    47    1
@<TRIPOS>MOLECULE
../data/bude_mols_rdkit_confs/molecule_1.pdb
 47 50 0 0 0
SMALL
GASTEIGER

@<TRIPOS>ATOM
      1  O1         0.0600    1.1700   -0.9890 O.2     1  UNL1       -0.2748
      2  C1        -0.5150    0.0700   -1.1110 C.2     1  UNL1        0.2251
      3  N1         0.2870   -1.0820   -1.2620 N.am    1  UNL1       -0.3089
      4  C2         1.7240   -1.0710   -1.2860 C.3     1  UNL1        0.0562
      5  C3         2.3010   -0.5230   -0.0240 C.ar    1  UNL1        0.0863
      6  N2         1.5620   -0.0970    0.9960 N.ar    1  UNL1       -0.1737
      7  N3         2.1280    0.3790    2.0880 N.ar    1  UNL1       -0.2424
      8  C4         3.4490    0.4640    2.2420 C.ar    1  UNL1        0.2725
      9  O2         4.0030    0.9160    3.2810 O.2     1  UNL1       -0.2658
     10  C5         4.2940    0.0400    1.2240 C.ar    1  UNL1        0.0496
     11  C6         5.6490    0.1140    1.3510 C.ar    1  UNL1       -0.0487
     12  C7         6.4750   -0.3100    0.3330 C.ar    1  UNL1       -0.0610
     13  C8         5.8840   -0.8120   -0.8190 C.ar    1  UNL1       -0.0611
     14  C9         4.5110   -0.8820   -0.9380 C.ar    1  UNL1       -0.0520
     15  C10        3.6710   -0.4580    0.0820 C.ar    1  UNL1        0.0118
     16  C11       -1.9970    0.0330   -1.0890 C.3     1  UNL1        0.0855
     17  C12       -2.5690    1.3890   -0.8960 C.ar    1  UNL1       -0.0312
     18  C13       -2.0930    2.2370    0.0740 C.ar    1  UNL1       -0.0575
     19  C14       -2.6490    3.4890    0.2200 C.ar    1  UNL1       -0.0615
     20  C15       -3.6800    3.9350   -0.5780 C.ar    1  UNL1       -0.0617
     21  C16       -4.1680    3.0930   -1.5570 C.ar    1  UNL1       -0.0615
     22  C17       -3.5990    1.8360   -1.6930 C.ar    1  UNL1       -0.0575
     23  C18       -2.5640   -0.9750   -0.1860 C.ar    1  UNL1       -0.0312
     24  C19       -3.6900   -1.6840   -0.5550 C.ar    1  UNL1       -0.0575
     25  C20       -4.2560   -2.6400    0.2610 C.ar    1  UNL1       -0.0615
     26  C21       -3.7130   -2.9310    1.4950 C.ar    1  UNL1       -0.0617
     27  C22       -2.5880   -2.2310    1.8770 C.ar    1  UNL1       -0.0615
     28  C23       -2.0340   -1.2790    1.0520 C.ar    1  UNL1       -0.0575
     29 H          -0.1679   -1.9499   -1.3571 H       1  UNL1        0.1491
     30 H           2.0510   -0.4665   -2.1061 H       1  UNL1        0.0528
     31 H           2.0600   -2.0814   -1.3910 H       1  UNL1        0.0528
     32 H           1.5485    0.6854    2.8225 H       1  UNL1        0.1921
     33 H           6.0606    0.4916    2.2188 H       1  UNL1        0.0625
     34 H           7.5016   -0.2562    0.4239 H       1  UNL1        0.0618
     35 H           6.4796   -1.1371   -1.5966 H       1  UNL1        0.0618
     36 H           4.0991   -1.2586   -1.8061 H       1  UNL1        0.0624
     37 H          -2.2996   -0.3011   -2.0594 H       1  UNL1        0.0492
     38 H          -1.3219    1.9375    0.6910 H       1  UNL1        0.0621
     39 H          -2.2803    4.1150    0.9530 H       1  UNL1        0.0618
     40 H          -4.0786    4.8778   -0.4466 H       1  UNL1        0.0618
     41 H          -4.9392    3.3925   -2.1739 H       1  UNL1        0.0618
     42 H          -3.9641    1.2067   -2.4249 H       1  UNL1        0.0621
     43 H          -4.1222   -1.4918   -1.4722 H       1  UNL1        0.0621
     44 H          -5.0982   -3.1453   -0.0560 H       1  UNL1        0.0618
     45 H          -4.1329   -3.6459    2.1095 H       1  UNL1        0.0618
     46 H          -2.1556   -2.4237    2.7940 H       1  UNL1        0.0618
     47 H          -1.1920   -0.7742    1.3702 H       1  UNL1        0.0621
@<TRIPOS>BOND
     1     1     2    2
     2     2     3   am
     3     2    16    1
     4     3     4    1
     5     4     5    1
     6     5     6   ar
     7     5    15   ar
     8     6     7   ar
     9     7     8   ar
    10     8     9    2
    11     8    10   ar
    12    10    11   ar
    13    10    15   ar
    14    11    12   ar
    15    12    13   ar
    16    13    14   ar
    17    14    15   ar
    18    16    17    1
    19    16    23    1
    20    17    18   ar
    21    17    22   ar
    22    18    19   ar
    23    19    20   ar
    24    20    21   ar
    25    21    22   ar
    26    23    24   ar
    27    23    28   ar
    28    24    25   ar
    29    25    26   ar
    30    26    27   ar
    31    27    28   ar
    32     3    29    1
    33     4    30    1
    34     4    31    1
    35     7    32    1
    36    11    33    1
    37    12    34    1
    38    13    35    1
    39    14    36    1
    40    16    37    1
    41    18    38    1
    42    19    39    1
    43    20    40    1
    44    21    41    1
    45    22    42    1
    46    24    43    1
    47    25    44    1
    48    26    45    1
    49    27    46    1
    50    28    47    1
@<TRIPOS>MOLECULE
../data/bude_mols_rdkit_confs/molecule_1.pdb
 47 50 0 0 0
SMALL
GASTEIGER

@<TRIPOS>ATOM
      1  O1        -0.3940   -1.5920    0.0920 O.2     1  UNL1       -0.2748
      2  C1        -0.6200   -0.3830   -0.1430 C.2     1  UNL1        0.2251
      3  N1         0.3430    0.4410   -0.7410 N.am    1  UNL1       -0.3089
      4  C2         1.6070    0.2970   -1.2460 C.3     1  UNL1        0.0562
      5  C3         2.6530   -0.5780   -0.7520 C.ar    1  UNL1        0.0863
      6  N2         2.8540   -1.8330   -1.1070 N.ar    1  UNL1       -0.1737
      7  N3         4.0160   -2.4580   -0.8680 N.ar    1  UNL1       -0.2424
      8  C4         5.0660   -1.8970   -0.2630 C.ar    1  UNL1        0.2725
      9  O2         6.1560   -2.5090   -0.0620 O.2     1  UNL1       -0.2658
     10  C5         4.9390   -0.5800    0.1480 C.ar    1  UNL1        0.0496
     11  C6         5.9450    0.0470    0.8730 C.ar    1  UNL1       -0.0487
     12  C7         5.7410    1.3210    1.3530 C.ar    1  UNL1       -0.0610
     13  C8         4.5340    1.9390    1.0970 C.ar    1  UNL1       -0.0611
     14  C9         3.5120    1.3490    0.3740 C.ar    1  UNL1       -0.0520
     15  C10        3.7330    0.0610   -0.1000 C.ar    1  UNL1        0.0118
     16  C11       -1.9550    0.2820    0.2050 C.3     1  UNL1        0.0855
     17  C12       -2.6670   -0.2230    1.3320 C.ar    1  UNL1       -0.0312
     18  C13       -1.9680   -0.5470    2.4790 C.ar    1  UNL1       -0.0575
     19  C14       -2.6310   -0.9560    3.6370 C.ar    1  UNL1       -0.0615
     20  C15       -4.0000   -1.0510    3.6780 C.ar    1  UNL1       -0.0617
     21  C16       -4.6830   -0.7320    2.5280 C.ar    1  UNL1       -0.0615
     22  C17       -4.0540   -0.3260    1.3700 C.ar    1  UNL1       -0.0575
     23  C18       -2.6450    0.4780   -1.0690 C.ar    1  UNL1       -0.0312
     24  C19       -2.5080    1.6470   -1.7880 C.ar    1  UNL1       -0.0575
     25  C20       -3.0910    1.7800   -3.0420 C.ar    1  UNL1       -0.0615
     26  C21       -3.8080    0.7440   -3.5760 C.ar    1  UNL1       -0.0617
     27  C22       -3.9630   -0.4070   -2.8970 C.ar    1  UNL1       -0.0615
     28  C23       -3.3790   -0.5500   -1.6330 C.ar    1  UNL1       -0.0575
     29 H           0.0263    1.3700   -0.8184 H       1  UNL1        0.1491
     30 H           2.0306    1.2790   -1.2110 H       1  UNL1        0.0528
     31 H           1.3701   -0.2165   -2.1543 H       1  UNL1        0.0528
     32 H           4.1009   -3.3948   -1.1585 H       1  UNL1        0.1921
     33 H           6.8382   -0.4386    1.0502 H       1  UNL1        0.0625
     34 H           6.4757    1.8040    1.8933 H       1  UNL1        0.0618
     35 H           4.3855    2.8919    1.4643 H       1  UNL1        0.0618
     36 H           2.6243    1.8438    0.1945 H       1  UNL1        0.0624
     37 H          -1.8089    1.2411    0.6564 H       1  UNL1        0.0492
     38 H          -0.9378   -0.4855    2.4794 H       1  UNL1        0.0621
     39 H          -2.0818   -1.1915    4.4784 H       1  UNL1        0.0618
     40 H          -4.4943   -1.3485    4.5336 H       1  UNL1        0.0618
     41 H          -5.7128   -0.7995    2.5317 H       1  UNL1        0.0618
     42 H          -4.6117   -0.0987    0.5320 H       1  UNL1        0.0621
     43 H          -1.9670    2.4308   -1.3905 H       1  UNL1        0.0621
     44 H          -2.9834    2.6598   -3.5706 H       1  UNL1        0.0618
     45 H          -4.2346    0.8468   -4.5101 H       1  UNL1        0.0618
     46 H          -4.5098   -1.1807   -3.3061 H       1  UNL1        0.0618
     47 H          -3.4976   -1.4345   -1.1147 H       1  UNL1        0.0621
@<TRIPOS>BOND
     1     1     2    2
     2     2     3   am
     3     2    16    1
     4     3     4    1
     5     4     5    1
     6     5     6   ar
     7     5    15   ar
     8     6     7   ar
     9     7     8   ar
    10     8     9    2
    11     8    10   ar
    12    10    11   ar
    13    10    15   ar
    14    11    12   ar
    15    12    13   ar
    16    13    14   ar
    17    14    15   ar
    18    16    17    1
    19    16    23    1
    20    17    18   ar
    21    17    22   ar
    22    18    19   ar
    23    19    20   ar
    24    20    21   ar
    25    21    22   ar
    26    23    24   ar
    27    23    28   ar
    28    24    25   ar
    29    25    26   ar
    30    26    27   ar
    31    27    28   ar
    32     3    29    1
    33     4    30    1
    34     4    31    1
    35     7    32    1
    36    11    33    1
    37    12    34    1
    38    13    35    1
    39    14    36    1
    40    16    37    1
    41    18    38    1
    42    19    39    1
    43    20    40    1
    44    21    41    1
    45    22    42    1
    46    24    43    1
    47    25    44    1
    48    26    45    1
    49    27    46    1
    50    28    47    1
@<TRIPOS>MOLECULE
../data/bude_mols_rdkit_confs/molecule_1.pdb
 47 50 0 0 0
SMALL
GASTEIGER

@<TRIPOS>ATOM
      1  O1        -0.7570   -1.9280    0.8930 O.2     1  UNL1       -0.2748
      2  C1        -0.8250   -1.0880   -0.0150 C.2     1  UNL1        0.2251
      3  N1         0.3750   -0.3860   -0.3350 N.am    1  UNL1       -0.3089
      4  C2         1.6300   -0.6120    0.3410 C.3     1  UNL1        0.0562
      5  C3         2.6350    0.2930   -0.2610 C.ar    1  UNL1        0.0863
      6  N2         2.3410    1.1430   -1.2590 N.ar    1  UNL1       -0.1737
      7  N3         3.2390    1.9500   -1.7960 N.ar    1  UNL1       -0.2424
      8  C4         4.4950    1.9560   -1.3630 C.ar    1  UNL1        0.2725
      9  O2         5.3330    2.7450   -1.9020 O.2     1  UNL1       -0.2658
     10  C5         4.8800    1.1140   -0.3420 C.ar    1  UNL1        0.0496
     11  C6         6.1700    1.1000    0.1230 C.ar    1  UNL1       -0.0487
     12  C7         6.4760    0.2280    1.1490 C.ar    1  UNL1       -0.0610
     13  C8         5.5340   -0.6140    1.7070 C.ar    1  UNL1       -0.0611
     14  C9         4.2360   -0.5940    1.2320 C.ar    1  UNL1       -0.0520
     15  C10        3.9210    0.2630    0.2200 C.ar    1  UNL1        0.0118
     16  C11       -2.0600   -0.7650   -0.7870 C.3     1  UNL1        0.0855
     17  C12       -3.1360   -1.6400   -0.3150 C.ar    1  UNL1       -0.0312
     18  C13       -2.8880   -2.9780   -0.1300 C.ar    1  UNL1       -0.0575
     19  C14       -3.8910   -3.8420    0.3290 C.ar    1  UNL1       -0.0615
     20  C15       -5.1360   -3.3080    0.5880 C.ar    1  UNL1       -0.0617
     21  C16       -5.3590   -1.9610    0.3930 C.ar    1  UNL1       -0.0615
     22  C17       -4.3760   -1.1070   -0.0570 C.ar    1  UNL1       -0.0575
     23  C18       -2.3360    0.6720   -0.5130 C.ar    1  UNL1       -0.0312
     24  C19       -2.9410    1.5240   -1.4090 C.ar    1  UNL1       -0.0575
     25  C20       -3.1780    2.8460   -1.1050 C.ar    1  UNL1       -0.0615
     26  C21       -2.7900    3.3100    0.1430 C.ar    1  UNL1       -0.0617
     27  C22       -2.1810    2.4930    1.0750 C.ar    1  UNL1       -0.0615
     28  C23       -1.9690    1.1760    0.7120 C.ar    1  UNL1       -0.0575
     29 H           0.3456    0.2866   -1.0533 H       1  UNL1        0.1491
     30 H           1.9340   -1.6300    0.2142 H       1  UNL1        0.0528
     31 H           1.5314   -0.4185    1.3887 H       1  UNL1        0.0528
     32 H           2.9739    2.5546   -2.5264 H       1  UNL1        0.1921
     33 H           6.8887    1.7209   -0.2807 H       1  UNL1        0.0625
     34 H           7.4420    0.2046    1.5114 H       1  UNL1        0.0618
     35 H           5.7973   -1.2535    2.4730 H       1  UNL1        0.0618
     36 H           3.5188   -1.2164    1.6361 H       1  UNL1        0.0624
     37 H          -1.9652   -0.9210   -1.8413 H       1  UNL1        0.0492
     38 H          -1.9481   -3.3530   -0.3322 H       1  UNL1        0.0621
     39 H          -3.7039   -4.8472    0.4690 H       1  UNL1        0.0618
     40 H          -5.8988   -3.9149    0.9269 H       1  UNL1        0.0618
     41 H          -6.2968   -1.5787    0.5915 H       1  UNL1        0.0618
     42 H          -4.5644   -0.1018   -0.1955 H       1  UNL1        0.0621
     43 H          -3.2245    1.1624   -2.3331 H       1  UNL1        0.0621
     44 H          -3.6317    3.4739   -1.7868 H       1  UNL1        0.0618
     45 H          -2.9621    4.2988    0.3832 H       1  UNL1        0.0618
     46 H          -1.8969    2.8495    2.0008 H       1  UNL1        0.0618
     47 H          -1.5156    0.5439    1.3901 H       1  UNL1        0.0621
@<TRIPOS>BOND
     1     1     2    2
     2     2     3   am
     3     2    16    1
     4     3     4    1
     5     4     5    1
     6     5     6   ar
     7     5    15   ar
     8     6     7   ar
     9     7     8   ar
    10     8     9    2
    11     8    10   ar
    12    10    11   ar
    13    10    15   ar
    14    11    12   ar
    15    12    13   ar
    16    13    14   ar
    17    14    15   ar
    18    16    17    1
    19    16    23    1
    20    17    18   ar
    21    17    22   ar
    22    18    19   ar
    23    19    20   ar
    24    20    21   ar
    25    21    22   ar
    26    23    24   ar
    27    23    28   ar
    28    24    25   ar
    29    25    26   ar
    30    26    27   ar
    31    27    28   ar
    32     3    29    1
    33     4    30    1
    34     4    31    1
    35     7    32    1
    36    11    33    1
    37    12    34    1
    38    13    35    1
    39    14    36    1
    40    16    37    1
    41    18    38    1
    42    19    39    1
    43    20    40    1
    44    21    41    1
    45    22    42    1
    46    24    43    1
    47    25    44    1
    48    26    45    1
    49    27    46    1
    50    28    47    1
@<TRIPOS>MOLECULE
../data/bude_mols_rdkit_confs/molecule_1.pdb
 47 50 0 0 0
SMALL
GASTEIGER

@<TRIPOS>ATOM
      1  O1        -0.8140   -1.3800    1.1720 O.2     1  UNL1       -0.2748
      2  C1        -0.8840   -0.8210    0.0540 C.2     1  UNL1        0.2251
      3  N1         0.3220   -0.3180   -0.5210 N.am    1  UNL1       -0.3089
      4  C2         1.5510   -0.4670    0.1860 C.3     1  UNL1        0.0562
      5  C3         2.7190    0.0850   -0.5000 C.ar    1  UNL1        0.0863
      6  N2         2.6710    0.6930   -1.7060 N.ar    1  UNL1       -0.1737
      7  N3         3.7600    1.1730   -2.2790 N.ar    1  UNL1       -0.2424
      8  C4         4.9770    1.0940   -1.7110 C.ar    1  UNL1        0.2725
      9  O2         5.9660    1.5620   -2.2930 O.2     1  UNL1       -0.2658
     10  C5         5.0990    0.4810   -0.4700 C.ar    1  UNL1        0.0496
     11  C6         6.3340    0.3810    0.1420 C.ar    1  UNL1       -0.0487
     12  C7         6.4610   -0.2250    1.3720 C.ar    1  UNL1       -0.0610
     13  C8         5.3280   -0.7290    1.9760 C.ar    1  UNL1       -0.0611
     14  C9         4.1000   -0.6250    1.3560 C.ar    1  UNL1       -0.0520
     15  C10        3.9480   -0.0150    0.1120 C.ar    1  UNL1        0.0118
     16  C11       -2.1970   -0.7080   -0.6110 C.3     1  UNL1        0.0855
     17  C12       -3.2130   -1.3580    0.2250 C.ar    1  UNL1       -0.0312
     18  C13       -2.9760   -2.6290    0.6980 C.ar    1  UNL1       -0.0575
     19  C14       -3.9050   -3.2900    1.5010 C.ar    1  UNL1       -0.0615
     20  C15       -5.0870   -2.6680    1.8340 C.ar    1  UNL1       -0.0617
     21  C16       -5.3430   -1.3890    1.3670 C.ar    1  UNL1       -0.0615
     22  C17       -4.4090   -0.7470    0.5700 C.ar    1  UNL1       -0.0575
     23  C18       -2.4500    0.7520   -0.7740 C.ar    1  UNL1       -0.0312
     24  C19       -3.2190    1.2250   -1.8110 C.ar    1  UNL1       -0.0575
     25  C20       -3.4840    2.5620   -2.0070 C.ar    1  UNL1       -0.0615
     26  C21       -2.9370    3.4730   -1.0990 C.ar    1  UNL1       -0.0617
     27  C22       -2.1660    3.0370   -0.0550 C.ar    1  UNL1       -0.0615
     28  C23       -1.9280    1.6940    0.1030 C.ar    1  UNL1       -0.0575
     29 H           0.3051    0.1281   -1.3985 H       1  UNL1        0.1491
     30 H           1.7201   -1.5115    0.3449 H       1  UNL1        0.0528
     31 H           1.4456    0.0845    1.0968 H       1  UNL1        0.0528
     32 H           3.6776    1.6069   -3.1589 H       1  UNL1        0.1921
     33 H           7.1693    0.7643   -0.3274 H       1  UNL1        0.0625
     34 H           7.3822   -0.3003    1.8311 H       1  UNL1        0.0618
     35 H           5.3994   -1.1870    2.8980 H       1  UNL1        0.0618
     36 H           3.2676   -1.0111    1.8282 H       1  UNL1        0.0624
     37 H          -2.2258   -1.1901   -1.5658 H       1  UNL1        0.0492
     38 H          -2.0923   -3.1025    0.4532 H       1  UNL1        0.0621
     39 H          -3.7069   -4.2427    1.8446 H       1  UNL1        0.0618
     40 H          -5.7785   -3.1516    2.4281 H       1  UNL1        0.0618
     41 H          -6.2268   -0.9159    1.6121 H       1  UNL1        0.0618
     42 H          -4.6075    0.2055    0.2261 H       1  UNL1        0.0621
     43 H          -3.6176    0.5438   -2.4759 H       1  UNL1        0.0621
     44 H          -4.0665    2.8804   -2.7972 H       1  UNL1        0.0618
     45 H          -3.1158    4.4826   -1.2165 H       1  UNL1        0.0618
     46 H          -1.7650    3.7156    0.6111 H       1  UNL1        0.0618
     47 H          -1.3462    1.3763    0.8939 H       1  UNL1        0.0621
@<TRIPOS>BOND
     1     1     2    2
     2     2     3   am
     3     2    16    1
     4     3     4    1
     5     4     5    1
     6     5     6   ar
     7     5    15   ar
     8     6     7   ar
     9     7     8   ar
    10     8     9    2
    11     8    10   ar
    12    10    11   ar
    13    10    15   ar
    14    11    12   ar
    15    12    13   ar
    16    13    14   ar
    17    14    15   ar
    18    16    17    1
    19    16    23    1
    20    17    18   ar
    21    17    22   ar
    22    18    19   ar
    23    19    20   ar
    24    20    21   ar
    25    21    22   ar
    26    23    24   ar
    27    23    28   ar
    28    24    25   ar
    29    25    26   ar
    30    26    27   ar
    31    27    28   ar
    32     3    29    1
    33     4    30    1
    34     4    31    1
    35     7    32    1
    36    11    33    1
    37    12    34    1
    38    13    35    1
    39    14    36    1
    40    16    37    1
    41    18    38    1
    42    19    39    1
    43    20    40    1
    44    21    41    1
    45    22    42    1
    46    24    43    1
    47    25    44    1
    48    26    45    1
    49    27    46    1
    50    28    47    1
@<TRIPOS>MOLECULE
../data/bude_mols_rdkit_confs/molecule_1.pdb
 47 50 0 0 0
SMALL
GASTEIGER

@<TRIPOS>ATOM
      1  O1        -0.1830   -1.3380    0.3810 O.2     1  UNL1       -0.2748
      2  C1        -0.6400   -0.1880    0.7710 C.2     1  UNL1        0.2251
      3  N1         0.3490    0.6150    1.3780 N.am    1  UNL1       -0.3089
      4  C2         1.7060    0.3900    1.6860 C.3     1  UNL1        0.0562
      5  C3         2.6460   -0.3470    0.8600 C.ar    1  UNL1        0.0863
      6  N2         2.7440   -1.7020    0.9280 N.ar    1  UNL1       -0.1737
      7  N3         3.8320   -2.3220    0.4080 N.ar    1  UNL1       -0.2424
      8  C4         4.8460   -1.7260   -0.1920 C.ar    1  UNL1        0.2725
      9  O2         5.8310   -2.3560   -0.6540 O.2     1  UNL1       -0.2658
     10  C5         4.7910   -0.3280   -0.3030 C.ar    1  UNL1        0.0496
     11  C6         5.7680    0.3510   -1.0000 C.ar    1  UNL1       -0.0487
     12  C7         5.6220    1.7030   -1.1670 C.ar    1  UNL1       -0.0610
     13  C8         4.5170    2.3290   -0.6360 C.ar    1  UNL1       -0.0611
     14  C9         3.5460    1.6700    0.0580 C.ar    1  UNL1       -0.0520
     15  C10        3.6950    0.2970    0.2270 C.ar    1  UNL1        0.0118
     16  C11       -2.0480    0.1360    0.5750 C.3     1  UNL1        0.0855
     17  C12       -2.6780   -1.2450    0.4380 C.ar    1  UNL1       -0.0312
     18  C13       -2.4700   -1.9660   -0.7000 C.ar    1  UNL1       -0.0575
     19  C14       -2.9120   -3.2750   -0.7610 C.ar    1  UNL1       -0.0615
     20  C15       -3.5540   -3.8670    0.2910 C.ar    1  UNL1       -0.0617
     21  C16       -3.7690   -3.1550    1.4360 C.ar    1  UNL1       -0.0615
     22  C17       -3.3290   -1.8430    1.4970 C.ar    1  UNL1       -0.0575
     23  C18       -2.6010    1.1530   -0.2490 C.ar    1  UNL1       -0.0312
     24  C19       -2.3430    2.5170   -0.0870 C.ar    1  UNL1       -0.0575
     25  C20       -2.9830    3.5050   -0.8110 C.ar    1  UNL1       -0.0615
     26  C21       -3.9170    3.1880   -1.7320 C.ar    1  UNL1       -0.0617
     27  C22       -4.2150    1.8620   -1.9440 C.ar    1  UNL1       -0.0615
     28  C23       -3.5700    0.8760   -1.2220 C.ar    1  UNL1       -0.0575
     29 H           0.0278    1.5087    1.6376 H       1  UNL1        0.1491
     30 H           1.7023   -0.1144    2.6297 H       1  UNL1        0.0528
     31 H           2.0919    1.3814    1.5715 H       1  UNL1        0.0528
     32 H           3.8692   -3.3028    0.4845 H       1  UNL1        0.1921
     33 H           6.5866   -0.1455   -1.3852 H       1  UNL1        0.0625
     34 H           6.3315    2.2452   -1.6843 H       1  UNL1        0.0618
     35 H           4.4187    3.3476   -0.7699 H       1  UNL1        0.0618
     36 H           2.7305    2.1711    0.4438 H       1  UNL1        0.0624
     37 H          -2.2991    0.7710    1.3988 H       1  UNL1        0.0492
     38 H          -1.9881   -1.5398   -1.5070 H       1  UNL1        0.0621
     39 H          -2.7531   -3.8193   -1.6233 H       1  UNL1        0.0618
     40 H          -3.8740   -4.8456    0.2201 H       1  UNL1        0.0618
     41 H          -4.2502   -3.5861    2.2407 H       1  UNL1        0.0618
     42 H          -3.4926   -1.2981    2.3580 H       1  UNL1        0.0621
     43 H          -1.6372    2.8014    0.6101 H       1  UNL1        0.0621
     44 H          -2.7442    4.4953   -0.6456 H       1  UNL1        0.0618
     45 H          -4.3989    3.9269   -2.2675 H       1  UNL1        0.0618
     46 H          -4.9247    1.6019   -2.6466 H       1  UNL1        0.0618
     47 H          -3.8133   -0.1095   -1.4081 H       1  UNL1        0.0621
@<TRIPOS>BOND
     1     1     2    2
     2     2     3   am
     3     2    16    1
     4     3     4    1
     5     4     5    1
     6     5     6   ar
     7     5    15   ar
     8     6     7   ar
     9     7     8   ar
    10     8     9    2
    11     8    10   ar
    12    10    11   ar
    13    10    15   ar
    14    11    12   ar
    15    12    13   ar
    16    13    14   ar
    17    14    15   ar
    18    16    17    1
    19    16    23    1
    20    17    18   ar
    21    17    22   ar
    22    18    19   ar
    23    19    20   ar
    24    20    21   ar
    25    21    22   ar
    26    23    24   ar
    27    23    28   ar
    28    24    25   ar
    29    25    26   ar
    30    26    27   ar
    31    27    28   ar
    32     3    29    1
    33     4    30    1
    34     4    31    1
    35     7    32    1
    36    11    33    1
    37    12    34    1
    38    13    35    1
    39    14    36    1
    40    16    37    1
    41    18    38    1
    42    19    39    1
    43    20    40    1
    44    21    41    1
    45    22    42    1
    46    24    43    1
    47    25    44    1
    48    26    45    1
    49    27    46    1
    50    28    47    1
@<TRIPOS>MOLECULE
../data/bude_mols_rdkit_confs/molecule_1.pdb
 47 50 0 0 0
SMALL
GASTEIGER

@<TRIPOS>ATOM
      1  O1        -0.1510   -1.4670   -0.8660 O.2     1  UNL1       -0.2748
      2  C1        -0.5960   -0.3020   -0.5670 C.2     1  UNL1        0.2251
      3  N1         0.4560    0.6640   -0.3430 N.am    1  UNL1       -0.3089
      4  C2         1.7250    0.4250   -0.7240 C.3     1  UNL1        0.0562
      5  C3         2.9130    1.0480   -0.1450 C.ar    1  UNL1        0.0863
      6  N2         3.3430    2.2820   -0.4830 N.ar    1  UNL1       -0.1737
      7  N3         4.6870    2.4840   -0.4030 N.ar    1  UNL1       -0.2424
      8  C4         5.6100    1.5920    0.0060 C.ar    1  UNL1        0.2725
      9  O2         6.8100    1.8280    0.0910 O.2     1  UNL1       -0.2658
     10  C5         5.1460    0.3820    0.4050 C.ar    1  UNL1        0.0496
     11  C6         6.0430   -0.6490    0.6580 C.ar    1  UNL1       -0.0487
     12  C7         5.4780   -1.8820    0.9400 C.ar    1  UNL1       -0.0610
     13  C8         4.1300   -2.1610    0.9700 C.ar    1  UNL1       -0.0611
     14  C9         3.2120   -1.1480    0.6070 C.ar    1  UNL1       -0.0520
     15  C10        3.8310    0.1020    0.3410 C.ar    1  UNL1        0.0118
     16  C11       -1.9600   -0.0340   -0.5010 C.3     1  UNL1        0.0855
     17  C12       -2.7330   -1.2640   -0.3720 C.ar    1  UNL1       -0.0312
     18  C13       -3.9280   -1.4380   -1.0810 C.ar    1  UNL1       -0.0575
     19  C14       -4.6800   -2.5940   -0.8450 C.ar    1  UNL1       -0.0615
     20  C15       -4.2470   -3.5510    0.0240 C.ar    1  UNL1       -0.0617
     21  C16       -3.0310   -3.3500    0.6830 C.ar    1  UNL1       -0.0615
     22  C17       -2.3250   -2.2320    0.5060 C.ar    1  UNL1       -0.0575
     23  C18       -2.5430    1.1780   -0.0280 C.ar    1  UNL1       -0.0312
     24  C19       -2.0500    2.3490   -0.0860 C.ar    1  UNL1       -0.0575
     25  C20       -2.5590    3.5680    0.3430 C.ar    1  UNL1       -0.0615
     26  C21       -3.9060    3.4410    0.8690 C.ar    1  UNL1       -0.0617
     27  C22       -4.4540    2.1980    0.9240 C.ar    1  UNL1       -0.0615
     28  C23       -3.8440    1.0140    0.5270 C.ar    1  UNL1       -0.0575
     29 H           0.2393    1.5168    0.0986 H       1  UNL1        0.1491
     30 H           1.7582    0.6652   -1.7662 H       1  UNL1        0.0528
     31 H           1.8440   -0.5768   -0.3676 H       1  UNL1        0.0528
     32 H           5.0178    3.3716   -0.6711 H       1  UNL1        0.1921
     33 H           7.0647   -0.5052    0.6371 H       1  UNL1        0.0625
     34 H           6.1243   -2.6598    1.1457 H       1  UNL1        0.0618
     35 H           3.7945   -3.0950    1.2530 H       1  UNL1        0.0618
     36 H           2.1936   -1.3020    0.5419 H       1  UNL1        0.0624
     37 H          -2.0653    0.4410   -1.4540 H       1  UNL1        0.0492
     38 H          -4.2464   -0.7304   -1.7614 H       1  UNL1        0.0621
     39 H          -5.5777   -2.7244   -1.3371 H       1  UNL1        0.0618
     40 H          -4.8039   -4.4036    0.1913 H       1  UNL1        0.0618
     41 H          -2.6726   -4.0800    1.3183 H       1  UNL1        0.0618
     42 H          -1.4538   -2.0940    1.0417 H       1  UNL1        0.0621
     43 H          -1.1173    2.4022   -0.5244 H       1  UNL1        0.0621
     44 H          -2.0407    4.4590    0.2936 H       1  UNL1        0.0618
     45 H          -4.4314    4.2687    1.1913 H       1  UNL1        0.0618
     46 H          -5.4141    2.1269    1.2958 H       1  UNL1        0.0618
     47 H          -4.2967    0.0919    0.6263 H       1  UNL1        0.0621
@<TRIPOS>BOND
     1     1     2    2
     2     2     3   am
     3     2    16    1
     4     3     4    1
     5     4     5    1
     6     5     6   ar
     7     5    15   ar
     8     6     7   ar
     9     7     8   ar
    10     8     9    2
    11     8    10   ar
    12    10    11   ar
    13    10    15   ar
    14    11    12   ar
    15    12    13   ar
    16    13    14   ar
    17    14    15   ar
    18    16    17    1
    19    16    23    1
    20    17    18   ar
    21    17    22   ar
    22    18    19   ar
    23    19    20   ar
    24    20    21   ar
    25    21    22   ar
    26    23    24   ar
    27    23    28   ar
    28    24    25   ar
    29    25    26   ar
    30    26    27   ar
    31    27    28   ar
    32     3    29    1
    33     4    30    1
    34     4    31    1
    35     7    32    1
    36    11    33    1
    37    12    34    1
    38    13    35    1
    39    14    36    1
    40    16    37    1
    41    18    38    1
    42    19    39    1
    43    20    40    1
    44    21    41    1
    45    22    42    1
    46    24    43    1
    47    25    44    1
    48    26    45    1
    49    27    46    1
    50    28    47    1
@<TRIPOS>MOLECULE
../data/bude_mols_rdkit_confs/molecule_1.pdb
 47 50 0 0 0
SMALL
GASTEIGER

@<TRIPOS>ATOM
      1  O1        -0.3620   -1.4090   -1.5570 O.2     1  UNL1       -0.2748
      2  C1        -0.7780   -0.6750   -0.5850 C.2     1  UNL1        0.2251
      3  N1         0.2070   -0.4990    0.4310 N.am    1  UNL1       -0.3089
      4  C2         1.4710   -1.2010    0.2380 C.3     1  UNL1        0.0562
      5  C3         2.6190   -0.6060    0.9120 C.ar    1  UNL1        0.0863
      6  N2         2.8770   -0.4410    2.1840 N.ar    1  UNL1       -0.1737
      7  N3         3.9920    0.0160    2.7150 N.ar    1  UNL1       -0.2424
      8  C4         5.0070    0.3650    1.8770 C.ar    1  UNL1        0.2725
      9  O2         6.0850    0.8230    2.3450 O.2     1  UNL1       -0.2658
     10  C5         4.8100    0.2240    0.5500 C.ar    1  UNL1        0.0496
     11  C6         5.7240    0.7450   -0.3970 C.ar    1  UNL1       -0.0487
     12  C7         5.4590    0.7370   -1.7260 C.ar    1  UNL1       -0.0610
     13  C8         4.3020    0.2330   -2.2420 C.ar    1  UNL1       -0.0611
     14  C9         3.3560   -0.2890   -1.3550 C.ar    1  UNL1       -0.0520
     15  C10        3.6630   -0.2540   -0.0120 C.ar    1  UNL1        0.0118
     16  C11       -2.1320   -0.1320   -0.6140 C.3     1  UNL1        0.0855
     17  C12       -2.4040    1.2660   -0.4160 C.ar    1  UNL1       -0.0312
     18  C13       -2.1820    2.1930   -1.4280 C.ar    1  UNL1       -0.0575
     19  C14       -2.4730    3.5270   -1.3100 C.ar    1  UNL1       -0.0615
     20  C15       -3.0180    3.9780   -0.1180 C.ar    1  UNL1       -0.0617
     21  C16       -3.2630    3.1160    0.9180 C.ar    1  UNL1       -0.0615
     22  C17       -2.9480    1.7610    0.7590 C.ar    1  UNL1       -0.0575
     23  C18       -2.9910   -1.1700    0.0460 C.ar    1  UNL1       -0.0312
     24  C19       -4.0090   -1.8670   -0.5310 C.ar    1  UNL1       -0.0575
     25  C20       -4.5590   -2.9740    0.0990 C.ar    1  UNL1       -0.0615
     26  C21       -4.0720   -3.3780    1.3290 C.ar    1  UNL1       -0.0617
     27  C22       -3.0480   -2.6860    1.9310 C.ar    1  UNL1       -0.0615
     28  C23       -2.5180   -1.5910    1.2930 C.ar    1  UNL1       -0.0575
     29 H           0.0428    0.0660    1.2203 H       1  UNL1        0.1491
     30 H           1.6792   -1.2261   -0.8112 H       1  UNL1        0.0528
     31 H           1.3418   -2.1711    0.6706 H       1  UNL1        0.0528
     32 H           4.0891    0.1029    3.6908 H       1  UNL1        0.1921
     33 H           6.6172    1.1421   -0.0661 H       1  UNL1        0.0625
     34 H           6.1611    1.1281   -2.3734 H       1  UNL1        0.0618
     35 H           4.1294    0.2368   -3.2595 H       1  UNL1        0.0618
     36 H           2.4643   -0.6843   -1.6921 H       1  UNL1        0.0624
     37 H          -2.4157    0.0246   -1.6337 H       1  UNL1        0.0492
     38 H          -1.7762    1.8586   -2.3160 H       1  UNL1        0.0621
     39 H          -2.2910    4.1792   -2.0888 H       1  UNL1        0.0618
     40 H          -3.2428    4.9793   -0.0093 H       1  UNL1        0.0618
     41 H          -3.6728    3.4594    1.8007 H       1  UNL1        0.0618
     42 H          -3.1263    1.1109    1.5405 H       1  UNL1        0.0621
     43 H          -4.3758   -1.5680   -1.4481 H       1  UNL1        0.0621
     44 H          -5.3294   -3.4946   -0.3488 H       1  UNL1        0.0618
     45 H          -4.4793   -4.2027    1.7969 H       1  UNL1        0.0618
     46 H          -2.6828   -2.9848    2.8488 H       1  UNL1        0.0618
     47 H          -1.7525   -1.0665    1.7446 H       1  UNL1        0.0621
@<TRIPOS>BOND
     1     1     2    2
     2     2     3   am
     3     2    16    1
     4     3     4    1
     5     4     5    1
     6     5     6   ar
     7     5    15   ar
     8     6     7   ar
     9     7     8   ar
    10     8     9    2
    11     8    10   ar
    12    10    11   ar
    13    10    15   ar
    14    11    12   ar
    15    12    13   ar
    16    13    14   ar
    17    14    15   ar
    18    16    17    1
    19    16    23    1
    20    17    18   ar
    21    17    22   ar
    22    18    19   ar
    23    19    20   ar
    24    20    21   ar
    25    21    22   ar
    26    23    24   ar
    27    23    28   ar
    28    24    25   ar
    29    25    26   ar
    30    26    27   ar
    31    27    28   ar
    32     3    29    1
    33     4    30    1
    34     4    31    1
    35     7    32    1
    36    11    33    1
    37    12    34    1
    38    13    35    1
    39    14    36    1
    40    16    37    1
    41    18    38    1
    42    19    39    1
    43    20    40    1
    44    21    41    1
    45    22    42    1
    46    24    43    1
    47    25    44    1
    48    26    45    1
    49    27    46    1
    50    28    47    1
@<TRIPOS>MOLECULE
../data/bude_mols_rdkit_confs/molecule_1.pdb
 47 50 0 0 0
SMALL
GASTEIGER

@<TRIPOS>ATOM
      1  O1        -0.8100   -0.3950   -1.9830 O.2     1  UNL1       -0.2748
      2  C1        -0.7930   -0.6330   -0.7500 C.2     1  UNL1        0.2251
      3  N1         0.4460   -0.4900   -0.0960 N.am    1  UNL1       -0.3089
      4  C2         1.6720   -0.0920   -0.7580 C.3     1  UNL1        0.0562
      5  C3         2.7860   -0.0290    0.1690 C.ar    1  UNL1        0.0863
      6  N2         2.5930   -0.3250    1.4650 N.ar    1  UNL1       -0.1737
      7  N3         3.6010   -0.2770    2.3480 N.ar    1  UNL1       -0.2424
      8  C4         4.8550    0.0710    1.9700 C.ar    1  UNL1        0.2725
      9  O2         5.7870    0.1050    2.8390 O.2     1  UNL1       -0.2658
     10  C5         5.1150    0.3850    0.6540 C.ar    1  UNL1        0.0496
     11  C6         6.3630    0.7400    0.2370 C.ar    1  UNL1       -0.0487
     12  C7         6.5480    1.0410   -1.0940 C.ar    1  UNL1       -0.0610
     13  C8         5.4950    0.9840   -1.9790 C.ar    1  UNL1       -0.0611
     14  C9         4.2260    0.6280   -1.5780 C.ar    1  UNL1       -0.0520
     15  C10        4.0410    0.3260   -0.2430 C.ar    1  UNL1        0.0118
     16  C11       -2.0430   -1.0360   -0.0860 C.3     1  UNL1        0.0855
     17  C12       -3.2230   -1.0930   -0.9380 C.ar    1  UNL1       -0.0312
     18  C13       -4.1300   -2.1380   -0.7190 C.ar    1  UNL1       -0.0575
     19  C14       -5.2720   -2.3130   -1.4290 C.ar    1  UNL1       -0.0615
     20  C15       -5.5710   -1.4180   -2.4300 C.ar    1  UNL1       -0.0617
     21  C16       -4.7050   -0.3770   -2.6780 C.ar    1  UNL1       -0.0615
     22  C17       -3.5500   -0.2270   -1.9350 C.ar    1  UNL1       -0.0575
     23  C18       -2.3180   -0.0180    0.9920 C.ar    1  UNL1       -0.0312
     24  C19       -1.9620    1.2950    0.7330 C.ar    1  UNL1       -0.0575
     25  C20       -2.1860    2.2680    1.6720 C.ar    1  UNL1       -0.0615
     26  C21       -2.7710    1.9000    2.8700 C.ar    1  UNL1       -0.0617
     27  C22       -3.1320    0.6060    3.1510 C.ar    1  UNL1       -0.0615
     28  C23       -2.8940   -0.3500    2.1840 C.ar    1  UNL1       -0.0575
     29 H           0.4814   -0.6717    0.8709 H       1  UNL1        0.1491
     30 H           1.5313    0.8735   -1.1972 H       1  UNL1        0.0528
     31 H           1.9004   -0.8233   -1.5049 H       1  UNL1        0.0528
     32 H           3.4263   -0.4993    3.2910 H       1  UNL1        0.1921
     33 H           7.1505    0.7822    0.9027 H       1  UNL1        0.0625
     34 H           7.4850    1.3119   -1.4313 H       1  UNL1        0.0618
     35 H           5.6610    1.2145   -2.9711 H       1  UNL1        0.0618
     36 H           3.4434    0.5885   -2.2496 H       1  UNL1        0.0624
     37 H          -1.8860   -2.0340    0.2664 H       1  UNL1        0.0492
     38 H          -3.9159   -2.8164    0.0287 H       1  UNL1        0.0621
     39 H          -5.9043   -3.1020   -1.2225 H       1  UNL1        0.0618
     40 H          -6.4328   -1.5255   -2.9875 H       1  UNL1        0.0618
     41 H          -4.9210    0.2989   -3.4273 H       1  UNL1        0.0618
     42 H          -2.9186    0.5627   -2.1417 H       1  UNL1        0.0621
     43 H          -1.5268    1.5416   -0.1697 H       1  UNL1        0.0621
     44 H          -1.9249    3.2497    1.4898 H       1  UNL1        0.0618
     45 H          -2.9430    2.6277    3.5813 H       1  UNL1        0.0618
     46 H          -3.5661    0.3565    4.0534 H       1  UNL1        0.0618
     47 H          -3.1558   -1.3316    2.3653 H       1  UNL1        0.0621
@<TRIPOS>BOND
     1     1     2    2
     2     2     3   am
     3     2    16    1
     4     3     4    1
     5     4     5    1
     6     5     6   ar
     7     5    15   ar
     8     6     7   ar
     9     7     8   ar
    10     8     9    2
    11     8    10   ar
    12    10    11   ar
    13    10    15   ar
    14    11    12   ar
    15    12    13   ar
    16    13    14   ar
    17    14    15   ar
    18    16    17    1
    19    16    23    1
    20    17    18   ar
    21    17    22   ar
    22    18    19   ar
    23    19    20   ar
    24    20    21   ar
    25    21    22   ar
    26    23    24   ar
    27    23    28   ar
    28    24    25   ar
    29    25    26   ar
    30    26    27   ar
    31    27    28   ar
    32     3    29    1
    33     4    30    1
    34     4    31    1
    35     7    32    1
    36    11    33    1
    37    12    34    1
    38    13    35    1
    39    14    36    1
    40    16    37    1
    41    18    38    1
    42    19    39    1
    43    20    40    1
    44    21    41    1
    45    22    42    1
    46    24    43    1
    47    25    44    1
    48    26    45    1
    49    27    46    1
    50    28    47    1
@<TRIPOS>MOLECULE
../data/bude_mols_rdkit_confs/molecule_1.pdb
 47 50 0 0 0
SMALL
GASTEIGER

@<TRIPOS>ATOM
      1  O1        -0.4140    0.8760    1.5470 O.2     1  UNL1       -0.2748
      2  C1         0.4000    0.6310    0.5800 C.2     1  UNL1        0.2251
      3  N1        -0.2190    0.5590   -0.6740 N.am    1  UNL1       -0.3089
      4  C2        -1.6490    0.7610   -0.7830 C.3     1  UNL1        0.0562
      5  C3        -2.4540   -0.1990   -0.0190 C.ar    1  UNL1        0.0863
      6  N2        -1.9670   -1.1870    0.7270 N.ar    1  UNL1       -0.1737
      7  N3        -2.7640   -2.0030    1.3800 N.ar    1  UNL1       -0.2424
      8  C4        -4.1050   -1.9280    1.3660 C.ar    1  UNL1        0.2725
      9  O2        -4.8300   -2.7230    2.0010 O.2     1  UNL1       -0.2658
     10  C5        -4.6850   -0.9150    0.6050 C.ar    1  UNL1        0.0496
     11  C6        -6.0640   -0.7940    0.5560 C.ar    1  UNL1       -0.0487
     12  C7        -6.6170    0.2160   -0.2040 C.ar    1  UNL1       -0.0610
     13  C8        -5.7730    1.0670   -0.8860 C.ar    1  UNL1       -0.0611
     14  C9        -4.4040    0.9550   -0.8440 C.ar    1  UNL1       -0.0520
     15  C10       -3.8300   -0.0720   -0.0720 C.ar    1  UNL1        0.0118
     16  C11        1.7930    0.4700    0.9400 C.3     1  UNL1        0.0855
     17  C12        2.7550    1.4590    0.4700 C.ar    1  UNL1       -0.0312
     18  C13        2.5610    2.3090   -0.5910 C.ar    1  UNL1       -0.0575
     19  C14        3.5770    3.1870   -0.9220 C.ar    1  UNL1       -0.0615
     20  C15        4.7640    3.2310   -0.2250 C.ar    1  UNL1       -0.0617
     21  C16        4.9770    2.3830    0.8460 C.ar    1  UNL1       -0.0615
     22  C17        3.9730    1.5250    1.1620 C.ar    1  UNL1       -0.0575
     23  C18        2.3610   -0.8790    0.5760 C.ar    1  UNL1       -0.0312
     24  C19        2.6760   -1.2020   -0.7170 C.ar    1  UNL1       -0.0575
     25  C20        3.1910   -2.4640   -1.0490 C.ar    1  UNL1       -0.0615
     26  C21        3.3920   -3.4080   -0.0760 C.ar    1  UNL1       -0.0617
     27  C22        3.0820   -3.1020    1.2250 C.ar    1  UNL1       -0.0615
     28  C23        2.5770   -1.8570    1.5300 C.ar    1  UNL1       -0.0575
     29 H           0.3161    0.3717   -1.4789 H       1  UNL1        0.1491
     30 H          -1.9212    0.6806   -1.8147 H       1  UNL1        0.0528
     31 H          -1.8542    1.7279   -0.3732 H       1  UNL1        0.0528
     32 H          -2.3500   -2.7177    1.9158 H       1  UNL1        0.1921
     33 H          -6.6673   -1.4480    1.0789 H       1  UNL1        0.0625
     34 H          -7.6409    0.3322   -0.2609 H       1  UNL1        0.0618
     35 H          -6.1883    1.8222   -1.4537 H       1  UNL1        0.0618
     36 H          -3.8072    1.6127   -1.3696 H       1  UNL1        0.0624
     37 H           1.6962    0.6061    1.9969 H       1  UNL1        0.0492
     38 H           1.6796    2.2930   -1.1276 H       1  UNL1        0.0621
     39 H           3.4412    3.8303   -1.7174 H       1  UNL1        0.0618
     40 H           5.4983    3.9005   -0.5036 H       1  UNL1        0.0618
     41 H           5.8592    2.4013    1.3811 H       1  UNL1        0.0618
     42 H           4.1146    0.8838    1.9582 H       1  UNL1        0.0621
     43 H           2.5316   -0.5029   -1.4623 H       1  UNL1        0.0621
     44 H           3.4197   -2.6827   -2.0313 H       1  UNL1        0.0618
     45 H           3.7714   -4.3365   -0.3187 H       1  UNL1        0.0618
     46 H           3.2263   -3.8005    1.9709 H       1  UNL1        0.0618
     47 H           2.3498   -1.6446    2.5140 H       1  UNL1        0.0621
@<TRIPOS>BOND
     1     1     2    2
     2     2     3   am
     3     2    16    1
     4     3     4    1
     5     4     5    1
     6     5     6   ar
     7     5    15   ar
     8     6     7   ar
     9     7     8   ar
    10     8     9    2
    11     8    10   ar
    12    10    11   ar
    13    10    15   ar
    14    11    12   ar
    15    12    13   ar
    16    13    14   ar
    17    14    15   ar
    18    16    17    1
    19    16    23    1
    20    17    18   ar
    21    17    22   ar
    22    18    19   ar
    23    19    20   ar
    24    20    21   ar
    25    21    22   ar
    26    23    24   ar
    27    23    28   ar
    28    24    25   ar
    29    25    26   ar
    30    26    27   ar
    31    27    28   ar
    32     3    29    1
    33     4    30    1
    34     4    31    1
    35     7    32    1
    36    11    33    1
    37    12    34    1
    38    13    35    1
    39    14    36    1
    40    16    37    1
    41    18    38    1
    42    19    39    1
    43    20    40    1
    44    21    41    1
    45    22    42    1
    46    24    43    1
    47    25    44    1
    48    26    45    1
    49    27    46    1
    50    28    47    1
