@<TRIPOS>MOLECULE
../data/bude_mols_rdkit_confs/molecule_61.pdb
 33 35 0 0 0
SMALL
GASTEIGER

@<TRIPOS>ATOM
      1 O          -5.0180    2.0830   -0.5440 O.2     1  UNL1        0.0414
      2 N          -5.5630    0.9930   -0.3280 N.pl3   1  UNL1        0.0798
      3 O          -6.9250    0.9080   -0.3610 O.co2   1  UNL1       -0.5760
      4 C          -4.8020   -0.1620   -0.0490 C.ar    1  UNL1        0.2794
      5 C          -5.4000   -1.3690    0.1900 C.ar    1  UNL1        0.0510
      6 C          -4.5830   -2.4460    0.4540 C.ar    1  UNL1        0.1333
      7 F          -5.1300   -3.6810    0.7010 F       1  UNL1       -0.2051
      8 C          -3.2180   -2.3430    0.4830 C.ar    1  UNL1        0.0165
      9 C          -2.5700   -1.1060    0.2390 C.ar    1  UNL1        0.1410
     10 O          -1.2210   -1.0520    0.2780 O.3     1  UNL1       -0.4233
     11 C          -0.3320   -0.0490    0.0940 C.ar    1  UNL1        0.3239
     12 N          -0.7100    1.2010   -0.1910 N.ar    1  UNL1       -0.2030
     13 C           0.1230    2.2150   -0.3790 C.ar    1  UNL1        0.0350
     14 C           1.4840    1.9630   -0.2740 C.ar    1  UNL1       -0.0173
     15 C           1.9120    0.6990    0.0160 C.ar    1  UNL1        0.0778
     16 C           3.3460    0.4230    0.1300 C.ar    1  UNL1        0.0006
     17 C           4.3390    1.3480   -0.0330 C.ar    1  UNL1       -0.0526
     18 C           5.6960    1.0200    0.0890 C.ar    1  UNL1       -0.0611
     19 C           6.0910   -0.2640    0.3810 C.ar    1  UNL1       -0.0617
     20 C           5.0920   -1.1980    0.5460 C.ar    1  UNL1       -0.0611
     21 C           3.7580   -0.8850    0.4290 C.ar    1  UNL1       -0.0526
     22 N           1.0040   -0.2710    0.1920 N.ar    1  UNL1       -0.1946
     23 C          -3.4080   -0.0480   -0.0220 C.ar    1  UNL1        0.0581
     24 H          -6.4270   -1.4690    0.1731 H       1  UNL1        0.0714
     25 H          -2.6508   -3.1809    0.6861 H       1  UNL1        0.0683
     26 H          -0.2288    3.1606   -0.5963 H       1  UNL1        0.0832
     27 H           2.1666    2.7243   -0.4139 H       1  UNL1        0.0654
     28 H           4.0803    2.3224   -0.2537 H       1  UNL1        0.0624
     29 H           6.4098    1.7537   -0.0424 H       1  UNL1        0.0618
     30 H           7.0876   -0.5159    0.4722 H       1  UNL1        0.0618
     31 H           5.3551   -2.1713    0.7662 H       1  UNL1        0.0618
     32 H           3.0492   -1.6230    0.5631 H       1  UNL1        0.0624
     33 H          -2.9879    0.8762   -0.2072 H       1  UNL1        0.0723
@<TRIPOS>UNITY_ATOM_ATTR
2 1
charge 1
3 1
charge -1
@<TRIPOS>BOND
     1     1     2    2
     2     2     3    1
     3     2     4    1
     4     4     5   ar
     5     4    23   ar
     6     5     6   ar
     7     6     7    1
     8     6     8   ar
     9     8     9   ar
    10     9    10    1
    11     9    23   ar
    12    10    11    1
    13    11    12   ar
    14    11    22   ar
    15    12    13   ar
    16    13    14   ar
    17    14    15   ar
    18    15    16    1
    19    15    22   ar
    20    16    17   ar
    21    16    21   ar
    22    17    18   ar
    23    18    19   ar
    24    19    20   ar
    25    20    21   ar
    26     5    24    1
    27     8    25    1
    28    13    26    1
    29    14    27    1
    30    17    28    1
    31    18    29    1
    32    19    30    1
    33    20    31    1
    34    21    32    1
    35    23    33    1
@<TRIPOS>MOLECULE
../data/bude_mols_rdkit_confs/molecule_61.pdb
 33 35 0 0 0
SMALL
GASTEIGER

@<TRIPOS>ATOM
      1 O           1.6290    4.0730   -0.3070 O.2     1  UNL1        0.0414
      2 N           2.1690    3.7550   -1.3830 N.pl3   1  UNL1        0.0798
      3 O           2.3770    4.7410   -2.3130 O.co2   1  UNL1       -0.5760
      4 C           2.5470    2.4120   -1.6190 C.ar    1  UNL1        0.2794
      5 C           3.1410    2.1120   -2.8280 C.ar    1  UNL1        0.0510
      6 C           3.4920    0.7920   -3.0100 C.ar    1  UNL1        0.1333
      7 F           4.0770    0.4460   -4.1770 F       1  UNL1       -0.2051
      8 C           3.2680   -0.1730   -2.0500 C.ar    1  UNL1        0.0165
      9 C           2.6730    0.1590   -0.8530 C.ar    1  UNL1        0.1410
     10 O           2.4270   -0.7760    0.1400 O.3     1  UNL1       -0.4233
     11 C           1.2330   -1.5020    0.2100 C.ar    1  UNL1        0.3239
     12 N           1.1290   -2.7380   -0.3220 N.ar    1  UNL1       -0.2030
     13 C          -0.0280   -3.4110   -0.2400 C.ar    1  UNL1        0.0350
     14 C          -1.1200   -2.8240    0.3990 C.ar    1  UNL1       -0.0173
     15 C          -1.0280   -1.5650    0.9470 C.ar    1  UNL1        0.0778
     16 C          -2.1460   -0.9180    1.6220 C.ar    1  UNL1        0.0006
     17 C          -3.3700   -1.5250    1.7580 C.ar    1  UNL1       -0.0526
     18 C          -4.4100   -0.8660    2.4110 C.ar    1  UNL1       -0.0611
     19 C          -4.2200    0.3970    2.9240 C.ar    1  UNL1       -0.0617
     20 C          -3.0190    1.0140    2.8010 C.ar    1  UNL1       -0.0611
     21 C          -1.9900    0.3360    2.1430 C.ar    1  UNL1       -0.0526
     22 N           0.1760   -0.9610    0.8170 N.ar    1  UNL1       -0.1946
     23 C           2.3140    1.4700   -0.6490 C.ar    1  UNL1        0.0581
     24 H           3.3114    2.8301   -3.5494 H       1  UNL1        0.0714
     25 H           3.5480   -1.1499   -2.2298 H       1  UNL1        0.0683
     26 H          -0.1098   -4.3560   -0.6466 H       1  UNL1        0.0832
     27 H          -2.0105   -3.3417    0.4618 H       1  UNL1        0.0654
     28 H          -3.5203   -2.4717    1.3757 H       1  UNL1        0.0624
     29 H          -5.3277   -1.3276    2.5105 H       1  UNL1        0.0618
     30 H          -4.9964    0.8773    3.4052 H       1  UNL1        0.0618
     31 H          -2.8688    1.9605    3.1838 H       1  UNL1        0.0618
     32 H          -1.0739    0.8013    2.0462 H       1  UNL1        0.0624
     33 H           1.8667    1.7474    0.2387 H       1  UNL1        0.0723
@<TRIPOS>UNITY_ATOM_ATTR
2 1
charge 1
3 1
charge -1
@<TRIPOS>BOND
     1     1     2    2
     2     2     3    1
     3     2     4    1
     4     4     5   ar
     5     4    23   ar
     6     5     6   ar
     7     6     7    1
     8     6     8   ar
     9     8     9   ar
    10     9    10    1
    11     9    23   ar
    12    10    11    1
    13    11    12   ar
    14    11    22   ar
    15    12    13   ar
    16    13    14   ar
    17    14    15   ar
    18    15    16    1
    19    15    22   ar
    20    16    17   ar
    21    16    21   ar
    22    17    18   ar
    23    18    19   ar
    24    19    20   ar
    25    20    21   ar
    26     5    24    1
    27     8    25    1
    28    13    26    1
    29    14    27    1
    30    17    28    1
    31    18    29    1
    32    19    30    1
    33    20    31    1
    34    21    32    1
    35    23    33    1
@<TRIPOS>MOLECULE
../data/bude_mols_rdkit_confs/molecule_61.pdb
 33 35 0 0 0
SMALL
GASTEIGER

@<TRIPOS>ATOM
      1 O          -5.6570    1.7660   -2.0990 O.2     1  UNL1        0.0414
      2 N          -4.9820    1.9010   -1.1210 N.pl3   1  UNL1        0.0798
      3 O          -4.8510    3.1940   -0.5580 O.co2   1  UNL1       -0.5760
      4 C          -4.2160    0.8350   -0.5360 C.ar    1  UNL1        0.2794
      5 C          -4.9180   -0.4150   -0.5090 C.ar    1  UNL1        0.0510
      6 C          -4.4180   -1.4130    0.3330 C.ar    1  UNL1        0.1333
      7 F          -5.1660   -2.5550    0.4890 F       1  UNL1       -0.2051
      8 C          -3.3780   -1.2340    1.0290 C.ar    1  UNL1        0.0165
      9 C          -2.5980   -0.0630    0.9710 C.ar    1  UNL1        0.1410
     10 O          -1.4220    0.0720    1.7350 O.3     1  UNL1       -0.4233
     11 C          -0.4410   -0.4610    0.9550 C.ar    1  UNL1        0.3239
     12 N          -0.7320   -1.1540   -0.1300 N.ar    1  UNL1       -0.2030
     13 C           0.2260   -1.7120   -0.9580 C.ar    1  UNL1        0.0350
     14 C           1.5230   -1.4960   -0.5940 C.ar    1  UNL1       -0.0173
     15 C           1.8460   -0.7150    0.5070 C.ar    1  UNL1        0.0778
     16 C           3.1400   -0.1420    0.5590 C.ar    1  UNL1        0.0006
     17 C           3.2740    1.0110   -0.2740 C.ar    1  UNL1       -0.0526
     18 C           4.5000    1.6300   -0.3100 C.ar    1  UNL1       -0.0611
     19 C           5.6340    1.2770    0.3620 C.ar    1  UNL1       -0.0617
     20 C           5.4670    0.1430    1.2080 C.ar    1  UNL1       -0.0611
     21 C           4.2230   -0.4690    1.2370 C.ar    1  UNL1       -0.0526
     22 N           0.7910   -0.2080    1.3010 N.ar    1  UNL1       -0.1946
     23 C          -3.0310    0.9550    0.1700 C.ar    1  UNL1        0.0581
     24 H          -5.7581   -0.5717   -1.0875 H       1  UNL1        0.0714
     25 H          -3.0854   -1.9852    1.6733 H       1  UNL1        0.0683
     26 H          -0.0247   -2.2570   -1.7977 H       1  UNL1        0.0832
     27 H           2.2807   -1.9228   -1.1496 H       1  UNL1        0.0654
     28 H           2.4791    1.3658   -0.8283 H       1  UNL1        0.0624
     29 H           4.5719    2.4610   -0.9177 H       1  UNL1        0.0618
     30 H           6.5280    1.7836    0.2664 H       1  UNL1        0.0618
     31 H           6.2479   -0.2121    1.7817 H       1  UNL1        0.0618
     32 H           4.1335   -1.2812    1.8674 H       1  UNL1        0.0624
     33 H          -2.4717    1.8186    0.0905 H       1  UNL1        0.0723
@<TRIPOS>UNITY_ATOM_ATTR
2 1
charge 1
3 1
charge -1
@<TRIPOS>BOND
     1     1     2    2
     2     2     3    1
     3     2     4    1
     4     4     5   ar
     5     4    23   ar
     6     5     6   ar
     7     6     7    1
     8     6     8   ar
     9     8     9   ar
    10     9    10    1
    11     9    23   ar
    12    10    11    1
    13    11    12   ar
    14    11    22   ar
    15    12    13   ar
    16    13    14   ar
    17    14    15   ar
    18    15    16    1
    19    15    22   ar
    20    16    17   ar
    21    16    21   ar
    22    17    18   ar
    23    18    19   ar
    24    19    20   ar
    25    20    21   ar
    26     5    24    1
    27     8    25    1
    28    13    26    1
    29    14    27    1
    30    17    28    1
    31    18    29    1
    32    19    30    1
    33    20    31    1
    34    21    32    1
    35    23    33    1
@<TRIPOS>MOLECULE
../data/bude_mols_rdkit_confs/molecule_61.pdb
 33 35 0 0 0
SMALL
GASTEIGER

@<TRIPOS>ATOM
      1 O           6.7440   -1.6460    0.6060 O.2     1  UNL1        0.0414
      2 N           5.5690   -1.4830    0.9420 N.pl3   1  UNL1        0.0798
      3 O           4.9730   -2.3550    1.8530 O.co2   1  UNL1       -0.5760
      4 C           4.7660   -0.4230    0.4360 C.ar    1  UNL1        0.2794
      5 C           5.2670    0.4870   -0.4670 C.ar    1  UNL1        0.0510
      6 C           4.5100    1.5260   -0.9740 C.ar    1  UNL1        0.1333
      7 F           5.0270    2.4160   -1.8680 F       1  UNL1       -0.2051
      8 C           3.1990    1.6510   -0.5560 C.ar    1  UNL1        0.0165
      9 C           2.6560    0.7620    0.3470 C.ar    1  UNL1        0.1410
     10 O           1.3390    0.9150    0.7470 O.3     1  UNL1       -0.4233
     11 C           0.3260    0.2650    0.0060 C.ar    1  UNL1        0.3239
     12 N           0.6670   -0.4830   -1.0620 N.ar    1  UNL1       -0.2030
     13 C          -0.2760   -1.1110   -1.7820 C.ar    1  UNL1        0.0350
     14 C          -1.6040   -0.9960   -1.4330 C.ar    1  UNL1       -0.0173
     15 C          -1.9330   -0.2290   -0.3400 C.ar    1  UNL1        0.0778
     16 C          -3.3370   -0.0610    0.0910 C.ar    1  UNL1        0.0006
     17 C          -4.3940   -0.6420   -0.5470 C.ar    1  UNL1       -0.0526
     18 C          -5.6960   -0.4390   -0.0820 C.ar    1  UNL1       -0.0611
     19 C          -5.9560    0.3380    1.0150 C.ar    1  UNL1       -0.0617
     20 C          -4.8920    0.9260    1.6630 C.ar    1  UNL1       -0.0611
     21 C          -3.6110    0.7220    1.1980 C.ar    1  UNL1       -0.0526
     22 N          -0.9470    0.3760    0.3410 N.ar    1  UNL1       -0.1946
     23 C           3.4540   -0.2530    0.8210 C.ar    1  UNL1        0.0581
     24 H           6.2463    0.3896   -0.7776 H       1  UNL1        0.0714
     25 H           2.6184    2.4203   -0.9248 H       1  UNL1        0.0683
     26 H          -0.0057   -1.6811   -2.5987 H       1  UNL1        0.0832
     27 H          -2.3361   -1.4752   -1.9802 H       1  UNL1        0.0654
     28 H          -4.2312   -1.2339   -1.3765 H       1  UNL1        0.0624
     29 H          -6.4823   -0.8865   -0.5785 H       1  UNL1        0.0618
     30 H          -6.9227    0.4793    1.3473 H       1  UNL1        0.0618
     31 H          -5.0537    1.5170    2.4935 H       1  UNL1        0.0618
     32 H          -2.8256    1.1707    1.6948 H       1  UNL1        0.0624
     33 H           3.0506   -0.9195    1.4978 H       1  UNL1        0.0723
@<TRIPOS>UNITY_ATOM_ATTR
2 1
charge 1
3 1
charge -1
@<TRIPOS>BOND
     1     1     2    2
     2     2     3    1
     3     2     4    1
     4     4     5   ar
     5     4    23   ar
     6     5     6   ar
     7     6     7    1
     8     6     8   ar
     9     8     9   ar
    10     9    10    1
    11     9    23   ar
    12    10    11    1
    13    11    12   ar
    14    11    22   ar
    15    12    13   ar
    16    13    14   ar
    17    14    15   ar
    18    15    16    1
    19    15    22   ar
    20    16    17   ar
    21    16    21   ar
    22    17    18   ar
    23    18    19   ar
    24    19    20   ar
    25    20    21   ar
    26     5    24    1
    27     8    25    1
    28    13    26    1
    29    14    27    1
    30    17    28    1
    31    18    29    1
    32    19    30    1
    33    20    31    1
    34    21    32    1
    35    23    33    1
@<TRIPOS>MOLECULE
../data/bude_mols_rdkit_confs/molecule_61.pdb
 33 35 0 0 0
SMALL
GASTEIGER

@<TRIPOS>ATOM
      1 O           6.4650    2.2740    0.2290 O.2     1  UNL1        0.0414
      2 N           5.6680    1.6580    0.9550 N.pl3   1  UNL1        0.0798
      3 O           5.9660    1.5900    2.2890 O.co2   1  UNL1       -0.5760
      4 C           4.5140    1.0660    0.3860 C.ar    1  UNL1        0.2794
      5 C           4.2880    1.1810   -0.9700 C.ar    1  UNL1        0.0510
      6 C           3.1490    0.5850   -1.4690 C.ar    1  UNL1        0.1333
      7 F           2.8770    0.6680   -2.8000 F       1  UNL1       -0.2051
      8 C           2.2760   -0.0940   -0.6490 C.ar    1  UNL1        0.0165
      9 C           2.5100   -0.2040    0.7050 C.ar    1  UNL1        0.1410
     10 O           1.6150   -0.9000    1.5410 O.3     1  UNL1       -0.4233
     11 C           0.4730   -1.4840    0.9950 C.ar    1  UNL1        0.3239
     12 N           0.4230   -2.7730    0.6290 N.ar    1  UNL1       -0.2030
     13 C          -0.7090   -3.2720    0.1080 C.ar    1  UNL1        0.0350
     14 C          -1.8180   -2.4580   -0.0490 C.ar    1  UNL1       -0.0173
     15 C          -1.7790   -1.1420    0.3210 C.ar    1  UNL1        0.0778
     16 C          -2.9120   -0.2280    0.1820 C.ar    1  UNL1        0.0006
     17 C          -2.7710    1.0820    0.5840 C.ar    1  UNL1       -0.0526
     18 C          -3.8230    1.9940    0.4730 C.ar    1  UNL1       -0.0611
     19 C          -5.0340    1.5960   -0.0470 C.ar    1  UNL1       -0.0617
     20 C          -5.1870    0.2960   -0.4500 C.ar    1  UNL1       -0.0611
     21 C          -4.1230   -0.6010   -0.3310 C.ar    1  UNL1       -0.0526
     22 N          -0.5990   -0.6960    0.8430 N.ar    1  UNL1       -0.1946
     23 C           3.6430    0.3860    1.2130 C.ar    1  UNL1        0.0581
     24 H           4.9425    1.6906   -1.5839 H       1  UNL1        0.0714
     25 H           1.4322   -0.5279   -1.0549 H       1  UNL1        0.0683
     26 H          -0.7527   -4.2632   -0.1758 H       1  UNL1        0.0832
     27 H          -2.6847   -2.8492   -0.4502 H       1  UNL1        0.0654
     28 H          -1.8692    1.3961    0.9754 H       1  UNL1        0.0624
     29 H          -3.6920    2.9699    0.7820 H       1  UNL1        0.0618
     30 H          -5.8140    2.2664   -0.1318 H       1  UNL1        0.0618
     31 H          -6.0879   -0.0206   -0.8414 H       1  UNL1        0.0618
     32 H          -4.2553   -1.5766   -0.6403 H       1  UNL1        0.0624
     33 H           3.8443    0.3198    2.2230 H       1  UNL1        0.0723
@<TRIPOS>UNITY_ATOM_ATTR
2 1
charge 1
3 1
charge -1
@<TRIPOS>BOND
     1     1     2    2
     2     2     3    1
     3     2     4    1
     4     4     5   ar
     5     4    23   ar
     6     5     6   ar
     7     6     7    1
     8     6     8   ar
     9     8     9   ar
    10     9    10    1
    11     9    23   ar
    12    10    11    1
    13    11    12   ar
    14    11    22   ar
    15    12    13   ar
    16    13    14   ar
    17    14    15   ar
    18    15    16    1
    19    15    22   ar
    20    16    17   ar
    21    16    21   ar
    22    17    18   ar
    23    18    19   ar
    24    19    20   ar
    25    20    21   ar
    26     5    24    1
    27     8    25    1
    28    13    26    1
    29    14    27    1
    30    17    28    1
    31    18    29    1
    32    19    30    1
    33    20    31    1
    34    21    32    1
    35    23    33    1
@<TRIPOS>MOLECULE
../data/bude_mols_rdkit_confs/molecule_61.pdb
 33 35 0 0 0
SMALL
GASTEIGER

@<TRIPOS>ATOM
      1 O           4.9170    1.8440    2.7340 O.2     1  UNL1        0.0414
      2 N           4.0020    1.8440    1.8930 N.pl3   1  UNL1        0.0798
      3 O           3.1280    2.8860    1.8210 O.co2   1  UNL1       -0.5760
      4 C           3.8430    0.7620    0.9880 C.ar    1  UNL1        0.2794
      5 C           4.7320   -0.3100    1.0530 C.ar    1  UNL1        0.0510
      6 C           4.5810   -1.3630    0.1770 C.ar    1  UNL1        0.1333
      7 F           5.4460   -2.4020    0.2430 F       1  UNL1       -0.2051
      8 C           3.5710   -1.3780   -0.7620 C.ar    1  UNL1        0.0165
      9 C           2.6710   -0.3140   -0.8430 C.ar    1  UNL1        0.1410
     10 O           1.6490   -0.2900   -1.7650 O.3     1  UNL1       -0.4233
     11 C           0.3840   -0.8100   -1.5190 C.ar    1  UNL1        0.3239
     12 N           0.1220   -2.0650   -1.9250 N.ar    1  UNL1       -0.2030
     13 C          -1.0850   -2.6040   -1.7080 C.ar    1  UNL1        0.0350
     14 C          -2.0800   -1.8660   -1.0590 C.ar    1  UNL1       -0.0173
     15 C          -1.7980   -0.5850   -0.6500 C.ar    1  UNL1        0.0778
     16 C          -2.8150    0.2300    0.0390 C.ar    1  UNL1        0.0006
     17 C          -2.5260    1.5170    0.4480 C.ar    1  UNL1       -0.0526
     18 C          -3.4490    2.3230    1.1000 C.ar    1  UNL1       -0.0611
     19 C          -4.7100    1.8390    1.3580 C.ar    1  UNL1       -0.0617
     20 C          -5.0140    0.5640    0.9580 C.ar    1  UNL1       -0.0611
     21 C          -4.0770   -0.2370    0.3040 C.ar    1  UNL1       -0.0526
     22 N          -0.5760   -0.1070   -0.8970 N.ar    1  UNL1       -0.1946
     23 C           2.8480    0.7180    0.0430 C.ar    1  UNL1        0.0581
     24 H           5.4941   -0.3149    1.7489 H       1  UNL1        0.0714
     25 H           3.4803   -2.1785   -1.4069 H       1  UNL1        0.0683
     26 H          -1.2814   -3.5676   -2.0210 H       1  UNL1        0.0832
     27 H          -3.0114   -2.2771   -0.8900 H       1  UNL1        0.0654
     28 H          -1.5843    1.8954    0.2610 H       1  UNL1        0.0624
     29 H          -3.1906    3.2793    1.3893 H       1  UNL1        0.0618
     30 H          -5.4109    2.4222    1.8414 H       1  UNL1        0.0618
     31 H          -5.9567    0.1879    1.1446 H       1  UNL1        0.0618
     32 H          -4.3371   -1.1933    0.0160 H       1  UNL1        0.0624
     33 H           2.1910    1.5125   -0.0037 H       1  UNL1        0.0723
@<TRIPOS>UNITY_ATOM_ATTR
2 1
charge 1
3 1
charge -1
@<TRIPOS>BOND
     1     1     2    2
     2     2     3    1
     3     2     4    1
     4     4     5   ar
     5     4    23   ar
     6     5     6   ar
     7     6     7    1
     8     6     8   ar
     9     8     9   ar
    10     9    10    1
    11     9    23   ar
    12    10    11    1
    13    11    12   ar
    14    11    22   ar
    15    12    13   ar
    16    13    14   ar
    17    14    15   ar
    18    15    16    1
    19    15    22   ar
    20    16    17   ar
    21    16    21   ar
    22    17    18   ar
    23    18    19   ar
    24    19    20   ar
    25    20    21   ar
    26     5    24    1
    27     8    25    1
    28    13    26    1
    29    14    27    1
    30    17    28    1
    31    18    29    1
    32    19    30    1
    33    20    31    1
    34    21    32    1
    35    23    33    1
@<TRIPOS>MOLECULE
../data/bude_mols_rdkit_confs/molecule_61.pdb
 33 35 0 0 0
SMALL
GASTEIGER

@<TRIPOS>ATOM
      1 O          -6.5510   -1.4220    0.6260 O.2     1  UNL1        0.0414
      2 N          -5.7290   -0.8650   -0.1040 N.pl3   1  UNL1        0.0798
      3 O          -6.0010   -0.8100   -1.4490 O.co2   1  UNL1       -0.5760
      4 C          -4.5400   -0.3020    0.4510 C.ar    1  UNL1        0.2794
      5 C          -4.3110   -0.3830    1.8060 C.ar    1  UNL1        0.0510
      6 C          -3.1530    0.1710    2.3100 C.ar    1  UNL1        0.1333
      7 F          -2.9420    0.0830    3.6540 F       1  UNL1       -0.2051
      8 C          -2.2420    0.7920    1.4770 C.ar    1  UNL1        0.0165
      9 C          -2.4780    0.8670    0.1300 C.ar    1  UNL1        0.1410
     10 O          -1.5500    1.4930   -0.6760 O.3     1  UNL1       -0.4233
     11 C          -0.4930    0.8670   -1.2750 C.ar    1  UNL1        0.3239
     12 N          -0.5410    0.4140   -2.5360 N.ar    1  UNL1       -0.2030
     13 C           0.4840   -0.2010   -3.1400 C.ar    1  UNL1        0.0350
     14 C           1.6480   -0.3580   -2.3740 C.ar    1  UNL1       -0.0173
     15 C           1.7250    0.0960   -1.0780 C.ar    1  UNL1        0.0778
     16 C           2.9410   -0.0660   -0.2760 C.ar    1  UNL1        0.0006
     17 C           4.0690   -0.6770   -0.7640 C.ar    1  UNL1       -0.0526
     18 C           5.2110   -0.8120    0.0340 C.ar    1  UNL1       -0.0611
     19 C           5.1840   -0.3280    1.3030 C.ar    1  UNL1       -0.0617
     20 C           4.0750    0.2820    1.8070 C.ar    1  UNL1       -0.0611
     21 C           2.9660    0.4130    1.0330 C.ar    1  UNL1       -0.0526
     22 N           0.6330    0.6990   -0.5760 N.ar    1  UNL1       -0.1946
     23 C          -3.6240    0.3210   -0.3850 C.ar    1  UNL1        0.0581
     24 H          -4.9896   -0.8472    2.4297 H       1  UNL1        0.0714
     25 H          -1.3804    1.2009    1.8714 H       1  UNL1        0.0683
     26 H           0.4208   -0.5397   -4.1128 H       1  UNL1        0.0832
     27 H           2.4670   -0.8257   -2.7930 H       1  UNL1        0.0654
     28 H           4.0752   -1.0408   -1.7297 H       1  UNL1        0.0624
     29 H           6.0584   -1.2710   -0.3351 H       1  UNL1        0.0618
     30 H           6.0216   -0.4245    1.8981 H       1  UNL1        0.0618
     31 H           4.0772    0.6434    2.7736 H       1  UNL1        0.0618
     32 H           2.1283    0.8747    1.4205 H       1  UNL1        0.0624
     33 H          -3.8070    0.3732   -1.3993 H       1  UNL1        0.0723
@<TRIPOS>UNITY_ATOM_ATTR
2 1
charge 1
3 1
charge -1
@<TRIPOS>BOND
     1     1     2    2
     2     2     3    1
     3     2     4    1
     4     4     5   ar
     5     4    23   ar
     6     5     6   ar
     7     6     7    1
     8     6     8   ar
     9     8     9   ar
    10     9    10    1
    11     9    23   ar
    12    10    11    1
    13    11    12   ar
    14    11    22   ar
    15    12    13   ar
    16    13    14   ar
    17    14    15   ar
    18    15    16    1
    19    15    22   ar
    20    16    17   ar
    21    16    21   ar
    22    17    18   ar
    23    18    19   ar
    24    19    20   ar
    25    20    21   ar
    26     5    24    1
    27     8    25    1
    28    13    26    1
    29    14    27    1
    30    17    28    1
    31    18    29    1
    32    19    30    1
    33    20    31    1
    34    21    32    1
    35    23    33    1
@<TRIPOS>MOLECULE
../data/bude_mols_rdkit_confs/molecule_61.pdb
 33 35 0 0 0
SMALL
GASTEIGER

@<TRIPOS>ATOM
      1 O          -6.6170    1.4120   -1.7110 O.2     1  UNL1        0.0414
      2 N          -5.8910    1.4170   -0.7130 N.pl3   1  UNL1        0.0798
      3 O          -6.3100    2.0860    0.4150 O.co2   1  UNL1       -0.5760
      4 C          -4.6500    0.7360   -0.7630 C.ar    1  UNL1        0.2794
      5 C          -4.2400    0.0780   -1.8770 C.ar    1  UNL1        0.0510
      6 C          -3.0460   -0.5750   -1.9180 C.ar    1  UNL1        0.1333
      7 F          -2.6360   -1.2340   -3.0370 F       1  UNL1       -0.2051
      8 C          -2.2260   -0.5800   -0.8200 C.ar    1  UNL1        0.0165
      9 C          -2.6090    0.0740    0.3210 C.ar    1  UNL1        0.1410
     10 O          -1.7720    0.0700    1.4450 O.3     1  UNL1       -0.4233
     11 C          -0.5450   -0.5960    1.4210 C.ar    1  UNL1        0.3239
     12 N          -0.4340   -1.8500    1.8900 N.ar    1  UNL1       -0.2030
     13 C           0.7050   -2.5540    1.9010 C.ar    1  UNL1        0.0350
     14 C           1.8360   -1.9030    1.3790 C.ar    1  UNL1       -0.0173
     15 C           1.7630   -0.6300    0.8930 C.ar    1  UNL1        0.0778
     16 C           2.9480    0.0180    0.3610 C.ar    1  UNL1        0.0006
     17 C           2.8310    1.3230   -0.1280 C.ar    1  UNL1       -0.0526
     18 C           3.9040    1.9950   -0.6440 C.ar    1  UNL1       -0.0611
     19 C           5.1520    1.3860   -0.6940 C.ar    1  UNL1       -0.0617
     20 C           5.3120    0.1060   -0.2250 C.ar    1  UNL1       -0.0611
     21 C           4.1960   -0.5350    0.2880 C.ar    1  UNL1       -0.0526
     22 N           0.5640   -0.0140    0.9310 N.ar    1  UNL1       -0.1946
     23 C          -3.8170    0.7310    0.3530 C.ar    1  UNL1        0.0581
     24 H          -4.8469    0.0725   -2.7117 H       1  UNL1        0.0714
     25 H          -1.3214   -1.0757   -0.8527 H       1  UNL1        0.0683
     26 H           0.7497   -3.5166    2.2705 H       1  UNL1        0.0832
     27 H           2.7412   -2.3984    1.3629 H       1  UNL1        0.0654
     28 H           1.9115    1.7906   -0.0986 H       1  UNL1        0.0624
     29 H           3.7867    2.9575   -0.9974 H       1  UNL1        0.0618
     30 H           5.9595    1.8967   -1.0842 H       1  UNL1        0.0618
     31 H           6.2311   -0.3624   -0.2535 H       1  UNL1        0.0618
     32 H           4.3153   -1.4978    0.6398 H       1  UNL1        0.0624
     33 H          -4.1085    1.2244    1.2113 H       1  UNL1        0.0723
@<TRIPOS>UNITY_ATOM_ATTR
2 1
charge 1
3 1
charge -1
@<TRIPOS>BOND
     1     1     2    2
     2     2     3    1
     3     2     4    1
     4     4     5   ar
     5     4    23   ar
     6     5     6   ar
     7     6     7    1
     8     6     8   ar
     9     8     9   ar
    10     9    10    1
    11     9    23   ar
    12    10    11    1
    13    11    12   ar
    14    11    22   ar
    15    12    13   ar
    16    13    14   ar
    17    14    15   ar
    18    15    16    1
    19    15    22   ar
    20    16    17   ar
    21    16    21   ar
    22    17    18   ar
    23    18    19   ar
    24    19    20   ar
    25    20    21   ar
    26     5    24    1
    27     8    25    1
    28    13    26    1
    29    14    27    1
    30    17    28    1
    31    18    29    1
    32    19    30    1
    33    20    31    1
    34    21    32    1
    35    23    33    1
@<TRIPOS>MOLECULE
../data/bude_mols_rdkit_confs/molecule_61.pdb
 33 35 0 0 0
SMALL
GASTEIGER

@<TRIPOS>ATOM
      1 O          -6.3940    1.5760    0.2720 O.2     1  UNL1        0.0414
      2 N          -5.6380    0.6740   -0.1030 N.pl3   1  UNL1        0.0798
      3 O          -5.9770   -0.0950   -1.1820 O.co2   1  UNL1       -0.5760
      4 C          -4.4100    0.4280    0.5820 C.ar    1  UNL1        0.2794
      5 C          -4.0400    1.1820    1.6710 C.ar    1  UNL1        0.0510
      6 C          -2.8490    0.9720    2.3660 C.ar    1  UNL1        0.1333
      7 F          -2.5330    1.7410    3.4270 F       1  UNL1       -0.2051
      8 C          -2.0340   -0.0510    1.9070 C.ar    1  UNL1        0.0165
      9 C          -2.3760   -0.8190    0.8280 C.ar    1  UNL1        0.1410
     10 O          -1.5420   -1.8340    0.3920 O.3     1  UNL1       -0.4233
     11 C          -0.5730   -1.5060   -0.5590 C.ar    1  UNL1        0.3239
     12 N          -0.7960   -1.6910   -1.8680 N.ar    1  UNL1       -0.2030
     13 C           0.0950   -1.3940   -2.8160 C.ar    1  UNL1        0.0350
     14 C           1.3170   -0.8680   -2.4550 C.ar    1  UNL1       -0.0173
     15 C           1.5840   -0.6640   -1.1280 C.ar    1  UNL1        0.0778
     16 C           2.8500   -0.1150   -0.6620 C.ar    1  UNL1        0.0006
     17 C           3.8320    0.2290   -1.5300 C.ar    1  UNL1       -0.0526
     18 C           5.0570    0.7600   -1.0820 C.ar    1  UNL1       -0.0611
     19 C           5.2820    0.9400    0.2610 C.ar    1  UNL1       -0.0617
     20 C           4.2790    0.5890    1.1400 C.ar    1  UNL1       -0.0611
     21 C           3.0760    0.0680    0.7070 C.ar    1  UNL1       -0.0526
     22 N           0.6180   -0.9950   -0.2270 N.ar    1  UNL1       -0.1946
     23 C          -3.5590   -0.5780    0.1700 C.ar    1  UNL1        0.0581
     24 H          -4.6704    1.9353    1.9875 H       1  UNL1        0.0714
     25 H          -1.1434   -0.2386    2.3934 H       1  UNL1        0.0683
     26 H          -0.1287   -1.5566   -3.8102 H       1  UNL1        0.0832
     27 H           2.0191   -0.6318   -3.1735 H       1  UNL1        0.0654
     28 H           3.6788    0.0989   -2.5422 H       1  UNL1        0.0624
     29 H           5.7878    1.0146   -1.7647 H       1  UNL1        0.0618
     30 H           6.1758    1.3267    0.6024 H       1  UNL1        0.0618
     31 H           4.4323    0.7197    2.1521 H       1  UNL1        0.0618
     32 H           2.3457   -0.1857    1.3907 H       1  UNL1        0.0624
     33 H          -3.8147   -1.1580   -0.6444 H       1  UNL1        0.0723
@<TRIPOS>UNITY_ATOM_ATTR
2 1
charge 1
3 1
charge -1
@<TRIPOS>BOND
     1     1     2    2
     2     2     3    1
     3     2     4    1
     4     4     5   ar
     5     4    23   ar
     6     5     6   ar
     7     6     7    1
     8     6     8   ar
     9     8     9   ar
    10     9    10    1
    11     9    23   ar
    12    10    11    1
    13    11    12   ar
    14    11    22   ar
    15    12    13   ar
    16    13    14   ar
    17    14    15   ar
    18    15    16    1
    19    15    22   ar
    20    16    17   ar
    21    16    21   ar
    22    17    18   ar
    23    18    19   ar
    24    19    20   ar
    25    20    21   ar
    26     5    24    1
    27     8    25    1
    28    13    26    1
    29    14    27    1
    30    17    28    1
    31    18    29    1
    32    19    30    1
    33    20    31    1
    34    21    32    1
    35    23    33    1
@<TRIPOS>MOLECULE
../data/bude_mols_rdkit_confs/molecule_61.pdb
 33 35 0 0 0
SMALL
GASTEIGER

@<TRIPOS>ATOM
      1 O          -5.7660    1.6030   -0.6620 O.2     1  UNL1        0.0414
      2 N          -5.6280    0.6960    0.1830 N.pl3   1  UNL1        0.0798
      3 O          -6.5800    0.5280    1.1490 O.co2   1  UNL1       -0.5760
      4 C          -4.4760   -0.1580    0.1340 C.ar    1  UNL1        0.2794
      5 C          -4.3160   -1.1550    1.0560 C.ar    1  UNL1        0.0510
      6 C          -3.1910   -1.9810    1.0000 C.ar    1  UNL1        0.1333
      7 F          -3.0230   -2.9690    1.9050 F       1  UNL1       -0.2051
      8 C          -2.2570   -1.7600   -0.0050 C.ar    1  UNL1        0.0165
      9 C          -2.4020   -0.7610   -0.9420 C.ar    1  UNL1        0.1410
     10 O          -1.4200   -0.6140   -1.9100 O.3     1  UNL1       -0.4233
     11 C          -0.3560    0.2350   -1.6170 C.ar    1  UNL1        0.3239
     12 N          -0.4600    1.5000   -2.0680 N.ar    1  UNL1       -0.2030
     13 C           0.5010    2.3890   -1.8420 C.ar    1  UNL1        0.0350
     14 C           1.6210    1.9870   -1.1270 C.ar    1  UNL1       -0.0173
     15 C           1.7120    0.7040   -0.6760 C.ar    1  UNL1        0.0778
     16 C           2.9010    0.2900    0.0790 C.ar    1  UNL1        0.0006
     17 C           2.9780   -1.0380    0.5380 C.ar    1  UNL1       -0.0526
     18 C           4.0750   -1.4580    1.2460 C.ar    1  UNL1       -0.0611
     19 C           5.1370   -0.5990    1.5330 C.ar    1  UNL1       -0.0617
     20 C           5.0630    0.6950    1.0870 C.ar    1  UNL1       -0.0611
     21 C           3.9510    1.1170    0.3700 C.ar    1  UNL1       -0.0526
     22 N           0.7190   -0.1730   -0.9230 N.ar    1  UNL1       -0.1946
     23 C          -3.5270    0.0310   -0.8500 C.ar    1  UNL1        0.0581
     24 H          -5.0253   -1.2970    1.7921 H       1  UNL1        0.0714
     25 H          -1.4237   -2.3670   -0.0510 H       1  UNL1        0.0683
     26 H           0.4168    3.3568   -2.1902 H       1  UNL1        0.0832
     27 H           2.3823    2.6575   -0.9376 H       1  UNL1        0.0654
     28 H           2.2082   -1.6966    0.3417 H       1  UNL1        0.0624
     29 H           4.1163   -2.4352    1.5753 H       1  UNL1        0.0618
     30 H           5.9561   -0.9293    2.0668 H       1  UNL1        0.0618
     31 H           5.8321    1.3544    1.2836 H       1  UNL1        0.0618
     32 H           3.9154    2.0952    0.0431 H       1  UNL1        0.0624
     33 H          -3.6635    0.7881   -1.5379 H       1  UNL1        0.0723
@<TRIPOS>UNITY_ATOM_ATTR
2 1
charge 1
3 1
charge -1
@<TRIPOS>BOND
     1     1     2    2
     2     2     3    1
     3     2     4    1
     4     4     5   ar
     5     4    23   ar
     6     5     6   ar
     7     6     7    1
     8     6     8   ar
     9     8     9   ar
    10     9    10    1
    11     9    23   ar
    12    10    11    1
    13    11    12   ar
    14    11    22   ar
    15    12    13   ar
    16    13    14   ar
    17    14    15   ar
    18    15    16    1
    19    15    22   ar
    20    16    17   ar
    21    16    21   ar
    22    17    18   ar
    23    18    19   ar
    24    19    20   ar
    25    20    21   ar
    26     5    24    1
    27     8    25    1
    28    13    26    1
    29    14    27    1
    30    17    28    1
    31    18    29    1
    32    19    30    1
    33    20    31    1
    34    21    32    1
    35    23    33    1
@<TRIPOS>MOLECULE
../data/bude_mols_rdkit_confs/molecule_61.pdb
 33 35 0 0 0
SMALL
GASTEIGER

@<TRIPOS>ATOM
      1 O          -6.7570    0.7510    1.0190 O.2     1  UNL1        0.0414
      2 N          -5.5140    0.8100    0.9790 N.pl3   1  UNL1        0.0798
      3 O          -4.8940    1.8630    1.6160 O.co2   1  UNL1       -0.5760
      4 C          -4.7390   -0.1750    0.2980 C.ar    1  UNL1        0.2794
      5 C          -5.3640   -1.2190   -0.3340 C.ar    1  UNL1        0.0510
      6 C          -4.5790   -2.1530   -0.9820 C.ar    1  UNL1        0.1333
      7 F          -5.1990   -3.1950   -1.6130 F       1  UNL1       -0.2051
      8 C          -3.2060   -2.0340   -0.9910 C.ar    1  UNL1        0.0165
      9 C          -2.5510   -0.9730   -0.3510 C.ar    1  UNL1        0.1410
     10 O          -1.2130   -0.9320   -0.4070 O.3     1  UNL1       -0.4233
     11 C          -0.3430   -0.0200    0.1250 C.ar    1  UNL1        0.3239
     12 N          -0.6980    1.0620    0.8410 N.ar    1  UNL1       -0.2030
     13 C           0.1670    1.9420    1.3530 C.ar    1  UNL1        0.0350
     14 C           1.5290    1.6990    1.1120 C.ar    1  UNL1       -0.0173
     15 C           1.9190    0.6050    0.3850 C.ar    1  UNL1        0.0778
     16 C           3.3270    0.3500    0.1340 C.ar    1  UNL1        0.0006
     17 C           4.2750    1.2040    0.6230 C.ar    1  UNL1       -0.0526
     18 C           5.6200    0.9210    0.3580 C.ar    1  UNL1       -0.0611
     19 C           5.9970   -0.1910   -0.3800 C.ar    1  UNL1       -0.0617
     20 C           5.0100   -1.0530   -0.8720 C.ar    1  UNL1       -0.0611
     21 C           3.6920   -0.7730   -0.6100 C.ar    1  UNL1       -0.0526
     22 N           0.9960   -0.2430   -0.1020 N.ar    1  UNL1       -0.1946
     23 C          -3.3450   -0.0690    0.2800 C.ar    1  UNL1        0.0581
     24 H          -6.3924   -1.3047   -0.3258 H       1  UNL1        0.0714
     25 H          -2.6442   -2.7463   -1.4829 H       1  UNL1        0.0683
     26 H          -0.1497    2.7591    1.8981 H       1  UNL1        0.0832
     27 H           2.2399    2.3478    1.4844 H       1  UNL1        0.0654
     28 H           4.0066    2.0351    1.1728 H       1  UNL1        0.0624
     29 H           6.3488    1.5553    0.7206 H       1  UNL1        0.0618
     30 H           6.9945   -0.3809   -0.5644 H       1  UNL1        0.0618
     31 H           5.2692   -1.8861   -1.4232 H       1  UNL1        0.0618
     32 H           2.9584   -1.4037   -0.9693 H       1  UNL1        0.0624
     33 H          -2.9019    0.7270    0.7649 H       1  UNL1        0.0723
@<TRIPOS>UNITY_ATOM_ATTR
2 1
charge 1
3 1
charge -1
@<TRIPOS>BOND
     1     1     2    2
     2     2     3    1
     3     2     4    1
     4     4     5   ar
     5     4    23   ar
     6     5     6   ar
     7     6     7    1
     8     6     8   ar
     9     8     9   ar
    10     9    10    1
    11     9    23   ar
    12    10    11    1
    13    11    12   ar
    14    11    22   ar
    15    12    13   ar
    16    13    14   ar
    17    14    15   ar
    18    15    16    1
    19    15    22   ar
    20    16    17   ar
    21    16    21   ar
    22    17    18   ar
    23    18    19   ar
    24    19    20   ar
    25    20    21   ar
    26     5    24    1
    27     8    25    1
    28    13    26    1
    29    14    27    1
    30    17    28    1
    31    18    29    1
    32    19    30    1
    33    20    31    1
    34    21    32    1
    35    23    33    1
@<TRIPOS>MOLECULE
../data/bude_mols_rdkit_confs/molecule_61.pdb
 33 35 0 0 0
SMALL
GASTEIGER

@<TRIPOS>ATOM
      1 O           6.7630    2.1610   -1.5100 O.2     1  UNL1        0.0414
      2 N           5.5520    2.3400   -1.3070 N.pl3   1  UNL1        0.0798
      3 O           5.0400    3.6140   -1.3380 O.co2   1  UNL1       -0.5760
      4 C           4.7410    1.1990   -1.0460 C.ar    1  UNL1        0.2794
      5 C           5.3190   -0.0530   -1.0290 C.ar    1  UNL1        0.0510
      6 C           4.6020   -1.1990   -0.7850 C.ar    1  UNL1        0.1333
      7 F           5.1680   -2.4410   -0.7660 F       1  UNL1       -0.2051
      8 C           3.2340   -1.0760   -0.5470 C.ar    1  UNL1        0.0165
      9 C           2.6290    0.1400   -0.5550 C.ar    1  UNL1        0.1410
     10 O           1.3020    0.3190   -0.3310 O.3     1  UNL1       -0.4233
     11 C           0.3040   -0.5590   -0.0620 C.ar    1  UNL1        0.3239
     12 N           0.4060   -1.8710    0.0490 N.ar    1  UNL1       -0.2030
     13 C          -0.6420   -2.6570    0.3180 C.ar    1  UNL1        0.0350
     14 C          -1.8970   -2.1230    0.4950 C.ar    1  UNL1       -0.0173
     15 C          -2.0270   -0.7560    0.3840 C.ar    1  UNL1        0.0778
     16 C          -3.2980   -0.0750    0.5490 C.ar    1  UNL1        0.0006
     17 C          -4.4720   -0.7270    0.8280 C.ar    1  UNL1       -0.0526
     18 C          -5.6760   -0.0530    0.9820 C.ar    1  UNL1       -0.0611
     19 C          -5.6950    1.3040    0.8520 C.ar    1  UNL1       -0.0617
     20 C          -4.5450    2.0080    0.5730 C.ar    1  UNL1       -0.0611
     21 C          -3.3630    1.2960    0.4260 C.ar    1  UNL1       -0.0526
     22 N          -0.9370   -0.0270    0.1130 N.ar    1  UNL1       -0.1946
     23 C           3.3960    1.2880   -0.8090 C.ar    1  UNL1        0.0581
     24 H           6.3324   -0.1322   -1.2070 H       1  UNL1        0.0714
     25 H           2.6724   -1.9218   -0.3619 H       1  UNL1        0.0683
     26 H          -0.5073   -3.6774    0.3937 H       1  UNL1        0.0832
     27 H          -2.7102   -2.7234    0.7030 H       1  UNL1        0.0654
     28 H          -4.4600   -1.7542    0.9269 H       1  UNL1        0.0624
     29 H          -6.5434   -0.5713    1.1917 H       1  UNL1        0.0618
     30 H          -6.5862    1.8121    0.9646 H       1  UNL1        0.0618
     31 H          -4.5616    3.0353    0.4760 H       1  UNL1        0.0618
     32 H          -2.4962    1.8151    0.2157 H       1  UNL1        0.0624
     33 H           2.9387    2.2131   -0.8171 H       1  UNL1        0.0723
@<TRIPOS>UNITY_ATOM_ATTR
2 1
charge 1
3 1
charge -1
@<TRIPOS>BOND
     1     1     2    2
     2     2     3    1
     3     2     4    1
     4     4     5   ar
     5     4    23   ar
     6     5     6   ar
     7     6     7    1
     8     6     8   ar
     9     8     9   ar
    10     9    10    1
    11     9    23   ar
    12    10    11    1
    13    11    12   ar
    14    11    22   ar
    15    12    13   ar
    16    13    14   ar
    17    14    15   ar
    18    15    16    1
    19    15    22   ar
    20    16    17   ar
    21    16    21   ar
    22    17    18   ar
    23    18    19   ar
    24    19    20   ar
    25    20    21   ar
    26     5    24    1
    27     8    25    1
    28    13    26    1
    29    14    27    1
    30    17    28    1
    31    18    29    1
    32    19    30    1
    33    20    31    1
    34    21    32    1
    35    23    33    1
@<TRIPOS>MOLECULE
../data/bude_mols_rdkit_confs/molecule_61.pdb
 33 35 0 0 0
SMALL
GASTEIGER

@<TRIPOS>ATOM
      1 O           6.7020    0.7680   -1.8170 O.2     1  UNL1        0.0414
      2 N           5.4850    1.0220   -1.8370 N.pl3   1  UNL1        0.0798
      3 O           4.8620    1.5360   -2.9620 O.co2   1  UNL1       -0.5760
      4 C           4.7270    0.7720   -0.6650 C.ar    1  UNL1        0.2794
      5 C           5.3260    0.2620    0.4650 C.ar    1  UNL1        0.0510
      6 C           4.6200    0.0040    1.6310 C.ar    1  UNL1        0.1333
      7 F           5.1980   -0.4940    2.7360 F       1  UNL1       -0.2051
      8 C           3.2700    0.2730    1.6450 C.ar    1  UNL1        0.0165
      9 C           2.6180    0.7850    0.5430 C.ar    1  UNL1        0.1410
     10 O           1.2580    1.0540    0.5630 O.3     1  UNL1       -0.4233
     11 C           0.3080    0.1060    0.1980 C.ar    1  UNL1        0.3239
     12 N           0.7660   -1.1070   -0.1830 N.ar    1  UNL1       -0.2030
     13 C          -0.1130   -2.0560   -0.5450 C.ar    1  UNL1        0.0350
     14 C          -1.4710   -1.8060   -0.5320 C.ar    1  UNL1       -0.0173
     15 C          -1.9380   -0.5680   -0.1430 C.ar    1  UNL1        0.0778
     16 C          -3.3410   -0.2370   -0.1040 C.ar    1  UNL1        0.0006
     17 C          -4.3370   -1.1180   -0.4490 C.ar    1  UNL1       -0.0526
     18 C          -5.6900   -0.7550   -0.3980 C.ar    1  UNL1       -0.0611
     19 C          -6.0470    0.5140    0.0070 C.ar    1  UNL1       -0.0617
     20 C          -5.0370    1.3900    0.3520 C.ar    1  UNL1       -0.0611
     21 C          -3.7070    1.0400    0.3040 C.ar    1  UNL1       -0.0526
     22 N          -0.9950    0.3330    0.2070 N.ar    1  UNL1       -0.1946
     23 C           3.3690    1.0270   -0.6030 C.ar    1  UNL1        0.0581
     24 H           6.3386    0.0642    0.4438 H       1  UNL1        0.0714
     25 H           2.7305    0.0862    2.5047 H       1  UNL1        0.0683
     26 H           0.2311   -2.9842   -0.8367 H       1  UNL1        0.0832
     27 H          -2.1352   -2.5442   -0.8129 H       1  UNL1        0.0654
     28 H          -4.0828   -2.0708   -0.7533 H       1  UNL1        0.0624
     29 H          -6.4181   -1.4366   -0.6632 H       1  UNL1        0.0618
     30 H          -7.0377    0.7998    0.0508 H       1  UNL1        0.0618
     31 H          -5.2890    2.3430    0.6573 H       1  UNL1        0.0618
     32 H          -2.9825    1.7248    0.5706 H       1  UNL1        0.0624
     33 H           2.8960    1.4103   -1.4363 H       1  UNL1        0.0723
@<TRIPOS>UNITY_ATOM_ATTR
2 1
charge 1
3 1
charge -1
@<TRIPOS>BOND
     1     1     2    2
     2     2     3    1
     3     2     4    1
     4     4     5   ar
     5     4    23   ar
     6     5     6   ar
     7     6     7    1
     8     6     8   ar
     9     8     9   ar
    10     9    10    1
    11     9    23   ar
    12    10    11    1
    13    11    12   ar
    14    11    22   ar
    15    12    13   ar
    16    13    14   ar
    17    14    15   ar
    18    15    16    1
    19    15    22   ar
    20    16    17   ar
    21    16    21   ar
    22    17    18   ar
    23    18    19   ar
    24    19    20   ar
    25    20    21   ar
    26     5    24    1
    27     8    25    1
    28    13    26    1
    29    14    27    1
    30    17    28    1
    31    18    29    1
    32    19    30    1
    33    20    31    1
    34    21    32    1
    35    23    33    1
@<TRIPOS>MOLECULE
../data/bude_mols_rdkit_confs/molecule_61.pdb
 33 35 0 0 0
SMALL
GASTEIGER

@<TRIPOS>ATOM
      1 O           6.6230   -0.9520   -0.5090 O.2     1  UNL1        0.0414
      2 N           6.1270    0.0420    0.0140 N.pl3   1  UNL1        0.0798
      3 O           6.9690    0.9950    0.5200 O.co2   1  UNL1       -0.5760
      4 C           4.7170    0.2420    0.1140 C.ar    1  UNL1        0.2794
      5 C           4.2220    1.3800    0.7130 C.ar    1  UNL1        0.0510
      6 C           2.8700    1.5730    0.8100 C.ar    1  UNL1        0.1333
      7 F           2.3920    2.6980    1.4020 F       1  UNL1       -0.2051
      8 C           1.9960    0.6050    0.2960 C.ar    1  UNL1        0.0165
      9 C           2.4530   -0.5330   -0.3030 C.ar    1  UNL1        0.1410
     10 O           1.6610   -1.4890   -0.8110 O.3     1  UNL1       -0.4233
     11 C           0.3270   -1.6690   -0.9100 C.ar    1  UNL1        0.3239
     12 N          -0.1400   -2.8060   -1.5120 N.ar    1  UNL1       -0.2030
     13 C          -1.4430   -3.0510   -1.6460 C.ar    1  UNL1        0.0350
     14 C          -2.3900   -2.1540   -1.1760 C.ar    1  UNL1       -0.0173
     15 C          -1.9330   -1.0100   -0.5710 C.ar    1  UNL1        0.0778
     16 C          -2.8650   -0.0210   -0.0530 C.ar    1  UNL1        0.0006
     17 C          -4.2280   -0.1450   -0.1230 C.ar    1  UNL1       -0.0526
     18 C          -5.0690    0.8470    0.3980 C.ar    1  UNL1       -0.0611
     19 C          -4.5680    1.9770    0.9960 C.ar    1  UNL1       -0.0617
     20 C          -3.2010    2.1160    1.0740 C.ar    1  UNL1       -0.0611
     21 C          -2.3830    1.1360    0.5600 C.ar    1  UNL1       -0.0526
     22 N          -0.5900   -0.8150   -0.4630 N.ar    1  UNL1       -0.1946
     23 C           3.8270   -0.6990   -0.3860 C.ar    1  UNL1        0.0581
     24 H           4.8716    2.0882    1.0892 H       1  UNL1        0.0714
     25 H           0.9782    0.7572    0.3727 H       1  UNL1        0.0683
     26 H          -1.7518   -3.9214   -2.1065 H       1  UNL1        0.0832
     27 H          -3.4001   -2.3395   -1.2772 H       1  UNL1        0.0654
     28 H          -4.6407   -0.9809   -0.5657 H       1  UNL1        0.0624
     29 H          -6.0916    0.7253    0.3306 H       1  UNL1        0.0618
     30 H          -5.1980    2.7008    1.3758 H       1  UNL1        0.0618
     31 H          -2.7905    2.9529    1.5168 H       1  UNL1        0.0618
     32 H          -1.3614    1.2633    0.6316 H       1  UNL1        0.0624
     33 H           4.2005   -1.5502   -0.8343 H       1  UNL1        0.0723
@<TRIPOS>UNITY_ATOM_ATTR
2 1
charge 1
3 1
charge -1
@<TRIPOS>BOND
     1     1     2    2
     2     2     3    1
     3     2     4    1
     4     4     5   ar
     5     4    23   ar
     6     5     6   ar
     7     6     7    1
     8     6     8   ar
     9     8     9   ar
    10     9    10    1
    11     9    23   ar
    12    10    11    1
    13    11    12   ar
    14    11    22   ar
    15    12    13   ar
    16    13    14   ar
    17    14    15   ar
    18    15    16    1
    19    15    22   ar
    20    16    17   ar
    21    16    21   ar
    22    17    18   ar
    23    18    19   ar
    24    19    20   ar
    25    20    21   ar
    26     5    24    1
    27     8    25    1
    28    13    26    1
    29    14    27    1
    30    17    28    1
    31    18    29    1
    32    19    30    1
    33    20    31    1
    34    21    32    1
    35    23    33    1
@<TRIPOS>MOLECULE
../data/bude_mols_rdkit_confs/molecule_61.pdb
 33 35 0 0 0
SMALL
GASTEIGER

@<TRIPOS>ATOM
      1 O          -2.8090    3.2190    0.9840 O.2     1  UNL1        0.0414
      2 N          -3.6750    2.4880    0.4720 N.pl3   1  UNL1        0.0798
      3 O          -4.7240    3.0650   -0.1730 O.co2   1  UNL1       -0.5760
      4 C          -3.6020    1.0710    0.5390 C.ar    1  UNL1        0.2794
      5 C          -4.5840    0.3000   -0.0440 C.ar    1  UNL1        0.0510
      6 C          -4.4720   -1.0690    0.0460 C.ar    1  UNL1        0.1333
      7 F          -5.4300   -1.8610   -0.5220 F       1  UNL1       -0.2051
      8 C          -3.4170   -1.6910    0.6950 C.ar    1  UNL1        0.0165
      9 C          -2.4670   -0.8690    1.2580 C.ar    1  UNL1        0.1410
     10 O          -1.3840   -1.4330    1.9230 O.3     1  UNL1       -0.4233
     11 C          -0.2540   -1.6880    1.1280 C.ar    1  UNL1        0.3239
     12 N          -0.0930   -2.9140    0.6170 N.ar    1  UNL1       -0.2030
     13 C           0.9630   -3.2020   -0.1420 C.ar    1  UNL1        0.0350
     14 C           1.8970   -2.1850   -0.3870 C.ar    1  UNL1       -0.0173
     15 C           1.7330   -0.9290    0.1370 C.ar    1  UNL1        0.0778
     16 C           2.6760    0.1520   -0.0910 C.ar    1  UNL1        0.0006
     17 C           3.8160    0.0310   -0.8510 C.ar    1  UNL1       -0.0526
     18 C           4.7050    1.0630   -1.0620 C.ar    1  UNL1       -0.0611
     19 C           4.4710    2.2820   -0.5010 C.ar    1  UNL1       -0.0617
     20 C           3.3330    2.4390    0.2700 C.ar    1  UNL1       -0.0611
     21 C           2.4430    1.4100    0.4830 C.ar    1  UNL1       -0.0526
     22 N           0.6420   -0.7180    0.8920 N.ar    1  UNL1       -0.1946
     23 C          -2.5160    0.5050    1.2070 C.ar    1  UNL1        0.0581
     24 H          -5.3805    0.7364   -0.5340 H       1  UNL1        0.0714
     25 H          -3.3471   -2.7190    0.7533 H       1  UNL1        0.0683
     26 H           1.0902   -4.1463   -0.5383 H       1  UNL1        0.0832
     27 H           2.7228   -2.3858   -0.9724 H       1  UNL1        0.0654
     28 H           4.0167   -0.8825   -1.2871 H       1  UNL1        0.0624
     29 H           5.5447    0.9127   -1.6428 H       1  UNL1        0.0618
     30 H           5.1248    3.0670   -0.6471 H       1  UNL1        0.0618
     31 H           3.1448    3.3581    0.6999 H       1  UNL1        0.0618
     32 H           1.6048    1.5646    1.0649 H       1  UNL1        0.0624
     33 H          -1.7846    1.0888    1.6420 H       1  UNL1        0.0723
@<TRIPOS>UNITY_ATOM_ATTR
2 1
charge 1
3 1
charge -1
@<TRIPOS>BOND
     1     1     2    2
     2     2     3    1
     3     2     4    1
     4     4     5   ar
     5     4    23   ar
     6     5     6   ar
     7     6     7    1
     8     6     8   ar
     9     8     9   ar
    10     9    10    1
    11     9    23   ar
    12    10    11    1
    13    11    12   ar
    14    11    22   ar
    15    12    13   ar
    16    13    14   ar
    17    14    15   ar
    18    15    16    1
    19    15    22   ar
    20    16    17   ar
    21    16    21   ar
    22    17    18   ar
    23    18    19   ar
    24    19    20   ar
    25    20    21   ar
    26     5    24    1
    27     8    25    1
    28    13    26    1
    29    14    27    1
    30    17    28    1
    31    18    29    1
    32    19    30    1
    33    20    31    1
    34    21    32    1
    35    23    33    1
@<TRIPOS>MOLECULE
../data/bude_mols_rdkit_confs/molecule_61.pdb
 33 35 0 0 0
SMALL
GASTEIGER

@<TRIPOS>ATOM
      1 O          -4.8580    3.1220   -0.2960 O.2     1  UNL1        0.0414
      2 N          -5.4450    2.0790    0.0180 N.pl3   1  UNL1        0.0798
      3 O          -6.7870    1.9470   -0.1180 O.co2   1  UNL1       -0.5760
      4 C          -4.6660    1.0030    0.5360 C.ar    1  UNL1        0.2794
      5 C          -5.2750   -0.1770    0.9000 C.ar    1  UNL1        0.0510
      6 C          -4.5780   -1.2380    1.4000 C.ar    1  UNL1        0.1333
      7 F          -5.1670   -2.4000    1.7600 F       1  UNL1       -0.2051
      8 C          -3.2030   -1.1020    1.5400 C.ar    1  UNL1        0.0165
      9 C          -2.5500    0.0590    1.1900 C.ar    1  UNL1        0.1410
     10 O          -1.1830    0.2050    1.3250 O.3     1  UNL1       -0.4233
     11 C          -0.2890   -0.1240    0.3210 C.ar    1  UNL1        0.3239
     12 N          -0.7700   -0.6070   -0.8320 N.ar    1  UNL1       -0.2030
     13 C          -0.0170   -0.9590   -1.8690 C.ar    1  UNL1        0.0350
     14 C           1.3620   -0.8170   -1.7470 C.ar    1  UNL1       -0.0173
     15 C           1.8830   -0.3260   -0.5790 C.ar    1  UNL1        0.0778
     16 C           3.3180   -0.1480   -0.3740 C.ar    1  UNL1        0.0006
     17 C           4.2780   -0.4450   -1.3050 C.ar    1  UNL1       -0.0526
     18 C           5.6360   -0.2650   -1.0810 C.ar    1  UNL1       -0.0611
     19 C           6.0230    0.2350    0.1340 C.ar    1  UNL1       -0.0617
     20 C           5.1130    0.5570    1.1220 C.ar    1  UNL1       -0.0611
     21 C           3.7830    0.3590    0.8460 C.ar    1  UNL1       -0.0526
     22 N           1.0370    0.0110    0.4370 N.ar    1  UNL1       -0.1946
     23 C          -3.3020    1.0970    0.6900 C.ar    1  UNL1        0.0581
     24 H          -6.2976   -0.2622    0.7905 H       1  UNL1        0.0714
     25 H          -2.6559   -1.8920    1.9163 H       1  UNL1        0.0683
     26 H          -0.4407   -1.3254   -2.7357 H       1  UNL1        0.0832
     27 H           1.9848   -1.0785   -2.5272 H       1  UNL1        0.0654
     28 H           3.9768   -0.8210   -2.2176 H       1  UNL1        0.0624
     29 H           6.3314   -0.5002   -1.8063 H       1  UNL1        0.0618
     30 H           7.0287    0.3760    0.3175 H       1  UNL1        0.0618
     31 H           5.4212    0.9320    2.0327 H       1  UNL1        0.0618
     32 H           3.0909    0.5956    1.5740 H       1  UNL1        0.0624
     33 H          -2.8281    1.9737    0.4220 H       1  UNL1        0.0723
@<TRIPOS>UNITY_ATOM_ATTR
2 1
charge 1
3 1
charge -1
@<TRIPOS>BOND
     1     1     2    2
     2     2     3    1
     3     2     4    1
     4     4     5   ar
     5     4    23   ar
     6     5     6   ar
     7     6     7    1
     8     6     8   ar
     9     8     9   ar
    10     9    10    1
    11     9    23   ar
    12    10    11    1
    13    11    12   ar
    14    11    22   ar
    15    12    13   ar
    16    13    14   ar
    17    14    15   ar
    18    15    16    1
    19    15    22   ar
    20    16    17   ar
    21    16    21   ar
    22    17    18   ar
    23    18    19   ar
    24    19    20   ar
    25    20    21   ar
    26     5    24    1
    27     8    25    1
    28    13    26    1
    29    14    27    1
    30    17    28    1
    31    18    29    1
    32    19    30    1
    33    20    31    1
    34    21    32    1
    35    23    33    1
