@<TRIPOS>MOLECULE
../data/bude_mols_rdkit_confs/molecule_57.pdb
 34 36 0 0 0
SMALL
GASTEIGER

@<TRIPOS>ATOM
      1  C1        -2.3190   -0.1080   -1.5490 C.3     1  UNL1       -0.0377
      2  C2        -2.2630    0.4210   -0.1840 C.ar    1  UNL1       -0.0264
      3  C3        -2.9930    1.5930    0.0690 C.ar    1  UNL1       -0.0569
      4  C4        -3.0170    2.1830    1.3090 C.ar    1  UNL1       -0.0614
      5  C5        -2.3020    1.6010    2.3250 C.ar    1  UNL1       -0.0598
      6  C6        -1.5810    0.4460    2.0790 C.ar    1  UNL1       -0.0374
      7  C7        -1.5490   -0.1540    0.8430 C.ar    1  UNL1        0.0558
      8  N1        -0.8340   -1.3550    0.6030 N.ar    1  UNL1       -0.2434
      9  C8         0.4370   -1.4600    0.1980 C.ar    1  UNL1        0.1727
     10  C9         1.4560   -0.4790   -0.1140 C.ar    1  UNL1        0.0612
     11  C10        1.3170    0.8740   -0.0530 C.ar    1  UNL1       -0.0441
     12  C11        2.3360    1.7590   -0.3670 C.ar    1  UNL1       -0.0193
     13  C12        3.5380    1.2870   -0.7540 C.ar    1  UNL1        0.1204
     14  O1         4.5770    2.1650   -1.0740 O.3     1  UNL1       -0.5066
     15  C13        3.7270   -0.0670   -0.8310 C.ar    1  UNL1        0.0220
     16  C14        2.7030   -0.9370   -0.5150 C.ar    1  UNL1        0.1310
     17  O2         2.9850   -2.2860   -0.6210 O.3     1  UNL1       -0.5059
     18  N2         0.6550   -2.8220    0.1140 N.ar    1  UNL1       -0.1507
     19  N3        -0.4330   -3.4720    0.4510 N.ar    1  UNL1       -0.2260
     20  C15       -1.3880   -2.6150    0.7640 C.ar    1  UNL1        0.3489
     21  O3        -2.5640   -2.8220    1.1350 O.2     1  UNL1       -0.2446
     22 H          -2.9400    0.5224   -2.1506 H       1  UNL1        0.0278
     23 H          -2.7258   -1.0975   -1.5316 H       1  UNL1        0.0278
     24 H          -1.3322   -0.1352   -1.9617 H       1  UNL1        0.0278
     25 H          -3.5282    2.0247   -0.7006 H       1  UNL1        0.0621
     26 H          -3.5607    3.0448    1.4728 H       1  UNL1        0.0618
     27 H          -2.3019    2.0222    3.2671 H       1  UNL1        0.0618
     28 H          -1.0474    0.0192    2.8524 H       1  UNL1        0.0638
     29 H           0.4065    1.2601    0.2421 H       1  UNL1        0.0627
     30 H           2.1752    2.7765   -0.3048 H       1  UNL1        0.0654
     31 H           4.4418    3.0906   -1.0194 H       1  UNL1        0.2921
     32 H           4.6424   -0.4400   -1.1277 H       1  UNL1        0.0691
     33 H           2.3254   -2.9199   -0.4183 H       1  UNL1        0.2922
     34 H          -0.5243   -4.4521    0.4681 H       1  UNL1        0.1937
@<TRIPOS>BOND
     1     1     2    1
     2     2     3   ar
     3     2     7   ar
     4     3     4   ar
     5     4     5   ar
     6     5     6   ar
     7     6     7   ar
     8     7     8    1
     9     8     9   ar
    10     8    20   ar
    11     9    10    1
    12     9    18   ar
    13    10    11   ar
    14    10    16   ar
    15    11    12   ar
    16    12    13   ar
    17    13    14    1
    18    13    15   ar
    19    15    16   ar
    20    16    17    1
    21    18    19   ar
    22    19    20   ar
    23    20    21    2
    24     1    22    1
    25     1    23    1
    26     1    24    1
    27     3    25    1
    28     4    26    1
    29     5    27    1
    30     6    28    1
    31    11    29    1
    32    12    30    1
    33    14    31    1
    34    15    32    1
    35    17    33    1
    36    19    34    1
@<TRIPOS>MOLECULE
../data/bude_mols_rdkit_confs/molecule_57.pdb
 34 36 0 0 0
SMALL
GASTEIGER

@<TRIPOS>ATOM
      1  C1         1.9120   -2.2020    1.3700 C.3     1  UNL1       -0.0377
      2  C2         1.9810   -1.5110    0.0660 C.ar    1  UNL1       -0.0264
      3  C3         2.4770   -2.1760   -1.0220 C.ar    1  UNL1       -0.0569
      4  C4         2.5670   -1.5910   -2.2580 C.ar    1  UNL1       -0.0614
      5  C5         2.1510   -0.2950   -2.4330 C.ar    1  UNL1       -0.0598
      6  C6         1.6460    0.4030   -1.3570 C.ar    1  UNL1       -0.0374
      7  C7         1.5530   -0.1870   -0.1030 C.ar    1  UNL1        0.0558
      8  N1         1.0840    0.5010    1.0550 N.ar    1  UNL1       -0.2434
      9  C8        -0.1270    0.9650    1.2740 C.ar    1  UNL1        0.1727
     10  C9        -1.3720    0.9800    0.5120 C.ar    1  UNL1        0.0612
     11  C10       -2.2850    2.0330    0.7360 C.ar    1  UNL1       -0.0441
     12  C11       -3.4980    2.1080    0.1080 C.ar    1  UNL1       -0.0193
     13  C12       -3.9040    1.1480   -0.7900 C.ar    1  UNL1        0.1204
     14  O1        -5.1380    1.2670   -1.4010 O.3     1  UNL1       -0.5066
     15  C13       -3.0360    0.1140   -1.0250 C.ar    1  UNL1        0.0220
     16  C14       -1.7860    0.0340   -0.3780 C.ar    1  UNL1        0.1310
     17  O2        -0.9880   -1.0490   -0.6750 O.3     1  UNL1       -0.5059
     18  N2        -0.0440    1.6000    2.5090 N.ar    1  UNL1       -0.1507
     19  N3         1.1700    1.5050    2.9860 N.ar    1  UNL1       -0.2260
     20  C15        1.9090    0.8260    2.1130 C.ar    1  UNL1        0.3489
     21  O3         3.1210    0.5030    2.1620 O.2     1  UNL1       -0.2446
     22 H           2.2894   -3.1978    1.2663 H       1  UNL1        0.0278
     23 H           0.8951   -2.2386    1.7009 H       1  UNL1        0.0278
     24 H           2.5015   -1.6700    2.0872 H       1  UNL1        0.0278
     25 H           2.7942   -3.1514   -0.9080 H       1  UNL1        0.0621
     26 H           2.9469   -2.1241   -3.0558 H       1  UNL1        0.0618
     27 H           2.2156    0.1524   -3.3607 H       1  UNL1        0.0618
     28 H           1.3325    1.3779   -1.4849 H       1  UNL1        0.0638
     29 H          -2.0264    2.7779    1.4018 H       1  UNL1        0.0627
     30 H          -4.1231    2.9032    0.3126 H       1  UNL1        0.0654
     31 H          -5.6910    1.9967   -1.2017 H       1  UNL1        0.2921
     32 H          -3.3043   -0.6254   -1.6930 H       1  UNL1        0.0691
     33 H          -0.1497   -1.1393   -0.2663 H       1  UNL1        0.2922
     34 H           1.4831    1.8728    3.8438 H       1  UNL1        0.1937
@<TRIPOS>BOND
     1     1     2    1
     2     2     3   ar
     3     2     7   ar
     4     3     4   ar
     5     4     5   ar
     6     5     6   ar
     7     6     7   ar
     8     7     8    1
     9     8     9   ar
    10     8    20   ar
    11     9    10    1
    12     9    18   ar
    13    10    11   ar
    14    10    16   ar
    15    11    12   ar
    16    12    13   ar
    17    13    14    1
    18    13    15   ar
    19    15    16   ar
    20    16    17    1
    21    18    19   ar
    22    19    20   ar
    23    20    21    2
    24     1    22    1
    25     1    23    1
    26     1    24    1
    27     3    25    1
    28     4    26    1
    29     5    27    1
    30     6    28    1
    31    11    29    1
    32    12    30    1
    33    14    31    1
    34    15    32    1
    35    17    33    1
    36    19    34    1
@<TRIPOS>MOLECULE
../data/bude_mols_rdkit_confs/molecule_57.pdb
 34 36 0 0 0
SMALL
GASTEIGER

@<TRIPOS>ATOM
      1  C1        -1.8380   -0.8210   -1.0790 C.3     1  UNL1       -0.0377
      2  C2        -2.0160    0.2570   -0.0780 C.ar    1  UNL1       -0.0264
      3  C3        -2.8950    1.2920   -0.3330 C.ar    1  UNL1       -0.0569
      4  C4        -3.0900    2.3100    0.5670 C.ar    1  UNL1       -0.0614
      5  C5        -2.3800    2.2780    1.7490 C.ar    1  UNL1       -0.0598
      6  C6        -1.5030    1.2500    2.0090 C.ar    1  UNL1       -0.0374
      7  C7        -1.2960    0.2130    1.1050 C.ar    1  UNL1        0.0558
      8  N1        -0.4480   -0.8820    1.3380 N.ar    1  UNL1       -0.2434
      9  C8         0.6580   -1.2200    0.7060 C.ar    1  UNL1        0.1727
     10  C9         1.4060   -0.6660   -0.4020 C.ar    1  UNL1        0.0612
     11  C10        2.1860   -1.5260   -1.2000 C.ar    1  UNL1       -0.0441
     12  C11        2.9600   -1.0780   -2.2400 C.ar    1  UNL1       -0.0193
     13  C12        3.0230    0.2520   -2.5740 C.ar    1  UNL1        0.1204
     14  O1         3.8200    0.6780   -3.6400 O.3     1  UNL1       -0.5066
     15  C13        2.2780    1.1110   -1.8190 C.ar    1  UNL1        0.0220
     16  C14        1.4830    0.6520   -0.7480 C.ar    1  UNL1        0.1310
     17  O2         0.7780    1.5960   -0.0460 O.3     1  UNL1       -0.5059
     18  N2         1.0720   -2.4000    1.2780 N.ar    1  UNL1       -0.1507
     19  N3         0.2640   -2.7830    2.2280 N.ar    1  UNL1       -0.2260
     20  C15       -0.6930   -1.8570    2.2890 C.ar    1  UNL1        0.3489
     21  O3        -1.6550   -1.8790    3.0860 O.2     1  UNL1       -0.2446
     22 H          -2.4653   -0.6298   -1.9245 H       1  UNL1        0.0278
     23 H          -2.1046   -1.7608   -0.6423 H       1  UNL1        0.0278
     24 H          -0.8156   -0.8509   -1.3930 H       1  UNL1        0.0278
     25 H          -3.4182    1.3000   -1.2225 H       1  UNL1        0.0621
     26 H          -3.7494    3.0777    0.3649 H       1  UNL1        0.0618
     27 H          -2.5074    3.0306    2.4436 H       1  UNL1        0.0618
     28 H          -0.9836    1.2482    2.9008 H       1  UNL1        0.0638
     29 H           2.1745   -2.5370   -0.9931 H       1  UNL1        0.0627
     30 H           3.5099   -1.7593   -2.7862 H       1  UNL1        0.0654
     31 H           4.3160    0.0541   -4.1327 H       1  UNL1        0.2921
     32 H           2.2968    2.1196   -2.0367 H       1  UNL1        0.0691
     33 H           0.2365    1.3372    0.6736 H       1  UNL1        0.2922
     34 H           0.3445   -3.5904    2.7856 H       1  UNL1        0.1937
@<TRIPOS>BOND
     1     1     2    1
     2     2     3   ar
     3     2     7   ar
     4     3     4   ar
     5     4     5   ar
     6     5     6   ar
     7     6     7   ar
     8     7     8    1
     9     8     9   ar
    10     8    20   ar
    11     9    10    1
    12     9    18   ar
    13    10    11   ar
    14    10    16   ar
    15    11    12   ar
    16    12    13   ar
    17    13    14    1
    18    13    15   ar
    19    15    16   ar
    20    16    17    1
    21    18    19   ar
    22    19    20   ar
    23    20    21    2
    24     1    22    1
    25     1    23    1
    26     1    24    1
    27     3    25    1
    28     4    26    1
    29     5    27    1
    30     6    28    1
    31    11    29    1
    32    12    30    1
    33    14    31    1
    34    15    32    1
    35    17    33    1
    36    19    34    1
@<TRIPOS>MOLECULE
../data/bude_mols_rdkit_confs/molecule_57.pdb
 34 36 0 0 0
SMALL
GASTEIGER

@<TRIPOS>ATOM
      1  C1        -2.4550   -0.0020   -1.3420 C.3     1  UNL1       -0.0377
      2  C2        -2.2600   -0.7520   -0.0790 C.ar    1  UNL1       -0.0264
      3  C3        -2.8270   -2.0050    0.1010 C.ar    1  UNL1       -0.0569
      4  C4        -2.6500   -2.6940    1.2530 C.ar    1  UNL1       -0.0614
      5  C5        -1.8830   -2.1180    2.2640 C.ar    1  UNL1       -0.0598
      6  C6        -1.3160   -0.8610    2.0800 C.ar    1  UNL1       -0.0374
      7  C7        -1.4950   -0.1640    0.9130 C.ar    1  UNL1        0.0558
      8  N1        -0.9320    1.1190    0.7650 N.ar    1  UNL1       -0.2434
      9  C8         0.2510    1.4740    0.2820 C.ar    1  UNL1        0.1727
     10  C9         1.3310    0.6710   -0.2410 C.ar    1  UNL1        0.0612
     11  C10        1.3290   -0.6650   -0.3370 C.ar    1  UNL1       -0.0441
     12  C11        2.3930   -1.4180   -0.8500 C.ar    1  UNL1       -0.0193
     13  C12        3.5070   -0.7700   -1.2810 C.ar    1  UNL1        0.1204
     14  O1         4.6180   -1.4660   -1.8090 O.3     1  UNL1       -0.5066
     15  C13        3.5480    0.6080   -1.1980 C.ar    1  UNL1        0.0220
     16  C14        2.4840    1.3270   -0.6880 C.ar    1  UNL1        0.1310
     17  O2         2.5910    2.7050   -0.6340 O.3     1  UNL1       -0.5059
     18  N2         0.2880    2.8580    0.3670 N.ar    1  UNL1       -0.1507
     19  N3        -0.8080    3.3250    0.8720 N.ar    1  UNL1       -0.2260
     20  C15       -1.5820    2.2750    1.1280 C.ar    1  UNL1        0.3489
     21  O3        -2.7360    2.2740    1.6240 O.2     1  UNL1       -0.2446
     22 H          -3.0628   -0.5776   -2.0084 H       1  UNL1        0.0278
     23 H          -1.5045    0.1839   -1.7968 H       1  UNL1        0.0278
     24 H          -2.9385    0.9293   -1.1328 H       1  UNL1        0.0278
     25 H          -3.3933   -2.4191   -0.6559 H       1  UNL1        0.0621
     26 H          -3.0742   -3.6262    1.3798 H       1  UNL1        0.0618
     27 H          -1.7354   -2.6248    3.1508 H       1  UNL1        0.0618
     28 H          -0.7500   -0.4453    2.8362 H       1  UNL1        0.0638
     29 H           0.4905   -1.1717   -0.0125 H       1  UNL1        0.0627
     30 H           2.3319   -2.4470   -0.8998 H       1  UNL1        0.0654
     31 H           4.5996   -2.4009   -1.8694 H       1  UNL1        0.2921
     32 H           4.3891    1.1100   -1.5230 H       1  UNL1        0.0691
     33 H           1.8842    3.2168   -0.2927 H       1  UNL1        0.2922
     34 H          -1.0257    4.2713    1.0346 H       1  UNL1        0.1937
@<TRIPOS>BOND
     1     1     2    1
     2     2     3   ar
     3     2     7   ar
     4     3     4   ar
     5     4     5   ar
     6     5     6   ar
     7     6     7   ar
     8     7     8    1
     9     8     9   ar
    10     8    20   ar
    11     9    10    1
    12     9    18   ar
    13    10    11   ar
    14    10    16   ar
    15    11    12   ar
    16    12    13   ar
    17    13    14    1
    18    13    15   ar
    19    15    16   ar
    20    16    17    1
    21    18    19   ar
    22    19    20   ar
    23    20    21    2
    24     1    22    1
    25     1    23    1
    26     1    24    1
    27     3    25    1
    28     4    26    1
    29     5    27    1
    30     6    28    1
    31    11    29    1
    32    12    30    1
    33    14    31    1
    34    15    32    1
    35    17    33    1
    36    19    34    1
@<TRIPOS>MOLECULE
../data/bude_mols_rdkit_confs/molecule_57.pdb
 34 36 0 0 0
SMALL
GASTEIGER

@<TRIPOS>ATOM
      1  C1        -1.4950    0.8910    1.3340 C.3     1  UNL1       -0.0377
      2  C2        -2.0320    0.1420    0.1520 C.ar    1  UNL1       -0.0264
      3  C3        -3.1060    0.6280   -0.5580 C.ar    1  UNL1       -0.0569
      4  C4        -3.6100   -0.0510   -1.6470 C.ar    1  UNL1       -0.0614
      5  C5        -3.0110   -1.2350   -2.0120 C.ar    1  UNL1       -0.0598
      6  C6        -1.9380   -1.7330   -1.3110 C.ar    1  UNL1       -0.0374
      7  C7        -1.4140   -1.0580   -0.2060 C.ar    1  UNL1        0.0558
      8  N1        -0.3440   -1.5740    0.5490 N.ar    1  UNL1       -0.2434
      9  C8         0.8660   -1.1290    0.7460 C.ar    1  UNL1        0.1727
     10  C9         1.5490    0.0580    0.2640 C.ar    1  UNL1        0.0612
     11  C10        2.5740    0.5860    1.0690 C.ar    1  UNL1       -0.0441
     12  C11        3.3290    1.6740    0.7040 C.ar    1  UNL1       -0.0193
     13  C12        3.1150    2.3170   -0.4940 C.ar    1  UNL1        0.1204
     14  O1         3.8700    3.4180   -0.8760 O.3     1  UNL1       -0.5066
     15  C13        2.1180    1.8170   -1.2970 C.ar    1  UNL1        0.0220
     16  C14        1.3470    0.7020   -0.9210 C.ar    1  UNL1        0.1310
     17  O2         0.3770    0.2660   -1.7910 O.3     1  UNL1       -0.5059
     18  N2         1.4850   -2.0060    1.6290 N.ar    1  UNL1       -0.1507
     19  N3         0.6640   -2.9610    1.9550 N.ar    1  UNL1       -0.2260
     20  C15       -0.4730   -2.7240    1.3060 C.ar    1  UNL1        0.3489
     21  O3        -1.5200   -3.4150    1.3500 O.2     1  UNL1       -0.2446
     22 H          -2.0680    1.7825    1.4817 H       1  UNL1        0.0278
     23 H          -0.4719    1.1498    1.1575 H       1  UNL1        0.0278
     24 H          -1.5618    0.2755    2.2067 H       1  UNL1        0.0278
     25 H          -3.5425    1.5176   -0.2698 H       1  UNL1        0.0621
     26 H          -4.4158    0.3192   -2.1749 H       1  UNL1        0.0618
     27 H          -3.3730   -1.7576   -2.8250 H       1  UNL1        0.0618
     28 H          -1.5107   -2.6244   -1.6075 H       1  UNL1        0.0638
     29 H           2.7682    0.1349    1.9767 H       1  UNL1        0.0627
     30 H           4.0685    2.0147    1.3382 H       1  UNL1        0.0654
     31 H           4.5448    3.7417   -0.3123 H       1  UNL1        0.2921
     32 H           1.9292    2.2733   -2.2032 H       1  UNL1        0.0691
     33 H          -0.1530   -0.4742   -1.5691 H       1  UNL1        0.2922
     34 H           0.8482   -3.7127    2.5635 H       1  UNL1        0.1937
@<TRIPOS>BOND
     1     1     2    1
     2     2     3   ar
     3     2     7   ar
     4     3     4   ar
     5     4     5   ar
     6     5     6   ar
     7     6     7   ar
     8     7     8    1
     9     8     9   ar
    10     8    20   ar
    11     9    10    1
    12     9    18   ar
    13    10    11   ar
    14    10    16   ar
    15    11    12   ar
    16    12    13   ar
    17    13    14    1
    18    13    15   ar
    19    15    16   ar
    20    16    17    1
    21    18    19   ar
    22    19    20   ar
    23    20    21    2
    24     1    22    1
    25     1    23    1
    26     1    24    1
    27     3    25    1
    28     4    26    1
    29     5    27    1
    30     6    28    1
    31    11    29    1
    32    12    30    1
    33    14    31    1
    34    15    32    1
    35    17    33    1
    36    19    34    1
@<TRIPOS>MOLECULE
../data/bude_mols_rdkit_confs/molecule_57.pdb
 34 36 0 0 0
SMALL
GASTEIGER

@<TRIPOS>ATOM
      1  C1        -2.6290   -1.0740    1.3590 C.3     1  UNL1       -0.0377
      2  C2        -2.3880    0.2240    0.6750 C.ar    1  UNL1       -0.0264
      3  C3        -3.0520    1.3320    1.1370 C.ar    1  UNL1       -0.0569
      4  C4        -2.8520    2.5650    0.5220 C.ar    1  UNL1       -0.0614
      5  C5        -1.9940    2.6470   -0.5340 C.ar    1  UNL1       -0.0598
      6  C6        -1.3330    1.5270   -0.9880 C.ar    1  UNL1       -0.0374
      7  C7        -1.5020    0.2720   -0.4030 C.ar    1  UNL1        0.0558
      8  N1        -0.8370   -0.8940   -0.9010 N.ar    1  UNL1       -0.2434
      9  C8         0.4310   -1.2390   -0.7400 C.ar    1  UNL1        0.1727
     10  C9         1.5230   -0.5790   -0.0380 C.ar    1  UNL1        0.0612
     11  C10        1.2930    0.4360    0.8660 C.ar    1  UNL1       -0.0441
     12  C11        2.3780    1.0610    1.4920 C.ar    1  UNL1       -0.0193
     13  C12        3.6660    0.6890    1.2320 C.ar    1  UNL1        0.1204
     14  O1         4.7660    1.2990    1.8480 O.3     1  UNL1       -0.5066
     15  C13        3.9250   -0.3120    0.3440 C.ar    1  UNL1        0.0220
     16  C14        2.8530   -0.9430   -0.2890 C.ar    1  UNL1        0.1310
     17  O2         3.1760   -1.9350   -1.1680 O.3     1  UNL1       -0.5059
     18  N2         0.5560   -2.4140   -1.4350 N.ar    1  UNL1       -0.1507
     19  N3        -0.5850   -2.7570   -1.9880 N.ar    1  UNL1       -0.2260
     20  C15       -1.4920   -1.8310   -1.6790 C.ar    1  UNL1        0.3489
     21  O3        -2.6850   -1.7880   -2.0060 O.2     1  UNL1       -0.2446
     22 H          -3.3288   -0.9326    2.1560 H       1  UNL1        0.0278
     23 H          -1.7070   -1.4448    1.7556 H       1  UNL1        0.0278
     24 H          -3.0246   -1.7787    0.6577 H       1  UNL1        0.0278
     25 H          -3.6978    1.2518    1.9380 H       1  UNL1        0.0621
     26 H          -3.3464    3.4051    0.8609 H       1  UNL1        0.0618
     27 H          -1.8383    3.5559   -0.9973 H       1  UNL1        0.0618
     28 H          -0.6897    1.6197   -1.7896 H       1  UNL1        0.0638
     29 H           0.3280    0.7329    1.0797 H       1  UNL1        0.0627
     30 H           2.2002    1.8215    2.1665 H       1  UNL1        0.0654
     31 H           4.6330    1.9915    2.4650 H       1  UNL1        0.2921
     32 H           4.8960   -0.5982    0.1433 H       1  UNL1        0.0691
     33 H           2.4993   -2.3956   -1.6239 H       1  UNL1        0.2922
     34 H          -0.7428   -3.5595   -2.5360 H       1  UNL1        0.1937
@<TRIPOS>BOND
     1     1     2    1
     2     2     3   ar
     3     2     7   ar
     4     3     4   ar
     5     4     5   ar
     6     5     6   ar
     7     6     7   ar
     8     7     8    1
     9     8     9   ar
    10     8    20   ar
    11     9    10    1
    12     9    18   ar
    13    10    11   ar
    14    10    16   ar
    15    11    12   ar
    16    12    13   ar
    17    13    14    1
    18    13    15   ar
    19    15    16   ar
    20    16    17    1
    21    18    19   ar
    22    19    20   ar
    23    20    21    2
    24     1    22    1
    25     1    23    1
    26     1    24    1
    27     3    25    1
    28     4    26    1
    29     5    27    1
    30     6    28    1
    31    11    29    1
    32    12    30    1
    33    14    31    1
    34    15    32    1
    35    17    33    1
    36    19    34    1
@<TRIPOS>MOLECULE
../data/bude_mols_rdkit_confs/molecule_57.pdb
 34 36 0 0 0
SMALL
GASTEIGER

@<TRIPOS>ATOM
      1  C1        -2.4430    0.8420   -1.7750 C.3     1  UNL1       -0.0377
      2  C2        -2.3440    0.7100   -0.3000 C.ar    1  UNL1       -0.0264
      3  C3        -3.0390    1.5410    0.5550 C.ar    1  UNL1       -0.0569
      4  C4        -2.9640    1.4390    1.9140 C.ar    1  UNL1       -0.0614
      5  C5        -2.1690    0.4760    2.4760 C.ar    1  UNL1       -0.0598
      6  C6        -1.4440   -0.3930    1.6800 C.ar    1  UNL1       -0.0374
      7  C7        -1.5440   -0.2600    0.3070 C.ar    1  UNL1        0.0558
      8  N1        -0.8180   -1.1820   -0.4940 N.ar    1  UNL1       -0.2434
      9  C8         0.4700   -1.2410   -0.7780 C.ar    1  UNL1        0.1727
     10  C9         1.5530   -0.3720   -0.3490 C.ar    1  UNL1        0.0612
     11  C10        1.3180    0.8760    0.2040 C.ar    1  UNL1       -0.0441
     12  C11        2.3800    1.6680    0.6310 C.ar    1  UNL1       -0.0193
     13  C12        3.6730    1.2210    0.5080 C.ar    1  UNL1        0.1204
     14  O1         4.7440    2.0200    0.9390 O.3     1  UNL1       -0.5066
     15  C13        3.9480    0.0050   -0.0280 C.ar    1  UNL1        0.0220
     16  C14        2.8710   -0.7980   -0.4610 C.ar    1  UNL1        0.1310
     17  O2         3.2350   -2.0060   -0.9850 O.3     1  UNL1       -0.5059
     18  N2         0.5750   -2.3570   -1.5650 N.ar    1  UNL1       -0.1507
     19  N3        -0.5920   -2.9270   -1.7370 N.ar    1  UNL1       -0.2260
     20  C15       -1.5080   -2.2160   -1.0760 C.ar    1  UNL1        0.3489
     21  O3        -2.7370   -2.4480   -1.0040 O.2     1  UNL1       -0.2446
     22 H          -3.1072    1.6451   -2.0174 H       1  UNL1        0.0278
     23 H          -2.8191   -0.0696   -2.1902 H       1  UNL1        0.0278
     24 H          -1.4741    1.0457   -2.1807 H       1  UNL1        0.0278
     25 H          -3.6427    2.2726    0.1484 H       1  UNL1        0.0621
     26 H          -3.5027    2.0832    2.5139 H       1  UNL1        0.0618
     27 H          -2.1101    0.3977    3.5033 H       1  UNL1        0.0618
     28 H          -0.8447   -1.1209    2.0995 H       1  UNL1        0.0638
     29 H           0.3500    1.2206    0.3000 H       1  UNL1        0.0627
     30 H           2.1949    2.5962    1.0423 H       1  UNL1        0.0654
     31 H           4.5787    2.8634    1.3124 H       1  UNL1        0.2921
     32 H           4.9218   -0.3249   -0.1169 H       1  UNL1        0.0691
     33 H           2.5791   -2.5987   -1.2957 H       1  UNL1        0.2922
     34 H          -0.7639   -3.7407   -2.2638 H       1  UNL1        0.1937
@<TRIPOS>BOND
     1     1     2    1
     2     2     3   ar
     3     2     7   ar
     4     3     4   ar
     5     4     5   ar
     6     5     6   ar
     7     6     7   ar
     8     7     8    1
     9     8     9   ar
    10     8    20   ar
    11     9    10    1
    12     9    18   ar
    13    10    11   ar
    14    10    16   ar
    15    11    12   ar
    16    12    13   ar
    17    13    14    1
    18    13    15   ar
    19    15    16   ar
    20    16    17    1
    21    18    19   ar
    22    19    20   ar
    23    20    21    2
    24     1    22    1
    25     1    23    1
    26     1    24    1
    27     3    25    1
    28     4    26    1
    29     5    27    1
    30     6    28    1
    31    11    29    1
    32    12    30    1
    33    14    31    1
    34    15    32    1
    35    17    33    1
    36    19    34    1
@<TRIPOS>MOLECULE
../data/bude_mols_rdkit_confs/molecule_57.pdb
 34 36 0 0 0
SMALL
GASTEIGER

@<TRIPOS>ATOM
      1  C1        -2.8360   -0.3860   -1.3980 C.3     1  UNL1       -0.0377
      2  C2        -2.4830    0.4190   -0.2100 C.ar    1  UNL1       -0.0264
      3  C3        -3.1630    1.5810    0.0520 C.ar    1  UNL1       -0.0569
      4  C4        -2.8290    2.3320    1.1650 C.ar    1  UNL1       -0.0614
      5  C5        -1.8180    1.8810    1.9760 C.ar    1  UNL1       -0.0598
      6  C6        -1.1390    0.7150    1.7090 C.ar    1  UNL1       -0.0374
      7  C7        -1.4490   -0.0610    0.6010 C.ar    1  UNL1        0.0558
      8  N1        -0.7920   -1.3030    0.3170 N.ar    1  UNL1       -0.2434
      9  C8         0.4620   -1.5390   -0.0010 C.ar    1  UNL1        0.1727
     10  C9         1.6100   -0.6630   -0.1730 C.ar    1  UNL1        0.0612
     11  C10        2.8700   -1.2410    0.1020 C.ar    1  UNL1       -0.0441
     12  C11        4.0480   -0.5700   -0.0550 C.ar    1  UNL1       -0.0193
     13  C12        4.0350    0.7270   -0.4990 C.ar    1  UNL1        0.1204
     14  O1         5.2390    1.4390   -0.6670 O.3     1  UNL1       -0.5066
     15  C13        2.8190    1.2960   -0.7680 C.ar    1  UNL1        0.0220
     16  C14        1.6020    0.6190   -0.6120 C.ar    1  UNL1        0.1310
     17  O2         0.4160    1.2530   -0.9110 O.3     1  UNL1       -0.5059
     18  N2         0.5410   -2.9210   -0.0960 N.ar    1  UNL1       -0.1507
     19  N3        -0.6100   -3.4710    0.1520 N.ar    1  UNL1       -0.2260
     20  C15       -1.4870   -2.5000    0.4180 C.ar    1  UNL1        0.3489
     21  O3        -2.7130   -2.5870    0.7090 O.2     1  UNL1       -0.2446
     22 H          -3.6354    0.0898   -1.9266 H       1  UNL1        0.0278
     23 H          -3.1447   -1.3626   -1.0882 H       1  UNL1        0.0278
     24 H          -1.9835   -0.4681   -2.0394 H       1  UNL1        0.0278
     25 H          -3.9191    1.8932   -0.5772 H       1  UNL1        0.0621
     26 H          -3.3278    3.2095    1.3799 H       1  UNL1        0.0618
     27 H          -1.5600    2.4321    2.8095 H       1  UNL1        0.0618
     28 H          -0.3848    0.4115    2.3446 H       1  UNL1        0.0638
     29 H           2.9008   -2.2165    0.4374 H       1  UNL1        0.0627
     30 H           4.9434   -1.0362    0.1593 H       1  UNL1        0.0654
     31 H           6.0581    1.0261   -0.4757 H       1  UNL1        0.2921
     32 H           2.7977    2.2721   -1.1023 H       1  UNL1        0.0691
     33 H          -0.3971    0.7993   -0.8063 H       1  UNL1        0.2922
     34 H          -0.8021   -4.4366    0.1450 H       1  UNL1        0.1937
@<TRIPOS>BOND
     1     1     2    1
     2     2     3   ar
     3     2     7   ar
     4     3     4   ar
     5     4     5   ar
     6     5     6   ar
     7     6     7   ar
     8     7     8    1
     9     8     9   ar
    10     8    20   ar
    11     9    10    1
    12     9    18   ar
    13    10    11   ar
    14    10    16   ar
    15    11    12   ar
    16    12    13   ar
    17    13    14    1
    18    13    15   ar
    19    15    16   ar
    20    16    17    1
    21    18    19   ar
    22    19    20   ar
    23    20    21    2
    24     1    22    1
    25     1    23    1
    26     1    24    1
    27     3    25    1
    28     4    26    1
    29     5    27    1
    30     6    28    1
    31    11    29    1
    32    12    30    1
    33    14    31    1
    34    15    32    1
    35    17    33    1
    36    19    34    1
