@<TRIPOS>MOLECULE
../data/bude_mols_rdkit_confs/molecule_16.pdb
 37 39 0 0 0
SMALL
GASTEIGER

@<TRIPOS>ATOM
      1  O1        -0.5880   -2.1390    0.8450 O.2     1  UNL1       -0.2751
      2  C1        -0.2750   -0.9340    1.0810 C.2     1  UNL1        0.2231
      3  C2         1.1140   -0.7940    1.6430 C.3     1  UNL1        0.0688
      4  C3         2.0650   -1.0170    0.5670 C.ar    1  UNL1        0.0780
      5  N1         1.8340   -2.0090   -0.2890 N.ar    1  UNL1       -0.1748
      6  N2         2.5780   -2.2590   -1.3730 N.ar    1  UNL1       -0.2425
      7  C4         3.6310   -1.4680   -1.6270 C.ar    1  UNL1        0.2725
      8  O2         4.4050   -1.5980   -2.6210 O.2     1  UNL1       -0.2658
      9  C5         3.9610   -0.3930   -0.7790 C.ar    1  UNL1        0.0496
     10  C6         5.0370    0.3980   -1.0130 C.ar    1  UNL1       -0.0487
     11  C7         5.3350    1.4320   -0.1320 C.ar    1  UNL1       -0.0610
     12  C8         4.5550    1.6540    0.9630 C.ar    1  UNL1       -0.0611
     13  C9         3.4590    0.8190    1.1670 C.ar    1  UNL1       -0.0521
     14  C10        3.1360   -0.2060    0.3210 C.ar    1  UNL1        0.0108
     15  N3        -1.1780    0.0920    0.8210 N.am    1  UNL1       -0.2852
     16  C11       -2.4850   -0.0300    0.2930 C.ar    1  UNL1        0.0339
     17  C12       -2.9740   -1.1750   -0.2720 C.ar    1  UNL1       -0.0405
     18  C13       -4.2840   -1.2960   -0.7590 C.ar    1  UNL1       -0.0595
     19  C14       -5.1410   -0.2320   -0.6820 C.ar    1  UNL1       -0.0500
     20  C15       -4.6810    0.9390   -0.1170 C.ar    1  UNL1        0.0566
     21  C16       -5.6280    2.0910   -0.0220 C.3     1  UNL1        0.4175
     22  F1        -6.8550    1.7420   -0.5440 F       1  UNL1       -0.1659
     23  F2        -5.7890    2.4100    1.3280 F       1  UNL1       -0.1659
     24  F3        -5.0840    3.1930   -0.6600 F       1  UNL1       -0.1659
     25  C17       -3.3900    1.0280    0.3540 C.ar    1  UNL1       -0.0288
     26 H           1.2662   -1.5176    2.4164 H       1  UNL1        0.0423
     27 H           1.2478    0.1834    2.0572 H       1  UNL1        0.0423
     28 H           2.3568   -3.0084   -1.9719 H       1  UNL1        0.1921
     29 H           5.6316    0.2337   -1.8403 H       1  UNL1        0.0625
     30 H           6.1531    2.0357   -0.3089 H       1  UNL1        0.0618
     31 H           4.7700    2.4185    1.6220 H       1  UNL1        0.0618
     32 H           2.8636    0.9811    1.9942 H       1  UNL1        0.0624
     33 H          -0.8735    1.0051    1.0275 H       1  UNL1        0.1548
     34 H          -2.3474   -1.9919   -0.3439 H       1  UNL1        0.0636
     35 H          -4.6008   -2.1859   -1.1746 H       1  UNL1        0.0618
     36 H          -6.1071   -0.3040   -1.0377 H       1  UNL1        0.0623
     37 H          -3.0784    1.9190    0.7712 H       1  UNL1        0.0642
@<TRIPOS>BOND
     1     1     2    2
     2     2     3    1
     3     2    15   am
     4     3     4    1
     5     4     5   ar
     6     4    14   ar
     7     5     6   ar
     8     6     7   ar
     9     7     8    2
    10     7     9   ar
    11     9    10   ar
    12     9    14   ar
    13    10    11   ar
    14    11    12   ar
    15    12    13   ar
    16    13    14   ar
    17    15    16    1
    18    16    17   ar
    19    16    25   ar
    20    17    18   ar
    21    18    19   ar
    22    19    20   ar
    23    20    21    1
    24    20    25   ar
    25    21    22    1
    26    21    23    1
    27    21    24    1
    28     3    26    1
    29     3    27    1
    30     6    28    1
    31    10    29    1
    32    11    30    1
    33    12    31    1
    34    13    32    1
    35    15    33    1
    36    17    34    1
    37    18    35    1
    38    19    36    1
    39    25    37    1
@<TRIPOS>MOLECULE
../data/bude_mols_rdkit_confs/molecule_16.pdb
 37 39 0 0 0
SMALL
GASTEIGER

@<TRIPOS>ATOM
      1  O1         0.8940    0.0190   -2.1000 O.2     1  UNL1       -0.2751
      2  C1         0.4420    0.3700   -0.9680 C.2     1  UNL1        0.2231
      3  C2        -0.8920    0.9700   -0.7420 C.3     1  UNL1        0.0688
      4  C3        -1.9610    0.0040   -0.8240 C.ar    1  UNL1        0.0780
      5  N1        -1.7850   -1.1670   -1.4610 N.ar    1  UNL1       -0.1748
      6  N2        -2.7840   -2.0470   -1.5780 N.ar    1  UNL1       -0.2425
      7  C4        -4.0140   -1.8290   -1.0750 C.ar    1  UNL1        0.2725
      8  O2        -4.9670   -2.6480   -1.1820 O.2     1  UNL1       -0.2658
      9  C5        -4.2780   -0.6310   -0.3950 C.ar    1  UNL1        0.0496
     10  C6        -5.5340   -0.4100    0.1010 C.ar    1  UNL1       -0.0487
     11  C7        -5.7410    0.8050    0.7600 C.ar    1  UNL1       -0.0610
     12  C8        -4.7090    1.6860    0.8710 C.ar    1  UNL1       -0.0611
     13  C9        -3.4280    1.4170    0.3350 C.ar    1  UNL1       -0.0521
     14  C10       -3.2340    0.2250   -0.3040 C.ar    1  UNL1        0.0108
     15  N3         1.2690    0.2130    0.1630 N.am    1  UNL1       -0.2852
     16  C11        2.5640   -0.2510    0.3040 C.ar    1  UNL1        0.0339
     17  C12        2.9200   -1.3410    1.0870 C.ar    1  UNL1       -0.0405
     18  C13        4.2650   -1.6720    1.3620 C.ar    1  UNL1       -0.0595
     19  C14        5.2320   -0.8860    0.8340 C.ar    1  UNL1       -0.0500
     20  C15        4.9570    0.1780    0.0490 C.ar    1  UNL1        0.0566
     21  C16        6.0350    1.0550   -0.4740 C.3     1  UNL1        0.4175
     22  F1         6.4770    1.8530    0.5810 F       1  UNL1       -0.1659
     23  F2         5.5010    1.9370   -1.3900 F       1  UNL1       -0.1659
     24  F3         7.0700    0.3160   -0.9920 F       1  UNL1       -0.1659
     25  C17        3.6270    0.4990   -0.2220 C.ar    1  UNL1       -0.0288
     26 H          -1.0567    1.7257   -1.4814 H       1  UNL1        0.0423
     27 H          -0.8993    1.3752    0.2483 H       1  UNL1        0.0423
     28 H          -2.6131   -2.8922   -2.0530 H       1  UNL1        0.1921
     29 H          -6.2896   -1.1048   -0.0060 H       1  UNL1        0.0625
     30 H          -6.6658    1.0318    1.1580 H       1  UNL1        0.0618
     31 H          -4.8666    2.5797    1.3625 H       1  UNL1        0.0618
     32 H          -2.6613    2.1020    0.4241 H       1  UNL1        0.0624
     33 H           0.8459    0.4841    1.0096 H       1  UNL1        0.1548
     34 H           2.1727   -1.9322    1.4834 H       1  UNL1        0.0636
     35 H           4.5031   -2.4879    1.9474 H       1  UNL1        0.0618
     36 H           6.2186   -1.1085    1.0394 H       1  UNL1        0.0623
     37 H           3.4191    1.3099   -0.8256 H       1  UNL1        0.0642
@<TRIPOS>BOND
     1     1     2    2
     2     2     3    1
     3     2    15   am
     4     3     4    1
     5     4     5   ar
     6     4    14   ar
     7     5     6   ar
     8     6     7   ar
     9     7     8    2
    10     7     9   ar
    11     9    10   ar
    12     9    14   ar
    13    10    11   ar
    14    11    12   ar
    15    12    13   ar
    16    13    14   ar
    17    15    16    1
    18    16    17   ar
    19    16    25   ar
    20    17    18   ar
    21    18    19   ar
    22    19    20   ar
    23    20    21    1
    24    20    25   ar
    25    21    22    1
    26    21    23    1
    27    21    24    1
    28     3    26    1
    29     3    27    1
    30     6    28    1
    31    10    29    1
    32    11    30    1
    33    12    31    1
    34    13    32    1
    35    15    33    1
    36    17    34    1
    37    18    35    1
    38    19    36    1
    39    25    37    1
@<TRIPOS>MOLECULE
../data/bude_mols_rdkit_confs/molecule_16.pdb
 37 39 0 0 0
SMALL
GASTEIGER

@<TRIPOS>ATOM
      1  O1         0.3700   -0.7560    0.5720 O.2     1  UNL1       -0.2751
      2  C1         0.2880   -0.2790   -0.5880 C.2     1  UNL1        0.2231
      3  C2        -0.8740   -0.4640   -1.4960 C.3     1  UNL1        0.0688
      4  C3        -2.1520    0.0870   -1.0860 C.ar    1  UNL1        0.0780
      5  N1        -2.5430    1.3180   -1.5650 N.ar    1  UNL1       -0.1748
      6  N2        -3.6710    1.8930   -1.2680 N.ar    1  UNL1       -0.2425
      7  C4        -4.5620    1.3080   -0.4400 C.ar    1  UNL1        0.2725
      8  O2        -5.6390    1.8370   -0.1380 O.2     1  UNL1       -0.2658
      9  C5        -4.2690    0.0520    0.1100 C.ar    1  UNL1        0.0496
     10  C6        -5.1910   -0.5570    0.9520 C.ar    1  UNL1       -0.0487
     11  C7        -4.8720   -1.8030    1.4650 C.ar    1  UNL1       -0.0610
     12  C8        -3.6800   -2.3950    1.1390 C.ar    1  UNL1       -0.0611
     13  C9        -2.7870   -1.7520    0.2940 C.ar    1  UNL1       -0.0521
     14  C10       -3.0690   -0.5030   -0.2420 C.ar    1  UNL1        0.0108
     15  N3         1.4070    0.4890   -1.0270 N.am    1  UNL1       -0.2852
     16  C11        2.5960    0.7500   -0.3180 C.ar    1  UNL1        0.0339
     17  C12        2.9120    2.0600    0.0170 C.ar    1  UNL1       -0.0405
     18  C13        4.1190    2.3370    0.6230 C.ar    1  UNL1       -0.0595
     19  C14        5.0310    1.3360    0.9080 C.ar    1  UNL1       -0.0500
     20  C15        4.7400    0.0150    0.5840 C.ar    1  UNL1        0.0566
     21  C16        5.6720   -1.0800    0.8490 C.3     1  UNL1        0.4175
     22  F1         6.8670   -0.6360    1.4020 F       1  UNL1       -0.1659
     23  F2         5.9150   -1.7380   -0.3470 F       1  UNL1       -0.1659
     24  F3         5.1500   -1.9580    1.7710 F       1  UNL1       -0.1659
     25  C17        3.5260   -0.2240   -0.0170 C.ar    1  UNL1       -0.0288
     26 H          -1.0093   -1.5170   -1.6294 H       1  UNL1        0.0423
     27 H          -0.6156    0.0858   -2.3769 H       1  UNL1        0.0423
     28 H          -3.8795    2.7738   -1.6554 H       1  UNL1        0.1921
     29 H          -6.0839   -0.0962    1.1873 H       1  UNL1        0.0625
     30 H          -5.5327   -2.2862    2.0935 H       1  UNL1        0.0618
     31 H          -3.4454   -3.3234    1.5238 H       1  UNL1        0.0618
     32 H          -1.8938   -2.2123    0.0589 H       1  UNL1        0.0624
     33 H           1.3409    0.8811   -1.9276 H       1  UNL1        0.1548
     34 H           2.2468    2.8223   -0.1866 H       1  UNL1        0.0636
     35 H           4.3475    3.3127    0.8696 H       1  UNL1        0.0618
     36 H           5.9281    1.5699    1.3614 H       1  UNL1        0.0623
     37 H           3.2945   -1.2000   -0.2598 H       1  UNL1        0.0642
@<TRIPOS>BOND
     1     1     2    2
     2     2     3    1
     3     2    15   am
     4     3     4    1
     5     4     5   ar
     6     4    14   ar
     7     5     6   ar
     8     6     7   ar
     9     7     8    2
    10     7     9   ar
    11     9    10   ar
    12     9    14   ar
    13    10    11   ar
    14    11    12   ar
    15    12    13   ar
    16    13    14   ar
    17    15    16    1
    18    16    17   ar
    19    16    25   ar
    20    17    18   ar
    21    18    19   ar
    22    19    20   ar
    23    20    21    1
    24    20    25   ar
    25    21    22    1
    26    21    23    1
    27    21    24    1
    28     3    26    1
    29     3    27    1
    30     6    28    1
    31    10    29    1
    32    11    30    1
    33    12    31    1
    34    13    32    1
    35    15    33    1
    36    17    34    1
    37    18    35    1
    38    19    36    1
    39    25    37    1
@<TRIPOS>MOLECULE
../data/bude_mols_rdkit_confs/molecule_16.pdb
 37 39 0 0 0
SMALL
GASTEIGER

@<TRIPOS>ATOM
      1  O1         0.3430    0.0070    1.3660 O.2     1  UNL1       -0.2751
      2  C1         0.3550    0.2500    0.1410 C.2     1  UNL1        0.2231
      3  C2        -0.7960    0.8730   -0.5830 C.3     1  UNL1        0.0688
      4  C3        -2.0060    0.0740   -0.4830 C.ar    1  UNL1        0.0780
      5  N1        -1.9240   -1.3070   -0.7460 N.ar    1  UNL1       -0.1748
      6  N2        -3.0100   -2.0190   -0.6340 N.ar    1  UNL1       -0.2425
      7  C4        -4.2050   -1.5780   -0.2950 C.ar    1  UNL1        0.2725
      8  O2        -5.2350   -2.3140   -0.1840 O.2     1  UNL1       -0.2658
      9  C5        -4.3880   -0.2110   -0.0180 C.ar    1  UNL1        0.0496
     10  C6        -5.6390    0.2410    0.2650 C.ar    1  UNL1       -0.0487
     11  C7        -5.7940    1.6270    0.4480 C.ar    1  UNL1       -0.0610
     12  C8        -4.7000    2.4410    0.3480 C.ar    1  UNL1       -0.0611
     13  C9        -3.4620    1.9060    0.0650 C.ar    1  UNL1       -0.0521
     14  C10       -3.2420    0.5300   -0.1380 C.ar    1  UNL1        0.0108
     15  N3         1.5020   -0.0330   -0.6860 N.am    1  UNL1       -0.2852
     16  C11        2.6760   -0.5800   -0.1690 C.ar    1  UNL1        0.0339
     17  C12        2.8420   -1.5990    0.6990 C.ar    1  UNL1       -0.0405
     18  C13        4.0580   -1.9850    1.2170 C.ar    1  UNL1       -0.0595
     19  C14        5.2130   -1.3120    0.8510 C.ar    1  UNL1       -0.0500
     20  C15        5.0950   -0.2600   -0.0280 C.ar    1  UNL1        0.0566
     21  C16        6.2800    0.5520   -0.4430 C.3     1  UNL1        0.4175
     22  F1         5.8590    1.8870   -0.4670 F       1  UNL1       -0.1659
     23  F2         6.6510    0.2530   -1.7580 F       1  UNL1       -0.1659
     24  F3         7.2980    0.3870    0.4510 F       1  UNL1       -0.1659
     25  C17        3.8720    0.0940   -0.5250 C.ar    1  UNL1       -0.0288
     26 H          -0.5370    0.9780   -1.6159 H       1  UNL1        0.0423
     27 H          -0.9920    1.8231   -0.1316 H       1  UNL1        0.0423
     28 H          -2.9297   -2.9822   -0.8213 H       1  UNL1        0.1921
     29 H          -6.4401   -0.4050    0.3422 H       1  UNL1        0.0625
     30 H          -6.7232    2.0251    0.6555 H       1  UNL1        0.0618
     31 H          -4.8017    3.4588    0.4848 H       1  UNL1        0.0618
     32 H          -2.6553    2.5461   -0.0015 H       1  UNL1        0.0624
     33 H           1.4546    0.1669   -1.6488 H       1  UNL1        0.1548
     34 H           2.0034   -2.1232    0.9939 H       1  UNL1        0.0636
     35 H           4.1094   -2.7758    1.8781 H       1  UNL1        0.0618
     36 H           6.1330   -1.5912    1.2261 H       1  UNL1        0.0623
     37 H           3.8166    0.8842   -1.1865 H       1  UNL1        0.0642
@<TRIPOS>BOND
     1     1     2    2
     2     2     3    1
     3     2    15   am
     4     3     4    1
     5     4     5   ar
     6     4    14   ar
     7     5     6   ar
     8     6     7   ar
     9     7     8    2
    10     7     9   ar
    11     9    10   ar
    12     9    14   ar
    13    10    11   ar
    14    11    12   ar
    15    12    13   ar
    16    13    14   ar
    17    15    16    1
    18    16    17   ar
    19    16    25   ar
    20    17    18   ar
    21    18    19   ar
    22    19    20   ar
    23    20    21    1
    24    20    25   ar
    25    21    22    1
    26    21    23    1
    27    21    24    1
    28     3    26    1
    29     3    27    1
    30     6    28    1
    31    10    29    1
    32    11    30    1
    33    12    31    1
    34    13    32    1
    35    15    33    1
    36    17    34    1
    37    18    35    1
    38    19    36    1
    39    25    37    1
@<TRIPOS>MOLECULE
../data/bude_mols_rdkit_confs/molecule_16.pdb
 37 39 0 0 0
SMALL
GASTEIGER

@<TRIPOS>ATOM
      1  O1         0.3330   -1.9770    0.0370 O.2     1  UNL1       -0.2751
      2  C1         0.2570   -0.7590    0.2370 C.2     1  UNL1        0.2231
      3  C2        -0.9350    0.0470    0.4190 C.3     1  UNL1        0.0688
      4  C3        -2.2520   -0.5410    0.2940 C.ar    1  UNL1        0.0780
      5  N1        -2.6110   -1.7990    0.0340 N.ar    1  UNL1       -0.1748
      6  N2        -3.8850   -2.1690   -0.0650 N.ar    1  UNL1       -0.2425
      7  C4        -4.9280   -1.3250    0.0830 C.ar    1  UNL1        0.2725
      8  O2        -6.1220   -1.6500   -0.0080 O.2     1  UNL1       -0.2658
      9  C5        -4.6250    0.0160    0.3600 C.ar    1  UNL1        0.0496
     10  C6        -5.6310    0.9470    0.5360 C.ar    1  UNL1       -0.0487
     11  C7        -5.3640    2.2570    0.8130 C.ar    1  UNL1       -0.0610
     12  C8        -4.0490    2.6390    0.9160 C.ar    1  UNL1       -0.0611
     13  C9        -3.0490    1.7120    0.7400 C.ar    1  UNL1       -0.0521
     14  C10       -3.3150    0.3840    0.4600 C.ar    1  UNL1        0.0108
     15  N3         1.4930   -0.0400    0.3000 N.am    1  UNL1       -0.2852
     16  C11        2.7960   -0.5280    0.1680 C.ar    1  UNL1        0.0339
     17  C12        3.1710   -1.8350    0.2770 C.ar    1  UNL1       -0.0405
     18  C13        4.5110   -2.2380    0.0970 C.ar    1  UNL1       -0.0595
     19  C14        5.4820   -1.3160   -0.1970 C.ar    1  UNL1       -0.0500
     20  C15        5.1320    0.0050   -0.3130 C.ar    1  UNL1        0.0566
     21  C16        6.1900    1.0170   -0.6620 C.3     1  UNL1        0.4175
     22  F1         7.2740    0.9570    0.1520 F       1  UNL1       -0.1659
     23  F2         5.5990    2.2830   -0.4760 F       1  UNL1       -0.1659
     24  F3         6.4800    0.9530   -2.0000 F       1  UNL1       -0.1659
     25  C17        3.8280    0.3790   -0.1340 C.ar    1  UNL1       -0.0288
     26 H          -0.8831    0.8361   -0.3018 H       1  UNL1        0.0423
     27 H          -0.8889    0.3096    1.4552 H       1  UNL1        0.0423
     28 H          -4.0787   -3.1148   -0.2577 H       1  UNL1        0.1921
     29 H          -6.6139    0.6428    0.4556 H       1  UNL1        0.0625
     30 H          -6.1274    2.9395    0.9411 H       1  UNL1        0.0618
     31 H          -3.8115    3.6212    1.1254 H       1  UNL1        0.0618
     32 H          -2.0665    2.0175    0.8195 H       1  UNL1        0.0624
     33 H           1.4148    0.9287    0.4575 H       1  UNL1        0.1548
     34 H           2.4567   -2.5467    0.4966 H       1  UNL1        0.0636
     35 H           4.7623   -3.2349    0.1874 H       1  UNL1        0.0618
     36 H           6.4619   -1.6116   -0.3291 H       1  UNL1        0.0623
     37 H           3.5891    1.3788   -0.2253 H       1  UNL1        0.0642
@<TRIPOS>BOND
     1     1     2    2
     2     2     3    1
     3     2    15   am
     4     3     4    1
     5     4     5   ar
     6     4    14   ar
     7     5     6   ar
     8     6     7   ar
     9     7     8    2
    10     7     9   ar
    11     9    10   ar
    12     9    14   ar
    13    10    11   ar
    14    11    12   ar
    15    12    13   ar
    16    13    14   ar
    17    15    16    1
    18    16    17   ar
    19    16    25   ar
    20    17    18   ar
    21    18    19   ar
    22    19    20   ar
    23    20    21    1
    24    20    25   ar
    25    21    22    1
    26    21    23    1
    27    21    24    1
    28     3    26    1
    29     3    27    1
    30     6    28    1
    31    10    29    1
    32    11    30    1
    33    12    31    1
    34    13    32    1
    35    15    33    1
    36    17    34    1
    37    18    35    1
    38    19    36    1
    39    25    37    1
@<TRIPOS>MOLECULE
../data/bude_mols_rdkit_confs/molecule_16.pdb
 37 39 0 0 0
SMALL
GASTEIGER

@<TRIPOS>ATOM
      1  O1        -0.3170   -2.2660    0.2020 O.2     1  UNL1       -0.2751
      2  C1        -0.1510   -1.1970   -0.3990 C.2     1  UNL1        0.2231
      3  C2         1.2210   -0.8360   -0.8990 C.3     1  UNL1        0.0688
      4  C3         1.8960   -0.0170    0.1380 C.ar    1  UNL1        0.0780
      5  N1         1.1770    0.7640    0.9790 N.ar    1  UNL1       -0.1748
      6  N2         1.7480    1.5410    1.8610 N.ar    1  UNL1       -0.2425
      7  C4         3.0710    1.6060    1.9870 C.ar    1  UNL1        0.2725
      8  O2         3.6290    2.3640    2.8490 O.2     1  UNL1       -0.2658
      9  C5         3.8720    0.8540    1.1860 C.ar    1  UNL1        0.0496
     10  C6         5.2410    0.9040    1.2970 C.ar    1  UNL1       -0.0487
     11  C7         6.0170    0.1290    0.4780 C.ar    1  UNL1       -0.0610
     12  C8         5.4630   -0.7030   -0.4620 C.ar    1  UNL1       -0.0611
     13  C9         4.0920   -0.7330   -0.5560 C.ar    1  UNL1       -0.0521
     14  C10        3.2510    0.0180    0.2360 C.ar    1  UNL1        0.0108
     15  N3        -1.2360   -0.3150   -0.6020 N.am    1  UNL1       -0.2852
     16  C11       -2.5680   -0.4940   -0.1970 C.ar    1  UNL1        0.0339
     17  C12       -3.0410   -1.4920    0.6180 C.ar    1  UNL1       -0.0405
     18  C13       -4.4020   -1.6050    0.9110 C.ar    1  UNL1       -0.0595
     19  C14       -5.3250   -0.7190    0.3970 C.ar    1  UNL1       -0.0500
     20  C15       -4.8810    0.2790   -0.4110 C.ar    1  UNL1        0.0566
     21  C16       -5.8560    1.2470   -0.9880 C.3     1  UNL1        0.4175
     22  F1        -6.6620    1.8370   -0.0480 F       1  UNL1       -0.1659
     23  F2        -6.5840    0.6900   -2.0260 F       1  UNL1       -0.1659
     24  F3        -5.1130    2.2880   -1.5760 F       1  UNL1       -0.1659
     25  C17       -3.5410    0.3830   -0.6960 C.ar    1  UNL1       -0.0288
     26 H           1.1390   -0.2747   -1.8063 H       1  UNL1        0.0423
     27 H           1.7870   -1.7230   -1.0934 H       1  UNL1        0.0423
     28 H           1.1836    2.0936    2.4486 H       1  UNL1        0.1921
     29 H           5.6820    1.5232    1.9949 H       1  UNL1        0.0625
     30 H           7.0440    0.1715    0.5698 H       1  UNL1        0.0618
     31 H           6.0541   -1.2850   -1.0760 H       1  UNL1        0.0618
     32 H           3.6674   -1.3549   -1.2616 H       1  UNL1        0.0624
     33 H          -1.0348    0.5205   -1.0823 H       1  UNL1        0.1548
     34 H          -2.3782   -2.1720    1.0221 H       1  UNL1        0.0636
     35 H          -4.7239   -2.3687    1.5259 H       1  UNL1        0.0618
     36 H          -6.3282   -0.8116    0.6205 H       1  UNL1        0.0623
     37 H          -3.2331    1.1509   -1.3129 H       1  UNL1        0.0642
@<TRIPOS>BOND
     1     1     2    2
     2     2     3    1
     3     2    15   am
     4     3     4    1
     5     4     5   ar
     6     4    14   ar
     7     5     6   ar
     8     6     7   ar
     9     7     8    2
    10     7     9   ar
    11     9    10   ar
    12     9    14   ar
    13    10    11   ar
    14    11    12   ar
    15    12    13   ar
    16    13    14   ar
    17    15    16    1
    18    16    17   ar
    19    16    25   ar
    20    17    18   ar
    21    18    19   ar
    22    19    20   ar
    23    20    21    1
    24    20    25   ar
    25    21    22    1
    26    21    23    1
    27    21    24    1
    28     3    26    1
    29     3    27    1
    30     6    28    1
    31    10    29    1
    32    11    30    1
    33    12    31    1
    34    13    32    1
    35    15    33    1
    36    17    34    1
    37    18    35    1
    38    19    36    1
    39    25    37    1
@<TRIPOS>MOLECULE
../data/bude_mols_rdkit_confs/molecule_16.pdb
 37 39 0 0 0
SMALL
GASTEIGER

@<TRIPOS>ATOM
      1  O1         1.1310   -1.7360   -0.6760 O.2     1  UNL1       -0.2751
      2  C1         0.5270   -0.6360   -0.7730 C.2     1  UNL1        0.2231
      3  C2        -0.8750   -0.6470   -1.3240 C.3     1  UNL1        0.0688
      4  C3        -1.8440   -0.8870   -0.2070 C.ar    1  UNL1        0.0780
      5  N1        -1.4720   -1.5640    0.8800 N.ar    1  UNL1       -0.1748
      6  N2        -2.2530   -1.7060    1.9340 N.ar    1  UNL1       -0.2425
      7  C4        -3.4920   -1.1730    1.9820 C.ar    1  UNL1        0.2725
      8  O2        -4.2640   -1.2920    2.9950 O.2     1  UNL1       -0.2658
      9  C5        -3.9180   -0.4620    0.8700 C.ar    1  UNL1        0.0496
     10  C6        -5.1870    0.0760    0.9000 C.ar    1  UNL1       -0.0487
     11  C7        -5.6440    0.7700   -0.1880 C.ar    1  UNL1       -0.0610
     12  C8        -4.8130    0.9100   -1.2880 C.ar    1  UNL1       -0.0611
     13  C9        -3.5430    0.3800   -1.3320 C.ar    1  UNL1       -0.0521
     14  C10       -3.0960   -0.3140   -0.2310 C.ar    1  UNL1        0.0108
     15  N3         1.1040    0.5940   -0.3840 N.am    1  UNL1       -0.2852
     16  C11        2.4060    0.7220    0.1330 C.ar    1  UNL1        0.0339
     17  C12        2.6760    1.7810    0.9800 C.ar    1  UNL1       -0.0405
     18  C13        3.9490    1.9550    1.5130 C.ar    1  UNL1       -0.0595
     19  C14        4.9620    1.0870    1.2080 C.ar    1  UNL1       -0.0500
     20  C15        4.7070    0.0370    0.3740 C.ar    1  UNL1        0.0566
     21  C16        5.8110   -0.9120    0.0150 C.3     1  UNL1        0.4175
     22  F1         6.9410   -0.6780    0.7610 F       1  UNL1       -0.1659
     23  F2         5.4090   -2.2250    0.2420 F       1  UNL1       -0.1659
     24  F3         6.1620   -0.7260   -1.3350 F       1  UNL1       -0.1659
     25  C17        3.4330   -0.1270   -0.1500 C.ar    1  UNL1       -0.0288
     26 H          -0.9673   -1.4267   -2.0509 H       1  UNL1        0.0423
     27 H          -1.0862    0.2949   -1.7856 H       1  UNL1        0.0423
     28 H          -1.9221   -2.2159    2.7084 H       1  UNL1        0.1921
     29 H          -5.7852   -0.0430    1.7325 H       1  UNL1        0.0625
     30 H          -6.5904    1.1815   -0.1889 H       1  UNL1        0.0618
     31 H          -5.1601    1.4327   -2.1074 H       1  UNL1        0.0618
     32 H          -2.9450    0.4995   -2.1646 H       1  UNL1        0.0624
     33 H           0.5622    1.4103   -0.4806 H       1  UNL1        0.1548
     34 H           1.9261    2.4485    1.2190 H       1  UNL1        0.0636
     35 H           4.1318    2.7488    2.1466 H       1  UNL1        0.0618
     36 H           5.9055    1.2243    1.6030 H       1  UNL1        0.0623
     37 H           3.2561   -0.9250   -0.7801 H       1  UNL1        0.0642
@<TRIPOS>BOND
     1     1     2    2
     2     2     3    1
     3     2    15   am
     4     3     4    1
     5     4     5   ar
     6     4    14   ar
     7     5     6   ar
     8     6     7   ar
     9     7     8    2
    10     7     9   ar
    11     9    10   ar
    12     9    14   ar
    13    10    11   ar
    14    11    12   ar
    15    12    13   ar
    16    13    14   ar
    17    15    16    1
    18    16    17   ar
    19    16    25   ar
    20    17    18   ar
    21    18    19   ar
    22    19    20   ar
    23    20    21    1
    24    20    25   ar
    25    21    22    1
    26    21    23    1
    27    21    24    1
    28     3    26    1
    29     3    27    1
    30     6    28    1
    31    10    29    1
    32    11    30    1
    33    12    31    1
    34    13    32    1
    35    15    33    1
    36    17    34    1
    37    18    35    1
    38    19    36    1
    39    25    37    1
@<TRIPOS>MOLECULE
../data/bude_mols_rdkit_confs/molecule_16.pdb
 37 39 0 0 0
SMALL
GASTEIGER

@<TRIPOS>ATOM
      1  O1         0.8350   -1.3450   -1.7650 O.2     1  UNL1       -0.2751
      2  C1         0.3880   -1.3250   -0.6070 C.2     1  UNL1        0.2231
      3  C2        -1.0780   -1.5700   -0.3350 C.3     1  UNL1        0.0688
      4  C3        -1.7590   -0.2300   -0.4490 C.ar    1  UNL1        0.0780
      5  N1        -1.0430    0.8810   -0.7150 N.ar    1  UNL1       -0.1748
      6  N2        -1.6360    2.0610   -0.7300 N.ar    1  UNL1       -0.2425
      7  C4        -2.9540    2.1880   -0.4850 C.ar    1  UNL1        0.2725
      8  O2        -3.5570    3.2950   -0.4920 O.2     1  UNL1       -0.2658
      9  C5        -3.7410    1.0600   -0.2060 C.ar    1  UNL1        0.0496
     10  C6        -5.0840    1.1410    0.0450 C.ar    1  UNL1       -0.0487
     11  C7        -5.7970   -0.0100    0.3030 C.ar    1  UNL1       -0.0610
     12  C8        -5.1740   -1.2660    0.3120 C.ar    1  UNL1       -0.0611
     13  C9        -3.8350   -1.3250    0.0660 C.ar    1  UNL1       -0.0521
     14  C10       -3.0990   -0.1680   -0.1950 C.ar    1  UNL1        0.0108
     15  N3         1.1480   -1.0720    0.5660 N.am    1  UNL1       -0.2852
     16  C11        2.5270   -0.8060    0.4980 C.ar    1  UNL1        0.0339
     17  C12        3.4310   -1.8120    0.3340 C.ar    1  UNL1       -0.0405
     18  C13        4.7880   -1.6190    0.2550 C.ar    1  UNL1       -0.0595
     19  C14        5.2490   -0.3240    0.3470 C.ar    1  UNL1       -0.0500
     20  C15        4.3750    0.7280    0.5090 C.ar    1  UNL1        0.0566
     21  C16        4.9230    2.1000    0.5920 C.3     1  UNL1        0.4175
     22  F1         4.5820    2.7280    1.7740 F       1  UNL1       -0.1659
     23  F2         4.4570    2.9020   -0.4350 F       1  UNL1       -0.1659
     24  F3         6.3060    2.0640    0.5160 F       1  UNL1       -0.1659
     25  C17        3.0220    0.5010    0.5840 C.ar    1  UNL1       -0.0288
     26 H          -1.2105   -1.9705    0.6483 H       1  UNL1        0.0423
     27 H          -1.4893   -2.2754   -1.0264 H       1  UNL1        0.0423
     28 H          -1.1028    2.8654   -0.9246 H       1  UNL1        0.1921
     29 H          -5.5593    2.0570    0.0411 H       1  UNL1        0.0625
     30 H          -6.8093    0.0539    0.4933 H       1  UNL1        0.0618
     31 H          -5.7157   -2.1240    0.5001 H       1  UNL1        0.0618
     32 H          -3.3574   -2.2398    0.0728 H       1  UNL1        0.0624
     33 H           0.7009   -1.0831    1.4430 H       1  UNL1        0.1548
     34 H           3.0740   -2.7778    0.2650 H       1  UNL1        0.0636
     35 H           5.4366   -2.4121    0.1317 H       1  UNL1        0.0618
     36 H           6.2630   -0.1397    0.2938 H       1  UNL1        0.0623
     37 H           2.3712    1.2930    0.7036 H       1  UNL1        0.0642
@<TRIPOS>BOND
     1     1     2    2
     2     2     3    1
     3     2    15   am
     4     3     4    1
     5     4     5   ar
     6     4    14   ar
     7     5     6   ar
     8     6     7   ar
     9     7     8    2
    10     7     9   ar
    11     9    10   ar
    12     9    14   ar
    13    10    11   ar
    14    11    12   ar
    15    12    13   ar
    16    13    14   ar
    17    15    16    1
    18    16    17   ar
    19    16    25   ar
    20    17    18   ar
    21    18    19   ar
    22    19    20   ar
    23    20    21    1
    24    20    25   ar
    25    21    22    1
    26    21    23    1
    27    21    24    1
    28     3    26    1
    29     3    27    1
    30     6    28    1
    31    10    29    1
    32    11    30    1
    33    12    31    1
    34    13    32    1
    35    15    33    1
    36    17    34    1
    37    18    35    1
    38    19    36    1
    39    25    37    1
@<TRIPOS>MOLECULE
../data/bude_mols_rdkit_confs/molecule_16.pdb
 37 39 0 0 0
SMALL
GASTEIGER

@<TRIPOS>ATOM
      1  O1         0.1370    0.2190    0.3080 O.2     1  UNL1       -0.2751
      2  C1         0.1890   -0.5630   -0.6690 C.2     1  UNL1        0.2231
      3  C2        -1.0850   -1.1140   -1.2770 C.3     1  UNL1        0.0688
      4  C3        -2.1990   -1.0390   -0.3110 C.ar    1  UNL1        0.0780
      5  N1        -2.4010   -2.1340    0.5010 N.ar    1  UNL1       -0.1748
      6  N2        -3.3110   -2.1790    1.4260 N.ar    1  UNL1       -0.2425
      7  C4        -4.1560   -1.1510    1.6810 C.ar    1  UNL1        0.2725
      8  O2        -5.0400   -1.1960    2.5730 O.2     1  UNL1       -0.2658
      9  C5        -4.0220   -0.0160    0.9170 C.ar    1  UNL1        0.0496
     10  C6        -4.8470    1.0580    1.1320 C.ar    1  UNL1       -0.0487
     11  C7        -4.7220    2.2000    0.3680 C.ar    1  UNL1       -0.0610
     12  C8        -3.7360    2.2230   -0.6200 C.ar    1  UNL1       -0.0611
     13  C9        -2.8890    1.1530   -0.8600 C.ar    1  UNL1       -0.0521
     14  C10       -3.0290    0.0090   -0.0750 C.ar    1  UNL1        0.0108
     15  N3         1.4480   -0.9390   -1.1840 N.am    1  UNL1       -0.2852
     16  C11        2.7240   -0.5530   -0.7020 C.ar    1  UNL1        0.0339
     17  C12        3.8270   -1.1350   -1.3190 C.ar    1  UNL1       -0.0405
     18  C13        5.1060   -0.8970   -0.9150 C.ar    1  UNL1       -0.0595
     19  C14        5.3220   -0.0450    0.1480 C.ar    1  UNL1       -0.0500
     20  C15        4.2580    0.5630    0.7880 C.ar    1  UNL1        0.0566
     21  C16        4.4990    1.4720    1.9550 C.3     1  UNL1        0.4175
     22  F1         4.3750    2.8120    1.6260 F       1  UNL1       -0.1659
     23  F2         5.8110    1.2660    2.4160 F       1  UNL1       -0.1659
     24  F3         3.6220    1.1300    2.9590 F       1  UNL1       -0.1659
     25  C17        2.9820    0.2830    0.3360 C.ar    1  UNL1       -0.0288
     26 H          -0.9287   -2.1356   -1.5543 H       1  UNL1        0.0423
     27 H          -1.3361   -0.5300   -2.1377 H       1  UNL1        0.0423
     28 H          -3.3907   -2.9977    1.9670 H       1  UNL1        0.1921
     29 H          -5.5664    1.0117    1.8705 H       1  UNL1        0.0625
     30 H          -5.3389    3.0128    0.5223 H       1  UNL1        0.0618
     31 H          -3.6336    3.0731   -1.1961 H       1  UNL1        0.0618
     32 H          -2.1725    1.2015   -1.6011 H       1  UNL1        0.0624
     33 H           1.4391   -1.5368   -1.9662 H       1  UNL1        0.1548
     34 H           3.6698   -1.7728   -2.1149 H       1  UNL1        0.0636
     35 H           5.9003   -1.3468   -1.3964 H       1  UNL1        0.0618
     36 H           6.2855    0.1401    0.4681 H       1  UNL1        0.0623
     37 H           2.1844    0.7327    0.8122 H       1  UNL1        0.0642
@<TRIPOS>BOND
     1     1     2    2
     2     2     3    1
     3     2    15   am
     4     3     4    1
     5     4     5   ar
     6     4    14   ar
     7     5     6   ar
     8     6     7   ar
     9     7     8    2
    10     7     9   ar
    11     9    10   ar
    12     9    14   ar
    13    10    11   ar
    14    11    12   ar
    15    12    13   ar
    16    13    14   ar
    17    15    16    1
    18    16    17   ar
    19    16    25   ar
    20    17    18   ar
    21    18    19   ar
    22    19    20   ar
    23    20    21    1
    24    20    25   ar
    25    21    22    1
    26    21    23    1
    27    21    24    1
    28     3    26    1
    29     3    27    1
    30     6    28    1
    31    10    29    1
    32    11    30    1
    33    12    31    1
    34    13    32    1
    35    15    33    1
    36    17    34    1
    37    18    35    1
    38    19    36    1
    39    25    37    1
@<TRIPOS>MOLECULE
../data/bude_mols_rdkit_confs/molecule_16.pdb
 37 39 0 0 0
SMALL
GASTEIGER

@<TRIPOS>ATOM
      1  O1         0.3110    0.6150   -0.3190 O.2     1  UNL1       -0.2751
      2  C1         0.1770   -0.6070   -0.5390 C.2     1  UNL1        0.2231
      3  C2        -1.0950   -1.1840   -1.0530 C.3     1  UNL1        0.0688
      4  C3        -2.1780   -0.1990   -1.1990 C.ar    1  UNL1        0.0780
      5  N1        -2.3710    0.4980   -2.3460 N.ar    1  UNL1       -0.1748
      6  N2        -3.3120    1.4210   -2.4520 N.ar    1  UNL1       -0.2425
      7  C4        -4.1470    1.7400   -1.4360 C.ar    1  UNL1        0.2725
      8  O2        -5.0300    2.6260   -1.5770 O.2     1  UNL1       -0.2658
      9  C5        -3.9970    1.0660   -0.2400 C.ar    1  UNL1        0.0496
     10  C6        -4.8600    1.3680    0.7870 C.ar    1  UNL1       -0.0487
     11  C7        -4.7660    0.6910    1.9950 C.ar    1  UNL1       -0.0610
     12  C8        -3.8010   -0.2710    2.1260 C.ar    1  UNL1       -0.0611
     13  C9        -2.9270   -0.5680    1.0750 C.ar    1  UNL1       -0.0521
     14  C10       -3.0030    0.0910   -0.1320 C.ar    1  UNL1        0.0108
     15  N3         1.2400   -1.4950   -0.3110 N.am    1  UNL1       -0.2852
     16  C11        2.5320   -1.1360    0.1480 C.ar    1  UNL1        0.0339
     17  C12        3.3140   -2.0790    0.8370 C.ar    1  UNL1       -0.0405
     18  C13        4.5990   -1.8200    1.2490 C.ar    1  UNL1       -0.0595
     19  C14        5.1620   -0.6070    0.9870 C.ar    1  UNL1       -0.0500
     20  C15        4.4250    0.3830    0.2990 C.ar    1  UNL1        0.0566
     21  C16        5.0990    1.6670    0.0670 C.3     1  UNL1        0.4175
     22  F1         6.2900    1.6950    0.8130 F       1  UNL1       -0.1659
     23  F2         4.4040    2.7830    0.4330 F       1  UNL1       -0.1659
     24  F3         5.4920    1.7970   -1.2580 F       1  UNL1       -0.1659
     25  C17        3.1250    0.0650   -0.0910 C.ar    1  UNL1       -0.0288
     26 H          -1.4196   -1.9439   -0.3732 H       1  UNL1        0.0423
     27 H          -0.8901   -1.5687   -2.0302 H       1  UNL1        0.0423
     28 H          -3.4094    1.8973   -3.3081 H       1  UNL1        0.1921
     29 H          -5.5779    2.0983    0.6595 H       1  UNL1        0.0625
     30 H          -5.4071    0.9073    2.7743 H       1  UNL1        0.0618
     31 H          -3.7168   -0.7864    3.0161 H       1  UNL1        0.0618
     32 H          -2.2090   -1.2974    1.2070 H       1  UNL1        0.0624
     33 H           1.0737   -2.4496   -0.4850 H       1  UNL1        0.1548
     34 H           2.9061   -3.0045    1.0420 H       1  UNL1        0.0636
     35 H           5.1359   -2.5416    1.7551 H       1  UNL1        0.0618
     36 H           6.1284   -0.4111    1.2916 H       1  UNL1        0.0623
     37 H           2.5794    0.7840   -0.5913 H       1  UNL1        0.0642
@<TRIPOS>BOND
     1     1     2    2
     2     2     3    1
     3     2    15   am
     4     3     4    1
     5     4     5   ar
     6     4    14   ar
     7     5     6   ar
     8     6     7   ar
     9     7     8    2
    10     7     9   ar
    11     9    10   ar
    12     9    14   ar
    13    10    11   ar
    14    11    12   ar
    15    12    13   ar
    16    13    14   ar
    17    15    16    1
    18    16    17   ar
    19    16    25   ar
    20    17    18   ar
    21    18    19   ar
    22    19    20   ar
    23    20    21    1
    24    20    25   ar
    25    21    22    1
    26    21    23    1
    27    21    24    1
    28     3    26    1
    29     3    27    1
    30     6    28    1
    31    10    29    1
    32    11    30    1
    33    12    31    1
    34    13    32    1
    35    15    33    1
    36    17    34    1
    37    18    35    1
    38    19    36    1
    39    25    37    1
@<TRIPOS>MOLECULE
../data/bude_mols_rdkit_confs/molecule_16.pdb
 37 39 0 0 0
SMALL
GASTEIGER

@<TRIPOS>ATOM
      1  O1         1.4410    1.4910   -0.6200 O.2     1  UNL1       -0.2751
      2  C1         0.4820    0.5990   -0.6080 C.2     1  UNL1        0.2231
      3  C2        -0.8110    0.8700   -1.1290 C.3     1  UNL1        0.0688
      4  C3        -2.0740    1.2550   -0.6440 C.ar    1  UNL1        0.0780
      5  N1        -2.5200    2.5580   -0.6000 N.ar    1  UNL1       -0.1748
      6  N2        -3.7340    2.8720   -0.2260 N.ar    1  UNL1       -0.2425
      7  C4        -4.6680    1.9650    0.1510 C.ar    1  UNL1        0.2725
      8  O2        -5.8030    2.2950    0.5080 O.2     1  UNL1       -0.2658
      9  C5        -4.2820    0.6360    0.1370 C.ar    1  UNL1        0.0496
     10  C6        -5.2270   -0.3360    0.5070 C.ar    1  UNL1       -0.0487
     11  C7        -4.8180   -1.6610    0.4580 C.ar    1  UNL1       -0.0610
     12  C8        -3.5220   -2.0160    0.0620 C.ar    1  UNL1       -0.0611
     13  C9        -2.6620   -0.9910   -0.2780 C.ar    1  UNL1       -0.0521
     14  C10       -3.0310    0.2990   -0.2430 C.ar    1  UNL1        0.0108
     15  N3         0.9930   -0.6380   -0.0310 N.am    1  UNL1       -0.2852
     16  C11        2.3910   -0.7230    0.2070 C.ar    1  UNL1        0.0339
     17  C12        2.9630   -1.7320   -0.6300 C.ar    1  UNL1       -0.0405
     18  C13        4.3140   -1.8980   -0.7220 C.ar    1  UNL1       -0.0595
     19  C14        5.1470   -1.0860   -0.0060 C.ar    1  UNL1       -0.0500
     20  C15        4.6060   -0.0960    0.8260 C.ar    1  UNL1        0.0566
     21  C16        5.5510    0.8260    1.4600 C.3     1  UNL1        0.4175
     22  F1         6.0170    1.6760    0.4170 F       1  UNL1       -0.1659
     23  F2         6.7290    0.0940    1.7490 F       1  UNL1       -0.1659
     24  F3         5.0800    1.4890    2.5190 F       1  UNL1       -0.1659
     25  C17        3.1930    0.0670    0.9200 C.ar    1  UNL1       -0.0288
     26 H          -1.0389   -0.0416   -1.6408 H       1  UNL1        0.0423
     27 H          -0.5521    1.8635   -1.4304 H       1  UNL1        0.0423
     28 H          -3.9840    3.8242   -0.2180 H       1  UNL1        0.1921
     29 H          -6.1813   -0.0763    0.8016 H       1  UNL1        0.0625
     30 H          -5.4852   -2.4035    0.7198 H       1  UNL1        0.0618
     31 H          -3.2225   -3.0029    0.0259 H       1  UNL1        0.0618
     32 H          -1.7002   -1.2252   -0.5698 H       1  UNL1        0.0624
     33 H           0.3917   -1.3868    0.1858 H       1  UNL1        0.1548
     34 H           2.3403   -2.3477   -1.1761 H       1  UNL1        0.0636
     35 H           4.7052   -2.6343   -1.3302 H       1  UNL1        0.0618
     36 H           6.1701   -1.2009   -0.0773 H       1  UNL1        0.0623
     37 H           2.7937    0.7921    1.5363 H       1  UNL1        0.0642
@<TRIPOS>BOND
     1     1     2    2
     2     2     3    1
     3     2    15   am
     4     3     4    1
     5     4     5   ar
     6     4    14   ar
     7     5     6   ar
     8     6     7   ar
     9     7     8    2
    10     7     9   ar
    11     9    10   ar
    12     9    14   ar
    13    10    11   ar
    14    11    12   ar
    15    12    13   ar
    16    13    14   ar
    17    15    16    1
    18    16    17   ar
    19    16    25   ar
    20    17    18   ar
    21    18    19   ar
    22    19    20   ar
    23    20    21    1
    24    20    25   ar
    25    21    22    1
    26    21    23    1
    27    21    24    1
    28     3    26    1
    29     3    27    1
    30     6    28    1
    31    10    29    1
    32    11    30    1
    33    12    31    1
    34    13    32    1
    35    15    33    1
    36    17    34    1
    37    18    35    1
    38    19    36    1
    39    25    37    1
@<TRIPOS>MOLECULE
../data/bude_mols_rdkit_confs/molecule_16.pdb
 37 39 0 0 0
SMALL
GASTEIGER

@<TRIPOS>ATOM
      1  O1         0.5940    1.4080    1.1650 O.2     1  UNL1       -0.2751
      2  C1         0.3520    0.3160    0.5940 C.2     1  UNL1        0.2231
      3  C2        -0.9460   -0.3980    0.7630 C.3     1  UNL1        0.0688
      4  C3        -2.1740    0.2090    0.3730 C.ar    1  UNL1        0.0780
      5  N1        -2.3400    1.5400    0.4550 N.ar    1  UNL1       -0.1748
      6  N2        -3.4640    2.1450    0.1430 N.ar    1  UNL1       -0.2425
      7  C4        -4.5310    1.4660   -0.2860 C.ar    1  UNL1        0.2725
      8  O2        -5.6340    2.0300   -0.5820 O.2     1  UNL1       -0.2658
      9  C5        -4.4700    0.0760   -0.4150 C.ar    1  UNL1        0.0496
     10  C6        -5.5960   -0.6280   -0.8450 C.ar    1  UNL1       -0.0487
     11  C7        -5.4290   -2.0110   -0.9180 C.ar    1  UNL1       -0.0610
     12  C8        -4.2350   -2.6260   -0.5870 C.ar    1  UNL1       -0.0611
     13  C9        -3.1560   -1.8770   -0.1680 C.ar    1  UNL1       -0.0521
     14  C10       -3.2750   -0.5300   -0.0810 C.ar    1  UNL1        0.0108
     15  N3         1.4000   -0.2330   -0.2230 N.am    1  UNL1       -0.2852
     16  C11        2.6580    0.4170   -0.3000 C.ar    1  UNL1        0.0339
     17  C12        2.8960    1.7420   -0.2140 C.ar    1  UNL1       -0.0405
     18  C13        4.1890    2.2920   -0.0990 C.ar    1  UNL1       -0.0595
     19  C14        5.2770    1.4700   -0.0750 C.ar    1  UNL1       -0.0500
     20  C15        5.0850    0.1010   -0.1670 C.ar    1  UNL1        0.0566
     21  C16        6.2320   -0.8040   -0.0910 C.3     1  UNL1        0.4175
     22  F1         6.3990   -1.4500   -1.2760 F       1  UNL1       -0.1659
     23  F2         7.3560   -0.1520    0.3840 F       1  UNL1       -0.1659
     24  F3         5.8980   -1.7610    0.8880 F       1  UNL1       -0.1659
     25  C17        3.7980   -0.4160   -0.2770 C.ar    1  UNL1       -0.0288
     26 H          -1.0357   -0.6233    1.8052 H       1  UNL1        0.0423
     27 H          -0.8575   -1.2125    0.0748 H       1  UNL1        0.0423
     28 H          -3.5210    3.1242    0.2277 H       1  UNL1        0.1921
     29 H          -6.4833   -0.1615   -1.0899 H       1  UNL1        0.0625
     30 H          -6.2217   -2.5941   -1.2289 H       1  UNL1        0.0618
     31 H          -4.1513   -3.6524   -0.6541 H       1  UNL1        0.0618
     32 H          -2.2658   -2.3380    0.0771 H       1  UNL1        0.0624
     33 H           1.2439   -1.0622   -0.7302 H       1  UNL1        0.1548
     34 H           2.0900    2.3863   -0.2334 H       1  UNL1        0.0636
     35 H           4.3120    3.3145   -0.0331 H       1  UNL1        0.0618
     36 H           6.2281    1.8615    0.0103 H       1  UNL1        0.0623
     37 H           3.6729   -1.4382   -0.3437 H       1  UNL1        0.0642
@<TRIPOS>BOND
     1     1     2    2
     2     2     3    1
     3     2    15   am
     4     3     4    1
     5     4     5   ar
     6     4    14   ar
     7     5     6   ar
     8     6     7   ar
     9     7     8    2
    10     7     9   ar
    11     9    10   ar
    12     9    14   ar
    13    10    11   ar
    14    11    12   ar
    15    12    13   ar
    16    13    14   ar
    17    15    16    1
    18    16    17   ar
    19    16    25   ar
    20    17    18   ar
    21    18    19   ar
    22    19    20   ar
    23    20    21    1
    24    20    25   ar
    25    21    22    1
    26    21    23    1
    27    21    24    1
    28     3    26    1
    29     3    27    1
    30     6    28    1
    31    10    29    1
    32    11    30    1
    33    12    31    1
    34    13    32    1
    35    15    33    1
    36    17    34    1
    37    18    35    1
    38    19    36    1
    39    25    37    1
@<TRIPOS>MOLECULE
../data/bude_mols_rdkit_confs/molecule_16.pdb
 37 39 0 0 0
SMALL
GASTEIGER

@<TRIPOS>ATOM
      1  O1         0.8290    1.0400    2.0470 O.2     1  UNL1       -0.2751
      2  C1         0.2150    0.1420    1.2640 C.2     1  UNL1        0.2231
      3  C2        -1.1930    0.0330    1.4760 C.3     1  UNL1        0.0688
      4  C3        -2.2260    0.7120    0.7620 C.ar    1  UNL1        0.0780
      5  N1        -2.4540    2.0540    0.8800 N.ar    1  UNL1       -0.1748
      6  N2        -3.3880    2.7020    0.2410 N.ar    1  UNL1       -0.2425
      7  C4        -4.2430    2.1070   -0.6140 C.ar    1  UNL1        0.2725
      8  O2        -5.1560    2.6700   -1.2510 O.2     1  UNL1       -0.2658
      9  C5        -4.0850    0.7320   -0.8000 C.ar    1  UNL1        0.0496
     10  C6        -5.0000    0.0880   -1.6400 C.ar    1  UNL1       -0.0487
     11  C7        -4.9530   -1.2760   -1.8390 C.ar    1  UNL1       -0.0610
     12  C8        -3.9670   -1.9470   -1.1720 C.ar    1  UNL1       -0.0611
     13  C9        -3.0470   -1.3170   -0.3360 C.ar    1  UNL1       -0.0521
     14  C10       -3.0920    0.0410   -0.1300 C.ar    1  UNL1        0.0108
     15  N3         1.1420   -0.4890    0.4290 N.am    1  UNL1       -0.2852
     16  C11        2.5370   -0.2560    0.4590 C.ar    1  UNL1        0.0339
     17  C12        3.2070    0.0720    1.6390 C.ar    1  UNL1       -0.0405
     18  C13        4.5760    0.2160    1.7240 C.ar    1  UNL1       -0.0595
     19  C14        5.3200    0.0250    0.5770 C.ar    1  UNL1       -0.0500
     20  C15        4.7200   -0.2910   -0.6060 C.ar    1  UNL1        0.0566
     21  C16        5.5570   -0.5250   -1.8430 C.3     1  UNL1        0.4175
     22  F1         5.1600   -1.6800   -2.4830 F       1  UNL1       -0.1659
     23  F2         5.5340    0.5700   -2.6640 F       1  UNL1       -0.1659
     24  F3         6.8490   -0.7620   -1.3710 F       1  UNL1       -0.1659
     25  C17        3.3410   -0.4240   -0.6470 C.ar    1  UNL1       -0.0288
     26 H          -1.3393    0.3080    2.4996 H       1  UNL1        0.0423
     27 H          -1.3466   -0.9566    1.0992 H       1  UNL1        0.0423
     28 H          -3.4725    3.6715    0.3902 H       1  UNL1        0.1921
     29 H          -5.7244    0.6446   -2.1202 H       1  UNL1        0.0625
     30 H          -5.6233   -1.7614   -2.4555 H       1  UNL1        0.0618
     31 H          -3.9004   -2.9697   -1.2932 H       1  UNL1        0.0618
     32 H          -2.3210   -1.8788    0.1355 H       1  UNL1        0.0624
     33 H           0.8003   -1.1406   -0.2251 H       1  UNL1        0.1548
     34 H           2.6474    0.2145    2.4943 H       1  UNL1        0.0636
     35 H           5.0305    0.4592    2.6181 H       1  UNL1        0.0618
     36 H           6.3466    0.1229    0.6155 H       1  UNL1        0.0623
     37 H           2.8959   -0.6598   -1.5477 H       1  UNL1        0.0642
@<TRIPOS>BOND
     1     1     2    2
     2     2     3    1
     3     2    15   am
     4     3     4    1
     5     4     5   ar
     6     4    14   ar
     7     5     6   ar
     8     6     7   ar
     9     7     8    2
    10     7     9   ar
    11     9    10   ar
    12     9    14   ar
    13    10    11   ar
    14    11    12   ar
    15    12    13   ar
    16    13    14   ar
    17    15    16    1
    18    16    17   ar
    19    16    25   ar
    20    17    18   ar
    21    18    19   ar
    22    19    20   ar
    23    20    21    1
    24    20    25   ar
    25    21    22    1
    26    21    23    1
    27    21    24    1
    28     3    26    1
    29     3    27    1
    30     6    28    1
    31    10    29    1
    32    11    30    1
    33    12    31    1
    34    13    32    1
    35    15    33    1
    36    17    34    1
    37    18    35    1
    38    19    36    1
    39    25    37    1
@<TRIPOS>MOLECULE
../data/bude_mols_rdkit_confs/molecule_16.pdb
 37 39 0 0 0
SMALL
GASTEIGER

@<TRIPOS>ATOM
      1  O1        -1.2750    1.5720   -0.5840 O.2     1  UNL1       -0.2751
      2  C1        -0.4920    0.5910   -0.8840 C.2     1  UNL1        0.2231
      3  C2         0.7480    0.9750   -1.5640 C.3     1  UNL1        0.0688
      4  C3         1.8370    1.3270   -0.6600 C.ar    1  UNL1        0.0780
      5  N1         1.7250    2.4300    0.1300 N.ar    1  UNL1       -0.1748
      6  N2         2.5930    2.7480    1.0570 N.ar    1  UNL1       -0.2425
      7  C4         3.6770    1.9890    1.2920 C.ar    1  UNL1        0.2725
      8  O2         4.4890    2.3330    2.2070 O.2     1  UNL1       -0.2658
      9  C5         3.8800    0.8590    0.5400 C.ar    1  UNL1        0.0496
     10  C6         5.0290    0.1310    0.7650 C.ar    1  UNL1       -0.0487
     11  C7         5.2550   -0.9840   -0.0300 C.ar    1  UNL1       -0.0610
     12  C8         4.3330   -1.3130   -1.0090 C.ar    1  UNL1       -0.0611
     13  C9         3.1930   -0.5680   -1.2140 C.ar    1  UNL1       -0.0521
     14  C10        2.9460    0.5280   -0.4410 C.ar    1  UNL1        0.0108
     15  N3        -0.9370   -0.7010   -0.5220 N.am    1  UNL1       -0.2852
     16  C11       -2.2180   -0.8860    0.1200 C.ar    1  UNL1        0.0339
     17  C12       -2.3710   -1.5630    1.3080 C.ar    1  UNL1       -0.0405
     18  C13       -3.6560   -1.7420    1.8440 C.ar    1  UNL1       -0.0595
     19  C14       -4.7750   -1.2640    1.2240 C.ar    1  UNL1       -0.0500
     20  C15       -4.6250   -0.5850    0.0280 C.ar    1  UNL1        0.0566
     21  C16       -5.8150   -0.0540   -0.7330 C.3     1  UNL1        0.4175
     22  F1        -6.9220   -0.3250    0.0160 F       1  UNL1       -0.1659
     23  F2        -5.9080   -0.7950   -1.9160 F       1  UNL1       -0.1659
     24  F3        -5.6320    1.2820   -0.9820 F       1  UNL1       -0.1659
     25  C17       -3.3670   -0.4010   -0.5050 C.ar    1  UNL1       -0.0288
     26 H           0.5419    1.8200   -2.1873 H       1  UNL1        0.0423
     27 H           1.0724    0.1209   -2.1209 H       1  UNL1        0.0423
     28 H           2.4486    3.5607    1.5936 H       1  UNL1        0.1921
     29 H           5.6989    0.4061    1.5003 H       1  UNL1        0.0625
     30 H           6.0998   -1.5607    0.1069 H       1  UNL1        0.0618
     31 H           4.5049   -2.1400   -1.6020 H       1  UNL1        0.0618
     32 H           2.5254   -0.8392   -1.9528 H       1  UNL1        0.0624
     33 H          -0.3683   -1.4825   -0.7092 H       1  UNL1        0.1548
     34 H          -1.5458   -1.9370    1.8022 H       1  UNL1        0.0636
     35 H          -3.7584   -2.2514    2.7356 H       1  UNL1        0.0618
     36 H          -5.7098   -1.4058    1.6376 H       1  UNL1        0.0623
     37 H          -3.2722    0.1122   -1.3953 H       1  UNL1        0.0642
@<TRIPOS>BOND
     1     1     2    2
     2     2     3    1
     3     2    15   am
     4     3     4    1
     5     4     5   ar
     6     4    14   ar
     7     5     6   ar
     8     6     7   ar
     9     7     8    2
    10     7     9   ar
    11     9    10   ar
    12     9    14   ar
    13    10    11   ar
    14    11    12   ar
    15    12    13   ar
    16    13    14   ar
    17    15    16    1
    18    16    17   ar
    19    16    25   ar
    20    17    18   ar
    21    18    19   ar
    22    19    20   ar
    23    20    21    1
    24    20    25   ar
    25    21    22    1
    26    21    23    1
    27    21    24    1
    28     3    26    1
    29     3    27    1
    30     6    28    1
    31    10    29    1
    32    11    30    1
    33    12    31    1
    34    13    32    1
    35    15    33    1
    36    17    34    1
    37    18    35    1
    38    19    36    1
    39    25    37    1
@<TRIPOS>MOLECULE
../data/bude_mols_rdkit_confs/molecule_16.pdb
 37 39 0 0 0
SMALL
GASTEIGER

@<TRIPOS>ATOM
      1  O1         0.9410   -2.1740    0.1580 O.2     1  UNL1       -0.2751
      2  C1         0.3850   -1.0350    0.4110 C.2     1  UNL1        0.2231
      3  C2        -1.0230   -0.9390    0.7070 C.3     1  UNL1        0.0688
      4  C3        -1.9250    0.0600    0.2130 C.ar    1  UNL1        0.0780
      5  N1        -1.4990    1.3100    0.0170 N.ar    1  UNL1       -0.1748
      6  N2        -2.3530    2.3120   -0.1730 N.ar    1  UNL1       -0.2425
      7  C4        -3.6750    2.0870   -0.1760 C.ar    1  UNL1        0.2725
      8  O2        -4.4500    3.1030   -0.3500 O.2     1  UNL1       -0.2658
      9  C5        -4.1920    0.8210    0.0040 C.ar    1  UNL1        0.0496
     10  C6        -5.5700    0.6040   -0.0070 C.ar    1  UNL1       -0.0487
     11  C7        -6.0080   -0.7040    0.1900 C.ar    1  UNL1       -0.0610
     12  C8        -5.0850   -1.7220    0.3800 C.ar    1  UNL1       -0.0611
     13  C9        -3.7620   -1.4490    0.3700 C.ar    1  UNL1       -0.0521
     14  C10       -3.3190   -0.1990    0.1920 C.ar    1  UNL1        0.0108
     15  N3         1.2730    0.0510    0.3910 N.am    1  UNL1       -0.2852
     16  C11        2.6830   -0.1320    0.2490 C.ar    1  UNL1        0.0339
     17  C12        3.1720   -1.2010    1.0080 C.ar    1  UNL1       -0.0405
     18  C13        4.5040   -1.4450    1.0410 C.ar    1  UNL1       -0.0595
     19  C14        5.3690   -0.6240    0.3150 C.ar    1  UNL1       -0.0500
     20  C15        4.8970    0.4080   -0.4320 C.ar    1  UNL1        0.0566
     21  C16        5.8570    1.3530   -1.0950 C.3     1  UNL1        0.4175
     22  F1         6.3530    2.1200    0.0140 F       1  UNL1       -0.1659
     23  F2         6.9250    0.7410   -1.6840 F       1  UNL1       -0.1659
     24  F3         5.1970    2.2020   -1.9160 F       1  UNL1       -0.1659
     25  C17        3.5300    0.6370   -0.4460 C.ar    1  UNL1       -0.0288
     26 H          -1.0804   -0.8651    1.7729 H       1  UNL1        0.0423
     27 H          -1.3801   -1.7892    0.1643 H       1  UNL1        0.0423
     28 H          -2.0122    3.2250   -0.3124 H       1  UNL1        0.1921
     29 H          -6.2359    1.3784   -0.1546 H       1  UNL1        0.0625
     30 H          -7.0181   -0.9152    0.1946 H       1  UNL1        0.0618
     31 H          -5.4098   -2.6901    0.5293 H       1  UNL1        0.0618
     32 H          -3.0834   -2.2153    0.5015 H       1  UNL1        0.0624
     33 H           0.9149    0.9640    0.4771 H       1  UNL1        0.1548
     34 H           2.5214   -1.8002    1.5397 H       1  UNL1        0.0636
     35 H           4.8760   -2.2304    1.5976 H       1  UNL1        0.0618
     36 H           6.3847   -0.8042    0.3463 H       1  UNL1        0.0623
     37 H           3.1562    1.4193   -1.0058 H       1  UNL1        0.0642
@<TRIPOS>BOND
     1     1     2    2
     2     2     3    1
     3     2    15   am
     4     3     4    1
     5     4     5   ar
     6     4    14   ar
     7     5     6   ar
     8     6     7   ar
     9     7     8    2
    10     7     9   ar
    11     9    10   ar
    12     9    14   ar
    13    10    11   ar
    14    11    12   ar
    15    12    13   ar
    16    13    14   ar
    17    15    16    1
    18    16    17   ar
    19    16    25   ar
    20    17    18   ar
    21    18    19   ar
    22    19    20   ar
    23    20    21    1
    24    20    25   ar
    25    21    22    1
    26    21    23    1
    27    21    24    1
    28     3    26    1
    29     3    27    1
    30     6    28    1
    31    10    29    1
    32    11    30    1
    33    12    31    1
    34    13    32    1
    35    15    33    1
    36    17    34    1
    37    18    35    1
    38    19    36    1
    39    25    37    1
@<TRIPOS>MOLECULE
../data/bude_mols_rdkit_confs/molecule_16.pdb
 37 39 0 0 0
SMALL
GASTEIGER

@<TRIPOS>ATOM
      1  O1         1.0550    0.0270   -1.7140 O.2     1  UNL1       -0.2751
      2  C1         0.4990    0.2070   -0.5470 C.2     1  UNL1        0.2231
      3  C2        -0.8580    0.6960   -0.5210 C.3     1  UNL1        0.0688
      4  C3        -1.9560   -0.2250   -0.3810 C.ar    1  UNL1        0.0780
      5  N1        -1.9110   -1.5310   -0.1490 N.ar    1  UNL1       -0.1748
      6  N2        -2.9590   -2.3120    0.0650 N.ar    1  UNL1       -0.2425
      7  C4        -4.1980   -1.7410    0.0490 C.ar    1  UNL1        0.2725
      8  O2        -5.2210   -2.4430    0.2490 O.2     1  UNL1       -0.2658
      9  C5        -4.3690   -0.4080   -0.1820 C.ar    1  UNL1        0.0496
     10  C6        -5.6330    0.1650   -0.2040 C.ar    1  UNL1       -0.0487
     11  C7        -5.7950    1.5040   -0.4440 C.ar    1  UNL1       -0.0610
     12  C8        -4.6660    2.2650   -0.6630 C.ar    1  UNL1       -0.0611
     13  C9        -3.4010    1.7110   -0.6430 C.ar    1  UNL1       -0.0521
     14  C10       -3.2350    0.3420   -0.3980 C.ar    1  UNL1        0.0108
     15  N3         1.3340   -0.1170    0.5540 N.am    1  UNL1       -0.2852
     16  C11        2.6710   -0.5540    0.4950 C.ar    1  UNL1        0.0339
     17  C12        3.1240   -1.8140    0.7650 C.ar    1  UNL1       -0.0405
     18  C13        4.4820   -2.1260    0.7840 C.ar    1  UNL1       -0.0595
     19  C14        5.3890   -1.1070    0.5160 C.ar    1  UNL1       -0.0500
     20  C15        4.9690    0.1540    0.2420 C.ar    1  UNL1        0.0566
     21  C16        5.9870    1.2270   -0.0040 C.3     1  UNL1        0.4175
     22  F1         5.3200    2.1800   -0.7770 F       1  UNL1       -0.1659
     23  F2         7.0740    0.8030   -0.7180 F       1  UNL1       -0.1659
     24  F3         6.3310    1.7980    1.2210 F       1  UNL1       -0.1659
     25  C17        3.6290    0.4110    0.2350 C.ar    1  UNL1       -0.0288
     26 H          -1.0132    1.2234   -1.4390 H       1  UNL1        0.0423
     27 H          -0.8965    1.2619    0.3863 H       1  UNL1        0.0423
     28 H          -2.8473   -3.2760    0.2307 H       1  UNL1        0.1921
     29 H          -6.4624   -0.4260   -0.0372 H       1  UNL1        0.0625
     30 H          -6.7345    1.9307   -0.4604 H       1  UNL1        0.0618
     31 H          -4.7691    3.2753   -0.8467 H       1  UNL1        0.0618
     32 H          -2.5755    2.3076   -0.8091 H       1  UNL1        0.0624
     33 H           0.9377   -0.0269    1.4507 H       1  UNL1        0.1548
     34 H           2.4379   -2.5595    0.9614 H       1  UNL1        0.0636
     35 H           4.8046   -3.0842    0.9907 H       1  UNL1        0.0618
     36 H           6.4001   -1.3133    0.5256 H       1  UNL1        0.0623
     37 H           3.3144    1.3713    0.0257 H       1  UNL1        0.0642
@<TRIPOS>BOND
     1     1     2    2
     2     2     3    1
     3     2    15   am
     4     3     4    1
     5     4     5   ar
     6     4    14   ar
     7     5     6   ar
     8     6     7   ar
     9     7     8    2
    10     7     9   ar
    11     9    10   ar
    12     9    14   ar
    13    10    11   ar
    14    11    12   ar
    15    12    13   ar
    16    13    14   ar
    17    15    16    1
    18    16    17   ar
    19    16    25   ar
    20    17    18   ar
    21    18    19   ar
    22    19    20   ar
    23    20    21    1
    24    20    25   ar
    25    21    22    1
    26    21    23    1
    27    21    24    1
    28     3    26    1
    29     3    27    1
    30     6    28    1
    31    10    29    1
    32    11    30    1
    33    12    31    1
    34    13    32    1
    35    15    33    1
    36    17    34    1
    37    18    35    1
    38    19    36    1
    39    25    37    1
@<TRIPOS>MOLECULE
../data/bude_mols_rdkit_confs/molecule_16.pdb
 37 39 0 0 0
SMALL
GASTEIGER

@<TRIPOS>ATOM
      1  O1         0.4820   -1.1980   -1.4400 O.2     1  UNL1       -0.2751
      2  C1         0.3130    0.0770   -1.2830 C.2     1  UNL1        0.2231
      3  C2        -0.8300    0.6880   -1.9320 C.3     1  UNL1        0.0688
      4  C3        -2.0280    1.0190   -1.1700 C.ar    1  UNL1        0.0780
      5  N1        -2.3140    2.3530   -0.9460 N.ar    1  UNL1       -0.1748
      6  N2        -3.3440    2.8030   -0.3130 N.ar    1  UNL1       -0.2425
      7  C4        -4.2460    1.9600    0.1920 C.ar    1  UNL1        0.2725
      8  O2        -5.2670    2.4100    0.8220 O.2     1  UNL1       -0.2658
      9  C5        -4.0690    0.6050    0.0240 C.ar    1  UNL1        0.0496
     10  C6        -5.0060   -0.2610    0.5700 C.ar    1  UNL1       -0.0487
     11  C7        -4.7810   -1.5920    0.3990 C.ar    1  UNL1       -0.0610
     12  C8        -3.6720   -2.0920   -0.2890 C.ar    1  UNL1       -0.0611
     13  C9        -2.7720   -1.1900   -0.8090 C.ar    1  UNL1       -0.0521
     14  C10       -2.9380    0.1580   -0.6660 C.ar    1  UNL1        0.0108
     15  N3         1.2740    0.7040   -0.4900 N.am    1  UNL1       -0.2852
     16  C11        2.3450   -0.0030    0.0840 C.ar    1  UNL1        0.0339
     17  C12        2.2170   -1.2650    0.5180 C.ar    1  UNL1       -0.0405
     18  C13        3.2890   -2.0270    1.0270 C.ar    1  UNL1       -0.0595
     19  C14        4.5550   -1.4550    1.0860 C.ar    1  UNL1       -0.0500
     20  C15        4.7150   -0.1550    0.6470 C.ar    1  UNL1        0.0566
     21  C16        6.0610    0.4630    0.6840 C.3     1  UNL1        0.4175
     22  F1         6.4450    0.9900   -0.5420 F       1  UNL1       -0.1659
     23  F2         7.0200   -0.4210    1.1400 F       1  UNL1       -0.1659
     24  F3         6.0060    1.5420    1.5900 F       1  UNL1       -0.1659
     25  C17        3.6260    0.5500    0.1580 C.ar    1  UNL1       -0.0288
     26 H          -1.1363    0.0172   -2.7073 H       1  UNL1        0.0423
     27 H          -0.4565    1.6486   -2.2195 H       1  UNL1        0.0423
     28 H          -3.4650    3.7737   -0.2020 H       1  UNL1        0.1921
     29 H          -5.8325    0.0873    1.0805 H       1  UNL1        0.0625
     30 H          -5.4591   -2.2618    0.7948 H       1  UNL1        0.0618
     31 H          -3.5321   -3.1080   -0.4038 H       1  UNL1        0.0618
     32 H          -1.9484   -1.5422   -1.3215 H       1  UNL1        0.0624
     33 H           1.2000    1.6721   -0.3271 H       1  UNL1        0.1548
     34 H           1.2833   -1.7026    0.4774 H       1  UNL1        0.0636
     35 H           3.1361   -2.9949    1.3509 H       1  UNL1        0.0618
     36 H           5.3585   -1.9906    1.4502 H       1  UNL1        0.0623
     37 H           3.7669    1.5204   -0.1637 H       1  UNL1        0.0642
@<TRIPOS>BOND
     1     1     2    2
     2     2     3    1
     3     2    15   am
     4     3     4    1
     5     4     5   ar
     6     4    14   ar
     7     5     6   ar
     8     6     7   ar
     9     7     8    2
    10     7     9   ar
    11     9    10   ar
    12     9    14   ar
    13    10    11   ar
    14    11    12   ar
    15    12    13   ar
    16    13    14   ar
    17    15    16    1
    18    16    17   ar
    19    16    25   ar
    20    17    18   ar
    21    18    19   ar
    22    19    20   ar
    23    20    21    1
    24    20    25   ar
    25    21    22    1
    26    21    23    1
    27    21    24    1
    28     3    26    1
    29     3    27    1
    30     6    28    1
    31    10    29    1
    32    11    30    1
    33    12    31    1
    34    13    32    1
    35    15    33    1
    36    17    34    1
    37    18    35    1
    38    19    36    1
    39    25    37    1
@<TRIPOS>MOLECULE
../data/bude_mols_rdkit_confs/molecule_16.pdb
 37 39 0 0 0
SMALL
GASTEIGER

@<TRIPOS>ATOM
      1  O1         0.2720   -0.0940    1.0530 O.2     1  UNL1       -0.2751
      2  C1         0.2460   -0.8580    0.0660 C.2     1  UNL1        0.2231
      3  C2        -0.9040   -1.5990   -0.3760 C.3     1  UNL1        0.0688
      4  C3        -2.2150   -1.4550    0.2060 C.ar    1  UNL1        0.0780
      5  N1        -2.8220   -2.3520    0.9960 N.ar    1  UNL1       -0.1748
      6  N2        -4.0590   -2.2360    1.4430 N.ar    1  UNL1       -0.2425
      7  C4        -4.8250   -1.1710    1.1370 C.ar    1  UNL1        0.2725
      8  O2        -6.0310   -1.0300    1.5490 O.2     1  UNL1       -0.2658
      9  C5        -4.2890   -0.1920    0.3340 C.ar    1  UNL1        0.0496
     10  C6        -5.0760    0.9010    0.0290 C.ar    1  UNL1       -0.0487
     11  C7        -4.5110    1.9000   -0.7850 C.ar    1  UNL1       -0.0610
     12  C8        -3.2150    1.7450   -1.2360 C.ar    1  UNL1       -0.0611
     13  C9        -2.4200    0.6560   -0.9290 C.ar    1  UNL1       -0.0521
     14  C10       -2.9820   -0.3300   -0.1270 C.ar    1  UNL1        0.0108
     15  N3         1.4510   -0.9920   -0.6500 N.am    1  UNL1       -0.2852
     16  C11        2.6960   -0.4280   -0.4850 C.ar    1  UNL1        0.0339
     17  C12        3.6660   -0.8030   -1.4150 C.ar    1  UNL1       -0.0405
     18  C13        4.9280   -0.2930   -1.3670 C.ar    1  UNL1       -0.0595
     19  C14        5.2850    0.6120   -0.4020 C.ar    1  UNL1       -0.0500
     20  C15        4.3190    0.9800    0.5230 C.ar    1  UNL1        0.0566
     21  C16        4.7490    1.9930    1.5370 C.3     1  UNL1        0.4175
     22  F1         4.8330    3.2810    0.9740 F       1  UNL1       -0.1659
     23  F2         6.1120    1.7350    1.9330 F       1  UNL1       -0.1659
     24  F3         4.0320    1.9120    2.6740 F       1  UNL1       -0.1659
     25  C17        3.0260    0.4680    0.4970 C.ar    1  UNL1       -0.0288
     26 H          -0.6467   -2.6317   -0.2653 H       1  UNL1        0.0423
     27 H          -1.0603   -1.1813   -1.3486 H       1  UNL1        0.0423
     28 H          -4.4310   -2.9460    2.0146 H       1  UNL1        0.1921
     29 H          -6.0415    0.9820    0.3844 H       1  UNL1        0.0625
     30 H          -5.0576    2.7370   -1.0414 H       1  UNL1        0.0618
     31 H          -2.8171    2.4841   -1.8364 H       1  UNL1        0.0618
     32 H          -1.4525    0.5789   -1.2798 H       1  UNL1        0.0624
     33 H           1.3918   -1.6075   -1.4161 H       1  UNL1        0.1548
     34 H           3.4223   -1.4806   -2.1543 H       1  UNL1        0.0636
     35 H           5.6248   -0.5922   -2.0669 H       1  UNL1        0.0618
     36 H           6.2382    1.0056   -0.3647 H       1  UNL1        0.0623
     37 H           2.3303    0.7570    1.2024 H       1  UNL1        0.0642
@<TRIPOS>BOND
     1     1     2    2
     2     2     3    1
     3     2    15   am
     4     3     4    1
     5     4     5   ar
     6     4    14   ar
     7     5     6   ar
     8     6     7   ar
     9     7     8    2
    10     7     9   ar
    11     9    10   ar
    12     9    14   ar
    13    10    11   ar
    14    11    12   ar
    15    12    13   ar
    16    13    14   ar
    17    15    16    1
    18    16    17   ar
    19    16    25   ar
    20    17    18   ar
    21    18    19   ar
    22    19    20   ar
    23    20    21    1
    24    20    25   ar
    25    21    22    1
    26    21    23    1
    27    21    24    1
    28     3    26    1
    29     3    27    1
    30     6    28    1
    31    10    29    1
    32    11    30    1
    33    12    31    1
    34    13    32    1
    35    15    33    1
    36    17    34    1
    37    18    35    1
    38    19    36    1
    39    25    37    1
@<TRIPOS>MOLECULE
../data/bude_mols_rdkit_confs/molecule_16.pdb
 37 39 0 0 0
SMALL
GASTEIGER

@<TRIPOS>ATOM
      1  O1        -0.2320    0.3550    0.7290 O.2     1  UNL1       -0.2751
      2  C1         0.1010   -0.5620   -0.0470 C.2     1  UNL1        0.2231
      3  C2        -0.8780   -1.5950   -0.5600 C.3     1  UNL1        0.0688
      4  C3        -2.2290   -1.4590   -0.0430 C.ar    1  UNL1        0.0780
      5  N1        -2.7680   -2.2930    0.8780 N.ar    1  UNL1       -0.1748
      6  N2        -4.0040   -2.2060    1.3320 N.ar    1  UNL1       -0.2425
      7  C4        -4.8460   -1.2580    0.9000 C.ar    1  UNL1        0.2725
      8  O2        -6.0010   -1.2030    1.3410 O.2     1  UNL1       -0.2658
      9  C5        -4.3670   -0.3730   -0.0380 C.ar    1  UNL1        0.0496
     10  C6        -5.1890    0.6330   -0.5230 C.ar    1  UNL1       -0.0487
     11  C7        -4.7170    1.5230   -1.4590 C.ar    1  UNL1       -0.0610
     12  C8        -3.4170    1.4230   -1.9270 C.ar    1  UNL1       -0.0611
     13  C9        -2.5790    0.4300   -1.4600 C.ar    1  UNL1       -0.0521
     14  C10       -3.0580   -0.4520   -0.5270 C.ar    1  UNL1        0.0108
     15  N3         1.4560   -0.6180   -0.4550 N.am    1  UNL1       -0.2852
     16  C11        2.4960    0.2580   -0.0790 C.ar    1  UNL1        0.0339
     17  C12        2.3980    1.5050    0.4430 C.ar    1  UNL1       -0.0405
     18  C13        3.5090    2.2340    0.8140 C.ar    1  UNL1       -0.0595
     19  C14        4.7970    1.7190    0.6660 C.ar    1  UNL1       -0.0500
     20  C15        4.9220    0.4370    0.1290 C.ar    1  UNL1        0.0566
     21  C16        6.2890   -0.1660   -0.0350 C.3     1  UNL1        0.4175
     22  F1         6.3960   -1.3110    0.7670 F       1  UNL1       -0.1659
     23  F2         7.2350    0.7050    0.4530 F       1  UNL1       -0.1659
     24  F3         6.5560   -0.5730   -1.3050 F       1  UNL1       -0.1659
     25  C17        3.8000   -0.2490   -0.2240 C.ar    1  UNL1       -0.0288
     26 H          -0.5132   -2.5637   -0.2891 H       1  UNL1        0.0423
     27 H          -0.9430   -1.4511   -1.6183 H       1  UNL1        0.0423
     28 H          -4.3150   -2.8539    2.0049 H       1  UNL1        0.1921
     29 H          -6.1590    0.7141   -0.1801 H       1  UNL1        0.0625
     30 H          -5.3345    2.2694   -1.8147 H       1  UNL1        0.0618
     31 H          -3.0724    2.0956   -2.6298 H       1  UNL1        0.0618
     32 H          -1.6101    0.3535   -1.8071 H       1  UNL1        0.0624
     33 H           1.6989   -1.3486   -1.0685 H       1  UNL1        0.1548
     34 H           1.4624    1.9225    0.5669 H       1  UNL1        0.0636
     35 H           3.3847    3.1793    1.2089 H       1  UNL1        0.0618
     36 H           5.6270    2.2660    0.9435 H       1  UNL1        0.0623
     37 H           3.9128   -1.1950   -0.6206 H       1  UNL1        0.0642
@<TRIPOS>BOND
     1     1     2    2
     2     2     3    1
     3     2    15   am
     4     3     4    1
     5     4     5   ar
     6     4    14   ar
     7     5     6   ar
     8     6     7   ar
     9     7     8    2
    10     7     9   ar
    11     9    10   ar
    12     9    14   ar
    13    10    11   ar
    14    11    12   ar
    15    12    13   ar
    16    13    14   ar
    17    15    16    1
    18    16    17   ar
    19    16    25   ar
    20    17    18   ar
    21    18    19   ar
    22    19    20   ar
    23    20    21    1
    24    20    25   ar
    25    21    22    1
    26    21    23    1
    27    21    24    1
    28     3    26    1
    29     3    27    1
    30     6    28    1
    31    10    29    1
    32    11    30    1
    33    12    31    1
    34    13    32    1
    35    15    33    1
    36    17    34    1
    37    18    35    1
    38    19    36    1
    39    25    37    1
@<TRIPOS>MOLECULE
../data/bude_mols_rdkit_confs/molecule_16.pdb
 37 39 0 0 0
SMALL
GASTEIGER

@<TRIPOS>ATOM
      1  O1         0.2930   -0.8620    1.1920 O.2     1  UNL1       -0.2751
      2  C1         0.1730   -0.7680   -0.0480 C.2     1  UNL1        0.2231
      3  C2        -1.0720   -0.8990   -0.8250 C.3     1  UNL1        0.0688
      4  C3        -2.3790   -0.8980   -0.2530 C.ar    1  UNL1        0.0780
      5  N1        -2.9830   -2.0450    0.1900 N.ar    1  UNL1       -0.1748
      6  N2        -4.2120   -2.1120    0.6590 N.ar    1  UNL1       -0.2425
      7  C4        -5.0060   -1.0620    0.7580 C.ar    1  UNL1        0.2725
      8  O2        -6.1740   -1.1230    1.2030 O.2     1  UNL1       -0.2658
      9  C5        -4.5030    0.1680    0.3460 C.ar    1  UNL1        0.0496
     10  C6        -5.2460    1.3080    0.3600 C.ar    1  UNL1       -0.0487
     11  C7        -4.7370    2.5060   -0.0930 C.ar    1  UNL1       -0.0610
     12  C8        -3.4530    2.5620   -0.5710 C.ar    1  UNL1       -0.0611
     13  C9        -2.6700    1.4130   -0.6010 C.ar    1  UNL1       -0.0521
     14  C10       -3.2200    0.2260   -0.1400 C.ar    1  UNL1        0.0108
     15  N3         1.3940   -0.5150   -0.7970 N.am    1  UNL1       -0.2852
     16  C11        2.6900   -0.4760   -0.2330 C.ar    1  UNL1        0.0339
     17  C12        3.0450   -1.6520    0.4510 C.ar    1  UNL1       -0.0405
     18  C13        4.2960   -1.7990    0.9600 C.ar    1  UNL1       -0.0595
     19  C14        5.1990   -0.7940    0.8050 C.ar    1  UNL1       -0.0500
     20  C15        4.8970    0.3910    0.1450 C.ar    1  UNL1        0.0566
     21  C16        5.9600    1.4140    0.0630 C.3     1  UNL1        0.4175
     22  F1         6.4260    1.6530    1.3610 F       1  UNL1       -0.1659
     23  F2         5.6160    2.5660   -0.5540 F       1  UNL1       -0.1659
     24  F3         7.0010    0.8650   -0.6450 F       1  UNL1       -0.1659
     25  C17        3.6210    0.5150   -0.3730 C.ar    1  UNL1       -0.0288
     26 H          -0.9877   -1.8267   -1.3514 H       1  UNL1        0.0423
     27 H          -1.0811    0.0341   -1.3486 H       1  UNL1        0.0423
     28 H          -4.5552   -2.9877    0.9499 H       1  UNL1        0.1921
     29 H          -6.2133    1.2747    0.7182 H       1  UNL1        0.0625
     30 H          -5.3198    3.3574   -0.0725 H       1  UNL1        0.0618
     31 H          -3.0673    3.4576   -0.9088 H       1  UNL1        0.0618
     32 H          -1.7022    1.4428   -0.9580 H       1  UNL1        0.0624
     33 H           1.3122   -0.3599   -1.7657 H       1  UNL1        0.1548
     34 H           2.3516   -2.4075    0.5670 H       1  UNL1        0.0636
     35 H           4.5581   -2.6636    1.4587 H       1  UNL1        0.0618
     36 H           6.1473   -0.9164    1.1934 H       1  UNL1        0.0623
     37 H           3.3650    1.3777   -0.8782 H       1  UNL1        0.0642
@<TRIPOS>BOND
     1     1     2    2
     2     2     3    1
     3     2    15   am
     4     3     4    1
     5     4     5   ar
     6     4    14   ar
     7     5     6   ar
     8     6     7   ar
     9     7     8    2
    10     7     9   ar
    11     9    10   ar
    12     9    14   ar
    13    10    11   ar
    14    11    12   ar
    15    12    13   ar
    16    13    14   ar
    17    15    16    1
    18    16    17   ar
    19    16    25   ar
    20    17    18   ar
    21    18    19   ar
    22    19    20   ar
    23    20    21    1
    24    20    25   ar
    25    21    22    1
    26    21    23    1
    27    21    24    1
    28     3    26    1
    29     3    27    1
    30     6    28    1
    31    10    29    1
    32    11    30    1
    33    12    31    1
    34    13    32    1
    35    15    33    1
    36    17    34    1
    37    18    35    1
    38    19    36    1
    39    25    37    1
@<TRIPOS>MOLECULE
../data/bude_mols_rdkit_confs/molecule_16.pdb
 37 39 0 0 0
SMALL
GASTEIGER

@<TRIPOS>ATOM
      1  O1        -0.4930    0.6530   -0.6820 O.2     1  UNL1       -0.2751
      2  C1        -0.3840   -0.3230    0.0150 C.2     1  UNL1        0.2231
      3  C2         0.9540   -0.9720    0.3220 C.3     1  UNL1        0.0688
      4  C3         2.0890   -0.4350   -0.3640 C.ar    1  UNL1        0.0780
      5  N1         1.9410   -0.1600   -1.6980 N.ar    1  UNL1       -0.1748
      6  N2         2.8810    0.2970   -2.4550 N.ar    1  UNL1       -0.2425
      7  C4         4.0950    0.5200   -1.9290 C.ar    1  UNL1        0.2725
      8  O2         5.0370    0.9630   -2.6450 O.2     1  UNL1       -0.2658
      9  C5         4.3580    0.2740   -0.5760 C.ar    1  UNL1        0.0496
     10  C6         5.6230    0.4900   -0.0530 C.ar    1  UNL1       -0.0487
     11  C7         5.8590    0.2100    1.2980 C.ar    1  UNL1       -0.0610
     12  C8         4.8190   -0.2730    2.0510 C.ar    1  UNL1       -0.0611
     13  C9         3.5410   -0.4920    1.5270 C.ar    1  UNL1       -0.0521
     14  C10        3.3200   -0.2060    0.1920 C.ar    1  UNL1        0.0108
     15  N3        -1.5620   -0.9040    0.5630 N.am    1  UNL1       -0.2852
     16  C11       -2.8700   -0.5190    0.4220 C.ar    1  UNL1        0.0339
     17  C12       -3.8160   -1.5650    0.5870 C.ar    1  UNL1       -0.0405
     18  C13       -5.1530   -1.3620    0.4500 C.ar    1  UNL1       -0.0595
     19  C14       -5.6610   -0.1340    0.1480 C.ar    1  UNL1       -0.0500
     20  C15       -4.7600    0.8900   -0.0150 C.ar    1  UNL1        0.0566
     21  C16       -5.2930    2.2410   -0.3410 C.3     1  UNL1        0.4175
     22  F1        -5.8440    2.7610    0.8340 F       1  UNL1       -0.1659
     23  F2        -6.3760    2.0080   -1.1990 F       1  UNL1       -0.1659
     24  F3        -4.3780    3.0670   -0.9180 F       1  UNL1       -0.1659
     25  C17       -3.3960    0.7090    0.1160 C.ar    1  UNL1       -0.0288
     26 H           0.8797   -2.0088    0.0683 H       1  UNL1        0.0423
     27 H           1.1318   -0.7841    1.3603 H       1  UNL1        0.0423
     28 H           2.7094    0.4798   -3.4070 H       1  UNL1        0.1921
     29 H           6.3812    0.8526   -0.6518 H       1  UNL1        0.0625
     30 H           6.7900    0.3628    1.7162 H       1  UNL1        0.0618
     31 H           4.9870   -0.4839    3.0472 H       1  UNL1        0.0618
     32 H           2.7814   -0.8581    2.1219 H       1  UNL1        0.0624
     33 H          -1.4161   -1.6986    1.1256 H       1  UNL1        0.1548
     34 H          -3.4768   -2.5117    0.8189 H       1  UNL1        0.0636
     35 H          -5.7988   -2.1567    0.5777 H       1  UNL1        0.0618
     36 H          -6.6764    0.0196    0.0464 H       1  UNL1        0.0623
     37 H          -2.7626    1.5125   -0.0190 H       1  UNL1        0.0642
@<TRIPOS>BOND
     1     1     2    2
     2     2     3    1
     3     2    15   am
     4     3     4    1
     5     4     5   ar
     6     4    14   ar
     7     5     6   ar
     8     6     7   ar
     9     7     8    2
    10     7     9   ar
    11     9    10   ar
    12     9    14   ar
    13    10    11   ar
    14    11    12   ar
    15    12    13   ar
    16    13    14   ar
    17    15    16    1
    18    16    17   ar
    19    16    25   ar
    20    17    18   ar
    21    18    19   ar
    22    19    20   ar
    23    20    21    1
    24    20    25   ar
    25    21    22    1
    26    21    23    1
    27    21    24    1
    28     3    26    1
    29     3    27    1
    30     6    28    1
    31    10    29    1
    32    11    30    1
    33    12    31    1
    34    13    32    1
    35    15    33    1
    36    17    34    1
    37    18    35    1
    38    19    36    1
    39    25    37    1
@<TRIPOS>MOLECULE
../data/bude_mols_rdkit_confs/molecule_16.pdb
 37 39 0 0 0
SMALL
GASTEIGER

@<TRIPOS>ATOM
      1  O1         0.7220   -0.3640   -0.6740 O.2     1  UNL1       -0.2751
      2  C1         0.4110    0.5420    0.0870 C.2     1  UNL1        0.2231
      3  C2        -0.9990    0.9440    0.4300 C.3     1  UNL1        0.0688
      4  C3        -1.9070   -0.1360    0.1360 C.ar    1  UNL1        0.0780
      5  N1        -1.4580   -1.3640   -0.1820 N.ar    1  UNL1       -0.1748
      6  N2        -2.2600   -2.3880   -0.3620 N.ar    1  UNL1       -0.2425
      7  C4        -3.5870   -2.2880   -0.2430 C.ar    1  UNL1        0.2725
      8  O2        -4.3510   -3.2840   -0.4080 O.2     1  UNL1       -0.2658
      9  C5        -4.1740   -1.0730    0.0800 C.ar    1  UNL1        0.0496
     10  C6        -5.5310   -0.9010    0.2160 C.ar    1  UNL1       -0.0487
     11  C7        -6.0540    0.3510    0.5410 C.ar    1  UNL1       -0.0610
     12  C8        -5.1570    1.3850    0.7130 C.ar    1  UNL1       -0.0611
     13  C9        -3.7820    1.2210    0.5750 C.ar    1  UNL1       -0.0521
     14  C10       -3.2930   -0.0160    0.2600 C.ar    1  UNL1        0.0108
     15  N3         1.4510    1.3090    0.7340 N.am    1  UNL1       -0.2852
     16  C11        2.8090    1.0460    0.5510 C.ar    1  UNL1        0.0339
     17  C12        3.7410    2.0460    0.8460 C.ar    1  UNL1       -0.0405
     18  C13        5.1030    1.8120    0.7800 C.ar    1  UNL1       -0.0595
     19  C14        5.5390    0.5310    0.4050 C.ar    1  UNL1       -0.0500
     20  C15        4.6340   -0.4490    0.1140 C.ar    1  UNL1        0.0566
     21  C16        5.1170   -1.8450   -0.2610 C.3     1  UNL1        0.4175
     22  F1         4.1390   -2.6020   -0.8280 F       1  UNL1       -0.1659
     23  F2         6.2430   -1.6810   -1.0020 F       1  UNL1       -0.1659
     24  F3         5.5490   -2.4670    0.9280 F       1  UNL1       -0.1659
     25  C17        3.2810   -0.1940    0.1850 C.ar    1  UNL1       -0.0288
     26 H          -1.2723    1.8031   -0.1464 H       1  UNL1        0.0423
     27 H          -1.0538    1.1735    1.4736 H       1  UNL1        0.0423
     28 H          -1.8691   -3.2615   -0.5931 H       1  UNL1        0.1921
     29 H          -6.1664   -1.7022    0.0770 H       1  UNL1        0.0625
     30 H          -7.0699    0.4975    0.6483 H       1  UNL1        0.0618
     31 H          -5.5212    2.3200    0.9543 H       1  UNL1        0.0618
     32 H          -3.1423    2.0198    0.7082 H       1  UNL1        0.0624
     33 H           1.1902    2.0486    1.3292 H       1  UNL1        0.1548
     34 H           3.4043    2.9823    1.1199 H       1  UNL1        0.0636
     35 H           5.7803    2.5588    1.0004 H       1  UNL1        0.0618
     36 H           6.5495    0.3291    0.3490 H       1  UNL1        0.0623
     37 H           2.6107   -0.9457   -0.0401 H       1  UNL1        0.0642
@<TRIPOS>BOND
     1     1     2    2
     2     2     3    1
     3     2    15   am
     4     3     4    1
     5     4     5   ar
     6     4    14   ar
     7     5     6   ar
     8     6     7   ar
     9     7     8    2
    10     7     9   ar
    11     9    10   ar
    12     9    14   ar
    13    10    11   ar
    14    11    12   ar
    15    12    13   ar
    16    13    14   ar
    17    15    16    1
    18    16    17   ar
    19    16    25   ar
    20    17    18   ar
    21    18    19   ar
    22    19    20   ar
    23    20    21    1
    24    20    25   ar
    25    21    22    1
    26    21    23    1
    27    21    24    1
    28     3    26    1
    29     3    27    1
    30     6    28    1
    31    10    29    1
    32    11    30    1
    33    12    31    1
    34    13    32    1
    35    15    33    1
    36    17    34    1
    37    18    35    1
    38    19    36    1
    39    25    37    1
@<TRIPOS>MOLECULE
../data/bude_mols_rdkit_confs/molecule_16.pdb
 37 39 0 0 0
SMALL
GASTEIGER

@<TRIPOS>ATOM
      1  O1         0.6850    1.4110   -0.2710 O.2     1  UNL1       -0.2751
      2  C1         0.3920    0.4540   -1.0160 C.2     1  UNL1        0.2231
      3  C2        -0.8530    0.3750   -1.7620 C.3     1  UNL1        0.0688
      4  C3        -1.9330   -0.3760   -1.0620 C.ar    1  UNL1        0.0780
      5  N1        -1.9330   -1.7340   -1.2370 N.ar    1  UNL1       -0.1748
      6  N2        -2.7910   -2.5590   -0.7150 N.ar    1  UNL1       -0.2425
      7  C4        -3.7740   -2.0350    0.0600 C.ar    1  UNL1        0.2725
      8  O2        -4.6000   -2.8450    0.5670 O.2     1  UNL1       -0.2658
      9  C5        -3.8870   -0.6860    0.3130 C.ar    1  UNL1        0.0496
     10  C6        -4.9270   -0.1380    1.0470 C.ar    1  UNL1       -0.0487
     11  C7        -5.0630    1.2220    1.2190 C.ar    1  UNL1       -0.0610
     12  C8        -4.0780    2.0080    0.6220 C.ar    1  UNL1       -0.0611
     13  C9        -3.0350    1.5160   -0.0960 C.ar    1  UNL1       -0.0521
     14  C10       -2.9170    0.1320   -0.2810 C.ar    1  UNL1        0.0108
     15  N3         1.3280   -0.6350   -1.1310 N.am    1  UNL1       -0.2852
     16  C11        2.4900   -0.4830   -0.3400 C.ar    1  UNL1        0.0339
     17  C12        2.4200   -1.1820    0.8770 C.ar    1  UNL1       -0.0405
     18  C13        3.4280   -1.0320    1.7980 C.ar    1  UNL1       -0.0595
     19  C14        4.4760   -0.1990    1.4550 C.ar    1  UNL1       -0.0500
     20  C15        4.5900    0.4780    0.2760 C.ar    1  UNL1        0.0566
     21  C16        5.7110    1.3970    0.0000 C.3     1  UNL1        0.4175
     22  F1         6.2720    1.7200    1.2330 F       1  UNL1       -0.1659
     23  F2         6.7160    0.7090   -0.7080 F       1  UNL1       -0.1659
     24  F3         5.3520    2.5590   -0.6490 F       1  UNL1       -0.1659
     25  C17        3.5510    0.3300   -0.6510 C.ar    1  UNL1       -0.0288
     26 H          -0.6559   -0.1106   -2.6949 H       1  UNL1        0.0423
     27 H          -1.2039    1.3783   -1.8854 H       1  UNL1        0.0423
     28 H          -2.7300   -3.5283   -0.8759 H       1  UNL1        0.1921
     29 H          -5.6211   -0.7684    1.4781 H       1  UNL1        0.0625
     30 H          -5.8434    1.6326    1.7550 H       1  UNL1        0.0618
     31 H          -4.1459    3.0318    0.7330 H       1  UNL1        0.0618
     32 H          -2.3350    2.1565   -0.5020 H       1  UNL1        0.0624
     33 H           1.1723   -1.4163   -1.7094 H       1  UNL1        0.1548
     34 H           1.6194   -1.8018    1.0768 H       1  UNL1        0.0636
     35 H           3.4038   -1.5203    2.7069 H       1  UNL1        0.0618
     36 H           5.2331   -0.0795    2.1461 H       1  UNL1        0.0623
     37 H           3.5827    0.8255   -1.5557 H       1  UNL1        0.0642
@<TRIPOS>BOND
     1     1     2    2
     2     2     3    1
     3     2    15   am
     4     3     4    1
     5     4     5   ar
     6     4    14   ar
     7     5     6   ar
     8     6     7   ar
     9     7     8    2
    10     7     9   ar
    11     9    10   ar
    12     9    14   ar
    13    10    11   ar
    14    11    12   ar
    15    12    13   ar
    16    13    14   ar
    17    15    16    1
    18    16    17   ar
    19    16    25   ar
    20    17    18   ar
    21    18    19   ar
    22    19    20   ar
    23    20    21    1
    24    20    25   ar
    25    21    22    1
    26    21    23    1
    27    21    24    1
    28     3    26    1
    29     3    27    1
    30     6    28    1
    31    10    29    1
    32    11    30    1
    33    12    31    1
    34    13    32    1
    35    15    33    1
    36    17    34    1
    37    18    35    1
    38    19    36    1
    39    25    37    1
@<TRIPOS>MOLECULE
../data/bude_mols_rdkit_confs/molecule_16.pdb
 37 39 0 0 0
SMALL
GASTEIGER

@<TRIPOS>ATOM
      1  O1         0.7010    1.0150    1.4750 O.2     1  UNL1       -0.2751
      2  C1         0.4310    0.7520    0.3190 C.2     1  UNL1        0.2231
      3  C2        -0.7890    1.3530   -0.4310 C.3     1  UNL1        0.0688
      4  C3        -1.8380    0.3660   -0.3180 C.ar    1  UNL1        0.0780
      5  N1        -1.4740   -0.9720   -0.5220 N.ar    1  UNL1       -0.1748
      6  N2        -2.3160   -1.9440   -0.3790 N.ar    1  UNL1       -0.2425
      7  C4        -3.5920   -1.6650   -0.0270 C.ar    1  UNL1        0.2725
      8  O2        -4.4410   -2.5390    0.1190 O.2     1  UNL1       -0.2658
      9  C5        -4.0270   -0.3470    0.1950 C.ar    1  UNL1        0.0496
     10  C6        -5.3300   -0.0850    0.5000 C.ar    1  UNL1       -0.0487
     11  C7        -5.7300    1.2470    0.6570 C.ar    1  UNL1       -0.0610
     12  C8        -4.8150    2.2740    0.5110 C.ar    1  UNL1       -0.0611
     13  C9        -3.5150    1.9600    0.2070 C.ar    1  UNL1       -0.0521
     14  C10       -3.0780    0.6370    0.0330 C.ar    1  UNL1        0.0108
     15  N3         1.1800   -0.1080   -0.4690 N.am    1  UNL1       -0.2852
     16  C11        2.3920   -0.7220   -0.1120 C.ar    1  UNL1        0.0339
     17  C12        2.6740   -2.0400   -0.1420 C.ar    1  UNL1       -0.0405
     18  C13        4.0030   -2.4490   -0.0640 C.ar    1  UNL1       -0.0595
     19  C14        5.0610   -1.5350    0.0490 C.ar    1  UNL1       -0.0500
     20  C15        4.7860   -0.1830    0.0760 C.ar    1  UNL1        0.0566
     21  C16        5.8830    0.8690    0.0630 C.3     1  UNL1        0.4175
     22  F1         5.2380    2.0450    0.4490 F       1  UNL1       -0.1659
     23  F2         6.9760    0.5440    0.7650 F       1  UNL1       -0.1659
     24  F3         6.1170    1.0230   -1.3290 F       1  UNL1       -0.1659
     25  C17        3.4880    0.1930    0.0010 C.ar    1  UNL1       -0.0288
     26 H          -0.5476    1.5258   -1.4590 H       1  UNL1        0.0423
     27 H          -1.0843    2.2944   -0.0170 H       1  UNL1        0.0423
     28 H          -2.0315   -2.8752   -0.5246 H       1  UNL1        0.1921
     29 H          -6.0084   -0.8544    0.6129 H       1  UNL1        0.0625
     30 H          -6.7133    1.4642    0.8830 H       1  UNL1        0.0618
     31 H          -5.1049    3.2574    0.6285 H       1  UNL1        0.0618
     32 H          -2.8314    2.7259    0.1021 H       1  UNL1        0.0624
     33 H           0.8282   -0.3080   -1.3665 H       1  UNL1        0.1548
     34 H           1.9160   -2.7358   -0.2216 H       1  UNL1        0.0636
     35 H           4.2165   -3.4583   -0.0902 H       1  UNL1        0.0618
     36 H           6.0351   -1.8702    0.1113 H       1  UNL1        0.0623
     37 H           3.2746    1.2024    0.0269 H       1  UNL1        0.0642
@<TRIPOS>BOND
     1     1     2    2
     2     2     3    1
     3     2    15   am
     4     3     4    1
     5     4     5   ar
     6     4    14   ar
     7     5     6   ar
     8     6     7   ar
     9     7     8    2
    10     7     9   ar
    11     9    10   ar
    12     9    14   ar
    13    10    11   ar
    14    11    12   ar
    15    12    13   ar
    16    13    14   ar
    17    15    16    1
    18    16    17   ar
    19    16    25   ar
    20    17    18   ar
    21    18    19   ar
    22    19    20   ar
    23    20    21    1
    24    20    25   ar
    25    21    22    1
    26    21    23    1
    27    21    24    1
    28     3    26    1
    29     3    27    1
    30     6    28    1
    31    10    29    1
    32    11    30    1
    33    12    31    1
    34    13    32    1
    35    15    33    1
    36    17    34    1
    37    18    35    1
    38    19    36    1
    39    25    37    1
@<TRIPOS>MOLECULE
../data/bude_mols_rdkit_confs/molecule_16.pdb
 37 39 0 0 0
SMALL
GASTEIGER

@<TRIPOS>ATOM
      1  O1        -0.2380   -1.0940    0.3840 O.2     1  UNL1       -0.2751
      2  C1        -0.2360   -0.3720   -0.6190 C.2     1  UNL1        0.2231
      3  C2         0.9940   -0.0060   -1.4110 C.3     1  UNL1        0.0688
      4  C3         2.2490   -0.5340   -0.9180 C.ar    1  UNL1        0.0780
      5  N1         2.5940   -1.8450   -1.2350 N.ar    1  UNL1       -0.1748
      6  N2         3.6910   -2.4190   -0.8140 N.ar    1  UNL1       -0.2425
      7  C4         4.5750   -1.7900   -0.0460 C.ar    1  UNL1        0.2725
      8  O2         5.6550   -2.3200    0.3800 O.2     1  UNL1       -0.2658
      9  C5         4.3390   -0.4900    0.3230 C.ar    1  UNL1        0.0496
     10  C6         5.2880    0.1840    1.0770 C.ar    1  UNL1       -0.0487
     11  C7         5.0740    1.5000    1.4020 C.ar    1  UNL1       -0.0610
     12  C8         3.9270    2.1080    0.9780 C.ar    1  UNL1       -0.0611
     13  C9         2.9610    1.4520    0.2210 C.ar    1  UNL1       -0.0521
     14  C10        3.1560    0.1330   -0.1220 C.ar    1  UNL1        0.0108
     15  N3        -1.4740    0.1710   -1.1090 N.am    1  UNL1       -0.2852
     16  C11       -2.7330   -0.0990   -0.5450 C.ar    1  UNL1        0.0339
     17  C12       -3.2640   -1.4050   -0.5860 C.ar    1  UNL1       -0.0405
     18  C13       -4.4880   -1.7550   -0.1160 C.ar    1  UNL1       -0.0595
     19  C14       -5.2660   -0.7800    0.4350 C.ar    1  UNL1       -0.0500
     20  C15       -4.8090    0.5410    0.5110 C.ar    1  UNL1        0.0566
     21  C16       -5.6990    1.5410    1.1030 C.3     1  UNL1        0.4175
     22  F1        -5.1190    2.0300    2.2370 F       1  UNL1       -0.1659
     23  F2        -5.9420    2.6070    0.2670 F       1  UNL1       -0.1659
     24  F3        -6.9180    1.0110    1.4300 F       1  UNL1       -0.1659
     25  C17       -3.5650    0.8610    0.0280 C.ar    1  UNL1       -0.0288
     26 H           1.0701    1.0612   -1.4223 H       1  UNL1        0.0423
     27 H           0.8561   -0.4464   -2.3764 H       1  UNL1        0.0423
     28 H           3.8687   -3.3514   -1.0755 H       1  UNL1        0.1921
     29 H           6.1450   -0.2984    1.3900 H       1  UNL1        0.0625
     30 H           5.7691    2.0221    1.9582 H       1  UNL1        0.0618
     31 H           3.7699    3.0964    1.2298 H       1  UNL1        0.0618
     32 H           2.1079    1.9487   -0.0799 H       1  UNL1        0.0624
     33 H          -1.4376    0.7702   -1.8893 H       1  UNL1        0.1548
     34 H          -2.6804   -2.1470   -1.0030 H       1  UNL1        0.0636
     35 H          -4.8203   -2.7303   -0.1739 H       1  UNL1        0.0618
     36 H          -6.2015   -1.0185    0.7998 H       1  UNL1        0.0623
     37 H          -3.2372    1.8375    0.0907 H       1  UNL1        0.0642
@<TRIPOS>BOND
     1     1     2    2
     2     2     3    1
     3     2    15   am
     4     3     4    1
     5     4     5   ar
     6     4    14   ar
     7     5     6   ar
     8     6     7   ar
     9     7     8    2
    10     7     9   ar
    11     9    10   ar
    12     9    14   ar
    13    10    11   ar
    14    11    12   ar
    15    12    13   ar
    16    13    14   ar
    17    15    16    1
    18    16    17   ar
    19    16    25   ar
    20    17    18   ar
    21    18    19   ar
    22    19    20   ar
    23    20    21    1
    24    20    25   ar
    25    21    22    1
    26    21    23    1
    27    21    24    1
    28     3    26    1
    29     3    27    1
    30     6    28    1
    31    10    29    1
    32    11    30    1
    33    12    31    1
    34    13    32    1
    35    15    33    1
    36    17    34    1
    37    18    35    1
    38    19    36    1
    39    25    37    1
@<TRIPOS>MOLECULE
../data/bude_mols_rdkit_confs/molecule_16.pdb
 37 39 0 0 0
SMALL
GASTEIGER

@<TRIPOS>ATOM
      1  O1        -0.2720   -0.5340    0.5960 O.2     1  UNL1       -0.2751
      2  C1         0.0870    0.6120    0.3160 C.2     1  UNL1        0.2231
      3  C2        -0.9710    1.6860    0.3110 C.3     1  UNL1        0.0688
      4  C3        -2.2710    1.1610    0.7470 C.ar    1  UNL1        0.0780
      5  N1        -2.7330    1.4180    2.0060 N.ar    1  UNL1       -0.1748
      6  N2        -3.9010    0.9510    2.4220 N.ar    1  UNL1       -0.2425
      7  C4        -4.6980    0.1970    1.6290 C.ar    1  UNL1        0.2725
      8  O2        -5.7950   -0.2360    2.0220 O.2     1  UNL1       -0.2658
      9  C5        -4.2870   -0.1000    0.3480 C.ar    1  UNL1        0.0496
     10  C6        -5.0450   -0.8650   -0.5060 C.ar    1  UNL1       -0.0487
     11  C7        -4.6090   -1.1540   -1.7980 C.ar    1  UNL1       -0.0610
     12  C8        -3.3980   -0.6750   -2.2460 C.ar    1  UNL1       -0.0611
     13  C9        -2.6530    0.0920   -1.3680 C.ar    1  UNL1       -0.0521
     14  C10       -3.0560    0.3980   -0.0830 C.ar    1  UNL1        0.0108
     15  N3         1.4230    0.9130    0.0180 N.am    1  UNL1       -0.2852
     16  C11        2.5160    0.0390   -0.0180 C.ar    1  UNL1        0.0339
     17  C12        2.3750   -1.3170    0.0630 C.ar    1  UNL1       -0.0405
     18  C13        3.4980   -2.1480    0.0220 C.ar    1  UNL1       -0.0595
     19  C14        4.7360   -1.6050   -0.1010 C.ar    1  UNL1       -0.0500
     20  C15        4.8890   -0.2440   -0.1830 C.ar    1  UNL1        0.0566
     21  C16        6.2350    0.3770   -0.3150 C.3     1  UNL1        0.4175
     22  F1         6.1760    1.6520    0.2210 F       1  UNL1       -0.1659
     23  F2         7.2050   -0.3590    0.3370 F       1  UNL1       -0.1659
     24  F3         6.5170    0.4600   -1.6660 F       1  UNL1       -0.1659
     25  C17        3.8010    0.5900   -0.1440 C.ar    1  UNL1       -0.0288
     26 H          -1.0677    2.0745   -0.6813 H       1  UNL1        0.0423
     27 H          -0.6730    2.4548    0.9930 H       1  UNL1        0.0423
     28 H          -4.1988    1.1590    3.3370 H       1  UNL1        0.1921
     29 H          -5.9542   -1.2324   -0.1845 H       1  UNL1        0.0625
     30 H          -5.1963   -1.7295   -2.4217 H       1  UNL1        0.0618
     31 H          -3.0596   -0.8801   -3.1991 H       1  UNL1        0.0618
     32 H          -1.7435    0.4565   -1.6921 H       1  UNL1        0.0624
     33 H           1.6167    1.8552   -0.1919 H       1  UNL1        0.1548
     34 H           1.4339   -1.7304    0.1550 H       1  UNL1        0.0636
     35 H           3.3863   -3.1720    0.0851 H       1  UNL1        0.0618
     36 H           5.5654   -2.2183   -0.1330 H       1  UNL1        0.0623
     37 H           3.9257    1.6125   -0.2067 H       1  UNL1        0.0642
@<TRIPOS>BOND
     1     1     2    2
     2     2     3    1
     3     2    15   am
     4     3     4    1
     5     4     5   ar
     6     4    14   ar
     7     5     6   ar
     8     6     7   ar
     9     7     8    2
    10     7     9   ar
    11     9    10   ar
    12     9    14   ar
    13    10    11   ar
    14    11    12   ar
    15    12    13   ar
    16    13    14   ar
    17    15    16    1
    18    16    17   ar
    19    16    25   ar
    20    17    18   ar
    21    18    19   ar
    22    19    20   ar
    23    20    21    1
    24    20    25   ar
    25    21    22    1
    26    21    23    1
    27    21    24    1
    28     3    26    1
    29     3    27    1
    30     6    28    1
    31    10    29    1
    32    11    30    1
    33    12    31    1
    34    13    32    1
    35    15    33    1
    36    17    34    1
    37    18    35    1
    38    19    36    1
    39    25    37    1
@<TRIPOS>MOLECULE
../data/bude_mols_rdkit_confs/molecule_16.pdb
 37 39 0 0 0
SMALL
GASTEIGER

@<TRIPOS>ATOM
      1  O1         0.7650    0.8150    0.9090 O.2     1  UNL1       -0.2751
      2  C1         0.4620    0.6610   -0.3290 C.2     1  UNL1        0.2231
      3  C2        -0.9290    1.1480   -0.6900 C.3     1  UNL1        0.0688
      4  C3        -1.8290    0.2470   -0.0000 C.ar    1  UNL1        0.0780
      5  N1        -1.3440   -0.9070    0.5540 N.ar    1  UNL1       -0.1748
      6  N2        -2.1030   -1.8020    1.1800 N.ar    1  UNL1       -0.2425
      7  C4        -3.4150   -1.6690    1.3210 C.ar    1  UNL1        0.2725
      8  O2        -4.0970   -2.5120    1.8860 O.2     1  UNL1       -0.2658
      9  C5        -4.0330   -0.5260    0.7900 C.ar    1  UNL1        0.0496
     10  C6        -5.3810   -0.3590    0.8720 C.ar    1  UNL1       -0.0487
     11  C7        -5.9910    0.7620    0.3300 C.ar    1  UNL1       -0.0610
     12  C8        -5.1270    1.6650   -0.2810 C.ar    1  UNL1       -0.0611
     13  C9        -3.7930    1.4820   -0.3640 C.ar    1  UNL1       -0.0521
     14  C10       -3.1850    0.3580    0.1730 C.ar    1  UNL1        0.0108
     15  N3         1.3480    0.0770   -1.2450 N.am    1  UNL1       -0.2852
     16  C11        2.6190   -0.3590   -0.7710 C.ar    1  UNL1        0.0339
     17  C12        2.9910   -1.6500   -0.8710 C.ar    1  UNL1       -0.0405
     18  C13        4.2450   -2.1340   -0.4630 C.ar    1  UNL1       -0.0595
     19  C14        5.0990   -1.2050    0.0740 C.ar    1  UNL1       -0.0500
     20  C15        4.7530    0.1420    0.2080 C.ar    1  UNL1        0.0566
     21  C16        5.6750    1.1470    0.8120 C.3     1  UNL1        0.4175
     22  F1         6.7120    0.4330    1.3540 F       1  UNL1       -0.1659
     23  F2         5.0190    1.9690    1.6920 F       1  UNL1       -0.1659
     24  F3         6.2400    1.8220   -0.2620 F       1  UNL1       -0.1659
     25  C17        3.4850    0.5530   -0.2250 C.ar    1  UNL1       -0.0288
     26 H          -1.0831    1.0974   -1.7476 H       1  UNL1        0.0423
     27 H          -1.0849    2.1682   -0.4076 H       1  UNL1        0.0423
     28 H          -1.6700   -2.6018    1.5569 H       1  UNL1        0.1921
     29 H          -5.9559   -1.0750    1.3430 H       1  UNL1        0.0625
     30 H          -7.0105    0.9151    0.3764 H       1  UNL1        0.0618
     31 H          -5.5285    2.5217   -0.6933 H       1  UNL1        0.0618
     32 H          -3.2135    2.1931   -0.8368 H       1  UNL1        0.0624
     33 H           1.0985   -0.0292   -2.1914 H       1  UNL1        0.1548
     34 H           2.3164   -2.3214   -1.2700 H       1  UNL1        0.0636
     35 H           4.5074   -3.1272   -0.5613 H       1  UNL1        0.0618
     36 H           6.0318   -1.5123    0.3909 H       1  UNL1        0.0623
     37 H           3.2033    1.5415   -0.1329 H       1  UNL1        0.0642
@<TRIPOS>BOND
     1     1     2    2
     2     2     3    1
     3     2    15   am
     4     3     4    1
     5     4     5   ar
     6     4    14   ar
     7     5     6   ar
     8     6     7   ar
     9     7     8    2
    10     7     9   ar
    11     9    10   ar
    12     9    14   ar
    13    10    11   ar
    14    11    12   ar
    15    12    13   ar
    16    13    14   ar
    17    15    16    1
    18    16    17   ar
    19    16    25   ar
    20    17    18   ar
    21    18    19   ar
    22    19    20   ar
    23    20    21    1
    24    20    25   ar
    25    21    22    1
    26    21    23    1
    27    21    24    1
    28     3    26    1
    29     3    27    1
    30     6    28    1
    31    10    29    1
    32    11    30    1
    33    12    31    1
    34    13    32    1
    35    15    33    1
    36    17    34    1
    37    18    35    1
    38    19    36    1
    39    25    37    1
@<TRIPOS>MOLECULE
../data/bude_mols_rdkit_confs/molecule_16.pdb
 37 39 0 0 0
SMALL
GASTEIGER

@<TRIPOS>ATOM
      1  O1         1.4090   -0.9360   -1.3350 O.2     1  UNL1       -0.2751
      2  C1         0.4590   -0.8230   -0.4840 C.2     1  UNL1        0.2231
      3  C2        -0.8360   -1.2000   -0.9650 C.3     1  UNL1        0.0688
      4  C3        -2.0830   -1.2310   -0.2900 C.ar    1  UNL1        0.0780
      5  N1        -2.6420   -2.3750    0.1850 N.ar    1  UNL1       -0.1748
      6  N2        -3.8600   -2.4280    0.6970 N.ar    1  UNL1       -0.2425
      7  C4        -4.6540   -1.3530    0.8040 C.ar    1  UNL1        0.2725
      8  O2        -5.8210   -1.4110    1.2980 O.2     1  UNL1       -0.2658
      9  C5        -4.1530   -0.1370    0.3380 C.ar    1  UNL1        0.0496
     10  C6        -4.9440    0.9720    0.3990 C.ar    1  UNL1       -0.0487
     11  C7        -4.5070    2.2120   -0.0820 C.ar    1  UNL1       -0.0610
     12  C8        -3.2620    2.2710   -0.6120 C.ar    1  UNL1       -0.0611
     13  C9        -2.4310    1.1480   -0.6900 C.ar    1  UNL1       -0.0521
     14  C10       -2.8680   -0.0810   -0.2090 C.ar    1  UNL1        0.0108
     15  N3         0.9190   -0.3390    0.7870 N.am    1  UNL1       -0.2852
     16  C11        2.3540   -0.1470    0.8180 C.ar    1  UNL1        0.0339
     17  C12        3.0690   -1.1980    1.4370 C.ar    1  UNL1       -0.0405
     18  C13        4.4640   -1.2470    1.3300 C.ar    1  UNL1       -0.0595
     19  C14        5.1450   -0.2770    0.6330 C.ar    1  UNL1       -0.0500
     20  C15        4.4540    0.7410    0.0550 C.ar    1  UNL1        0.0566
     21  C16        5.1990    1.7360   -0.7410 C.3     1  UNL1        0.4175
     22  F1         4.5220    2.0540   -1.9010 F       1  UNL1       -0.1659
     23  F2         5.4880    2.8650   -0.0500 F       1  UNL1       -0.1659
     24  F3         6.4060    1.1720   -1.1900 F       1  UNL1       -0.1659
     25  C17        3.0660    0.7880    0.1560 C.ar    1  UNL1       -0.0288
     26 H          -0.7033   -2.2021   -1.3159 H       1  UNL1        0.0423
     27 H          -1.0215   -0.3351   -1.5671 H       1  UNL1        0.0423
     28 H          -4.1992   -3.2962    1.0140 H       1  UNL1        0.1921
     29 H          -5.8877    0.8954    0.8097 H       1  UNL1        0.0625
     30 H          -5.1098    3.0483   -0.0346 H       1  UNL1        0.0618
     31 H          -2.9147    3.1744   -0.9703 H       1  UNL1        0.0618
     32 H          -1.4904    1.2323   -1.1061 H       1  UNL1        0.0624
     33 H           0.3256   -0.1580    1.5515 H       1  UNL1        0.1548
     34 H           2.5643   -1.9265    1.9658 H       1  UNL1        0.0636
     35 H           4.9852   -2.0170    1.7777 H       1  UNL1        0.0618
     36 H           6.1726   -0.3214    0.5493 H       1  UNL1        0.0623
     37 H           2.5623    1.5687   -0.2932 H       1  UNL1        0.0642
@<TRIPOS>BOND
     1     1     2    2
     2     2     3    1
     3     2    15   am
     4     3     4    1
     5     4     5   ar
     6     4    14   ar
     7     5     6   ar
     8     6     7   ar
     9     7     8    2
    10     7     9   ar
    11     9    10   ar
    12     9    14   ar
    13    10    11   ar
    14    11    12   ar
    15    12    13   ar
    16    13    14   ar
    17    15    16    1
    18    16    17   ar
    19    16    25   ar
    20    17    18   ar
    21    18    19   ar
    22    19    20   ar
    23    20    21    1
    24    20    25   ar
    25    21    22    1
    26    21    23    1
    27    21    24    1
    28     3    26    1
    29     3    27    1
    30     6    28    1
    31    10    29    1
    32    11    30    1
    33    12    31    1
    34    13    32    1
    35    15    33    1
    36    17    34    1
    37    18    35    1
    38    19    36    1
    39    25    37    1
@<TRIPOS>MOLECULE
../data/bude_mols_rdkit_confs/molecule_16.pdb
 37 39 0 0 0
SMALL
GASTEIGER

@<TRIPOS>ATOM
      1  O1        -0.0110   -0.0340   -0.4710 O.2     1  UNL1       -0.2751
      2  C1         0.1750    0.2160    0.7340 C.2     1  UNL1        0.2231
      3  C2        -0.9320    0.0410    1.7530 C.3     1  UNL1        0.0688
      4  C3        -2.0370   -0.6990    1.1230 C.ar    1  UNL1        0.0780
      5  N1        -2.0160   -2.0810    1.1930 N.ar    1  UNL1       -0.1748
      6  N2        -2.9070   -2.8420    0.6030 N.ar    1  UNL1       -0.2425
      7  C4        -3.9230   -2.3370   -0.1240 C.ar    1  UNL1        0.2725
      8  O2        -4.7960   -3.0090   -0.7100 O.2     1  UNL1       -0.2658
      9  C5        -4.0170   -0.9500   -0.2420 C.ar    1  UNL1        0.0496
     10  C6        -5.0380   -0.3800   -0.9500 C.ar    1  UNL1       -0.0487
     11  C7        -5.1630    0.9850   -1.0630 C.ar    1  UNL1       -0.0610
     12  C8        -4.1960    1.7700   -0.4210 C.ar    1  UNL1       -0.0611
     13  C9        -3.1520    1.2290    0.3000 C.ar    1  UNL1       -0.0521
     14  C10       -3.0430   -0.1470    0.4040 C.ar    1  UNL1        0.0108
     15  N3         1.4490    0.6510    1.1790 N.am    1  UNL1       -0.2852
     16  C11        2.5360    0.7520    0.2500 C.ar    1  UNL1        0.0339
     17  C12        2.4810    1.3680   -0.9620 C.ar    1  UNL1       -0.0405
     18  C13        3.5280    1.3540   -1.8520 C.ar    1  UNL1       -0.0595
     19  C14        4.7010    0.6950   -1.5320 C.ar    1  UNL1       -0.0500
     20  C15        4.7770    0.0700   -0.3190 C.ar    1  UNL1        0.0566
     21  C16        5.9900   -0.6830    0.0890 C.3     1  UNL1        0.4175
     22  F1         5.6410   -2.0450    0.0740 F       1  UNL1       -0.1659
     23  F2         7.0420   -0.4400   -0.7650 F       1  UNL1       -0.1659
     24  F3         6.2660   -0.2750    1.3770 F       1  UNL1       -0.1659
     25  C17        3.7350    0.0860    0.5650 C.ar    1  UNL1       -0.0288
     26 H          -1.2788    1.0000    2.0769 H       1  UNL1        0.0423
     27 H          -0.5664   -0.4997    2.6009 H       1  UNL1        0.0423
     28 H          -2.8304   -3.8192    0.6949 H       1  UNL1        0.1921
     29 H          -5.7321   -0.9889   -1.4111 H       1  UNL1        0.0625
     30 H          -5.9354    1.4125   -1.5974 H       1  UNL1        0.0618
     31 H          -4.2680    2.7971   -0.4906 H       1  UNL1        0.0618
     32 H          -2.4599    1.8432    0.7568 H       1  UNL1        0.0624
     33 H           1.5870    0.8836    2.1256 H       1  UNL1        0.1548
     34 H           1.6164    1.8669   -1.2240 H       1  UNL1        0.0636
     35 H           3.4388    1.8358   -2.7602 H       1  UNL1        0.0618
     36 H           5.4958    0.6758   -2.1900 H       1  UNL1        0.0623
     37 H           3.8283   -0.3954    1.4731 H       1  UNL1        0.0642
@<TRIPOS>BOND
     1     1     2    2
     2     2     3    1
     3     2    15   am
     4     3     4    1
     5     4     5   ar
     6     4    14   ar
     7     5     6   ar
     8     6     7   ar
     9     7     8    2
    10     7     9   ar
    11     9    10   ar
    12     9    14   ar
    13    10    11   ar
    14    11    12   ar
    15    12    13   ar
    16    13    14   ar
    17    15    16    1
    18    16    17   ar
    19    16    25   ar
    20    17    18   ar
    21    18    19   ar
    22    19    20   ar
    23    20    21    1
    24    20    25   ar
    25    21    22    1
    26    21    23    1
    27    21    24    1
    28     3    26    1
    29     3    27    1
    30     6    28    1
    31    10    29    1
    32    11    30    1
    33    12    31    1
    34    13    32    1
    35    15    33    1
    36    17    34    1
    37    18    35    1
    38    19    36    1
    39    25    37    1
@<TRIPOS>MOLECULE
../data/bude_mols_rdkit_confs/molecule_16.pdb
 37 39 0 0 0
SMALL
GASTEIGER

@<TRIPOS>ATOM
      1  O1         0.5440    1.1840   -1.1870 O.2     1  UNL1       -0.2751
      2  C1         0.3240    0.0920   -0.5480 C.2     1  UNL1        0.2231
      3  C2        -0.9950   -0.4600   -0.6110 C.3     1  UNL1        0.0688
      4  C3        -2.0370    0.1480    0.1830 C.ar    1  UNL1        0.0780
      5  N1        -1.7010    0.9300    1.2290 N.ar    1  UNL1       -0.1748
      6  N2        -2.5510    1.5060    2.0250 N.ar    1  UNL1       -0.2425
      7  C4        -3.8710    1.3580    1.8630 C.ar    1  UNL1        0.2725
      8  O2        -4.7090    1.9180    2.6530 O.2     1  UNL1       -0.2658
      9  C5        -4.3280    0.5730    0.8170 C.ar    1  UNL1        0.0496
     10  C6        -5.7160    0.3690    0.5950 C.ar    1  UNL1       -0.0487
     11  C7        -6.0840   -0.4170   -0.4420 C.ar    1  UNL1       -0.0610
     12  C8        -5.1440   -1.0050   -1.2690 C.ar    1  UNL1       -0.0611
     13  C9        -3.8070   -0.8140   -1.0670 C.ar    1  UNL1       -0.0521
     14  C10       -3.3930   -0.0190   -0.0080 C.ar    1  UNL1        0.0108
     15  N3         1.4750   -0.4490    0.1420 N.am    1  UNL1       -0.2852
     16  C11        2.7900    0.0710    0.1420 C.ar    1  UNL1        0.0339
     17  C12        3.1110    1.3630    0.4240 C.ar    1  UNL1       -0.0405
     18  C13        4.3930    1.8400    0.3350 C.ar    1  UNL1       -0.0595
     19  C14        5.4450    1.0030   -0.0600 C.ar    1  UNL1       -0.0500
     20  C15        5.1130   -0.2950   -0.3460 C.ar    1  UNL1        0.0566
     21  C16        6.1660   -1.3070   -0.7630 C.3     1  UNL1        0.4175
     22  F1         5.5450   -2.4320   -1.1750 F       1  UNL1       -0.1659
     23  F2         6.9860   -1.5170    0.3390 F       1  UNL1       -0.1659
     24  F3         6.8630   -0.7480   -1.8250 F       1  UNL1       -0.1659
     25  C17        3.8400   -0.7650   -0.2490 C.ar    1  UNL1       -0.0288
     26 H          -0.9235   -1.4835   -0.3073 H       1  UNL1        0.0423
     27 H          -1.3023   -0.2874   -1.6213 H       1  UNL1        0.0423
     28 H          -2.2164    2.0639    2.7640 H       1  UNL1        0.1921
     29 H          -6.4223    0.8074    1.2066 H       1  UNL1        0.0625
     30 H          -7.0871   -0.5816   -0.6201 H       1  UNL1        0.0618
     31 H          -5.4586   -1.5985   -2.0525 H       1  UNL1        0.0618
     32 H          -3.1147   -1.2545   -1.6929 H       1  UNL1        0.0624
     33 H           1.3266   -1.2676    0.6684 H       1  UNL1        0.1548
     34 H           2.3605    2.0084    0.7160 H       1  UNL1        0.0636
     35 H           4.5858    2.8281    0.5618 H       1  UNL1        0.0618
     36 H           6.4160    1.3453   -0.1315 H       1  UNL1        0.0623
     37 H           3.6463   -1.7548   -0.4676 H       1  UNL1        0.0642
@<TRIPOS>BOND
     1     1     2    2
     2     2     3    1
     3     2    15   am
     4     3     4    1
     5     4     5   ar
     6     4    14   ar
     7     5     6   ar
     8     6     7   ar
     9     7     8    2
    10     7     9   ar
    11     9    10   ar
    12     9    14   ar
    13    10    11   ar
    14    11    12   ar
    15    12    13   ar
    16    13    14   ar
    17    15    16    1
    18    16    17   ar
    19    16    25   ar
    20    17    18   ar
    21    18    19   ar
    22    19    20   ar
    23    20    21    1
    24    20    25   ar
    25    21    22    1
    26    21    23    1
    27    21    24    1
    28     3    26    1
    29     3    27    1
    30     6    28    1
    31    10    29    1
    32    11    30    1
    33    12    31    1
    34    13    32    1
    35    15    33    1
    36    17    34    1
    37    18    35    1
    38    19    36    1
    39    25    37    1
