@<TRIPOS>MOLECULE
../data/bude_mols_rdkit_confs/molecule_13.pdb
 31 33 0 0 0
SMALL
GASTEIGER

@<TRIPOS>ATOM
      1  C1         2.2320    0.9130   -2.1010 C.3     1  UNL1       -0.0397
      2  C2         2.3190   -0.0010   -0.9350 C.ar    1  UNL1       -0.0487
      3  C3         3.5070   -0.5390   -0.5340 C.ar    1  UNL1       -0.0587
      4  C4         3.5480   -1.3870    0.5570 C.ar    1  UNL1       -0.0597
      5  C5         2.4350   -1.7210    1.2690 C.ar    1  UNL1       -0.0393
      6  C6         1.2060   -1.1750    0.8690 C.ar    1  UNL1        0.0483
      7  N1         0.1030   -1.5600    1.6580 N.pl3   1  UNL1       -0.2162
      8  S1        -1.0140   -0.4040    2.2250 S.O2    1  UNL1        0.0745
      9  O1        -2.1060   -1.0460    3.0480 O.2     1  UNL1       -0.1499
     10  O2        -0.3150    0.6570    3.0550 O.2     1  UNL1       -0.1499
     11  C7        -1.7910    0.3770    0.8910 C.ar    1  UNL1        0.1365
     12  C8        -1.6770    1.7460    0.7630 C.ar    1  UNL1       -0.0328
     13  C9        -2.2670    2.4530   -0.2510 C.ar    1  UNL1       -0.0577
     14  C10       -3.0020    1.6900   -1.1630 C.ar    1  UNL1       -0.0334
     15  C11       -3.1040    0.3190   -1.0180 C.ar    1  UNL1        0.1018
     16  N2        -3.8660   -0.4680   -1.9630 N.ar    1  UNL1       -0.1907
     17  S2        -3.6560   -2.0830   -1.3080 S.2     1  UNL1        0.1165
     18  N3        -2.6980   -1.6990    0.0100 N.ar    1  UNL1       -0.1888
     19  C12       -2.5450   -0.3320   -0.0590 C.ar    1  UNL1        0.1264
     20  C13        1.1710   -0.3350   -0.2140 C.ar    1  UNL1       -0.0364
     21 H           3.2066    1.0489   -2.5212 H       1  UNL1        0.0278
     22 H           1.8450    1.8590   -1.7845 H       1  UNL1        0.0278
     23 H           1.5817    0.4901   -2.8380 H       1  UNL1        0.0278
     24 H           4.3747   -0.3130   -1.0450 H       1  UNL1        0.0620
     25 H           4.4571   -1.7826    0.8435 H       1  UNL1        0.0618
     26 H           2.4945   -2.3574    2.0793 H       1  UNL1        0.0636
     27 H          -0.0239   -2.5096    1.8846 H       1  UNL1        0.1737
     28 H          -1.1215    2.2612    1.4637 H       1  UNL1        0.0638
     29 H          -2.1753    3.4774   -0.3358 H       1  UNL1        0.0619
     30 H          -3.4740    2.1557   -1.9538 H       1  UNL1        0.0640
     31 H           0.2652    0.0640   -0.5062 H       1  UNL1        0.0639
@<TRIPOS>BOND
     1     1     2    1
     2     2     3   ar
     3     2    20   ar
     4     3     4   ar
     5     4     5   ar
     6     5     6   ar
     7     6     7    1
     8     6    20   ar
     9     7     8    1
    10     8     9    2
    11     8    10    2
    12     8    11    1
    13    11    12   ar
    14    11    19   ar
    15    12    13   ar
    16    13    14   ar
    17    14    15   ar
    18    15    16   ar
    19    15    19   ar
    20    16    17   ar
    21    17    18   ar
    22    18    19   ar
    23     1    21    1
    24     1    22    1
    25     1    23    1
    26     3    24    1
    27     4    25    1
    28     5    26    1
    29     7    27    1
    30    12    28    1
    31    13    29    1
    32    14    30    1
    33    20    31    1
@<TRIPOS>MOLECULE
../data/bude_mols_rdkit_confs/molecule_13.pdb
 31 33 0 0 0
SMALL
GASTEIGER

@<TRIPOS>ATOM
      1  C1         3.4550   -0.3210   -2.2790 C.3     1  UNL1       -0.0397
      2  C2         2.8450   -0.2620   -0.9070 C.ar    1  UNL1       -0.0487
      3  C3         3.4030    0.6400   -0.0170 C.ar    1  UNL1       -0.0587
      4  C4         2.8650    0.7150    1.2450 C.ar    1  UNL1       -0.0597
      5  C5         1.8020   -0.1020    1.5760 C.ar    1  UNL1       -0.0393
      6  C6         1.2360   -0.9970    0.7180 C.ar    1  UNL1        0.0483
      7  N1         0.1410   -1.8450    1.0450 N.pl3   1  UNL1       -0.2162
      8  S1        -1.2440   -1.2220    1.8830 S.O2    1  UNL1        0.0745
      9  O1        -0.7540   -0.7240    3.2120 O.2     1  UNL1       -0.1499
     10  O2        -2.1750   -2.3840    2.2150 O.2     1  UNL1       -0.1499
     11  C7        -2.0570    0.0040    1.0020 C.ar    1  UNL1        0.1365
     12  C8        -2.2200    1.2800    1.4810 C.ar    1  UNL1       -0.0328
     13  C9        -2.8900    2.2480    0.7270 C.ar    1  UNL1       -0.0577
     14  C10       -3.3970    1.9220   -0.5180 C.ar    1  UNL1       -0.0334
     15  C11       -3.2130    0.6310   -0.9640 C.ar    1  UNL1        0.1018
     16  N2        -3.7190    0.2330   -2.2530 N.ar    1  UNL1       -0.1907
     17  S2        -3.3040   -1.3940   -2.4390 S.2     1  UNL1        0.1165
     18  N3        -2.4580   -1.5580   -0.8150 N.ar    1  UNL1       -0.1888
     19  C12       -2.5940   -0.2590   -0.2640 C.ar    1  UNL1        0.1264
     20  C13        1.7840   -1.0700   -0.5610 C.ar    1  UNL1       -0.0364
     21 H           4.2600    0.3811   -2.3419 H       1  UNL1        0.0278
     22 H           2.7124   -0.0787   -3.0102 H       1  UNL1        0.0278
     23 H           3.8270   -1.3075   -2.4618 H       1  UNL1        0.0278
     24 H           4.1981    1.2373   -0.2929 H       1  UNL1        0.0620
     25 H           3.2512    1.3749    1.9382 H       1  UNL1        0.0618
     26 H           1.4132   -0.0306    2.5293 H       1  UNL1        0.0636
     27 H           0.1699   -2.7962    0.7927 H       1  UNL1        0.1737
     28 H          -1.8433    1.5278    2.4093 H       1  UNL1        0.0638
     29 H          -3.0061    3.2038    1.0985 H       1  UNL1        0.0619
     30 H          -3.8950    2.6202   -1.0921 H       1  UNL1        0.0640
     31 H           1.3941   -1.7310   -1.2510 H       1  UNL1        0.0639
@<TRIPOS>BOND
     1     1     2    1
     2     2     3   ar
     3     2    20   ar
     4     3     4   ar
     5     4     5   ar
     6     5     6   ar
     7     6     7    1
     8     6    20   ar
     9     7     8    1
    10     8     9    2
    11     8    10    2
    12     8    11    1
    13    11    12   ar
    14    11    19   ar
    15    12    13   ar
    16    13    14   ar
    17    14    15   ar
    18    15    16   ar
    19    15    19   ar
    20    16    17   ar
    21    17    18   ar
    22    18    19   ar
    23     1    21    1
    24     1    22    1
    25     1    23    1
    26     3    24    1
    27     4    25    1
    28     5    26    1
    29     7    27    1
    30    12    28    1
    31    13    29    1
    32    14    30    1
    33    20    31    1
@<TRIPOS>MOLECULE
../data/bude_mols_rdkit_confs/molecule_13.pdb
 31 33 0 0 0
SMALL
GASTEIGER

@<TRIPOS>ATOM
      1  C1        -4.9000    0.6720   -0.0590 C.3     1  UNL1       -0.0397
      2  C2        -3.4380    0.4590   -0.3120 C.ar    1  UNL1       -0.0487
      3  C3        -3.0930   -0.0590   -1.5440 C.ar    1  UNL1       -0.0587
      4  C4        -1.7510   -0.2600   -1.7900 C.ar    1  UNL1       -0.0597
      5  C5        -0.7930    0.0460   -0.8380 C.ar    1  UNL1       -0.0393
      6  C6        -1.1380    0.5620    0.3900 C.ar    1  UNL1        0.0483
      7  N1        -0.2080    0.8990    1.4050 N.pl3   1  UNL1       -0.2162
      8  S1         1.0520   -0.1950    1.8010 S.O2    1  UNL1        0.0745
      9  O1         1.8960    0.4350    2.9080 O.2     1  UNL1       -0.1499
     10  O2         0.5020   -1.4980    2.3100 O.2     1  UNL1       -0.1499
     11  C7         2.1350   -0.5160    0.4820 C.ar    1  UNL1        0.1365
     12  C8         2.2720   -1.8160    0.0330 C.ar    1  UNL1       -0.0328
     13  C9         3.1370   -2.0790   -1.0120 C.ar    1  UNL1       -0.0577
     14  C10        3.8440   -1.0710   -1.5910 C.ar    1  UNL1       -0.0334
     15  C11        3.6700    0.2410   -1.0970 C.ar    1  UNL1        0.1018
     16  N2         4.4100    1.3210   -1.6970 N.ar    1  UNL1       -0.1907
     17  S2         3.8310    2.7300   -0.7190 S.2     1  UNL1        0.1165
     18  N3         2.7870    1.8710    0.2770 N.ar    1  UNL1       -0.1888
     19  C12        2.8720    0.4990   -0.1290 C.ar    1  UNL1        0.1264
     20  C13       -2.4990    0.7690    0.6460 C.ar    1  UNL1       -0.0364
     21 H          -5.4586    0.3713   -0.9206 H       1  UNL1        0.0278
     22 H          -5.0804    1.7079    0.1393 H       1  UNL1        0.0278
     23 H          -5.2046    0.0889    0.7849 H       1  UNL1        0.0278
     24 H          -3.8092   -0.2863   -2.2514 H       1  UNL1        0.0620
     25 H          -1.4552   -0.6456   -2.7004 H       1  UNL1        0.0618
     26 H           0.2028   -0.1167   -1.0546 H       1  UNL1        0.0636
     27 H          -0.2850    1.7575    1.8807 H       1  UNL1        0.1737
     28 H           1.7353   -2.5802    0.4724 H       1  UNL1        0.0638
     29 H           3.2474   -3.0459   -1.3554 H       1  UNL1        0.0619
     30 H           4.4915   -1.2603   -2.3720 H       1  UNL1        0.0640
     31 H          -2.7990    1.1549    1.5549 H       1  UNL1        0.0639
@<TRIPOS>BOND
     1     1     2    1
     2     2     3   ar
     3     2    20   ar
     4     3     4   ar
     5     4     5   ar
     6     5     6   ar
     7     6     7    1
     8     6    20   ar
     9     7     8    1
    10     8     9    2
    11     8    10    2
    12     8    11    1
    13    11    12   ar
    14    11    19   ar
    15    12    13   ar
    16    13    14   ar
    17    14    15   ar
    18    15    16   ar
    19    15    19   ar
    20    16    17   ar
    21    17    18   ar
    22    18    19   ar
    23     1    21    1
    24     1    22    1
    25     1    23    1
    26     3    24    1
    27     4    25    1
    28     5    26    1
    29     7    27    1
    30    12    28    1
    31    13    29    1
    32    14    30    1
    33    20    31    1
@<TRIPOS>MOLECULE
../data/bude_mols_rdkit_confs/molecule_13.pdb
 31 33 0 0 0
SMALL
GASTEIGER

@<TRIPOS>ATOM
      1  C1        -3.4720   -0.2110    1.8250 C.3     1  UNL1       -0.0397
      2  C2        -2.8230    0.4540    0.6690 C.ar    1  UNL1       -0.0487
      3  C3        -3.0540    1.7980    0.4770 C.ar    1  UNL1       -0.0587
      4  C4        -2.4610    2.4360   -0.5910 C.ar    1  UNL1       -0.0597
      5  C5        -1.6520    1.7140   -1.4400 C.ar    1  UNL1       -0.0393
      6  C6        -1.3960    0.3630   -1.2790 C.ar    1  UNL1        0.0483
      7  N1        -0.5690   -0.2960   -2.2150 N.pl3   1  UNL1       -0.2162
      8  S1         0.5900   -1.4400   -1.7000 S.O2    1  UNL1        0.0745
      9  O1        -0.1160   -2.5230   -0.9160 O.2     1  UNL1       -0.1499
     10  O2         1.2360   -2.0130   -2.9340 O.2     1  UNL1       -0.1499
     11  C7         1.7990   -0.7700   -0.6530 C.ar    1  UNL1        0.1365
     12  C8         1.7920    0.5670   -0.3570 C.ar    1  UNL1       -0.0328
     13  C9         2.7490    1.1430    0.4700 C.ar    1  UNL1       -0.0577
     14  C10        3.7160    0.3260    0.9920 C.ar    1  UNL1       -0.0334
     15  C11        3.7100   -1.0640    0.6740 C.ar    1  UNL1        0.1018
     16  N2         4.7030   -1.9090    1.2080 N.ar    1  UNL1       -0.1907
     17  S2         4.2520   -3.5190    0.5160 S.2     1  UNL1        0.1165
     18  N3         2.8910   -2.9440   -0.3470 N.ar    1  UNL1       -0.1888
     19  C12        2.8020   -1.5810   -0.1050 C.ar    1  UNL1        0.1264
     20  C13       -1.9990   -0.2470   -0.2090 C.ar    1  UNL1       -0.0364
     21 H          -4.0569    0.5037    2.3654 H       1  UNL1        0.0278
     22 H          -2.7214   -0.6182    2.4698 H       1  UNL1        0.0278
     23 H          -4.1059   -0.9983    1.4739 H       1  UNL1        0.0278
     24 H          -3.6637    2.3210    1.1249 H       1  UNL1        0.0620
     25 H          -2.6212    3.4426   -0.7526 H       1  UNL1        0.0618
     26 H          -1.2148    2.2044   -2.2358 H       1  UNL1        0.0636
     27 H          -0.6615   -0.0940   -3.1741 H       1  UNL1        0.1737
     28 H           1.0538    1.1649   -0.7602 H       1  UNL1        0.0638
     29 H           2.7314    2.1525    0.6835 H       1  UNL1        0.0619
     30 H           4.4445    0.7138    1.6116 H       1  UNL1        0.0640
     31 H          -1.8379   -1.2538   -0.0496 H       1  UNL1        0.0639
@<TRIPOS>BOND
     1     1     2    1
     2     2     3   ar
     3     2    20   ar
     4     3     4   ar
     5     4     5   ar
     6     5     6   ar
     7     6     7    1
     8     6    20   ar
     9     7     8    1
    10     8     9    2
    11     8    10    2
    12     8    11    1
    13    11    12   ar
    14    11    19   ar
    15    12    13   ar
    16    13    14   ar
    17    14    15   ar
    18    15    16   ar
    19    15    19   ar
    20    16    17   ar
    21    17    18   ar
    22    18    19   ar
    23     1    21    1
    24     1    22    1
    25     1    23    1
    26     3    24    1
    27     4    25    1
    28     5    26    1
    29     7    27    1
    30    12    28    1
    31    13    29    1
    32    14    30    1
    33    20    31    1
@<TRIPOS>MOLECULE
../data/bude_mols_rdkit_confs/molecule_13.pdb
 31 33 0 0 0
SMALL
GASTEIGER

@<TRIPOS>ATOM
      1  C1         2.5860    0.3100    2.1690 C.3     1  UNL1       -0.0397
      2  C2         2.4850   -0.4930    0.9280 C.ar    1  UNL1       -0.0487
      3  C3         3.5040   -1.3260    0.5580 C.ar    1  UNL1       -0.0587
      4  C4         3.4180   -2.0760   -0.5950 C.ar    1  UNL1       -0.0597
      5  C5         2.3250   -2.0290   -1.4180 C.ar    1  UNL1       -0.0393
      6  C6         1.2720   -1.1680   -1.0340 C.ar    1  UNL1        0.0483
      7  N1         0.1640   -1.1770   -1.8900 N.pl3   1  UNL1       -0.2162
      8  S1        -0.8930    0.1250   -2.1080 S.O2    1  UNL1        0.0745
      9  O1        -0.0250    1.3040   -2.5650 O.2     1  UNL1       -0.1499
     10  O2        -1.8320   -0.2340   -3.2700 O.2     1  UNL1       -0.1499
     11  C7        -1.8070    0.5540   -0.7080 C.ar    1  UNL1        0.1365
     12  C8        -1.9300   -0.3260    0.3450 C.ar    1  UNL1       -0.0328
     13  C9        -2.7090   -0.0560    1.4250 C.ar    1  UNL1       -0.0577
     14  C10       -3.3900    1.1170    1.4700 C.ar    1  UNL1       -0.0334
     15  C11       -3.2670    2.0280    0.3870 C.ar    1  UNL1        0.1018
     16  N2        -3.9570    3.2260    0.4280 N.ar    1  UNL1       -0.1907
     17  S2        -3.4400    3.9660   -1.1670 S.2     1  UNL1        0.1165
     18  N3        -2.4730    2.7260   -1.6420 N.ar    1  UNL1       -0.1888
     19  C12       -2.5180    1.7600   -0.6410 C.ar    1  UNL1        0.1264
     20  C13        1.3600   -0.4290    0.1000 C.ar    1  UNL1       -0.0364
     21 H           3.5221    0.1108    2.6475 H       1  UNL1        0.0278
     22 H           1.7854    0.0487    2.8290 H       1  UNL1        0.0278
     23 H           2.5235    1.3503    1.9267 H       1  UNL1        0.0278
     24 H           4.3473   -1.3939    1.1489 H       1  UNL1        0.0620
     25 H           4.2048   -2.6945   -0.8467 H       1  UNL1        0.0618
     26 H           2.2724   -2.5959   -2.2788 H       1  UNL1        0.0636
     27 H          -0.0122   -1.9997   -2.4013 H       1  UNL1        0.1737
     28 H          -1.4138   -1.2190    0.3124 H       1  UNL1        0.0638
     29 H          -2.7818   -0.7334    2.2002 H       1  UNL1        0.0619
     30 H          -3.9886    1.3439    2.2794 H       1  UNL1        0.0640
     31 H           0.5791    0.1946    0.3575 H       1  UNL1        0.0639
@<TRIPOS>BOND
     1     1     2    1
     2     2     3   ar
     3     2    20   ar
     4     3     4   ar
     5     4     5   ar
     6     5     6   ar
     7     6     7    1
     8     6    20   ar
     9     7     8    1
    10     8     9    2
    11     8    10    2
    12     8    11    1
    13    11    12   ar
    14    11    19   ar
    15    12    13   ar
    16    13    14   ar
    17    14    15   ar
    18    15    16   ar
    19    15    19   ar
    20    16    17   ar
    21    17    18   ar
    22    18    19   ar
    23     1    21    1
    24     1    22    1
    25     1    23    1
    26     3    24    1
    27     4    25    1
    28     5    26    1
    29     7    27    1
    30    12    28    1
    31    13    29    1
    32    14    30    1
    33    20    31    1
@<TRIPOS>MOLECULE
../data/bude_mols_rdkit_confs/molecule_13.pdb
 31 33 0 0 0
SMALL
GASTEIGER

@<TRIPOS>ATOM
      1  C1         2.7220    1.9480    1.1460 C.3     1  UNL1       -0.0397
      2  C2         2.7170    0.9020    0.0810 C.ar    1  UNL1       -0.0487
      3  C3         3.8620    0.5880   -0.6080 C.ar    1  UNL1       -0.0587
      4  C4         3.8060   -0.3840   -1.5810 C.ar    1  UNL1       -0.0597
      5  C5         2.6410   -1.0420   -1.8780 C.ar    1  UNL1       -0.0393
      6  C6         1.4440   -0.7430   -1.1900 C.ar    1  UNL1        0.0483
      7  N1         0.2750   -1.4470   -1.5790 N.pl3   1  UNL1       -0.2162
      8  S1        -1.0410   -1.9250   -0.6120 S.O2    1  UNL1        0.0745
      9  O1        -1.9510   -2.8140   -1.4370 O.2     1  UNL1       -0.1499
     10  O2        -0.4480   -2.7960    0.5170 O.2     1  UNL1       -0.1499
     11  C7        -1.9510   -0.6280    0.0650 C.ar    1  UNL1        0.1365
     12  C8        -1.8610    0.6730   -0.3330 C.ar    1  UNL1       -0.0328
     13  C9        -2.6550    1.6730    0.1800 C.ar    1  UNL1       -0.0577
     14  C10       -3.5780    1.3500    1.1320 C.ar    1  UNL1       -0.0334
     15  C11       -3.6850    0.0340    1.5490 C.ar    1  UNL1        0.1018
     16  N2        -4.6350   -0.3910    2.5530 N.ar    1  UNL1       -0.1907
     17  S2        -4.4390   -2.0280    2.7620 S.2     1  UNL1        0.1165
     18  N3        -3.0820   -2.2050    1.5160 N.ar    1  UNL1       -0.1888
     19  C12       -2.9260   -0.8910    1.0510 C.ar    1  UNL1        0.1264
     20  C13        1.5390    0.2120   -0.2440 C.ar    1  UNL1       -0.0364
     21 H           3.7074    2.3536    1.2429 H       1  UNL1        0.0278
     22 H           2.4229    1.5115    2.0760 H       1  UNL1        0.0278
     23 H           2.0393    2.7286    0.8824 H       1  UNL1        0.0278
     24 H           4.7493    1.0722   -0.4001 H       1  UNL1        0.0620
     25 H           4.6646   -0.6238   -2.1010 H       1  UNL1        0.0618
     26 H           2.6382   -1.7654   -2.6140 H       1  UNL1        0.0636
     27 H           0.2180   -1.6903   -2.5313 H       1  UNL1        0.1737
     28 H          -1.1642    0.9195   -1.0533 H       1  UNL1        0.0638
     29 H          -2.5547    2.6463   -0.1481 H       1  UNL1        0.0619
     30 H          -4.1885    2.0774    1.5360 H       1  UNL1        0.0640
     31 H           0.6831    0.4535    0.2796 H       1  UNL1        0.0639
@<TRIPOS>BOND
     1     1     2    1
     2     2     3   ar
     3     2    20   ar
     4     3     4   ar
     5     4     5   ar
     6     5     6   ar
     7     6     7    1
     8     6    20   ar
     9     7     8    1
    10     8     9    2
    11     8    10    2
    12     8    11    1
    13    11    12   ar
    14    11    19   ar
    15    12    13   ar
    16    13    14   ar
    17    14    15   ar
    18    15    16   ar
    19    15    19   ar
    20    16    17   ar
    21    17    18   ar
    22    18    19   ar
    23     1    21    1
    24     1    22    1
    25     1    23    1
    26     3    24    1
    27     4    25    1
    28     5    26    1
    29     7    27    1
    30    12    28    1
    31    13    29    1
    32    14    30    1
    33    20    31    1
@<TRIPOS>MOLECULE
../data/bude_mols_rdkit_confs/molecule_13.pdb
 31 33 0 0 0
SMALL
GASTEIGER

@<TRIPOS>ATOM
      1  C1         3.7550    1.6830   -1.6060 C.3     1  UNL1       -0.0397
      2  C2         3.0570    0.8790   -0.5820 C.ar    1  UNL1       -0.0487
      3  C3         3.2800    1.1380    0.7610 C.ar    1  UNL1       -0.0587
      4  C4         2.6350    0.3950    1.7280 C.ar    1  UNL1       -0.0597
      5  C5         1.7490   -0.6270    1.4250 C.ar    1  UNL1       -0.0393
      6  C6         1.5190   -0.8950    0.0940 C.ar    1  UNL1        0.0483
      7  N1         0.6320   -1.9220   -0.3030 N.pl3   1  UNL1       -0.2162
      8  S1        -0.8880   -2.1240    0.4210 S.O2    1  UNL1        0.0745
      9  O1        -1.5170   -3.3820   -0.1800 O.2     1  UNL1       -0.1499
     10  O2        -0.6690   -2.4500    1.8940 O.2     1  UNL1       -0.1499
     11  C7        -1.9370   -0.7830    0.2310 C.ar    1  UNL1        0.1365
     12  C8        -1.5940    0.3600   -0.4530 C.ar    1  UNL1       -0.0328
     13  C9        -2.4780    1.4290   -0.5860 C.ar    1  UNL1       -0.0577
     14  C10       -3.7320    1.3380   -0.0160 C.ar    1  UNL1       -0.0334
     15  C11       -4.0680    0.1880    0.6680 C.ar    1  UNL1        0.1018
     16  N2        -5.3460    0.0250    1.2810 N.ar    1  UNL1       -0.1907
     17  S2        -5.3800   -1.4620    1.9970 S.2     1  UNL1        0.1165
     18  N3        -3.6600   -1.9360    1.4980 N.ar    1  UNL1       -0.1888
     19  C12       -3.2320   -0.7980    0.7820 C.ar    1  UNL1        0.1264
     20  C13        2.1780   -0.1350   -0.8830 C.ar    1  UNL1       -0.0364
     21 H           4.3813    2.4058   -1.1261 H       1  UNL1        0.0278
     22 H           3.0346    2.1852   -2.2173 H       1  UNL1        0.0278
     23 H           4.3547    1.0405   -2.2162 H       1  UNL1        0.0278
     24 H           3.9308    1.8893    1.0387 H       1  UNL1        0.0620
     25 H           2.8202    0.6095    2.7203 H       1  UNL1        0.0618
     26 H           1.2794   -1.1667    2.1688 H       1  UNL1        0.0636
     27 H           0.9049   -2.5379   -1.0209 H       1  UNL1        0.1737
     28 H          -0.6566    0.4277   -0.8792 H       1  UNL1        0.0638
     29 H          -2.1990    2.2771   -1.1036 H       1  UNL1        0.0619
     30 H          -4.4054    2.1155   -0.1000 H       1  UNL1        0.0640
     31 H           1.9945   -0.3469   -1.8762 H       1  UNL1        0.0639
@<TRIPOS>BOND
     1     1     2    1
     2     2     3   ar
     3     2    20   ar
     4     3     4   ar
     5     4     5   ar
     6     5     6   ar
     7     6     7    1
     8     6    20   ar
     9     7     8    1
    10     8     9    2
    11     8    10    2
    12     8    11    1
    13    11    12   ar
    14    11    19   ar
    15    12    13   ar
    16    13    14   ar
    17    14    15   ar
    18    15    16   ar
    19    15    19   ar
    20    16    17   ar
    21    17    18   ar
    22    18    19   ar
    23     1    21    1
    24     1    22    1
    25     1    23    1
    26     3    24    1
    27     4    25    1
    28     5    26    1
    29     7    27    1
    30    12    28    1
    31    13    29    1
    32    14    30    1
    33    20    31    1
@<TRIPOS>MOLECULE
../data/bude_mols_rdkit_confs/molecule_13.pdb
 31 33 0 0 0
SMALL
GASTEIGER

@<TRIPOS>ATOM
      1  C1         3.4790    0.4530   -1.8640 C.3     1  UNL1       -0.0397
      2  C2         2.8150   -0.4650   -0.8880 C.ar    1  UNL1       -0.0487
      3  C3         2.9830   -1.8250   -1.0350 C.ar    1  UNL1       -0.0587
      4  C4         2.3660   -2.6600   -0.1300 C.ar    1  UNL1       -0.0597
      5  C5         1.5980   -2.1280    0.8980 C.ar    1  UNL1       -0.0393
      6  C6         1.4180   -0.7710    1.0600 C.ar    1  UNL1        0.0483
      7  N1         0.6470   -0.1990    2.1070 N.pl3   1  UNL1       -0.2162
      8  S1        -0.4430    1.0850    1.9160 S.O2    1  UNL1        0.0745
      9  O1        -1.0730    1.4480    3.2520 O.2     1  UNL1       -0.1499
     10  O2         0.2110    2.3450    1.4210 O.2     1  UNL1       -0.1499
     11  C7        -1.7580    0.7240    0.8420 C.ar    1  UNL1        0.1365
     12  C8        -1.8400   -0.5130    0.2630 C.ar    1  UNL1       -0.0328
     13  C9        -2.8880   -0.7950   -0.5870 C.ar    1  UNL1       -0.0577
     14  C10       -3.8470    0.1350   -0.8640 C.ar    1  UNL1       -0.0334
     15  C11       -3.7240    1.4210   -0.2360 C.ar    1  UNL1        0.1018
     16  N2        -4.6720    2.4010   -0.4830 N.ar    1  UNL1       -0.1907
     17  S2        -4.0870    3.8170    0.5220 S.2     1  UNL1        0.1165
     18  N3        -2.7210    3.0170    1.1370 N.ar    1  UNL1       -0.1888
     19  C12       -2.7310    1.6660    0.5600 C.ar    1  UNL1        0.1264
     20  C13        2.0470    0.0690    0.1380 C.ar    1  UNL1       -0.0364
     21 H           4.0252   -0.1235   -2.5811 H       1  UNL1        0.0278
     22 H           4.1505    1.1027   -1.3426 H       1  UNL1        0.0278
     23 H           2.7364    1.0367   -2.3667 H       1  UNL1        0.0278
     24 H           3.5562   -2.2077   -1.8031 H       1  UNL1        0.0620
     25 H           2.4744   -3.6827   -0.2158 H       1  UNL1        0.0618
     26 H           1.1455   -2.7725    1.5650 H       1  UNL1        0.0636
     27 H           0.7536   -0.5761    3.0101 H       1  UNL1        0.1737
     28 H          -1.1234   -1.2288    0.4609 H       1  UNL1        0.0638
     29 H          -2.9484   -1.7286   -1.0227 H       1  UNL1        0.0619
     30 H          -4.6310   -0.0774   -1.5006 H       1  UNL1        0.0640
     31 H           1.9402    1.0922    0.2199 H       1  UNL1        0.0639
@<TRIPOS>BOND
     1     1     2    1
     2     2     3   ar
     3     2    20   ar
     4     3     4   ar
     5     4     5   ar
     6     5     6   ar
     7     6     7    1
     8     6    20   ar
     9     7     8    1
    10     8     9    2
    11     8    10    2
    12     8    11    1
    13    11    12   ar
    14    11    19   ar
    15    12    13   ar
    16    13    14   ar
    17    14    15   ar
    18    15    16   ar
    19    15    19   ar
    20    16    17   ar
    21    17    18   ar
    22    18    19   ar
    23     1    21    1
    24     1    22    1
    25     1    23    1
    26     3    24    1
    27     4    25    1
    28     5    26    1
    29     7    27    1
    30    12    28    1
    31    13    29    1
    32    14    30    1
    33    20    31    1
@<TRIPOS>MOLECULE
../data/bude_mols_rdkit_confs/molecule_13.pdb
 31 33 0 0 0
SMALL
GASTEIGER

@<TRIPOS>ATOM
      1  C1        -3.6670    0.9930    2.0610 C.3     1  UNL1       -0.0397
      2  C2        -2.9200    0.1870    1.0800 C.ar    1  UNL1       -0.0487
      3  C3        -3.0780   -1.1950    1.0900 C.ar    1  UNL1       -0.0587
      4  C4        -2.4110   -2.0120    0.2010 C.ar    1  UNL1       -0.0597
      5  C5        -1.5550   -1.4120   -0.7290 C.ar    1  UNL1       -0.0393
      6  C6        -1.3780   -0.0570   -0.7640 C.ar    1  UNL1        0.0483
      7  N1        -0.5180    0.5280   -1.7010 N.pl3   1  UNL1       -0.2162
      8  S1         1.0470   -0.1130   -2.0180 S.O2    1  UNL1        0.0745
      9  O1         1.7620    0.7500   -3.0520 O.2     1  UNL1       -0.1499
     10  O2         0.9810   -1.5240   -2.5180 O.2     1  UNL1       -0.1499
     11  C7         2.0600   -0.0850   -0.6060 C.ar    1  UNL1        0.1365
     12  C8         2.5610   -1.2510   -0.1090 C.ar    1  UNL1       -0.0328
     13  C9         3.3740   -1.3010    1.0140 C.ar    1  UNL1       -0.0577
     14  C10        3.6600   -0.1150    1.6140 C.ar    1  UNL1       -0.0334
     15  C11        3.1440    1.1010    1.1040 C.ar    1  UNL1        0.1018
     16  N2         3.4280    2.3550    1.7140 N.ar    1  UNL1       -0.1907
     17  S2         2.6190    3.5180    0.7890 S.2     1  UNL1        0.1165
     18  N3         1.9070    2.3520   -0.4010 N.ar    1  UNL1       -0.1888
     19  C12        2.3780    1.1410    0.0470 C.ar    1  UNL1        0.1264
     20  C13       -2.0670    0.7400    0.1480 C.ar    1  UNL1       -0.0364
     21 H          -4.2597    0.3478    2.6753 H       1  UNL1        0.0278
     22 H          -4.3051    1.6804    1.5460 H       1  UNL1        0.0278
     23 H          -2.9788    1.5362    2.6743 H       1  UNL1        0.0278
     24 H          -3.7129   -1.6216    1.7828 H       1  UNL1        0.0620
     25 H          -2.5396   -3.0358    0.2212 H       1  UNL1        0.0618
     26 H          -1.0463   -2.0052   -1.4031 H       1  UNL1        0.0636
     27 H          -0.8166    1.3275   -2.1917 H       1  UNL1        0.1737
     28 H           2.3256   -2.1341   -0.5884 H       1  UNL1        0.0638
     29 H           3.7433   -2.1941    1.3760 H       1  UNL1        0.0619
     30 H           4.2614   -0.1008    2.4526 H       1  UNL1        0.0640
     31 H          -1.9365    1.7635    0.1256 H       1  UNL1        0.0639
@<TRIPOS>BOND
     1     1     2    1
     2     2     3   ar
     3     2    20   ar
     4     3     4   ar
     5     4     5   ar
     6     5     6   ar
     7     6     7    1
     8     6    20   ar
     9     7     8    1
    10     8     9    2
    11     8    10    2
    12     8    11    1
    13    11    12   ar
    14    11    19   ar
    15    12    13   ar
    16    13    14   ar
    17    14    15   ar
    18    15    16   ar
    19    15    19   ar
    20    16    17   ar
    21    17    18   ar
    22    18    19   ar
    23     1    21    1
    24     1    22    1
    25     1    23    1
    26     3    24    1
    27     4    25    1
    28     5    26    1
    29     7    27    1
    30    12    28    1
    31    13    29    1
    32    14    30    1
    33    20    31    1
@<TRIPOS>MOLECULE
../data/bude_mols_rdkit_confs/molecule_13.pdb
 31 33 0 0 0
SMALL
GASTEIGER

@<TRIPOS>ATOM
      1  C1         3.4860   -1.8470   -1.6990 C.3     1  UNL1       -0.0397
      2  C2         2.8970   -0.9820   -0.6390 C.ar    1  UNL1       -0.0487
      3  C3         3.2500   -1.2610    0.6640 C.ar    1  UNL1       -0.0587
      4  C4         2.7140   -0.4700    1.6580 C.ar    1  UNL1       -0.0597
      5  C5         1.8570    0.5590    1.3240 C.ar    1  UNL1       -0.0393
      6  C6         1.4930    0.8510    0.0250 C.ar    1  UNL1        0.0483
      7  N1         0.6580    1.9200   -0.3330 N.pl3   1  UNL1       -0.2162
      8  S1        -0.8800    2.2590    0.2580 S.O2    1  UNL1        0.0745
      9  O1        -1.3110    3.6290   -0.2840 O.2     1  UNL1       -0.1499
     10  O2        -0.7990    2.4730    1.7840 O.2     1  UNL1       -0.1499
     11  C7        -2.1160    1.1030   -0.0280 C.ar    1  UNL1        0.1365
     12  C8        -3.1970    1.4410   -0.8410 C.ar    1  UNL1       -0.0328
     13  C9        -4.1980    0.5310   -1.1040 C.ar    1  UNL1       -0.0577
     14  C10       -4.1460   -0.7530   -0.5580 C.ar    1  UNL1       -0.0334
     15  C11       -3.0650   -1.0590    0.2430 C.ar    1  UNL1        0.1018
     16  N2        -2.9270   -2.3420    0.8550 N.ar    1  UNL1       -0.1907
     17  S2        -1.5130   -2.3120    1.7420 S.2     1  UNL1        0.1165
     18  N3        -1.0720   -0.6050    1.3240 N.ar    1  UNL1       -0.1888
     19  C12       -2.1240   -0.1770    0.4790 C.ar    1  UNL1        0.1264
     20  C13        2.0410    0.0440   -0.9820 C.ar    1  UNL1       -0.0364
     21 H           4.1195   -2.5821   -1.2483 H       1  UNL1        0.0278
     22 H           4.0605   -1.2453   -2.3719 H       1  UNL1        0.0278
     23 H           2.7011   -2.3349   -2.2382 H       1  UNL1        0.0278
     24 H           3.8938   -2.0359    0.8879 H       1  UNL1        0.0620
     25 H           2.9523   -0.6464    2.6465 H       1  UNL1        0.0618
     26 H           1.4687    1.1394    2.0839 H       1  UNL1        0.0636
     27 H           1.0129    2.5432   -1.0075 H       1  UNL1        0.1737
     28 H          -3.2483    2.3863   -1.2518 H       1  UNL1        0.0638
     29 H          -4.9904    0.8001   -1.7079 H       1  UNL1        0.0619
     30 H          -4.8871   -1.4461   -0.7462 H       1  UNL1        0.0640
     31 H           1.8059    0.2162   -1.9720 H       1  UNL1        0.0639
@<TRIPOS>BOND
     1     1     2    1
     2     2     3   ar
     3     2    20   ar
     4     3     4   ar
     5     4     5   ar
     6     5     6   ar
     7     6     7    1
     8     6    20   ar
     9     7     8    1
    10     8     9    2
    11     8    10    2
    12     8    11    1
    13    11    12   ar
    14    11    19   ar
    15    12    13   ar
    16    13    14   ar
    17    14    15   ar
    18    15    16   ar
    19    15    19   ar
    20    16    17   ar
    21    17    18   ar
    22    18    19   ar
    23     1    21    1
    24     1    22    1
    25     1    23    1
    26     3    24    1
    27     4    25    1
    28     5    26    1
    29     7    27    1
    30    12    28    1
    31    13    29    1
    32    14    30    1
    33    20    31    1
@<TRIPOS>MOLECULE
../data/bude_mols_rdkit_confs/molecule_13.pdb
 31 33 0 0 0
SMALL
GASTEIGER

@<TRIPOS>ATOM
      1  C1         4.8570    0.7220   -0.7110 C.3     1  UNL1       -0.0397
      2  C2         3.4040    0.3580   -0.7130 C.ar    1  UNL1       -0.0487
      3  C3         3.0260   -0.7290   -1.4610 C.ar    1  UNL1       -0.0587
      4  C4         1.6940   -1.0530   -1.4550 C.ar    1  UNL1       -0.0597
      5  C5         0.7660   -0.3180   -0.7270 C.ar    1  UNL1       -0.0393
      6  C6         1.1510    0.7670    0.0180 C.ar    1  UNL1        0.0483
      7  N1         0.2420    1.5560    0.7800 N.pl3   1  UNL1       -0.2162
      8  S1        -0.9500    0.8690    1.7920 S.O2    1  UNL1        0.0745
      9  O1        -1.6710    1.9710    2.5310 O.2     1  UNL1       -0.1499
     10  O2        -0.2750    0.0190    2.8310 O.2     1  UNL1       -0.1499
     11  C7        -2.0810   -0.0990    0.8910 C.ar    1  UNL1        0.1365
     12  C8        -2.2160   -1.4330    1.1930 C.ar    1  UNL1       -0.0328
     13  C9        -3.1080   -2.2220    0.5000 C.ar    1  UNL1       -0.0577
     14  C10       -3.8560   -1.6400   -0.4970 C.ar    1  UNL1       -0.0334
     15  C11       -3.7030   -0.2670   -0.7930 C.ar    1  UNL1        0.1018
     16  N2        -4.4580    0.3420   -1.8070 N.ar    1  UNL1       -0.1907
     17  S2        -3.8730    2.0270   -1.7450 S.2     1  UNL1        0.1165
     18  N3        -2.7730    1.8260   -0.4980 N.ar    1  UNL1       -0.1888
     19  C12       -2.8530    0.4650   -0.1270 C.ar    1  UNL1        0.1264
     20  C13        2.5060    1.1000    0.0150 C.ar    1  UNL1       -0.0364
     21 H           5.3973    0.0362   -1.3295 H       1  UNL1        0.0278
     22 H           5.2352    0.6747    0.2888 H       1  UNL1        0.0278
     23 H           4.9764    1.7152   -1.0908 H       1  UNL1        0.0278
     24 H           3.7126   -1.2769   -2.0027 H       1  UNL1        0.0620
     25 H           1.3718   -1.8642   -2.0057 H       1  UNL1        0.0618
     26 H          -0.2285   -0.5931   -0.7474 H       1  UNL1        0.0636
     27 H           0.3034    2.5368    0.7209 H       1  UNL1        0.1737
     28 H          -1.6442   -1.8474    1.9455 H       1  UNL1        0.0638
     29 H          -3.2123   -3.2242    0.7233 H       1  UNL1        0.0619
     30 H          -4.5317   -2.2086   -1.0310 H       1  UNL1        0.0640
     31 H           2.8359    1.9095    0.5636 H       1  UNL1        0.0639
@<TRIPOS>BOND
     1     1     2    1
     2     2     3   ar
     3     2    20   ar
     4     3     4   ar
     5     4     5   ar
     6     5     6   ar
     7     6     7    1
     8     6    20   ar
     9     7     8    1
    10     8     9    2
    11     8    10    2
    12     8    11    1
    13    11    12   ar
    14    11    19   ar
    15    12    13   ar
    16    13    14   ar
    17    14    15   ar
    18    15    16   ar
    19    15    19   ar
    20    16    17   ar
    21    17    18   ar
    22    18    19   ar
    23     1    21    1
    24     1    22    1
    25     1    23    1
    26     3    24    1
    27     4    25    1
    28     5    26    1
    29     7    27    1
    30    12    28    1
    31    13    29    1
    32    14    30    1
    33    20    31    1
@<TRIPOS>MOLECULE
../data/bude_mols_rdkit_confs/molecule_13.pdb
 31 33 0 0 0
SMALL
GASTEIGER

@<TRIPOS>ATOM
      1  C1         3.6730    1.4870   -0.1400 C.3     1  UNL1       -0.0397
      2  C2         2.7850    0.4030   -0.6700 C.ar    1  UNL1       -0.0487
      3  C3         2.7360    0.0730   -2.0060 C.ar    1  UNL1       -0.0587
      4  C4         1.8900   -0.9420   -2.4230 C.ar    1  UNL1       -0.0597
      5  C5         1.1290   -1.5840   -1.4860 C.ar    1  UNL1       -0.0393
      6  C6         1.1600   -1.2730   -0.1500 C.ar    1  UNL1        0.0483
      7  N1         0.3410   -1.9820    0.7690 N.pl3   1  UNL1       -0.2162
      8  S1        -0.5560   -1.1250    1.9780 S.O2    1  UNL1        0.0745
      9  O1        -1.2980   -2.1160    2.8570 O.2     1  UNL1       -0.1499
     10  O2         0.3530   -0.3640    2.8800 O.2     1  UNL1       -0.1499
     11  C7        -1.6880   -0.0470    1.1820 C.ar    1  UNL1        0.1365
     12  C8        -1.5750    1.2960    1.4300 C.ar    1  UNL1       -0.0328
     13  C9        -2.4210    2.2130    0.8480 C.ar    1  UNL1       -0.0577
     14  C10       -3.3870    1.7150    0.0050 C.ar    1  UNL1       -0.0334
     15  C11       -3.4990    0.3440   -0.2450 C.ar    1  UNL1        0.1018
     16  N2        -4.4330   -0.1650   -1.0630 N.ar    1  UNL1       -0.1907
     17  S2        -4.2510   -1.8640   -1.1110 S.2     1  UNL1        0.1165
     18  N3        -2.8250   -1.8250    0.0530 N.ar    1  UNL1       -0.1888
     19  C12       -2.6870   -0.5510    0.3120 C.ar    1  UNL1        0.1264
     20  C13        1.9920   -0.2750    0.2630 C.ar    1  UNL1       -0.0364
     21 H           4.2229    1.9241   -0.9471 H       1  UNL1        0.0278
     22 H           4.3548    1.0728    0.5730 H       1  UNL1        0.0278
     23 H           3.0755    2.2383    0.3326 H       1  UNL1        0.0278
     24 H           3.3231    0.5763   -2.6894 H       1  UNL1        0.0620
     25 H           1.8355   -1.2075   -3.4188 H       1  UNL1        0.0618
     26 H           0.5001   -2.3400   -1.7991 H       1  UNL1        0.0636
     27 H           0.2830   -2.9635    0.7186 H       1  UNL1        0.1737
     28 H          -0.8366    1.6286    2.0696 H       1  UNL1        0.0638
     29 H          -2.3346    3.2242    1.0350 H       1  UNL1        0.0619
     30 H          -4.0430    2.3671   -0.4526 H       1  UNL1        0.0640
     31 H           2.0370   -0.0199    1.2620 H       1  UNL1        0.0639
@<TRIPOS>BOND
     1     1     2    1
     2     2     3   ar
     3     2    20   ar
     4     3     4   ar
     5     4     5   ar
     6     5     6   ar
     7     6     7    1
     8     6    20   ar
     9     7     8    1
    10     8     9    2
    11     8    10    2
    12     8    11    1
    13    11    12   ar
    14    11    19   ar
    15    12    13   ar
    16    13    14   ar
    17    14    15   ar
    18    15    16   ar
    19    15    19   ar
    20    16    17   ar
    21    17    18   ar
    22    18    19   ar
    23     1    21    1
    24     1    22    1
    25     1    23    1
    26     3    24    1
    27     4    25    1
    28     5    26    1
    29     7    27    1
    30    12    28    1
    31    13    29    1
    32    14    30    1
    33    20    31    1
@<TRIPOS>MOLECULE
../data/bude_mols_rdkit_confs/molecule_13.pdb
 31 33 0 0 0
SMALL
GASTEIGER

@<TRIPOS>ATOM
      1  C1        -3.2810   -2.3610   -1.1460 C.3     1  UNL1       -0.0397
      2  C2        -2.8020   -1.0410   -0.6440 C.ar    1  UNL1       -0.0487
      3  C3        -3.4140   -0.4890    0.4670 C.ar    1  UNL1       -0.0587
      4  C4        -2.9930    0.7310    0.9560 C.ar    1  UNL1       -0.0597
      5  C5        -1.9760    1.3820    0.3360 C.ar    1  UNL1       -0.0393
      6  C6        -1.3200    0.8780   -0.7860 C.ar    1  UNL1        0.0483
      7  N1        -0.2990    1.5800   -1.4560 N.pl3   1  UNL1       -0.2162
      8  S1         1.0890    2.1370   -0.6760 S.O2    1  UNL1        0.0745
      9  O1         1.9170    3.0580   -1.5470 O.2     1  UNL1       -0.1499
     10  O2         0.6040    3.0570    0.4570 O.2     1  UNL1       -0.1499
     11  C7         2.1410    0.9840    0.0180 C.ar    1  UNL1        0.1365
     12  C8         3.4250    0.8370   -0.5030 C.ar    1  UNL1       -0.0328
     13  C9         4.3410   -0.0720   -0.0280 C.ar    1  UNL1       -0.0577
     14  C10        3.9760   -0.8890    1.0230 C.ar    1  UNL1       -0.0334
     15  C11        2.6890   -0.7540    1.5600 C.ar    1  UNL1        0.1018
     16  N2         2.2570   -1.5510    2.6400 N.ar    1  UNL1       -0.1907
     17  S2         0.6720   -1.1050    3.0190 S.2     1  UNL1        0.1165
     18  N3         0.5490    0.1630    1.7380 N.ar    1  UNL1       -0.1888
     19  C12        1.8370    0.1190    1.0890 C.ar    1  UNL1        0.1264
     20  C13       -1.7750   -0.3610   -1.2520 C.ar    1  UNL1       -0.0364
     21 H          -4.0824   -2.7082   -0.5279 H       1  UNL1        0.0278
     22 H          -2.4771   -3.0665   -1.1174 H       1  UNL1        0.0278
     23 H          -3.6272   -2.2554   -2.1529 H       1  UNL1        0.0278
     24 H          -4.1872   -0.9906    0.9313 H       1  UNL1        0.0620
     25 H          -3.4472    1.1445    1.7853 H       1  UNL1        0.0618
     26 H          -1.6739    2.2938    0.7134 H       1  UNL1        0.0636
     27 H          -0.3997    1.7528   -2.4200 H       1  UNL1        0.1737
     28 H           3.7041    1.4443   -1.2893 H       1  UNL1        0.0638
     29 H           5.2810   -0.1418   -0.4482 H       1  UNL1        0.0619
     30 H           4.6365   -1.5839    1.4048 H       1  UNL1        0.0640
     31 H          -1.3233   -0.7780   -2.0809 H       1  UNL1        0.0639
@<TRIPOS>BOND
     1     1     2    1
     2     2     3   ar
     3     2    20   ar
     4     3     4   ar
     5     4     5   ar
     6     5     6   ar
     7     6     7    1
     8     6    20   ar
     9     7     8    1
    10     8     9    2
    11     8    10    2
    12     8    11    1
    13    11    12   ar
    14    11    19   ar
    15    12    13   ar
    16    13    14   ar
    17    14    15   ar
    18    15    16   ar
    19    15    19   ar
    20    16    17   ar
    21    17    18   ar
    22    18    19   ar
    23     1    21    1
    24     1    22    1
    25     1    23    1
    26     3    24    1
    27     4    25    1
    28     5    26    1
    29     7    27    1
    30    12    28    1
    31    13    29    1
    32    14    30    1
    33    20    31    1
@<TRIPOS>MOLECULE
../data/bude_mols_rdkit_confs/molecule_13.pdb
 31 33 0 0 0
SMALL
GASTEIGER

@<TRIPOS>ATOM
      1  C1         3.6420    0.5140    1.9660 C.3     1  UNL1       -0.0397
      2  C2         2.8990    0.6040    0.6740 C.ar    1  UNL1       -0.0487
      3  C3         3.0260    1.7630   -0.0660 C.ar    1  UNL1       -0.0587
      4  C4         2.3430    1.8570   -1.2610 C.ar    1  UNL1       -0.0597
      5  C5         1.5490    0.8280   -1.7210 C.ar    1  UNL1       -0.0393
      6  C6         1.4140   -0.3520   -0.9790 C.ar    1  UNL1        0.0483
      7  N1         0.5920   -1.3450   -1.5140 N.pl3   1  UNL1       -0.2162
      8  S1        -0.6870   -2.1150   -0.7120 S.O2    1  UNL1        0.0745
      9  O1        -1.2330   -3.2100   -1.6180 O.2     1  UNL1       -0.1499
     10  O2        -0.1410   -2.8870    0.5040 O.2     1  UNL1       -0.1499
     11  C7        -2.0030   -1.1080   -0.2300 C.ar    1  UNL1        0.1365
     12  C8        -3.2500   -1.2840   -0.8420 C.ar    1  UNL1       -0.0328
     13  C9        -4.3470   -0.5150   -0.5380 C.ar    1  UNL1       -0.0577
     14  C10       -4.1920    0.4690    0.4140 C.ar    1  UNL1       -0.0334
     15  C11       -2.9400    0.6520    1.0340 C.ar    1  UNL1        0.1018
     16  N2        -2.7520    1.6620    2.0400 N.ar    1  UNL1       -0.1907
     17  S2        -1.1320    1.5250    2.5200 S.2     1  UNL1        0.1165
     18  N3        -0.7040    0.1900    1.4430 N.ar    1  UNL1       -0.1888
     19  C12       -1.9340   -0.0930    0.7190 C.ar    1  UNL1        0.1264
     20  C13        2.1100   -0.3970    0.1990 C.ar    1  UNL1       -0.0364
     21 H           4.1906    1.4186    2.1257 H       1  UNL1        0.0278
     22 H           4.3202   -0.3129    1.9306 H       1  UNL1        0.0278
     23 H           2.9476    0.3718    2.7676 H       1  UNL1        0.0278
     24 H           3.6177    2.5402    0.2669 H       1  UNL1        0.0620
     25 H           2.4284    2.7178   -1.8238 H       1  UNL1        0.0618
     26 H           1.0504    0.9281   -2.6190 H       1  UNL1        0.0636
     27 H           0.7714   -1.6233   -2.4411 H       1  UNL1        0.1737
     28 H          -3.3495   -2.0248   -1.5535 H       1  UNL1        0.0638
     29 H          -5.2541   -0.6687   -1.0056 H       1  UNL1        0.0619
     30 H          -4.9903    1.0700    0.6721 H       1  UNL1        0.0640
     31 H           2.0301   -1.2537    0.7688 H       1  UNL1        0.0639
@<TRIPOS>BOND
     1     1     2    1
     2     2     3   ar
     3     2    20   ar
     4     3     4   ar
     5     4     5   ar
     6     5     6   ar
     7     6     7    1
     8     6    20   ar
     9     7     8    1
    10     8     9    2
    11     8    10    2
    12     8    11    1
    13    11    12   ar
    14    11    19   ar
    15    12    13   ar
    16    13    14   ar
    17    14    15   ar
    18    15    16   ar
    19    15    19   ar
    20    16    17   ar
    21    17    18   ar
    22    18    19   ar
    23     1    21    1
    24     1    22    1
    25     1    23    1
    26     3    24    1
    27     4    25    1
    28     5    26    1
    29     7    27    1
    30    12    28    1
    31    13    29    1
    32    14    30    1
    33    20    31    1
@<TRIPOS>MOLECULE
../data/bude_mols_rdkit_confs/molecule_13.pdb
 31 33 0 0 0
SMALL
GASTEIGER

@<TRIPOS>ATOM
      1  C1         5.1850    0.3070   -0.5820 C.3     1  UNL1       -0.0397
      2  C2         3.7430    0.4270   -0.2540 C.ar    1  UNL1       -0.0487
      3  C3         3.3310    1.3220    0.7130 C.ar    1  UNL1       -0.0587
      4  C4         2.0080    1.4390    1.0220 C.ar    1  UNL1       -0.0597
      5  C5         1.0120    0.6740    0.3880 C.ar    1  UNL1       -0.0393
      6  C6         1.3970   -0.2110   -0.5680 C.ar    1  UNL1        0.0483
      7  N1         0.4980   -1.0690   -1.2480 N.pl3   1  UNL1       -0.2162
      8  S1        -0.9320   -1.6970   -0.6270 S.O2    1  UNL1        0.0745
      9  O1        -0.6470   -2.4860    0.6600 O.2     1  UNL1       -0.1499
     10  O2        -1.5080   -2.7060   -1.6230 O.2     1  UNL1       -0.1499
     11  C7        -2.1890   -0.5780   -0.2420 C.ar    1  UNL1        0.1365
     12  C8        -2.2210    0.7480   -0.6590 C.ar    1  UNL1       -0.0328
     13  C9        -3.3050    1.5370   -0.3640 C.ar    1  UNL1       -0.0577
     14  C10       -4.3680    1.0370    0.3410 C.ar    1  UNL1       -0.0334
     15  C11       -4.3190   -0.3230    0.7610 C.ar    1  UNL1        0.1018
     16  N2        -5.3810   -0.8500    1.4760 N.ar    1  UNL1       -0.1907
     17  S2        -4.9260   -2.5010    1.7850 S.2     1  UNL1        0.1165
     18  N3        -3.3910   -2.4360    0.9800 N.ar    1  UNL1       -0.1888
     19  C12       -3.2920   -1.0570    0.4770 C.ar    1  UNL1        0.1264
     20  C13        2.7710   -0.3100   -0.8640 C.ar    1  UNL1       -0.0364
     21 H           5.7467    0.9847    0.0263 H       1  UNL1        0.0278
     22 H           5.3370    0.5445   -1.6142 H       1  UNL1        0.0278
     23 H           5.5112   -0.6947   -0.3947 H       1  UNL1        0.0278
     24 H           4.0270    1.9048    1.2039 H       1  UNL1        0.0620
     25 H           1.7264    2.1150    1.7492 H       1  UNL1        0.0618
     26 H           0.0176    0.7820    0.6419 H       1  UNL1        0.0636
     27 H           0.7327   -1.3209   -2.1703 H       1  UNL1        0.1737
     28 H          -1.4284    1.1398   -1.1913 H       1  UNL1        0.0638
     29 H          -3.3194    2.5201   -0.6775 H       1  UNL1        0.0619
     30 H          -5.1830    1.6303    0.5619 H       1  UNL1        0.0640
     31 H           3.0607   -0.9841   -1.5897 H       1  UNL1        0.0639
@<TRIPOS>BOND
     1     1     2    1
     2     2     3   ar
     3     2    20   ar
     4     3     4   ar
     5     4     5   ar
     6     5     6   ar
     7     6     7    1
     8     6    20   ar
     9     7     8    1
    10     8     9    2
    11     8    10    2
    12     8    11    1
    13    11    12   ar
    14    11    19   ar
    15    12    13   ar
    16    13    14   ar
    17    14    15   ar
    18    15    16   ar
    19    15    19   ar
    20    16    17   ar
    21    17    18   ar
    22    18    19   ar
    23     1    21    1
    24     1    22    1
    25     1    23    1
    26     3    24    1
    27     4    25    1
    28     5    26    1
    29     7    27    1
    30    12    28    1
    31    13    29    1
    32    14    30    1
    33    20    31    1
@<TRIPOS>MOLECULE
../data/bude_mols_rdkit_confs/molecule_13.pdb
 31 33 0 0 0
SMALL
GASTEIGER

@<TRIPOS>ATOM
      1  C1         5.2100   -0.0330   -0.3980 C.3     1  UNL1       -0.0397
      2  C2         3.7870   -0.1680   -0.0060 C.ar    1  UNL1       -0.0487
      3  C3         3.4550   -0.5190    1.2880 C.ar    1  UNL1       -0.0587
      4  C4         2.1370   -0.6400    1.6370 C.ar    1  UNL1       -0.0597
      5  C5         1.1200   -0.4120    0.7000 C.ar    1  UNL1       -0.0393
      6  C6         1.4060   -0.0650   -0.5870 C.ar    1  UNL1        0.0483
      7  N1         0.4970    0.2220   -1.6250 N.pl3   1  UNL1       -0.2162
      8  S1        -0.9800    0.9770   -1.4650 S.O2    1  UNL1        0.0745
      9  O1        -0.7240    2.3360   -0.7820 O.2     1  UNL1       -0.1499
     10  O2        -1.5470    1.3780   -2.8200 O.2     1  UNL1       -0.1499
     11  C7        -2.2160    0.2180   -0.5630 C.ar    1  UNL1        0.1365
     12  C8        -2.2200   -1.0980   -0.1630 C.ar    1  UNL1       -0.0328
     13  C9        -3.2930   -1.6490    0.5040 C.ar    1  UNL1       -0.0577
     14  C10       -4.4090   -0.8970    0.7950 C.ar    1  UNL1       -0.0334
     15  C11       -4.3910    0.4390    0.3820 C.ar    1  UNL1        0.1018
     16  N2        -5.4840    1.3210    0.6250 N.ar    1  UNL1       -0.1907
     17  S2        -5.1360    2.7870    0.0200 S.2     1  UNL1        0.1165
     18  N3        -3.4630    2.3150   -0.6170 N.ar    1  UNL1       -0.1888
     19  C12       -3.3760    0.9550   -0.2470 C.ar    1  UNL1        0.1264
     20  C13        2.7950    0.0490   -0.9030 C.ar    1  UNL1       -0.0364
     21 H           5.8338   -0.2437    0.4454 H       1  UNL1        0.0278
     22 H           5.3935    0.9652   -0.7368 H       1  UNL1        0.0278
     23 H           5.4300   -0.7230   -1.1856 H       1  UNL1        0.0278
     24 H           4.1953   -0.6888    1.9866 H       1  UNL1        0.0620
     25 H           1.8887   -0.9028    2.6036 H       1  UNL1        0.0618
     26 H           0.1344   -0.5088    0.9902 H       1  UNL1        0.0636
     27 H           0.7604   -0.0502   -2.5337 H       1  UNL1        0.1737
     28 H          -1.3984   -1.6881   -0.3676 H       1  UNL1        0.0638
     29 H          -3.2594   -2.6401    0.7896 H       1  UNL1        0.0619
     30 H          -5.2184   -1.2992    1.2931 H       1  UNL1        0.0640
     31 H           3.0566    0.3107   -1.8664 H       1  UNL1        0.0639
@<TRIPOS>BOND
     1     1     2    1
     2     2     3   ar
     3     2    20   ar
     4     3     4   ar
     5     4     5   ar
     6     5     6   ar
     7     6     7    1
     8     6    20   ar
     9     7     8    1
    10     8     9    2
    11     8    10    2
    12     8    11    1
    13    11    12   ar
    14    11    19   ar
    15    12    13   ar
    16    13    14   ar
    17    14    15   ar
    18    15    16   ar
    19    15    19   ar
    20    16    17   ar
    21    17    18   ar
    22    18    19   ar
    23     1    21    1
    24     1    22    1
    25     1    23    1
    26     3    24    1
    27     4    25    1
    28     5    26    1
    29     7    27    1
    30    12    28    1
    31    13    29    1
    32    14    30    1
    33    20    31    1
@<TRIPOS>MOLECULE
../data/bude_mols_rdkit_confs/molecule_13.pdb
 31 33 0 0 0
SMALL
GASTEIGER

@<TRIPOS>ATOM
      1  C1         2.2380    2.3450    0.2250 C.3     1  UNL1       -0.0397
      2  C2         2.3030    0.9020    0.5690 C.ar    1  UNL1       -0.0487
      3  C3         3.5140    0.3910    0.9650 C.ar    1  UNL1       -0.0587
      4  C4         3.6300   -0.9440    1.2970 C.ar    1  UNL1       -0.0597
      5  C5         2.5080   -1.7700    1.2260 C.ar    1  UNL1       -0.0393
      6  C6         1.2830   -1.2780    0.8310 C.ar    1  UNL1        0.0483
      7  N1         0.1730   -2.1520    0.7740 N.pl3   1  UNL1       -0.2162
      8  S1        -0.9520   -2.2400   -0.5050 S.O2    1  UNL1        0.0745
      9  O1        -0.2720   -2.5680   -1.7900 O.2     1  UNL1       -0.1499
     10  O2        -2.0210   -3.2850   -0.2290 O.2     1  UNL1       -0.1499
     11  C7        -1.7790   -0.7190   -0.6840 C.ar    1  UNL1        0.1365
     12  C8        -1.7180   -0.0060   -1.8490 C.ar    1  UNL1       -0.0328
     13  C9        -2.3680    1.2040   -2.0180 C.ar    1  UNL1       -0.0577
     14  C10       -3.1050    1.6860   -0.9400 C.ar    1  UNL1       -0.0334
     15  C11       -3.1720    0.9710    0.2410 C.ar    1  UNL1        0.1018
     16  N2        -3.9060    1.4200    1.3610 N.ar    1  UNL1       -0.1907
     17  S2        -3.7290    0.2750    2.5720 S.2     1  UNL1        0.1165
     18  N3        -2.6790   -0.8330    1.6360 N.ar    1  UNL1       -0.1888
     19  C12       -2.5460   -0.1710    0.3710 C.ar    1  UNL1        0.1264
     20  C13        1.2040    0.0540    0.5090 C.ar    1  UNL1       -0.0364
     21 H           3.2056    2.7849    0.3478 H       1  UNL1        0.0278
     22 H           1.5392    2.8345    0.8707 H       1  UNL1        0.0278
     23 H           1.9223    2.4555   -0.7914 H       1  UNL1        0.0278
     24 H           4.3405    1.0069    1.0147 H       1  UNL1        0.0620
     25 H           4.5401   -1.3281    1.5955 H       1  UNL1        0.0618
     26 H           2.5971   -2.7678    1.4739 H       1  UNL1        0.0636
     27 H           0.0382   -2.7605    1.5361 H       1  UNL1        0.1737
     28 H          -1.1652   -0.3853   -2.6336 H       1  UNL1        0.0638
     29 H          -2.3088    1.7269   -2.9058 H       1  UNL1        0.0619
     30 H          -3.6055    2.5846   -1.0232 H       1  UNL1        0.0640
     31 H           0.2944    0.4400    0.2112 H       1  UNL1        0.0639
@<TRIPOS>BOND
     1     1     2    1
     2     2     3   ar
     3     2    20   ar
     4     3     4   ar
     5     4     5   ar
     6     5     6   ar
     7     6     7    1
     8     6    20   ar
     9     7     8    1
    10     8     9    2
    11     8    10    2
    12     8    11    1
    13    11    12   ar
    14    11    19   ar
    15    12    13   ar
    16    13    14   ar
    17    14    15   ar
    18    15    16   ar
    19    15    19   ar
    20    16    17   ar
    21    17    18   ar
    22    18    19   ar
    23     1    21    1
    24     1    22    1
    25     1    23    1
    26     3    24    1
    27     4    25    1
    28     5    26    1
    29     7    27    1
    30    12    28    1
    31    13    29    1
    32    14    30    1
    33    20    31    1
@<TRIPOS>MOLECULE
../data/bude_mols_rdkit_confs/molecule_13.pdb
 31 33 0 0 0
SMALL
GASTEIGER

@<TRIPOS>ATOM
      1  C1         5.1350    0.9550    0.1420 C.3     1  UNL1       -0.0397
      2  C2         3.8260    0.3290    0.4690 C.ar    1  UNL1       -0.0487
      3  C3         3.7120   -0.4160    1.6250 C.ar    1  UNL1       -0.0587
      4  C4         2.5150   -1.0050    1.9520 C.ar    1  UNL1       -0.0597
      5  C5         1.3900   -0.8690    1.1340 C.ar    1  UNL1       -0.0393
      6  C6         1.4710   -0.1380   -0.0150 C.ar    1  UNL1        0.0483
      7  N1         0.3930    0.0190   -0.8940 N.pl3   1  UNL1       -0.2162
      8  S1        -0.7840   -1.1240   -1.2930 S.O2    1  UNL1        0.0745
      9  O1        -0.7010   -1.3480   -2.8020 O.2     1  UNL1       -0.1499
     10  O2        -0.5340   -2.4620   -0.6150 O.2     1  UNL1       -0.1499
     11  C7        -2.3940   -0.6750   -0.9220 C.ar    1  UNL1        0.1365
     12  C8        -3.3520   -0.6380   -1.9360 C.ar    1  UNL1       -0.0328
     13  C9        -4.6610   -0.2910   -1.6880 C.ar    1  UNL1       -0.0577
     14  C10       -5.0470    0.0300   -0.4010 C.ar    1  UNL1       -0.0334
     15  C11       -4.0850   -0.0110    0.5980 C.ar    1  UNL1        0.1018
     16  N2        -4.4300    0.3170    1.9490 N.ar    1  UNL1       -0.1907
     17  S2        -2.8500    0.1110    2.7990 S.2     1  UNL1        0.1165
     18  N3        -1.9650   -0.3430    1.4350 N.ar    1  UNL1       -0.1888
     19  C12       -2.8530   -0.3430    0.3340 C.ar    1  UNL1        0.1264
     20  C13        2.7180    0.4480   -0.3120 C.ar    1  UNL1       -0.0364
     21 H           5.8450    0.7169    0.9063 H       1  UNL1        0.0278
     22 H           5.0176    2.0169    0.0825 H       1  UNL1        0.0278
     23 H           5.4841    0.5815   -0.7980 H       1  UNL1        0.0278
     24 H           4.5285   -0.5309    2.2456 H       1  UNL1        0.0620
     25 H           2.4449   -1.5594    2.8196 H       1  UNL1        0.0618
     26 H           0.5004   -1.3203    1.3984 H       1  UNL1        0.0636
     27 H           0.3116    0.8978   -1.3302 H       1  UNL1        0.1737
     28 H          -3.0711   -0.8777   -2.8997 H       1  UNL1        0.0638
     29 H          -5.3484   -0.2708   -2.4575 H       1  UNL1        0.0619
     30 H          -6.0222    0.2926   -0.1888 H       1  UNL1        0.0640
     31 H           2.7958    1.0035   -1.1782 H       1  UNL1        0.0639
@<TRIPOS>BOND
     1     1     2    1
     2     2     3   ar
     3     2    20   ar
     4     3     4   ar
     5     4     5   ar
     6     5     6   ar
     7     6     7    1
     8     6    20   ar
     9     7     8    1
    10     8     9    2
    11     8    10    2
    12     8    11    1
    13    11    12   ar
    14    11    19   ar
    15    12    13   ar
    16    13    14   ar
    17    14    15   ar
    18    15    16   ar
    19    15    19   ar
    20    16    17   ar
    21    17    18   ar
    22    18    19   ar
    23     1    21    1
    24     1    22    1
    25     1    23    1
    26     3    24    1
    27     4    25    1
    28     5    26    1
    29     7    27    1
    30    12    28    1
    31    13    29    1
    32    14    30    1
    33    20    31    1
@<TRIPOS>MOLECULE
../data/bude_mols_rdkit_confs/molecule_13.pdb
 31 33 0 0 0
SMALL
GASTEIGER

@<TRIPOS>ATOM
      1  C1         3.8220   -1.6140   -1.6540 C.3     1  UNL1       -0.0397
      2  C2         3.0810   -0.8120   -0.6500 C.ar    1  UNL1       -0.0487
      3  C3         3.2770   -1.0520    0.6990 C.ar    1  UNL1       -0.0587
      4  C4         2.6050   -0.3260    1.6520 C.ar    1  UNL1       -0.0597
      5  C5         1.7260    0.6540    1.2190 C.ar    1  UNL1       -0.0393
      6  C6         1.4840    0.9430   -0.1040 C.ar    1  UNL1        0.0483
      7  N1         0.5770    1.9570   -0.5120 N.pl3   1  UNL1       -0.2162
      8  S1        -0.9400    2.1270    0.2210 S.O2    1  UNL1        0.0745
      9  O1        -0.7750    2.4490    1.7030 O.2     1  UNL1       -0.1499
     10  O2        -1.6320    3.3410   -0.3500 O.2     1  UNL1       -0.1499
     11  C7        -1.9550    0.7480    0.0340 C.ar    1  UNL1        0.1365
     12  C8        -1.5880   -0.3650   -0.6580 C.ar    1  UNL1       -0.0328
     13  C9        -2.3930   -1.4820   -0.8220 C.ar    1  UNL1       -0.0577
     14  C10       -3.6570   -1.4200   -0.2230 C.ar    1  UNL1       -0.0334
     15  C11       -4.0420   -0.3060    0.4760 C.ar    1  UNL1        0.1018
     16  N2        -5.3440   -0.1670    1.1280 N.ar    1  UNL1       -0.1907
     17  S2        -5.3980    1.2680    1.8290 S.2     1  UNL1        0.1165
     18  N3        -3.7400    1.8530    1.3580 N.ar    1  UNL1       -0.1888
     19  C12       -3.2690    0.7240    0.6130 C.ar    1  UNL1        0.1264
     20  C13        2.1960    0.1730   -1.0320 C.ar    1  UNL1       -0.0364
     21 H           4.4519   -2.3190   -1.1529 H       1  UNL1        0.0278
     22 H           4.4222   -0.9647   -2.2566 H       1  UNL1        0.0278
     23 H           3.1264   -2.1368   -2.2767 H       1  UNL1        0.0278
     24 H           3.9382   -1.7877    0.9934 H       1  UNL1        0.0620
     25 H           2.7500   -0.5046    2.6580 H       1  UNL1        0.0618
     26 H           1.2214    1.2012    1.9338 H       1  UNL1        0.0636
     27 H           0.8353    2.5731   -1.2351 H       1  UNL1        0.1737
     28 H          -0.6501   -0.3785   -1.0884 H       1  UNL1        0.0638
     29 H          -2.0794   -2.3092   -1.3535 H       1  UNL1        0.0619
     30 H          -4.3038   -2.2196   -0.3086 H       1  UNL1        0.0640
     31 H           2.0528    0.3496   -2.0386 H       1  UNL1        0.0639
@<TRIPOS>BOND
     1     1     2    1
     2     2     3   ar
     3     2    20   ar
     4     3     4   ar
     5     4     5   ar
     6     5     6   ar
     7     6     7    1
     8     6    20   ar
     9     7     8    1
    10     8     9    2
    11     8    10    2
    12     8    11    1
    13    11    12   ar
    14    11    19   ar
    15    12    13   ar
    16    13    14   ar
    17    14    15   ar
    18    15    16   ar
    19    15    19   ar
    20    16    17   ar
    21    17    18   ar
    22    18    19   ar
    23     1    21    1
    24     1    22    1
    25     1    23    1
    26     3    24    1
    27     4    25    1
    28     5    26    1
    29     7    27    1
    30    12    28    1
    31    13    29    1
    32    14    30    1
    33    20    31    1
@<TRIPOS>MOLECULE
../data/bude_mols_rdkit_confs/molecule_13.pdb
 31 33 0 0 0
SMALL
GASTEIGER

@<TRIPOS>ATOM
      1  C1         3.4050    2.3290    0.3730 C.3     1  UNL1       -0.0397
      2  C2         3.1260    0.9210   -0.0300 C.ar    1  UNL1       -0.0487
      3  C3         4.0960    0.1360   -0.5870 C.ar    1  UNL1       -0.0587
      4  C4         3.8090   -1.1610   -0.9490 C.ar    1  UNL1       -0.0597
      5  C5         2.5670   -1.6660   -0.7560 C.ar    1  UNL1       -0.0393
      6  C6         1.5790   -0.8670   -0.1890 C.ar    1  UNL1        0.0483
      7  N1         0.3160   -1.4820   -0.0550 N.pl3   1  UNL1       -0.2162
      8  S1        -0.7460   -1.1900    1.2520 S.O2    1  UNL1        0.0745
      9  O1        -0.0930   -0.1990    2.2090 O.2     1  UNL1       -0.1499
     10  O2        -0.9760   -2.4310    2.0740 O.2     1  UNL1       -0.1499
     11  C7        -2.2520   -0.5720    0.6600 C.ar    1  UNL1        0.1365
     12  C8        -3.4080   -1.2820    1.0050 C.ar    1  UNL1       -0.0328
     13  C9        -4.6350   -0.8680    0.5970 C.ar    1  UNL1       -0.0577
     14  C10       -4.7270    0.2720   -0.1680 C.ar    1  UNL1       -0.0334
     15  C11       -3.5520    0.9670   -0.5010 C.ar    1  UNL1        0.1018
     16  N2        -3.5980    2.1410   -1.2900 N.ar    1  UNL1       -0.1907
     17  S2        -2.0760    2.6770   -1.4860 S.2     1  UNL1        0.1165
     18  N3        -1.2670    1.3360   -0.5040 N.ar    1  UNL1       -0.1888
     19  C12       -2.3640    0.5830   -0.1170 C.ar    1  UNL1        0.1264
     20  C13        1.8330    0.4300    0.1830 C.ar    1  UNL1       -0.0364
     21 H           4.4248    2.5674    0.1537 H       1  UNL1        0.0278
     22 H           3.2304    2.4408    1.4227 H       1  UNL1        0.0278
     23 H           2.7600    2.9894   -0.1682 H       1  UNL1        0.0278
     24 H           5.0440    0.5155   -0.7364 H       1  UNL1        0.0620
     25 H           4.5437   -1.7513   -1.3694 H       1  UNL1        0.0618
     26 H           2.3546   -2.6385   -1.0282 H       1  UNL1        0.0636
     27 H           0.0306   -2.1146   -0.7533 H       1  UNL1        0.1737
     28 H          -3.3262   -2.1353    1.5797 H       1  UNL1        0.0638
     29 H          -5.4820   -1.3979    0.8556 H       1  UNL1        0.0619
     30 H          -5.6458    0.6117   -0.4926 H       1  UNL1        0.0640
     31 H           1.0984    1.0203    0.6036 H       1  UNL1        0.0639
@<TRIPOS>BOND
     1     1     2    1
     2     2     3   ar
     3     2    20   ar
     4     3     4   ar
     5     4     5   ar
     6     5     6   ar
     7     6     7    1
     8     6    20   ar
     9     7     8    1
    10     8     9    2
    11     8    10    2
    12     8    11    1
    13    11    12   ar
    14    11    19   ar
    15    12    13   ar
    16    13    14   ar
    17    14    15   ar
    18    15    16   ar
    19    15    19   ar
    20    16    17   ar
    21    17    18   ar
    22    18    19   ar
    23     1    21    1
    24     1    22    1
    25     1    23    1
    26     3    24    1
    27     4    25    1
    28     5    26    1
    29     7    27    1
    30    12    28    1
    31    13    29    1
    32    14    30    1
    33    20    31    1
@<TRIPOS>MOLECULE
../data/bude_mols_rdkit_confs/molecule_13.pdb
 31 33 0 0 0
SMALL
GASTEIGER

@<TRIPOS>ATOM
      1  C1        -3.5680   -0.4270    1.7800 C.3     1  UNL1       -0.0397
      2  C2        -2.7900    0.3690    0.7980 C.ar    1  UNL1       -0.0487
      3  C3        -2.8090    1.7480    0.8090 C.ar    1  UNL1       -0.0587
      4  C4        -2.0840    2.4970   -0.1060 C.ar    1  UNL1       -0.0597
      5  C5        -1.3340    1.8520   -1.0410 C.ar    1  UNL1       -0.0393
      6  C6        -1.3040    0.4540   -1.0660 C.ar    1  UNL1        0.0483
      7  N1        -0.5260   -0.2130   -2.0320 N.pl3   1  UNL1       -0.2162
      8  S1         0.5050   -1.5450   -1.6610 S.O2    1  UNL1        0.0745
      9  O1        -0.3290   -2.6470   -1.1170 O.2     1  UNL1       -0.1499
     10  O2         1.1700   -2.0470   -2.9280 O.2     1  UNL1       -0.1499
     11  C7         1.7440   -1.0510   -0.5310 C.ar    1  UNL1        0.1365
     12  C8         1.7700   -1.7310    0.6990 C.ar    1  UNL1       -0.0328
     13  C9         2.7470   -1.3280    1.5660 C.ar    1  UNL1       -0.0577
     14  C10        3.6430   -0.3470    1.2930 C.ar    1  UNL1       -0.0334
     15  C11        3.5580    0.3000    0.0240 C.ar    1  UNL1        0.1018
     16  N2         4.4630    1.3300   -0.3210 N.ar    1  UNL1       -0.1907
     17  S2         3.8700    1.7400   -1.9910 S.2     1  UNL1        0.1165
     18  N3         2.6490    0.6600   -2.0660 N.ar    1  UNL1       -0.1888
     19  C12        2.6460   -0.0710   -0.7940 C.ar    1  UNL1        0.1264
     20  C13       -2.0270   -0.2670   -0.1530 C.ar    1  UNL1       -0.0364
     21 H          -4.0959    0.2332    2.4361 H       1  UNL1        0.0278
     22 H          -2.9015   -1.0394    2.3507 H       1  UNL1        0.0278
     23 H          -4.2674   -1.0486    1.2611 H       1  UNL1        0.0278
     24 H          -3.3785    2.2362    1.5178 H       1  UNL1        0.0620
     25 H          -2.1128    3.5282   -0.0783 H       1  UNL1        0.0618
     26 H          -0.7887    2.3934   -1.7299 H       1  UNL1        0.0636
     27 H          -0.5730    0.0964   -2.9654 H       1  UNL1        0.1737
     28 H           1.0997   -2.4806    0.9308 H       1  UNL1        0.0638
     29 H           2.8064   -1.7981    2.4828 H       1  UNL1        0.0619
     30 H           4.3632   -0.0771    1.9811 H       1  UNL1        0.0640
     31 H          -1.9988   -1.2983   -0.1791 H       1  UNL1        0.0639
@<TRIPOS>BOND
     1     1     2    1
     2     2     3   ar
     3     2    20   ar
     4     3     4   ar
     5     4     5   ar
     6     5     6   ar
     7     6     7    1
     8     6    20   ar
     9     7     8    1
    10     8     9    2
    11     8    10    2
    12     8    11    1
    13    11    12   ar
    14    11    19   ar
    15    12    13   ar
    16    13    14   ar
    17    14    15   ar
    18    15    16   ar
    19    15    19   ar
    20    16    17   ar
    21    17    18   ar
    22    18    19   ar
    23     1    21    1
    24     1    22    1
    25     1    23    1
    26     3    24    1
    27     4    25    1
    28     5    26    1
    29     7    27    1
    30    12    28    1
    31    13    29    1
    32    14    30    1
    33    20    31    1
