@<TRIPOS>MOLECULE
../data/bude_mols_rdkit_confs/molecule_83.pdb
 41 43 0 0 0
SMALL
GASTEIGER

@<TRIPOS>ATOM
      1  O1         1.2880    0.3810   -1.0050 O.2     1  UNL1       -0.2743
      2  C1         0.8210    0.0520    0.1120 C.2     1  UNL1        0.2295
      3  C2        -0.6420   -0.1840    0.2770 C.3     1  UNL1        0.0322
      4  C3        -1.3950    0.1290   -0.9810 C.3     1  UNL1        0.0138
      5  C4        -2.8390   -0.1250   -0.7770 C.ar    1  UNL1        0.1108
      6  N1        -3.6560    0.8440   -0.3130 N.ar    1  UNL1       -0.2337
      7  C5        -4.9700    0.6840   -0.1160 C.ar    1  UNL1        0.0781
      8  C6        -5.7970    1.6590    0.3510 C.ar    1  UNL1       -0.0355
      9  C7        -7.1440    1.4560    0.5390 C.ar    1  UNL1       -0.0597
     10  C8        -7.6640    0.2160    0.2410 C.ar    1  UNL1       -0.0609
     11  C9        -6.8510   -0.7920   -0.2330 C.ar    1  UNL1       -0.0474
     12  C10       -5.5040   -0.5650   -0.4130 C.ar    1  UNL1        0.0647
     13  C11       -4.6880   -1.5760   -0.8890 C.ar    1  UNL1        0.2592
     14  O2        -5.1750   -2.6970   -1.1550 O.2     1  UNL1       -0.2672
     15  N2        -3.3820   -1.3220   -1.0550 N.ar    1  UNL1       -0.3103
     16  N3         1.7530   -0.0710    1.1750 N.am    1  UNL1       -0.2341
     17  N4         3.1200    0.1690    0.9600 N.am    1  UNL1       -0.2304
     18  C12        3.9320   -0.5900    0.0720 C.2     1  UNL1        0.2601
     19  O3         3.4030   -1.5270   -0.5530 O.2     1  UNL1       -0.2687
     20  C13        5.3580   -0.2420   -0.0750 C.ar    1  UNL1        0.0383
     21  C14        5.7410    0.9010   -0.7400 C.ar    1  UNL1       -0.0469
     22  C15        7.0640    1.2820   -0.8950 C.ar    1  UNL1       -0.0257
     23  C16        8.0700    0.4920   -0.3660 C.ar    1  UNL1        0.1234
     24  F1         9.3540    0.8800   -0.5280 F       1  UNL1       -0.2055
     25  C17        7.6890   -0.6590    0.3030 C.ar    1  UNL1       -0.0257
     26  C18        6.3670   -1.0220    0.4470 C.ar    1  UNL1       -0.0469
     27 H          -1.0080    0.4399    1.0655 H       1  UNL1        0.0363
     28 H          -0.7910   -1.2179    0.5087 H       1  UNL1        0.0363
     29 H          -1.0339   -0.4910   -1.7748 H       1  UNL1        0.0348
     30 H          -1.2494    1.1586   -1.2332 H       1  UNL1        0.0348
     31 H          -5.3984    2.5849    0.5722 H       1  UNL1        0.0639
     32 H          -7.7492    2.2128    0.8940 H       1  UNL1        0.0618
     33 H          -8.6721    0.0394    0.3737 H       1  UNL1        0.0618
     34 H          -7.2519   -1.7172   -0.4531 H       1  UNL1        0.0626
     35 H          -2.7991   -2.0396   -1.3933 H       1  UNL1        0.1700
     36 H           1.4383   -0.3271    2.0720 H       1  UNL1        0.1728
     37 H           3.5424    0.9082    1.4544 H       1  UNL1        0.1731
     38 H           5.0065    1.5037   -1.1429 H       1  UNL1        0.0626
     39 H           7.2981    2.1499   -1.4020 H       1  UNL1        0.0646
     40 H           8.4195   -1.2655    0.7074 H       1  UNL1        0.0646
     41 H           6.1297   -1.8898    0.9526 H       1  UNL1        0.0626
@<TRIPOS>BOND
     1     1     2    2
     2     2     3    1
     3     2    16   am
     4     3     4    1
     5     4     5    1
     6     5     6   ar
     7     5    15   ar
     8     6     7   ar
     9     7     8   ar
    10     7    12   ar
    11     8     9   ar
    12     9    10   ar
    13    10    11   ar
    14    11    12   ar
    15    12    13   ar
    16    13    14    2
    17    13    15   ar
    18    16    17    1
    19    17    18   am
    20    18    19    2
    21    18    20    1
    22    20    21   ar
    23    20    26   ar
    24    21    22   ar
    25    22    23   ar
    26    23    24    1
    27    23    25   ar
    28    25    26   ar
    29     3    27    1
    30     3    28    1
    31     4    29    1
    32     4    30    1
    33     8    31    1
    34     9    32    1
    35    10    33    1
    36    11    34    1
    37    15    35    1
    38    16    36    1
    39    17    37    1
    40    21    38    1
    41    22    39    1
    42    25    40    1
    43    26    41    1
@<TRIPOS>MOLECULE
../data/bude_mols_rdkit_confs/molecule_83.pdb
 41 43 0 0 0
SMALL
GASTEIGER

@<TRIPOS>ATOM
      1  O1         0.8970    1.0890   -1.1150 O.2     1  UNL1       -0.2743
      2  C1         0.6780   -0.0280   -0.4880 C.2     1  UNL1        0.2295
      3  C2        -0.7580   -0.4360   -0.4180 C.3     1  UNL1        0.0322
      4  C3        -1.6470    0.6720   -0.9640 C.3     1  UNL1        0.0138
      5  C4        -3.0790    0.2700   -0.8530 C.ar    1  UNL1        0.1108
      6  N1        -3.6830    0.5540    0.3220 N.ar    1  UNL1       -0.2337
      7  C5        -4.9540    0.2270    0.4860 C.ar    1  UNL1        0.0781
      8  C6        -5.5590    0.5240    1.7040 C.ar    1  UNL1       -0.0355
      9  C7        -6.8900    0.1900    1.9060 C.ar    1  UNL1       -0.0597
     10  C8        -7.5710   -0.4320    0.8750 C.ar    1  UNL1       -0.0609
     11  C9        -6.9590   -0.7240   -0.3370 C.ar    1  UNL1       -0.0474
     12  C10       -5.6410   -0.3930   -0.5330 C.ar    1  UNL1        0.0647
     13  C11       -4.9810   -0.6620   -1.7200 C.ar    1  UNL1        0.2592
     14  O2        -5.5950   -1.2190   -2.6440 O.2     1  UNL1       -0.2672
     15  N2        -3.6870   -0.3260   -1.8770 N.ar    1  UNL1       -0.3103
     16  N3         1.7710   -0.6860    0.0330 N.am    1  UNL1       -0.2341
     17  N4         3.0910   -0.2520   -0.0440 N.am    1  UNL1       -0.2304
     18  C12        4.2120   -0.8300    0.5760 C.2     1  UNL1        0.2601
     19  O3         4.0020   -1.8610    1.2680 O.2     1  UNL1       -0.2687
     20  C13        5.5630   -0.3130    0.4630 C.ar    1  UNL1        0.0383
     21  C14        5.8620    0.7510   -0.3400 C.ar    1  UNL1       -0.0469
     22  C15        7.1460    1.2430   -0.4180 C.ar    1  UNL1       -0.0257
     23  C16        8.1610    0.6570    0.3260 C.ar    1  UNL1        0.1234
     24  F1         9.4440    1.1460    0.2540 F       1  UNL1       -0.2055
     25  C17        7.8840   -0.4210    1.1460 C.ar    1  UNL1       -0.0257
     26  C18        6.5680   -0.8870    1.1940 C.ar    1  UNL1       -0.0469
     27 H          -1.0209   -0.6302    0.6009 H       1  UNL1        0.0363
     28 H          -0.8991   -1.3184   -1.0065 H       1  UNL1        0.0363
     29 H          -1.4057    0.8474   -1.9916 H       1  UNL1        0.0348
     30 H          -1.4856    1.5660   -0.3987 H       1  UNL1        0.0348
     31 H          -5.0209    0.9895    2.4515 H       1  UNL1        0.0639
     32 H          -7.3593    0.3998    2.8008 H       1  UNL1        0.0618
     33 H          -8.5620   -0.6863    1.0103 H       1  UNL1        0.0618
     34 H          -7.4932   -1.1883   -1.0880 H       1  UNL1        0.0626
     35 H          -3.2084   -0.5137   -2.7166 H       1  UNL1        0.1700
     36 H           1.6036   -1.5364    0.4999 H       1  UNL1        0.1728
     37 H           3.2579    0.5479   -0.5932 H       1  UNL1        0.1731
     38 H           5.1140    1.1930   -0.8969 H       1  UNL1        0.0626
     39 H           7.3537    2.0477   -1.0298 H       1  UNL1        0.0646
     40 H           8.6270   -0.8679    1.7057 H       1  UNL1        0.0646
     41 H           6.3459   -1.6914    1.8012 H       1  UNL1        0.0626
@<TRIPOS>BOND
     1     1     2    2
     2     2     3    1
     3     2    16   am
     4     3     4    1
     5     4     5    1
     6     5     6   ar
     7     5    15   ar
     8     6     7   ar
     9     7     8   ar
    10     7    12   ar
    11     8     9   ar
    12     9    10   ar
    13    10    11   ar
    14    11    12   ar
    15    12    13   ar
    16    13    14    2
    17    13    15   ar
    18    16    17    1
    19    17    18   am
    20    18    19    2
    21    18    20    1
    22    20    21   ar
    23    20    26   ar
    24    21    22   ar
    25    22    23   ar
    26    23    24    1
    27    23    25   ar
    28    25    26   ar
    29     3    27    1
    30     3    28    1
    31     4    29    1
    32     4    30    1
    33     8    31    1
    34     9    32    1
    35    10    33    1
    36    11    34    1
    37    15    35    1
    38    16    36    1
    39    17    37    1
    40    21    38    1
    41    22    39    1
    42    25    40    1
    43    26    41    1
@<TRIPOS>MOLECULE
../data/bude_mols_rdkit_confs/molecule_83.pdb
 41 43 0 0 0
SMALL
GASTEIGER

@<TRIPOS>ATOM
      1  O1         1.2130   -1.2710   -0.5970 O.2     1  UNL1       -0.2743
      2  C1         0.8190   -0.4340    0.2450 C.2     1  UNL1        0.2295
      3  C2        -0.6550   -0.1570    0.3490 C.3     1  UNL1        0.0322
      4  C3        -1.3840   -0.9660   -0.7040 C.3     1  UNL1        0.0138
      5  C4        -2.8120   -0.5920   -0.6040 C.ar    1  UNL1        0.1108
      6  N1        -3.6410   -1.2440    0.2020 N.ar    1  UNL1       -0.2337
      7  C5        -4.9600   -0.9200    0.3080 C.ar    1  UNL1        0.0781
      8  C6        -5.8200   -1.6060    1.1540 C.ar    1  UNL1       -0.0355
      9  C7        -7.1430   -1.2280    1.2170 C.ar    1  UNL1       -0.0597
     10  C8        -7.6150   -0.1750    0.4460 C.ar    1  UNL1       -0.0609
     11  C9        -6.7430    0.4910   -0.3850 C.ar    1  UNL1       -0.0474
     12  C10       -5.3970    0.1310   -0.4710 C.ar    1  UNL1        0.0647
     13  C11       -4.5260    0.7990   -1.3030 C.ar    1  UNL1        0.2592
     14  O2        -4.9650    1.7520   -1.9980 O.2     1  UNL1       -0.2672
     15  N2        -3.2240    0.4430   -1.3770 N.ar    1  UNL1       -0.3103
     16  N3         1.6740    0.2790    1.1030 N.am    1  UNL1       -0.2341
     17  N4         3.0650    0.1180    1.0650 N.am    1  UNL1       -0.2304
     18  C12        3.8150    0.7100   -0.0100 C.2     1  UNL1        0.2601
     19  O3         3.1610    1.3430   -0.8970 O.2     1  UNL1       -0.2687
     20  C13        5.2430    0.5690   -0.0340 C.ar    1  UNL1        0.0383
     21  C14        6.0110    1.6940    0.3070 C.ar    1  UNL1       -0.0469
     22  C15        7.3800    1.6830    0.3080 C.ar    1  UNL1       -0.0257
     23  C16        8.0640    0.5360   -0.0360 C.ar    1  UNL1        0.1234
     24  F1         9.4250    0.5230   -0.0360 F       1  UNL1       -0.2055
     25  C17        7.3410   -0.5780   -0.3730 C.ar    1  UNL1       -0.0257
     26  C18        5.9420   -0.5550   -0.3700 C.ar    1  UNL1       -0.0469
     27 H          -0.8363    0.8854    0.1898 H       1  UNL1        0.0363
     28 H          -1.0065   -0.4298    1.3221 H       1  UNL1        0.0363
     29 H          -1.2616   -2.0124   -0.5171 H       1  UNL1        0.0348
     30 H          -0.9985   -0.7666   -1.6820 H       1  UNL1        0.0348
     31 H          -5.4726   -2.3896    1.7288 H       1  UNL1        0.0639
     32 H          -7.7894   -1.7326    1.8435 H       1  UNL1        0.0618
     33 H          -8.6071    0.1051    0.4951 H       1  UNL1        0.0618
     34 H          -7.0925    1.2750   -0.9580 H       1  UNL1        0.0626
     35 H          -2.5980    0.9177   -1.9703 H       1  UNL1        0.1700
     36 H           1.2837    0.9103    1.7498 H       1  UNL1        0.1728
     37 H           3.5250   -0.3957    1.7677 H       1  UNL1        0.1731
     38 H           5.5232    2.5653    0.5677 H       1  UNL1        0.0626
     39 H           7.9014    2.5352    0.5668 H       1  UNL1        0.0646
     40 H           7.8351   -1.4460   -0.6326 H       1  UNL1        0.0646
     41 H           5.4248   -1.4098   -0.6285 H       1  UNL1        0.0626
@<TRIPOS>BOND
     1     1     2    2
     2     2     3    1
     3     2    16   am
     4     3     4    1
     5     4     5    1
     6     5     6   ar
     7     5    15   ar
     8     6     7   ar
     9     7     8   ar
    10     7    12   ar
    11     8     9   ar
    12     9    10   ar
    13    10    11   ar
    14    11    12   ar
    15    12    13   ar
    16    13    14    2
    17    13    15   ar
    18    16    17    1
    19    17    18   am
    20    18    19    2
    21    18    20    1
    22    20    21   ar
    23    20    26   ar
    24    21    22   ar
    25    22    23   ar
    26    23    24    1
    27    23    25   ar
    28    25    26   ar
    29     3    27    1
    30     3    28    1
    31     4    29    1
    32     4    30    1
    33     8    31    1
    34     9    32    1
    35    10    33    1
    36    11    34    1
    37    15    35    1
    38    16    36    1
    39    17    37    1
    40    21    38    1
    41    22    39    1
    42    25    40    1
    43    26    41    1
@<TRIPOS>MOLECULE
../data/bude_mols_rdkit_confs/molecule_83.pdb
 41 43 0 0 0
SMALL
GASTEIGER

@<TRIPOS>ATOM
      1  O1         1.4830    0.7340    0.6580 O.2     1  UNL1       -0.2743
      2  C1         0.8290   -0.3470    0.4510 C.2     1  UNL1        0.2295
      3  C2        -0.6450   -0.3280    0.3220 C.3     1  UNL1        0.0322
      4  C3        -1.1670    1.0700    0.5440 C.3     1  UNL1        0.0138
      5  C4        -2.6460    1.1160    0.4370 C.ar    1  UNL1        0.1108
      6  N1        -3.4450    0.0570    0.2480 N.ar    1  UNL1       -0.2337
      7  C5        -4.7920    0.1250    0.1630 C.ar    1  UNL1        0.0781
      8  C6        -5.5900   -0.9970   -0.0270 C.ar    1  UNL1       -0.0355
      9  C7        -6.9620   -0.9520   -0.1090 C.ar    1  UNL1       -0.0597
     10  C8        -7.5610    0.2850    0.0040 C.ar    1  UNL1       -0.0609
     11  C9        -6.7860    1.4280    0.1940 C.ar    1  UNL1       -0.0474
     12  C10       -5.4130    1.3430    0.2730 C.ar    1  UNL1        0.0647
     13  C11       -4.6100    2.4470    0.4680 C.ar    1  UNL1        0.2592
     14  O2        -5.1410    3.5870    0.5730 O.2     1  UNL1       -0.2672
     15  N2        -3.2810    2.3350    0.5460 N.ar    1  UNL1       -0.3103
     16  N3         1.5440   -1.5490    0.3510 N.am    1  UNL1       -0.2341
     17  N4         2.9600   -1.5360    0.4850 N.am    1  UNL1       -0.2304
     18  C12        3.7230   -0.8550   -0.4860 C.2     1  UNL1        0.2601
     19  O3         3.0690   -0.2990   -1.4330 O.2     1  UNL1       -0.2687
     20  C13        5.1710   -0.7420   -0.4820 C.ar    1  UNL1        0.0383
     21  C14        5.7740    0.2550    0.2660 C.ar    1  UNL1       -0.0469
     22  C15        7.1280    0.3530    0.2610 C.ar    1  UNL1       -0.0257
     23  C16        7.9060   -0.5070   -0.4620 C.ar    1  UNL1        0.1234
     24  F1         9.2630   -0.4060   -0.4670 F       1  UNL1       -0.2055
     25  C17        7.3450   -1.5220   -1.2260 C.ar    1  UNL1       -0.0257
     26  C18        5.9570   -1.6040   -1.2070 C.ar    1  UNL1       -0.0469
     27 H          -1.0725   -0.9852    1.0502 H       1  UNL1        0.0363
     28 H          -0.9146   -0.6503   -0.6621 H       1  UNL1        0.0363
     29 H          -0.7438    1.7211   -0.1921 H       1  UNL1        0.0348
     30 H          -0.8896    1.3818    1.5293 H       1  UNL1        0.0348
     31 H          -5.1269   -1.9154   -0.1113 H       1  UNL1        0.0639
     32 H          -7.5203   -1.8085   -0.2493 H       1  UNL1        0.0618
     33 H          -8.5884    0.3649   -0.0524 H       1  UNL1        0.0618
     34 H          -7.2458    2.3482    0.2764 H       1  UNL1        0.0626
     35 H          -2.7399    3.1456    0.6852 H       1  UNL1        0.1700
     36 H           1.0692   -2.3961    0.1892 H       1  UNL1        0.1728
     37 H           3.3980   -1.9926    1.2393 H       1  UNL1        0.1731
     38 H           5.2030    0.9134    0.8187 H       1  UNL1        0.0626
     39 H           7.5809    1.0952    0.8169 H       1  UNL1        0.0646
     40 H           7.9238   -2.1765   -1.7752 H       1  UNL1        0.0646
     41 H           5.4981   -2.3438   -1.7611 H       1  UNL1        0.0626
@<TRIPOS>BOND
     1     1     2    2
     2     2     3    1
     3     2    16   am
     4     3     4    1
     5     4     5    1
     6     5     6   ar
     7     5    15   ar
     8     6     7   ar
     9     7     8   ar
    10     7    12   ar
    11     8     9   ar
    12     9    10   ar
    13    10    11   ar
    14    11    12   ar
    15    12    13   ar
    16    13    14    2
    17    13    15   ar
    18    16    17    1
    19    17    18   am
    20    18    19    2
    21    18    20    1
    22    20    21   ar
    23    20    26   ar
    24    21    22   ar
    25    22    23   ar
    26    23    24    1
    27    23    25   ar
    28    25    26   ar
    29     3    27    1
    30     3    28    1
    31     4    29    1
    32     4    30    1
    33     8    31    1
    34     9    32    1
    35    10    33    1
    36    11    34    1
    37    15    35    1
    38    16    36    1
    39    17    37    1
    40    21    38    1
    41    22    39    1
    42    25    40    1
    43    26    41    1
@<TRIPOS>MOLECULE
../data/bude_mols_rdkit_confs/molecule_83.pdb
 41 43 0 0 0
SMALL
GASTEIGER

@<TRIPOS>ATOM
      1  O1         0.0700   -0.9950   -0.6300 O.2     1  UNL1       -0.2743
      2  C1         0.2790   -1.9390    0.2000 C.2     1  UNL1        0.2295
      3  C2        -0.6570   -3.0800    0.2610 C.3     1  UNL1        0.0322
      4  C3        -1.7640   -2.9150   -0.7340 C.3     1  UNL1        0.0138
      5  C4        -2.5710   -1.6900   -0.5050 C.ar    1  UNL1        0.1108
      6  N1        -2.3430   -0.8050    0.4800 N.ar    1  UNL1       -0.2337
      7  C5        -3.1210    0.2950    0.6420 C.ar    1  UNL1        0.0781
      8  C6        -2.8830    1.1990    1.6500 C.ar    1  UNL1       -0.0355
      9  C7        -3.6770    2.3150    1.8070 C.ar    1  UNL1       -0.0597
     10  C8        -4.7530    2.5770    0.9560 C.ar    1  UNL1       -0.0609
     11  C9        -4.9840    1.6650   -0.0510 C.ar    1  UNL1       -0.0474
     12  C10       -4.1840    0.5510   -0.2020 C.ar    1  UNL1        0.0647
     13  C11       -4.4110   -0.3640   -1.2110 C.ar    1  UNL1        0.2592
     14  O2        -5.3830   -0.1200   -1.9730 O.2     1  UNL1       -0.2672
     15  N2        -3.6210   -1.4320   -1.3340 N.ar    1  UNL1       -0.3103
     16  N3         1.4140   -1.8750    1.0550 N.am    1  UNL1       -0.2341
     17  N4         2.3100   -0.8130    1.0160 N.am    1  UNL1       -0.2304
     18  C12        3.0390   -0.5660   -0.1690 C.2     1  UNL1        0.2601
     19  O3         2.8300   -1.3460   -1.1510 O.2     1  UNL1       -0.2687
     20  C13        3.9790    0.5350   -0.2440 C.ar    1  UNL1        0.0383
     21  C14        4.0400    1.5220    0.6990 C.ar    1  UNL1       -0.0469
     22  C15        4.9890    2.5380    0.5330 C.ar    1  UNL1       -0.0257
     23  C16        5.8490    2.5640   -0.5420 C.ar    1  UNL1        0.1234
     24  F1         6.7770    3.5530   -0.7070 F       1  UNL1       -0.2055
     25  C17        5.7520    1.5470   -1.4690 C.ar    1  UNL1       -0.0257
     26  C18        4.8330    0.5250   -1.3480 C.ar    1  UNL1       -0.0469
     27 H          -1.0751   -3.1383    1.2442 H       1  UNL1        0.0363
     28 H          -0.1199   -3.9762    0.0303 H       1  UNL1        0.0363
     29 H          -2.4097   -3.7658   -0.6701 H       1  UNL1        0.0348
     30 H          -1.3149   -2.8267   -1.7012 H       1  UNL1        0.0348
     31 H          -2.0972    1.0396    2.2997 H       1  UNL1        0.0639
     32 H          -3.4708    2.9743    2.5737 H       1  UNL1        0.0618
     33 H          -5.3463    3.4129    1.0755 H       1  UNL1        0.0618
     34 H          -5.7689    1.8179   -0.7034 H       1  UNL1        0.0626
     35 H          -3.8066   -2.0675   -2.0626 H       1  UNL1        0.1700
     36 H           1.5700   -2.6066    1.6951 H       1  UNL1        0.1728
     37 H           2.4354   -0.2388    1.8058 H       1  UNL1        0.1731
     38 H           3.4038    1.5187    1.5116 H       1  UNL1        0.0626
     39 H           5.0456    3.2900    1.2375 H       1  UNL1        0.0646
     40 H           6.3888    1.5507   -2.2811 H       1  UNL1        0.0646
     41 H           4.7786   -0.2258   -2.0540 H       1  UNL1        0.0626
@<TRIPOS>BOND
     1     1     2    2
     2     2     3    1
     3     2    16   am
     4     3     4    1
     5     4     5    1
     6     5     6   ar
     7     5    15   ar
     8     6     7   ar
     9     7     8   ar
    10     7    12   ar
    11     8     9   ar
    12     9    10   ar
    13    10    11   ar
    14    11    12   ar
    15    12    13   ar
    16    13    14    2
    17    13    15   ar
    18    16    17    1
    19    17    18   am
    20    18    19    2
    21    18    20    1
    22    20    21   ar
    23    20    26   ar
    24    21    22   ar
    25    22    23   ar
    26    23    24    1
    27    23    25   ar
    28    25    26   ar
    29     3    27    1
    30     3    28    1
    31     4    29    1
    32     4    30    1
    33     8    31    1
    34     9    32    1
    35    10    33    1
    36    11    34    1
    37    15    35    1
    38    16    36    1
    39    17    37    1
    40    21    38    1
    41    22    39    1
    42    25    40    1
    43    26    41    1
@<TRIPOS>MOLECULE
../data/bude_mols_rdkit_confs/molecule_83.pdb
 41 43 0 0 0
SMALL
GASTEIGER

@<TRIPOS>ATOM
      1  O1         0.9730    0.6040    1.1550 O.2     1  UNL1       -0.2743
      2  C1         0.8400   -0.3370    0.3490 C.2     1  UNL1        0.2295
      3  C2        -0.5250   -0.7840   -0.0400 C.3     1  UNL1        0.0322
      4  C3        -1.5190    0.0890    0.6800 C.3     1  UNL1        0.0138
      5  C4        -2.9030   -0.2960    0.3310 C.ar    1  UNL1        0.1108
      6  N1        -3.9590    0.3640    0.8980 N.ar    1  UNL1       -0.2337
      7  C5        -5.2110    0.0130    0.5720 C.ar    1  UNL1        0.0781
      8  C6        -6.2730    0.6730    1.1400 C.ar    1  UNL1       -0.0355
      9  C7        -7.5830    0.3450    0.8350 C.ar    1  UNL1       -0.0597
     10  C8        -7.8380   -0.6850   -0.0750 C.ar    1  UNL1       -0.0609
     11  C9        -6.7610   -1.3320   -0.6310 C.ar    1  UNL1       -0.0474
     12  C10       -5.4550   -1.0020   -0.3230 C.ar    1  UNL1        0.0647
     13  C11       -4.3650   -1.6380   -0.8690 C.ar    1  UNL1        0.2592
     14  O2        -4.5320   -2.5720   -1.6930 O.2     1  UNL1       -0.2672
     15  N2        -3.0910   -1.2920   -0.5490 N.ar    1  UNL1       -0.3103
     16  N3         2.0210   -0.9280   -0.1510 N.am    1  UNL1       -0.2341
     17  N4         3.3070   -0.5180    0.2070 N.am    1  UNL1       -0.2304
     18  C12        4.0460    0.2890   -0.6910 C.2     1  UNL1        0.2601
     19  O3         3.5110    0.6090   -1.7880 O.2     1  UNL1       -0.2687
     20  C13        5.3960    0.7680   -0.4090 C.ar    1  UNL1        0.0383
     21  C14        6.1340    1.4310   -1.3710 C.ar    1  UNL1       -0.0469
     22  C15        7.4100    1.9050   -1.1520 C.ar    1  UNL1       -0.0257
     23  C16        8.0210    1.7310    0.0730 C.ar    1  UNL1        0.1234
     24  F1         9.2760    2.1980    0.2950 F       1  UNL1       -0.2055
     25  C17        7.2980    1.0720    1.0430 C.ar    1  UNL1       -0.0257
     26  C18        6.0090    0.5930    0.8230 C.ar    1  UNL1       -0.0469
     27 H          -0.6672   -1.8063    0.2421 H       1  UNL1        0.0363
     28 H          -0.6563   -0.7044   -1.0989 H       1  UNL1        0.0363
     29 H          -1.3573    1.1092    0.4007 H       1  UNL1        0.0348
     30 H          -1.3837   -0.0336    1.7343 H       1  UNL1        0.0348
     31 H          -6.0896    1.4341    1.8124 H       1  UNL1        0.0639
     32 H          -8.3639    0.8561    1.2753 H       1  UNL1        0.0618
     33 H          -8.8043   -0.9509   -0.3213 H       1  UNL1        0.0618
     34 H          -6.9342   -2.0941   -1.3049 H       1  UNL1        0.0626
     35 H          -2.3246   -1.7601   -0.9525 H       1  UNL1        0.1700
     36 H           1.9326   -1.6724   -0.7891 H       1  UNL1        0.1728
     37 H           3.6941   -0.7864    1.0715 H       1  UNL1        0.1731
     38 H           5.7088    1.5787   -2.2997 H       1  UNL1        0.0626
     39 H           7.9119    2.3936   -1.9099 H       1  UNL1        0.0646
     40 H           7.7288    0.9275    1.9696 H       1  UNL1        0.0646
     41 H           5.5068    0.1049    1.5811 H       1  UNL1        0.0626
@<TRIPOS>BOND
     1     1     2    2
     2     2     3    1
     3     2    16   am
     4     3     4    1
     5     4     5    1
     6     5     6   ar
     7     5    15   ar
     8     6     7   ar
     9     7     8   ar
    10     7    12   ar
    11     8     9   ar
    12     9    10   ar
    13    10    11   ar
    14    11    12   ar
    15    12    13   ar
    16    13    14    2
    17    13    15   ar
    18    16    17    1
    19    17    18   am
    20    18    19    2
    21    18    20    1
    22    20    21   ar
    23    20    26   ar
    24    21    22   ar
    25    22    23   ar
    26    23    24    1
    27    23    25   ar
    28    25    26   ar
    29     3    27    1
    30     3    28    1
    31     4    29    1
    32     4    30    1
    33     8    31    1
    34     9    32    1
    35    10    33    1
    36    11    34    1
    37    15    35    1
    38    16    36    1
    39    17    37    1
    40    21    38    1
    41    22    39    1
    42    25    40    1
    43    26    41    1
@<TRIPOS>MOLECULE
../data/bude_mols_rdkit_confs/molecule_83.pdb
 41 43 0 0 0
SMALL
GASTEIGER

@<TRIPOS>ATOM
      1  O1         1.2820    0.5440   -0.6470 O.2     1  UNL1       -0.2743
      2  C1         0.8490   -0.6360   -0.4330 C.2     1  UNL1        0.2295
      3  C2        -0.5790   -0.8650   -0.0940 C.3     1  UNL1        0.0322
      4  C3        -1.2730    0.4480   -0.1990 C.3     1  UNL1        0.0138
      5  C4        -2.7210    0.4260    0.1200 C.ar    1  UNL1        0.1108
      6  N1        -3.6610    0.1710   -0.8050 N.ar    1  UNL1       -0.2337
      7  C5        -4.9930    0.1730   -0.5330 C.ar    1  UNL1        0.0781
      8  C6        -5.9490   -0.0900   -1.4880 C.ar    1  UNL1       -0.0355
      9  C7        -7.3100   -0.0860   -1.2000 C.ar    1  UNL1       -0.0597
     10  C8        -7.7320    0.1890    0.0830 C.ar    1  UNL1       -0.0609
     11  C9        -6.7810    0.4550    1.0490 C.ar    1  UNL1       -0.0474
     12  C10       -5.4230    0.4470    0.7460 C.ar    1  UNL1        0.0647
     13  C11       -4.4670    0.7090    1.7030 C.ar    1  UNL1        0.2592
     14  O2        -4.8680    0.9590    2.8720 O.2     1  UNL1       -0.2672
     15  N2        -3.1420    0.6930    1.3710 N.ar    1  UNL1       -0.3103
     16  N3         1.8290   -1.6630   -0.5480 N.am    1  UNL1       -0.2341
     17  N4         3.1690   -1.3220   -0.8770 N.am    1  UNL1       -0.2304
     18  C12        3.8740   -0.5040    0.0200 C.2     1  UNL1        0.2601
     19  O3         3.3450   -0.0720    1.1050 O.2     1  UNL1       -0.2687
     20  C13        5.2560   -0.0960   -0.2290 C.ar    1  UNL1        0.0383
     21  C14        6.0550    0.3570    0.7990 C.ar    1  UNL1       -0.0469
     22  C15        7.3460    0.7430    0.5440 C.ar    1  UNL1       -0.0257
     23  C16        7.8740    0.6920   -0.7250 C.ar    1  UNL1        0.1234
     24  F1         9.1540    1.0700   -0.9900 F       1  UNL1       -0.2055
     25  C17        7.0990    0.2430   -1.7760 C.ar    1  UNL1       -0.0257
     26  C18        5.7930   -0.1440   -1.5000 C.ar    1  UNL1       -0.0469
     27 H          -0.6627   -1.2451    0.9027 H       1  UNL1        0.0363
     28 H          -1.0170   -1.5801   -0.7586 H       1  UNL1        0.0363
     29 H          -1.1608    0.8020   -1.2025 H       1  UNL1        0.0348
     30 H          -0.8182    1.0827    0.5326 H       1  UNL1        0.0348
     31 H          -5.6451   -0.2976   -2.4522 H       1  UNL1        0.0639
     32 H          -7.9987   -0.2875   -1.9417 H       1  UNL1        0.0618
     33 H          -8.7371    0.1960    0.3170 H       1  UNL1        0.0618
     34 H          -7.0834    0.6635    2.0134 H       1  UNL1        0.0626
     35 H          -2.4736    0.8827    2.0685 H       1  UNL1        0.1700
     36 H           1.5796   -2.6039   -0.4004 H       1  UNL1        0.1728
     37 H           3.5885   -1.6483   -1.7057 H       1  UNL1        0.1731
     38 H           5.6818    0.4056    1.7599 H       1  UNL1        0.0626
     39 H           7.9347    1.0794    1.3220 H       1  UNL1        0.0646
     40 H           7.4772    0.1963   -2.7351 H       1  UNL1        0.0646
     41 H           5.2013   -0.4805   -2.2757 H       1  UNL1        0.0626
@<TRIPOS>BOND
     1     1     2    2
     2     2     3    1
     3     2    16   am
     4     3     4    1
     5     4     5    1
     6     5     6   ar
     7     5    15   ar
     8     6     7   ar
     9     7     8   ar
    10     7    12   ar
    11     8     9   ar
    12     9    10   ar
    13    10    11   ar
    14    11    12   ar
    15    12    13   ar
    16    13    14    2
    17    13    15   ar
    18    16    17    1
    19    17    18   am
    20    18    19    2
    21    18    20    1
    22    20    21   ar
    23    20    26   ar
    24    21    22   ar
    25    22    23   ar
    26    23    24    1
    27    23    25   ar
    28    25    26   ar
    29     3    27    1
    30     3    28    1
    31     4    29    1
    32     4    30    1
    33     8    31    1
    34     9    32    1
    35    10    33    1
    36    11    34    1
    37    15    35    1
    38    16    36    1
    39    17    37    1
    40    21    38    1
    41    22    39    1
    42    25    40    1
    43    26    41    1
@<TRIPOS>MOLECULE
../data/bude_mols_rdkit_confs/molecule_83.pdb
 41 43 0 0 0
SMALL
GASTEIGER

@<TRIPOS>ATOM
      1  O1         1.1680   -0.8770    0.3180 O.2     1  UNL1       -0.2743
      2  C1         0.8540    0.1770    0.9220 C.2     1  UNL1        0.2295
      3  C2        -0.5960    0.5800    0.9030 C.3     1  UNL1        0.0322
      4  C3        -1.3460   -0.3460    0.0130 C.3     1  UNL1        0.0138
      5  C4        -2.7860   -0.0950   -0.0810 C.ar    1  UNL1        0.1108
      6  N1        -3.4870   -0.8950   -0.9270 N.ar    1  UNL1       -0.2337
      7  C5        -4.8120   -0.7980   -1.1050 C.ar    1  UNL1        0.0781
      8  C6        -5.5210   -1.6110   -1.9610 C.ar    1  UNL1       -0.0355
      9  C7        -6.8830   -1.5190   -2.1460 C.ar    1  UNL1       -0.0597
     10  C8        -7.6040   -0.5530   -1.4320 C.ar    1  UNL1       -0.0609
     11  C9        -6.8910    0.2560   -0.5800 C.ar    1  UNL1       -0.0474
     12  C10       -5.5290    0.1580   -0.4010 C.ar    1  UNL1        0.0647
     13  C11       -4.8060    0.9640    0.4540 C.ar    1  UNL1        0.2592
     14  O2        -5.4690    1.8270    1.0860 O.2     1  UNL1       -0.2672
     15  N2        -3.4700    0.8220    0.5940 N.ar    1  UNL1       -0.3103
     16  N3         1.8460    0.9170    1.5720 N.am    1  UNL1       -0.2341
     17  N4         3.2060    0.5380    1.5890 N.am    1  UNL1       -0.2304
     18  C12        3.8500    0.2650    0.3560 C.2     1  UNL1        0.2601
     19  O3         3.1690    0.3800   -0.7220 O.2     1  UNL1       -0.2687
     20  C13        5.2550   -0.1420    0.2730 C.ar    1  UNL1        0.0383
     21  C14        5.6440   -0.9060   -0.8300 C.ar    1  UNL1       -0.0469
     22  C15        6.9460   -1.3210   -0.9880 C.ar    1  UNL1       -0.0257
     23  C16        7.9110   -0.9900   -0.0530 C.ar    1  UNL1        0.1234
     24  F1         9.2090   -1.3780   -0.1690 F       1  UNL1       -0.2055
     25  C17        7.5000   -0.2260    1.0400 C.ar    1  UNL1       -0.0257
     26  C18        6.1960    0.1870    1.1930 C.ar    1  UNL1       -0.0469
     27 H          -0.6850    1.5810    0.5356 H       1  UNL1        0.0363
     28 H          -0.9969    0.5319    1.8939 H       1  UNL1        0.0363
     29 H          -1.2073   -1.3416    0.3796 H       1  UNL1        0.0348
     30 H          -0.9542   -0.1928   -0.9708 H       1  UNL1        0.0348
     31 H          -5.0038   -2.3283   -2.4929 H       1  UNL1        0.0639
     32 H          -7.3657   -2.1531   -2.8017 H       1  UNL1        0.0618
     33 H          -8.6254   -0.4533   -1.5410 H       1  UNL1        0.0618
     34 H          -7.4035    0.9752   -0.0460 H       1  UNL1        0.0626
     35 H          -2.9890    1.4158    1.2147 H       1  UNL1        0.1700
     36 H           1.5837    1.7422    2.0405 H       1  UNL1        0.1728
     37 H           3.6968    0.4649    2.4393 H       1  UNL1        0.1731
     38 H           4.9410   -1.1641   -1.5401 H       1  UNL1        0.0626
     39 H           7.2058   -1.8850   -1.8123 H       1  UNL1        0.0646
     40 H           8.1952    0.0375    1.7557 H       1  UNL1        0.0646
     41 H           5.9318    0.7521    2.0151 H       1  UNL1        0.0626
@<TRIPOS>BOND
     1     1     2    2
     2     2     3    1
     3     2    16   am
     4     3     4    1
     5     4     5    1
     6     5     6   ar
     7     5    15   ar
     8     6     7   ar
     9     7     8   ar
    10     7    12   ar
    11     8     9   ar
    12     9    10   ar
    13    10    11   ar
    14    11    12   ar
    15    12    13   ar
    16    13    14    2
    17    13    15   ar
    18    16    17    1
    19    17    18   am
    20    18    19    2
    21    18    20    1
    22    20    21   ar
    23    20    26   ar
    24    21    22   ar
    25    22    23   ar
    26    23    24    1
    27    23    25   ar
    28    25    26   ar
    29     3    27    1
    30     3    28    1
    31     4    29    1
    32     4    30    1
    33     8    31    1
    34     9    32    1
    35    10    33    1
    36    11    34    1
    37    15    35    1
    38    16    36    1
    39    17    37    1
    40    21    38    1
    41    22    39    1
    42    25    40    1
    43    26    41    1
@<TRIPOS>MOLECULE
../data/bude_mols_rdkit_confs/molecule_83.pdb
 41 43 0 0 0
SMALL
GASTEIGER

@<TRIPOS>ATOM
      1  O1         1.2740    0.6430   -0.6920 O.2     1  UNL1       -0.2743
      2  C1         0.8310    0.0650    0.3340 C.2     1  UNL1        0.2295
      3  C2        -0.6300   -0.2180    0.4000 C.3     1  UNL1        0.0322
      4  C3        -1.3200    0.2460   -0.8770 C.3     1  UNL1        0.0138
      5  C4        -2.7800   -0.0490   -0.7810 C.ar    1  UNL1        0.1108
      6  N1        -3.6480    0.8480   -0.2700 N.ar    1  UNL1       -0.2337
      7  C5        -4.9650    0.6050   -0.1670 C.ar    1  UNL1        0.0781
      8  C6        -5.8520    1.5160    0.3550 C.ar    1  UNL1       -0.0355
      9  C7        -7.2040    1.2840    0.4710 C.ar    1  UNL1       -0.0597
     10  C8        -7.7310    0.0850    0.0510 C.ar    1  UNL1       -0.0609
     11  C9        -6.8510   -0.8630   -0.4860 C.ar    1  UNL1       -0.0474
     12  C10       -5.4890   -0.6010   -0.5910 C.ar    1  UNL1        0.0647
     13  C11       -4.6070   -1.5210   -1.1140 C.ar    1  UNL1        0.2592
     14  O2        -5.0430   -2.6320   -1.5120 O.2     1  UNL1       -0.2672
     15  N2        -3.2880   -1.2230   -1.1950 N.ar    1  UNL1       -0.3103
     16  N3         1.7050   -0.3070    1.4000 N.am    1  UNL1       -0.2341
     17  N4         3.0630   -0.0540    1.3530 N.am    1  UNL1       -0.2304
     18  C12        3.9090   -0.3470    0.2500 C.2     1  UNL1        0.2601
     19  O3         3.4040   -0.8820   -0.7810 O.2     1  UNL1       -0.2687
     20  C13        5.3190   -0.0580    0.2620 C.ar    1  UNL1        0.0383
     21  C14        5.9870    0.1210    1.4440 C.ar    1  UNL1       -0.0469
     22  C15        7.3560    0.4070    1.4760 C.ar    1  UNL1       -0.0257
     23  C16        8.0440    0.5120    0.2860 C.ar    1  UNL1        0.1234
     24  F1         9.3820    0.7910    0.2530 F       1  UNL1       -0.2055
     25  C17        7.3630    0.3300   -0.9040 C.ar    1  UNL1       -0.0257
     26  C18        6.0000    0.0450   -0.9260 C.ar    1  UNL1       -0.0469
     27 H          -1.0517    0.2992    1.2364 H       1  UNL1        0.0363
     28 H          -0.7744   -1.2726    0.5086 H       1  UNL1        0.0363
     29 H          -0.9048   -0.2715   -1.7164 H       1  UNL1        0.0348
     30 H          -1.1734    1.2984   -1.0028 H       1  UNL1        0.0348
     31 H          -5.4840    2.4245    0.6779 H       1  UNL1        0.0639
     32 H          -7.8205    2.0079    0.8721 H       1  UNL1        0.0618
     33 H          -8.7415   -0.1097    0.1290 H       1  UNL1        0.0618
     34 H          -7.2193   -1.7712   -0.8092 H       1  UNL1        0.0626
     35 H          -2.6754   -1.8946   -1.5731 H       1  UNL1        0.1700
     36 H           1.3296   -0.7566    2.1913 H       1  UNL1        0.1728
     37 H           3.4757    0.3611    2.1446 H       1  UNL1        0.1731
     38 H           5.4680    0.0430    2.3326 H       1  UNL1        0.0626
     39 H           7.8433    0.5373    2.3763 H       1  UNL1        0.0646
     40 H           7.8765    0.4071   -1.7958 H       1  UNL1        0.0646
     41 H           5.5081   -0.0871   -1.8236 H       1  UNL1        0.0626
@<TRIPOS>BOND
     1     1     2    2
     2     2     3    1
     3     2    16   am
     4     3     4    1
     5     4     5    1
     6     5     6   ar
     7     5    15   ar
     8     6     7   ar
     9     7     8   ar
    10     7    12   ar
    11     8     9   ar
    12     9    10   ar
    13    10    11   ar
    14    11    12   ar
    15    12    13   ar
    16    13    14    2
    17    13    15   ar
    18    16    17    1
    19    17    18   am
    20    18    19    2
    21    18    20    1
    22    20    21   ar
    23    20    26   ar
    24    21    22   ar
    25    22    23   ar
    26    23    24    1
    27    23    25   ar
    28    25    26   ar
    29     3    27    1
    30     3    28    1
    31     4    29    1
    32     4    30    1
    33     8    31    1
    34     9    32    1
    35    10    33    1
    36    11    34    1
    37    15    35    1
    38    16    36    1
    39    17    37    1
    40    21    38    1
    41    22    39    1
    42    25    40    1
    43    26    41    1
@<TRIPOS>MOLECULE
../data/bude_mols_rdkit_confs/molecule_83.pdb
 41 43 0 0 0
SMALL
GASTEIGER

@<TRIPOS>ATOM
      1  O1         1.2080    0.8310   -0.7040 O.2     1  UNL1       -0.2743
      2  C1         0.8280   -0.3210   -0.2970 C.2     1  UNL1        0.2295
      3  C2        -0.6100   -0.6330   -0.0890 C.3     1  UNL1        0.0322
      4  C3        -1.4570    0.5750   -0.3590 C.3     1  UNL1        0.0138
      5  C4        -2.8820    0.3010   -0.1810 C.ar    1  UNL1        0.1108
      6  N1        -3.8140    1.2630   -0.3190 N.ar    1  UNL1       -0.2337
      7  C5        -5.1280    1.0310   -0.1710 C.ar    1  UNL1        0.0781
      8  C6        -6.1070    1.9980   -0.3040 C.ar    1  UNL1       -0.0355
      9  C7        -7.4470    1.7140   -0.1400 C.ar    1  UNL1       -0.0597
     10  C8        -7.8090    0.4160    0.1670 C.ar    1  UNL1       -0.0609
     11  C9        -6.8690   -0.5830    0.3100 C.ar    1  UNL1       -0.0474
     12  C10       -5.5260   -0.2550    0.1360 C.ar    1  UNL1        0.0647
     13  C11       -4.5890   -1.2670    0.2850 C.ar    1  UNL1        0.2592
     14  O2        -4.9140   -2.4530    0.5660 O.2     1  UNL1       -0.2672
     15  N2        -3.2820   -0.9460    0.1190 N.ar    1  UNL1       -0.3103
     16  N3         1.8750   -1.2530   -0.0700 N.am    1  UNL1       -0.2341
     17  N4         3.2190   -1.0330   -0.2470 N.am    1  UNL1       -0.2304
     18  C12        4.0300   -0.1020    0.4580 C.2     1  UNL1        0.2601
     19  O3         3.4710    0.5960    1.3410 O.2     1  UNL1       -0.2687
     20  C13        5.4580    0.0110    0.1400 C.ar    1  UNL1        0.0383
     21  C14        6.4570   -0.0470    1.0800 C.ar    1  UNL1       -0.0469
     22  C15        7.7940    0.0850    0.6940 C.ar    1  UNL1       -0.0257
     23  C16        8.0890    0.2760   -0.6440 C.ar    1  UNL1        0.1234
     24  F1         9.3790    0.4140   -1.0680 F       1  UNL1       -0.2055
     25  C17        7.1060    0.3390   -1.6080 C.ar    1  UNL1       -0.0257
     26  C18        5.7950    0.2010   -1.1760 C.ar    1  UNL1       -0.0469
     27 H          -0.7587   -0.9477    0.9228 H       1  UNL1        0.0363
     28 H          -0.8951   -1.4121   -0.7648 H       1  UNL1        0.0363
     29 H          -1.2907    0.8943   -1.3666 H       1  UNL1        0.0348
     30 H          -1.1785    1.3347    0.3411 H       1  UNL1        0.0348
     31 H          -5.8261    2.9642   -0.5335 H       1  UNL1        0.0639
     32 H          -8.1609    2.4520   -0.2439 H       1  UNL1        0.0618
     33 H          -8.8078    0.1886    0.2924 H       1  UNL1        0.0618
     34 H          -7.1529   -1.5482    0.5399 H       1  UNL1        0.0626
     35 H          -2.6027   -1.6511    0.2219 H       1  UNL1        0.1700
     36 H           1.6108   -2.1471    0.2462 H       1  UNL1        0.1728
     37 H           3.6679   -1.5769   -0.9340 H       1  UNL1        0.1731
     38 H           6.2202   -0.1885    2.0744 H       1  UNL1        0.0626
     39 H           8.5491    0.0407    1.3961 H       1  UNL1        0.0646
     40 H           7.3345    0.4821   -2.6042 H       1  UNL1        0.0646
     41 H           5.0386    0.2432   -1.8768 H       1  UNL1        0.0626
@<TRIPOS>BOND
     1     1     2    2
     2     2     3    1
     3     2    16   am
     4     3     4    1
     5     4     5    1
     6     5     6   ar
     7     5    15   ar
     8     6     7   ar
     9     7     8   ar
    10     7    12   ar
    11     8     9   ar
    12     9    10   ar
    13    10    11   ar
    14    11    12   ar
    15    12    13   ar
    16    13    14    2
    17    13    15   ar
    18    16    17    1
    19    17    18   am
    20    18    19    2
    21    18    20    1
    22    20    21   ar
    23    20    26   ar
    24    21    22   ar
    25    22    23   ar
    26    23    24    1
    27    23    25   ar
    28    25    26   ar
    29     3    27    1
    30     3    28    1
    31     4    29    1
    32     4    30    1
    33     8    31    1
    34     9    32    1
    35    10    33    1
    36    11    34    1
    37    15    35    1
    38    16    36    1
    39    17    37    1
    40    21    38    1
    41    22    39    1
    42    25    40    1
    43    26    41    1
@<TRIPOS>MOLECULE
../data/bude_mols_rdkit_confs/molecule_83.pdb
 41 43 0 0 0
SMALL
GASTEIGER

@<TRIPOS>ATOM
      1  O1         0.8320   -0.5500    1.2920 O.2     1  UNL1       -0.2743
      2  C1         0.6690   -0.1630    0.0550 C.2     1  UNL1        0.2295
      3  C2        -0.7320   -0.1030   -0.4570 C.3     1  UNL1        0.0322
      4  C3        -1.6100   -0.7260    0.6160 C.3     1  UNL1        0.0138
      5  C4        -3.0130   -0.6430    0.1840 C.ar    1  UNL1        0.1108
      6  N1        -3.7740    0.3830    0.5910 N.ar    1  UNL1       -0.2337
      7  C5        -5.0580    0.4910    0.2170 C.ar    1  UNL1        0.0781
      8  C6        -5.8520    1.5470    0.6400 C.ar    1  UNL1       -0.0355
      9  C7        -7.1680    1.6670    0.2750 C.ar    1  UNL1       -0.0597
     10  C8        -7.7470    0.7250   -0.5410 C.ar    1  UNL1       -0.0609
     11  C9        -6.9620   -0.3270   -0.9670 C.ar    1  UNL1       -0.0474
     12  C10       -5.6460   -0.4590   -0.6070 C.ar    1  UNL1        0.0647
     13  C11       -4.8250   -1.5080   -1.0080 C.ar    1  UNL1        0.2592
     14  O2        -5.3180   -2.3860   -1.7530 O.2     1  UNL1       -0.2672
     15  N2        -3.5240   -1.5880   -0.6100 N.ar    1  UNL1       -0.3103
     16  N3         1.8240    0.1510   -0.6590 N.am    1  UNL1       -0.2341
     17  N4         3.0970    0.0440   -0.0450 N.am    1  UNL1       -0.2304
     18  C12        4.3190    0.1650   -0.7240 C.2     1  UNL1        0.2601
     19  O3         4.3080    0.3900   -1.9600 O.2     1  UNL1       -0.2687
     20  C13        5.6040    0.0370   -0.0510 C.ar    1  UNL1        0.0383
     21  C14        6.7830   -0.0570   -0.7940 C.ar    1  UNL1       -0.0469
     22  C15        8.0240   -0.1840   -0.2120 C.ar    1  UNL1       -0.0257
     23  C16        8.1520   -0.2230    1.1700 C.ar    1  UNL1        0.1234
     24  F1         9.3590   -0.3530    1.7820 F       1  UNL1       -0.2055
     25  C17        6.9840   -0.1290    1.8970 C.ar    1  UNL1       -0.0257
     26  C18        5.7360   -0.0020    1.3090 C.ar    1  UNL1       -0.0469
     27 H          -0.8160   -0.6548   -1.3699 H       1  UNL1        0.0363
     28 H          -1.0267    0.9051   -0.6613 H       1  UNL1        0.0363
     29 H          -1.4848   -0.1953    1.5366 H       1  UNL1        0.0348
     30 H          -1.3341   -1.7491    0.7641 H       1  UNL1        0.0348
     31 H          -5.4373    2.2678    1.2511 H       1  UNL1        0.0639
     32 H          -7.7252    2.4668    0.6139 H       1  UNL1        0.0618
     33 H          -8.7360    0.8017   -0.8258 H       1  UNL1        0.0618
     34 H          -7.3822   -1.0424   -1.5807 H       1  UNL1        0.0626
     35 H          -2.9623   -2.3401   -0.9068 H       1  UNL1        0.1700
     36 H           1.7553    0.4487   -1.5949 H       1  UNL1        0.1728
     37 H           3.1258   -0.1269    0.9241 H       1  UNL1        0.1731
     38 H           6.7211   -0.0301   -1.8238 H       1  UNL1        0.0626
     39 H           8.8647   -0.2507   -0.8068 H       1  UNL1        0.0646
     40 H           7.0422   -0.1544    2.9270 H       1  UNL1        0.0646
     41 H           4.8960    0.0639    1.9049 H       1  UNL1        0.0626
@<TRIPOS>BOND
     1     1     2    2
     2     2     3    1
     3     2    16   am
     4     3     4    1
     5     4     5    1
     6     5     6   ar
     7     5    15   ar
     8     6     7   ar
     9     7     8   ar
    10     7    12   ar
    11     8     9   ar
    12     9    10   ar
    13    10    11   ar
    14    11    12   ar
    15    12    13   ar
    16    13    14    2
    17    13    15   ar
    18    16    17    1
    19    17    18   am
    20    18    19    2
    21    18    20    1
    22    20    21   ar
    23    20    26   ar
    24    21    22   ar
    25    22    23   ar
    26    23    24    1
    27    23    25   ar
    28    25    26   ar
    29     3    27    1
    30     3    28    1
    31     4    29    1
    32     4    30    1
    33     8    31    1
    34     9    32    1
    35    10    33    1
    36    11    34    1
    37    15    35    1
    38    16    36    1
    39    17    37    1
    40    21    38    1
    41    22    39    1
    42    25    40    1
    43    26    41    1
@<TRIPOS>MOLECULE
../data/bude_mols_rdkit_confs/molecule_83.pdb
 41 43 0 0 0
SMALL
GASTEIGER

@<TRIPOS>ATOM
      1  O1        -0.7190   -1.5630    0.7430 O.2     1  UNL1       -0.2743
      2  C1        -0.4240   -1.3620    1.9350 C.2     1  UNL1        0.2295
      3  C2         0.8110   -1.8490    2.5090 C.3     1  UNL1        0.0322
      4  C3         1.7880   -2.5320    1.6420 C.3     1  UNL1        0.0138
      5  C4         2.3470   -1.7640    0.5190 C.ar    1  UNL1        0.1108
      6  N1         3.4260   -0.9440    0.7130 N.ar    1  UNL1       -0.2337
      7  C5         4.0040   -0.2350   -0.2640 C.ar    1  UNL1        0.0781
      8  C6         5.0920    0.5890   -0.0500 C.ar    1  UNL1       -0.0355
      9  C7         5.6780    1.3150   -1.0660 C.ar    1  UNL1       -0.0597
     10  C8         5.1930    1.2480   -2.3610 C.ar    1  UNL1       -0.0609
     11  C9         4.1080    0.4270   -2.5770 C.ar    1  UNL1       -0.0474
     12  C10        3.5210   -0.3010   -1.5570 C.ar    1  UNL1        0.0647
     13  C11        2.4360   -1.1220   -1.7690 C.ar    1  UNL1        0.2592
     14  O2         1.9900   -1.1900   -2.9340 O.2     1  UNL1       -0.2672
     15  N2         1.8820   -1.8260   -0.7360 N.ar    1  UNL1       -0.3103
     16  N3        -1.3920   -0.6180    2.6890 N.am    1  UNL1       -0.2341
     17  N4        -2.5790   -0.1590    2.1130 N.am    1  UNL1       -0.2304
     18  C12       -2.5820    0.6390    0.9410 C.2     1  UNL1        0.2601
     19  O3        -1.4750    0.9290    0.4230 O.2     1  UNL1       -0.2687
     20  C13       -3.7860    1.1390    0.3080 C.ar    1  UNL1        0.0383
     21  C14       -3.7520    1.7570   -0.9390 C.ar    1  UNL1       -0.0469
     22  C15       -4.9150    2.2210   -1.5070 C.ar    1  UNL1       -0.0257
     23  C16       -6.1340    2.1040   -0.8930 C.ar    1  UNL1        0.1234
     24  F1        -7.2410    2.5800   -1.5020 F       1  UNL1       -0.2055
     25  C17       -6.1760    1.4940    0.3410 C.ar    1  UNL1       -0.0257
     26  C18       -5.0100    1.0240    0.9190 C.ar    1  UNL1       -0.0469
     27 H           0.5453   -2.5379    3.2834 H       1  UNL1        0.0363
     28 H           1.3195   -0.9574    2.8114 H       1  UNL1        0.0363
     29 H           1.3060   -3.3951    1.2326 H       1  UNL1        0.0348
     30 H           2.6239   -2.7359    2.2781 H       1  UNL1        0.0348
     31 H           5.4799    0.6640    0.9034 H       1  UNL1        0.0639
     32 H           6.4899    1.9170   -0.8577 H       1  UNL1        0.0618
     33 H           5.6238    1.7875   -3.1281 H       1  UNL1        0.0618
     34 H           3.7204    0.3525   -3.5305 H       1  UNL1        0.0626
     35 H           1.1072   -2.4040   -0.9227 H       1  UNL1        0.1700
     36 H          -1.2147   -0.4258    3.6381 H       1  UNL1        0.1728
     37 H          -3.4374   -0.3962    2.5326 H       1  UNL1        0.1731
     38 H          -2.8546    1.8668   -1.4367 H       1  UNL1        0.0626
     39 H          -4.8677    2.6753   -2.4324 H       1  UNL1        0.0646
     40 H          -7.0763    1.3875    0.8341 H       1  UNL1        0.0646
     41 H          -5.0624    0.5699    1.8442 H       1  UNL1        0.0626
@<TRIPOS>BOND
     1     1     2    2
     2     2     3    1
     3     2    16   am
     4     3     4    1
     5     4     5    1
     6     5     6   ar
     7     5    15   ar
     8     6     7   ar
     9     7     8   ar
    10     7    12   ar
    11     8     9   ar
    12     9    10   ar
    13    10    11   ar
    14    11    12   ar
    15    12    13   ar
    16    13    14    2
    17    13    15   ar
    18    16    17    1
    19    17    18   am
    20    18    19    2
    21    18    20    1
    22    20    21   ar
    23    20    26   ar
    24    21    22   ar
    25    22    23   ar
    26    23    24    1
    27    23    25   ar
    28    25    26   ar
    29     3    27    1
    30     3    28    1
    31     4    29    1
    32     4    30    1
    33     8    31    1
    34     9    32    1
    35    10    33    1
    36    11    34    1
    37    15    35    1
    38    16    36    1
    39    17    37    1
    40    21    38    1
    41    22    39    1
    42    25    40    1
    43    26    41    1
@<TRIPOS>MOLECULE
../data/bude_mols_rdkit_confs/molecule_83.pdb
 41 43 0 0 0
SMALL
GASTEIGER

@<TRIPOS>ATOM
      1  O1         1.1840    0.3110    1.4760 O.2     1  UNL1       -0.2743
      2  C1         0.7860   -0.4500    0.5460 C.2     1  UNL1        0.2295
      3  C2        -0.6610   -0.6860    0.2870 C.3     1  UNL1        0.0322
      4  C3        -1.4440    0.1160    1.2950 C.3     1  UNL1        0.0138
      5  C4        -2.9110   -0.0730    1.0930 C.ar    1  UNL1        0.1108
      6  N1        -3.5950    0.7600    0.2590 N.ar    1  UNL1       -0.2337
      7  C5        -4.8980    0.6580    0.0260 C.ar    1  UNL1        0.0781
      8  C6        -5.6050    1.4920   -0.8140 C.ar    1  UNL1       -0.0355
      9  C7        -6.9590    1.3720   -1.0450 C.ar    1  UNL1       -0.0597
     10  C8        -7.6500    0.3530   -0.3950 C.ar    1  UNL1       -0.0609
     11  C9        -6.9530   -0.4870    0.4480 C.ar    1  UNL1       -0.0474
     12  C10       -5.5950   -0.3580    0.6730 C.ar    1  UNL1        0.0647
     13  C11       -4.8960   -1.2050    1.5220 C.ar    1  UNL1        0.2592
     14  O2        -5.5800   -2.1100    2.0840 O.2     1  UNL1       -0.2672
     15  N2        -3.5720   -1.0580    1.7240 N.ar    1  UNL1       -0.3103
     16  N3         1.7950   -1.0740   -0.2460 N.am    1  UNL1       -0.2341
     17  N4         3.1720   -0.8460    0.0050 N.am    1  UNL1       -0.2304
     18  C12        3.9680   -0.0770   -0.8770 C.2     1  UNL1        0.2601
     19  O3         3.4280    0.4050   -1.8980 O.2     1  UNL1       -0.2687
     20  C13        5.3730    0.1630   -0.6320 C.ar    1  UNL1        0.0383
     21  C14        6.0840    0.9200   -1.5650 C.ar    1  UNL1       -0.0469
     22  C15        7.4240    1.1960   -1.4090 C.ar    1  UNL1       -0.0257
     23  C16        8.0980    0.7200   -0.3050 C.ar    1  UNL1        0.1234
     24  F1         9.4220    1.0020   -0.1650 F       1  UNL1       -0.2055
     25  C17        7.4040   -0.0230    0.6150 C.ar    1  UNL1       -0.0257
     26  C18        6.0680   -0.3010    0.4630 C.ar    1  UNL1       -0.0469
     27 H          -0.8856   -1.7265    0.3955 H       1  UNL1        0.0363
     28 H          -0.9168   -0.3887   -0.7085 H       1  UNL1        0.0363
     29 H          -1.2043    1.1527    1.1820 H       1  UNL1        0.0348
     30 H          -1.1855   -0.2192    2.2777 H       1  UNL1        0.0348
     31 H          -5.0929    2.2472   -1.2961 H       1  UNL1        0.0639
     32 H          -7.4472    2.0202   -1.6826 H       1  UNL1        0.0618
     33 H          -8.6640    0.2286   -0.5411 H       1  UNL1        0.0618
     34 H          -7.4655   -1.2419    0.9301 H       1  UNL1        0.0626
     35 H          -3.0922   -1.6681    2.3297 H       1  UNL1        0.1700
     36 H           1.5306   -1.6740   -0.9804 H       1  UNL1        0.1728
     37 H           3.5839   -1.2317    0.8117 H       1  UNL1        0.1731
     38 H           5.5910    1.2833   -2.3957 H       1  UNL1        0.0626
     39 H           7.9223    1.7578   -2.1169 H       1  UNL1        0.0646
     40 H           7.8999   -0.3835    1.4452 H       1  UNL1        0.0646
     41 H           5.5793   -0.8637    1.1769 H       1  UNL1        0.0626
@<TRIPOS>BOND
     1     1     2    2
     2     2     3    1
     3     2    16   am
     4     3     4    1
     5     4     5    1
     6     5     6   ar
     7     5    15   ar
     8     6     7   ar
     9     7     8   ar
    10     7    12   ar
    11     8     9   ar
    12     9    10   ar
    13    10    11   ar
    14    11    12   ar
    15    12    13   ar
    16    13    14    2
    17    13    15   ar
    18    16    17    1
    19    17    18   am
    20    18    19    2
    21    18    20    1
    22    20    21   ar
    23    20    26   ar
    24    21    22   ar
    25    22    23   ar
    26    23    24    1
    27    23    25   ar
    28    25    26   ar
    29     3    27    1
    30     3    28    1
    31     4    29    1
    32     4    30    1
    33     8    31    1
    34     9    32    1
    35    10    33    1
    36    11    34    1
    37    15    35    1
    38    16    36    1
    39    17    37    1
    40    21    38    1
    41    22    39    1
    42    25    40    1
    43    26    41    1
@<TRIPOS>MOLECULE
../data/bude_mols_rdkit_confs/molecule_83.pdb
 41 43 0 0 0
SMALL
GASTEIGER

@<TRIPOS>ATOM
      1  O1         1.2510    0.7400    0.3120 O.2     1  UNL1       -0.2743
      2  C1         0.8570   -0.4330    0.5380 C.2     1  UNL1        0.2295
      3  C2        -0.6120   -0.7660    0.5370 C.3     1  UNL1        0.0322
      4  C3        -1.3920    0.4810    0.1950 C.3     1  UNL1        0.0138
      5  C4        -2.8500    0.2430    0.1680 C.ar    1  UNL1        0.1108
      6  N1        -3.6260    1.2970   -0.1400 N.ar    1  UNL1       -0.2337
      7  C5        -4.9650    1.1250   -0.1730 C.ar    1  UNL1        0.0781
      8  C6        -5.8130    2.1910   -0.4900 C.ar    1  UNL1       -0.0355
      9  C7        -7.1860    2.0080   -0.5240 C.ar    1  UNL1       -0.0597
     10  C8        -7.7010    0.7670   -0.2440 C.ar    1  UNL1       -0.0609
     11  C9        -6.9030   -0.3070    0.0710 C.ar    1  UNL1       -0.0474
     12  C10       -5.5440   -0.1050    0.1000 C.ar    1  UNL1        0.0647
     13  C11       -4.6980   -1.1480    0.4090 C.ar    1  UNL1        0.2592
     14  O2        -5.2020   -2.2720    0.6610 O.2     1  UNL1       -0.2672
     15  N2        -3.3880   -0.9490    0.4350 N.ar    1  UNL1       -0.3103
     16  N3         1.8250   -1.4430    0.7950 N.am    1  UNL1       -0.2341
     17  N4         3.2050   -1.1920    0.8060 N.am    1  UNL1       -0.2304
     18  C12        3.8820   -0.5360   -0.2530 C.2     1  UNL1        0.2601
     19  O3         3.1420   -0.1840   -1.2330 O.2     1  UNL1       -0.2687
     20  C13        5.3100   -0.2650   -0.2570 C.ar    1  UNL1        0.0383
     21  C14        6.2280   -0.9490    0.5020 C.ar    1  UNL1       -0.0469
     22  C15        7.5750   -0.6260    0.4530 C.ar    1  UNL1       -0.0257
     23  C16        8.0430    0.3860   -0.3540 C.ar    1  UNL1        0.1234
     24  F1         9.3580    0.7440   -0.4340 F       1  UNL1       -0.2055
     25  C17        7.1150    1.0780   -1.1240 C.ar    1  UNL1       -0.0257
     26  C18        5.7850    0.7560   -1.0730 C.ar    1  UNL1       -0.0469
     27 H          -0.9019   -1.1176    1.5051 H       1  UNL1        0.0363
     28 H          -0.8117   -1.5299   -0.1851 H       1  UNL1        0.0363
     29 H          -1.0822    0.8266   -0.7691 H       1  UNL1        0.0348
     30 H          -1.1939    1.2085    0.9542 H       1  UNL1        0.0348
     31 H          -5.4138    3.1193   -0.6998 H       1  UNL1        0.0639
     32 H          -7.8128    2.7941   -0.7567 H       1  UNL1        0.0618
     33 H          -8.7242    0.6354   -0.2709 H       1  UNL1        0.0618
     34 H          -7.3101   -1.2324    0.2784 H       1  UNL1        0.0626
     35 H          -2.7945   -1.7022    0.6577 H       1  UNL1        0.1700
     36 H           1.5124   -2.3594    0.9732 H       1  UNL1        0.1728
     37 H           3.7285   -1.4854    1.5864 H       1  UNL1        0.1731
     38 H           5.9103   -1.7141    1.1174 H       1  UNL1        0.0626
     39 H           8.2422   -1.1564    1.0349 H       1  UNL1        0.0646
     40 H           7.4319    1.8425   -1.7406 H       1  UNL1        0.0646
     41 H           5.1174    1.2851   -1.6556 H       1  UNL1        0.0626
@<TRIPOS>BOND
     1     1     2    2
     2     2     3    1
     3     2    16   am
     4     3     4    1
     5     4     5    1
     6     5     6   ar
     7     5    15   ar
     8     6     7   ar
     9     7     8   ar
    10     7    12   ar
    11     8     9   ar
    12     9    10   ar
    13    10    11   ar
    14    11    12   ar
    15    12    13   ar
    16    13    14    2
    17    13    15   ar
    18    16    17    1
    19    17    18   am
    20    18    19    2
    21    18    20    1
    22    20    21   ar
    23    20    26   ar
    24    21    22   ar
    25    22    23   ar
    26    23    24    1
    27    23    25   ar
    28    25    26   ar
    29     3    27    1
    30     3    28    1
    31     4    29    1
    32     4    30    1
    33     8    31    1
    34     9    32    1
    35    10    33    1
    36    11    34    1
    37    15    35    1
    38    16    36    1
    39    17    37    1
    40    21    38    1
    41    22    39    1
    42    25    40    1
    43    26    41    1
@<TRIPOS>MOLECULE
../data/bude_mols_rdkit_confs/molecule_83.pdb
 41 43 0 0 0
SMALL
GASTEIGER

@<TRIPOS>ATOM
      1  O1         1.3040    1.0100   -0.2630 O.2     1  UNL1       -0.2743
      2  C1         0.8010   -0.0890   -0.5120 C.2     1  UNL1        0.2295
      3  C2        -0.6610   -0.2860   -0.4070 C.3     1  UNL1        0.0322
      4  C3        -1.2820    1.0150    0.0270 C.3     1  UNL1        0.0138
      5  C4        -2.7380    0.9300    0.1760 C.ar    1  UNL1        0.1108
      6  N1        -3.3790   -0.2320   -0.0690 N.ar    1  UNL1       -0.2337
      7  C5        -4.7160   -0.2860    0.0840 C.ar    1  UNL1        0.0781
      8  C6        -5.3640   -1.4830   -0.1680 C.ar    1  UNL1       -0.0355
      9  C7        -6.7360   -1.5430   -0.0120 C.ar    1  UNL1       -0.0597
     10  C8        -7.4710   -0.4410    0.3880 C.ar    1  UNL1       -0.0609
     11  C9        -6.8230    0.7580    0.6410 C.ar    1  UNL1       -0.0474
     12  C10       -5.4430    0.7950    0.4760 C.ar    1  UNL1        0.0647
     13  C11       -4.7760    1.9840    0.7250 C.ar    1  UNL1        0.2592
     14  O2        -5.4360    2.9910    1.0900 O.2     1  UNL1       -0.2672
     15  N2        -3.4310    2.0080    0.5640 N.ar    1  UNL1       -0.3103
     16  N3         1.6700   -1.1750   -0.9070 N.am    1  UNL1       -0.2341
     17  N4         3.0720   -1.0000   -1.0020 N.am    1  UNL1       -0.2304
     18  C12        3.7480   -0.4890    0.1390 C.2     1  UNL1        0.2601
     19  O3         3.0940   -0.2110    1.1820 O.2     1  UNL1       -0.2687
     20  C13        5.1850   -0.2850    0.1150 C.ar    1  UNL1        0.0383
     21  C14        5.9470   -1.2900   -0.4780 C.ar    1  UNL1       -0.0469
     22  C15        7.3110   -1.1630   -0.5440 C.ar    1  UNL1       -0.0257
     23  C16        7.9080   -0.0140   -0.0080 C.ar    1  UNL1        0.1234
     24  F1         9.2570    0.0430   -0.1060 F       1  UNL1       -0.2055
     25  C17        7.1450    0.9750    0.5760 C.ar    1  UNL1       -0.0257
     26  C18        5.7670    0.8550    0.6480 C.ar    1  UNL1       -0.0469
     27 H          -0.8729   -1.0469    0.3149 H       1  UNL1        0.0363
     28 H          -1.0615   -0.5892   -1.3518 H       1  UNL1        0.0363
     29 H          -1.0567    1.7620   -0.7052 H       1  UNL1        0.0348
     30 H          -0.8748    1.2615    0.9853 H       1  UNL1        0.0348
     31 H          -4.8323   -2.3155   -0.4669 H       1  UNL1        0.0639
     32 H          -7.2248   -2.4325   -0.1986 H       1  UNL1        0.0618
     33 H          -8.4948   -0.5113    0.4972 H       1  UNL1        0.0618
     34 H          -7.3471    1.5947    0.9416 H       1  UNL1        0.0626
     35 H          -2.9464    2.8471    0.7383 H       1  UNL1        0.1700
     36 H           1.2789   -2.0544   -1.1142 H       1  UNL1        0.1728
     37 H           3.5600   -1.2238   -1.8272 H       1  UNL1        0.1731
     38 H           5.4861   -2.1276   -0.8665 H       1  UNL1        0.0626
     39 H           7.8870   -1.8998   -0.9803 H       1  UNL1        0.0646
     40 H           7.6055    1.8134    0.9635 H       1  UNL1        0.0646
     41 H           5.1911    1.5915    1.0850 H       1  UNL1        0.0626
@<TRIPOS>BOND
     1     1     2    2
     2     2     3    1
     3     2    16   am
     4     3     4    1
     5     4     5    1
     6     5     6   ar
     7     5    15   ar
     8     6     7   ar
     9     7     8   ar
    10     7    12   ar
    11     8     9   ar
    12     9    10   ar
    13    10    11   ar
    14    11    12   ar
    15    12    13   ar
    16    13    14    2
    17    13    15   ar
    18    16    17    1
    19    17    18   am
    20    18    19    2
    21    18    20    1
    22    20    21   ar
    23    20    26   ar
    24    21    22   ar
    25    22    23   ar
    26    23    24    1
    27    23    25   ar
    28    25    26   ar
    29     3    27    1
    30     3    28    1
    31     4    29    1
    32     4    30    1
    33     8    31    1
    34     9    32    1
    35    10    33    1
    36    11    34    1
    37    15    35    1
    38    16    36    1
    39    17    37    1
    40    21    38    1
    41    22    39    1
    42    25    40    1
    43    26    41    1
@<TRIPOS>MOLECULE
../data/bude_mols_rdkit_confs/molecule_83.pdb
 41 43 0 0 0
SMALL
GASTEIGER

@<TRIPOS>ATOM
      1  O1        -0.8940    1.1850    0.7620 O.2     1  UNL1       -0.2743
      2  C1        -0.7220    0.0670    0.2510 C.2     1  UNL1        0.2295
      3  C2         0.6080   -0.5860    0.1230 C.3     1  UNL1        0.0322
      4  C3         1.6390    0.3460    0.6840 C.3     1  UNL1        0.0138
      5  C4         3.0110   -0.1840    0.5520 C.ar    1  UNL1        0.1108
      6  N1         4.0350    0.5570    0.9910 N.ar    1  UNL1       -0.2337
      7  C5         5.3090    0.1320    0.8680 C.ar    1  UNL1        0.0781
      8  C6         6.2880    0.9920    1.3480 C.ar    1  UNL1       -0.0355
      9  C7         7.6010    0.5950    1.2290 C.ar    1  UNL1       -0.0597
     10  C8         7.8880   -0.6390    0.6380 C.ar    1  UNL1       -0.0609
     11  C9         6.8900   -1.4590    0.1760 C.ar    1  UNL1       -0.0474
     12  C10        5.5650   -1.0790    0.2880 C.ar    1  UNL1        0.0647
     13  C11        4.5260   -1.8420   -0.1610 C.ar    1  UNL1        0.2592
     14  O2         4.7780   -2.9500   -0.6900 O.2     1  UNL1       -0.2672
     15  N2         3.2510   -1.3720   -0.0170 N.ar    1  UNL1       -0.3103
     16  N3        -1.8890   -0.6270   -0.2430 N.am    1  UNL1       -0.2341
     17  N4        -3.1470   -0.0120   -0.1420 N.am    1  UNL1       -0.2304
     18  C12       -4.2600   -0.4580   -0.8880 C.2     1  UNL1        0.2601
     19  O3        -4.0530   -1.4480   -1.6450 O.2     1  UNL1       -0.2687
     20  C13       -5.5980    0.1070   -0.8670 C.ar    1  UNL1        0.0383
     21  C14       -6.5680   -0.4540   -0.0560 C.ar    1  UNL1       -0.0469
     22  C15       -7.8600    0.0300   -0.0180 C.ar    1  UNL1       -0.0257
     23  C16       -8.2350    1.1040   -0.7940 C.ar    1  UNL1        0.1234
     24  F1        -9.5130    1.5770   -0.7580 F       1  UNL1       -0.2055
     25  C17       -7.2760    1.6690   -1.6040 C.ar    1  UNL1       -0.0257
     26  C18       -5.9730    1.1830   -1.6440 C.ar    1  UNL1       -0.0469
     27 H           0.8184   -0.7819   -0.9077 H       1  UNL1        0.0363
     28 H           0.6184   -1.5144    0.6548 H       1  UNL1        0.0363
     29 H           1.4305    0.5042    1.7215 H       1  UNL1        0.0348
     30 H           1.5882    1.2595    0.1291 H       1  UNL1        0.0348
     31 H           6.0402    1.8965    1.7786 H       1  UNL1        0.0639
     32 H           8.3633    1.2004    1.5716 H       1  UNL1        0.0618
     33 H           8.8712   -0.9393    0.5474 H       1  UNL1        0.0618
     34 H           7.1293   -2.3644   -0.2575 H       1  UNL1        0.0626
     35 H           2.4958   -1.9164   -0.3372 H       1  UNL1        0.1700
     36 H          -1.8030   -1.5211   -0.6459 H       1  UNL1        0.1728
     37 H          -3.2566    0.7534    0.4674 H       1  UNL1        0.1731
     38 H          -6.3179   -1.2593    0.5390 H       1  UNL1        0.0626
     39 H          -8.5540   -0.4188    0.6000 H       1  UNL1        0.0646
     40 H          -7.5303    2.4743   -2.1972 H       1  UNL1        0.0646
     41 H          -5.2794    1.6326   -2.2619 H       1  UNL1        0.0626
@<TRIPOS>BOND
     1     1     2    2
     2     2     3    1
     3     2    16   am
     4     3     4    1
     5     4     5    1
     6     5     6   ar
     7     5    15   ar
     8     6     7   ar
     9     7     8   ar
    10     7    12   ar
    11     8     9   ar
    12     9    10   ar
    13    10    11   ar
    14    11    12   ar
    15    12    13   ar
    16    13    14    2
    17    13    15   ar
    18    16    17    1
    19    17    18   am
    20    18    19    2
    21    18    20    1
    22    20    21   ar
    23    20    26   ar
    24    21    22   ar
    25    22    23   ar
    26    23    24    1
    27    23    25   ar
    28    25    26   ar
    29     3    27    1
    30     3    28    1
    31     4    29    1
    32     4    30    1
    33     8    31    1
    34     9    32    1
    35    10    33    1
    36    11    34    1
    37    15    35    1
    38    16    36    1
    39    17    37    1
    40    21    38    1
    41    22    39    1
    42    25    40    1
    43    26    41    1
@<TRIPOS>MOLECULE
../data/bude_mols_rdkit_confs/molecule_83.pdb
 41 43 0 0 0
SMALL
GASTEIGER

@<TRIPOS>ATOM
      1  O1        -1.1060   -0.4890    1.6520 O.2     1  UNL1       -0.2743
      2  C1        -0.7800   -0.4980    0.4360 C.2     1  UNL1        0.2295
      3  C2         0.6520   -0.3640    0.0840 C.3     1  UNL1        0.0322
      4  C3         1.5190   -0.0920    1.2850 C.3     1  UNL1        0.0138
      5  C4         2.9110    0.1150    0.8590 C.ar    1  UNL1        0.1108
      6  N1         3.7840   -0.8610    0.7260 N.ar    1  UNL1       -0.2337
      7  C5         5.0800   -0.6350    0.3400 C.ar    1  UNL1        0.0781
      8  C6         5.9670   -1.6940    0.2190 C.ar    1  UNL1       -0.0355
      9  C7         7.2790   -1.4700   -0.1660 C.ar    1  UNL1       -0.0597
     10  C8         7.6430   -0.1630   -0.4140 C.ar    1  UNL1       -0.0609
     11  C9         6.7630    0.8850   -0.2930 C.ar    1  UNL1       -0.0474
     12  C10        5.4570    0.6650    0.0880 C.ar    1  UNL1        0.0647
     13  C11        4.5500    1.6980    0.2240 C.ar    1  UNL1        0.2592
     14  O2         4.9200    2.8780   -0.0130 O.2     1  UNL1       -0.2672
     15  N2         3.3080    1.3680    0.6060 N.ar    1  UNL1       -0.3103
     16  N3        -1.7020   -0.6210   -0.6180 N.am    1  UNL1       -0.2341
     17  N4        -3.0810   -0.7240   -0.3400 N.am    1  UNL1       -0.2304
     18  C12       -3.9670    0.3340   -0.6850 C.2     1  UNL1        0.2601
     19  O3        -3.4350    1.3360   -1.2460 O.2     1  UNL1       -0.2687
     20  C13       -5.3910    0.2740   -0.4100 C.ar    1  UNL1        0.0383
     21  C14       -5.9130    0.7400    0.7960 C.ar    1  UNL1       -0.0469
     22  C15       -7.2650    0.7040    1.0740 C.ar    1  UNL1       -0.0257
     23  C16       -8.1590    0.2000    0.1600 C.ar    1  UNL1        0.1234
     24  F1        -9.4890    0.1520    0.4050 F       1  UNL1       -0.2055
     25  C17       -7.6470   -0.2650   -1.0380 C.ar    1  UNL1       -0.0257
     26  C18       -6.2970   -0.2280   -1.3170 C.ar    1  UNL1       -0.0469
     27 H           0.7609    0.4449   -0.6079 H       1  UNL1        0.0363
     28 H           0.9699   -1.2925   -0.3424 H       1  UNL1        0.0363
     29 H           1.4725   -0.9267    1.9528 H       1  UNL1        0.0348
     30 H           1.1675    0.7880    1.7820 H       1  UNL1        0.0348
     31 H           5.6478   -2.6552    0.4170 H       1  UNL1        0.0639
     32 H           7.9529   -2.2455   -0.2628 H       1  UNL1        0.0618
     33 H           8.6141    0.0354   -0.7016 H       1  UNL1        0.0618
     34 H           7.0830    1.8463   -0.4893 H       1  UNL1        0.0626
     35 H           2.6477    2.0913    0.7066 H       1  UNL1        0.1700
     36 H          -1.3853   -0.6352   -1.5500 H       1  UNL1        0.1728
     37 H          -3.4327   -1.5337    0.0958 H       1  UNL1        0.1731
     38 H          -5.2679    1.1243    1.5039 H       1  UNL1        0.0626
     39 H          -7.6085    1.0601    1.9797 H       1  UNL1        0.0646
     40 H          -8.2940   -0.6508   -1.7434 H       1  UNL1        0.0646
     41 H          -5.9588   -0.5841   -2.2247 H       1  UNL1        0.0626
@<TRIPOS>BOND
     1     1     2    2
     2     2     3    1
     3     2    16   am
     4     3     4    1
     5     4     5    1
     6     5     6   ar
     7     5    15   ar
     8     6     7   ar
     9     7     8   ar
    10     7    12   ar
    11     8     9   ar
    12     9    10   ar
    13    10    11   ar
    14    11    12   ar
    15    12    13   ar
    16    13    14    2
    17    13    15   ar
    18    16    17    1
    19    17    18   am
    20    18    19    2
    21    18    20    1
    22    20    21   ar
    23    20    26   ar
    24    21    22   ar
    25    22    23   ar
    26    23    24    1
    27    23    25   ar
    28    25    26   ar
    29     3    27    1
    30     3    28    1
    31     4    29    1
    32     4    30    1
    33     8    31    1
    34     9    32    1
    35    10    33    1
    36    11    34    1
    37    15    35    1
    38    16    36    1
    39    17    37    1
    40    21    38    1
    41    22    39    1
    42    25    40    1
    43    26    41    1
@<TRIPOS>MOLECULE
../data/bude_mols_rdkit_confs/molecule_83.pdb
 41 43 0 0 0
SMALL
GASTEIGER

@<TRIPOS>ATOM
      1  O1         0.2990   -0.4690    1.2580 O.2     1  UNL1       -0.2743
      2  C1         0.2030    0.7570    1.2930 C.2     1  UNL1        0.2295
      3  C2        -0.8250    1.5880    1.9280 C.3     1  UNL1        0.0322
      4  C3        -1.9460    0.9100    2.6140 C.3     1  UNL1        0.0138
      5  C4        -2.7150    0.0690    1.6790 C.ar    1  UNL1        0.1108
      6  N1        -3.6670    0.6260    0.9010 N.ar    1  UNL1       -0.2337
      7  C5        -4.4140   -0.0850    0.0660 C.ar    1  UNL1        0.0781
      8  C6        -5.3920    0.4980   -0.7320 C.ar    1  UNL1       -0.0355
      9  C7        -6.1680   -0.2410   -1.6000 C.ar    1  UNL1       -0.0597
     10  C8        -5.9640   -1.5920   -1.6730 C.ar    1  UNL1       -0.0609
     11  C9        -4.9890   -2.1940   -0.8810 C.ar    1  UNL1       -0.0474
     12  C10       -4.2210   -1.4400   -0.0180 C.ar    1  UNL1        0.0647
     13  C11       -3.2520   -2.0170    0.7730 C.ar    1  UNL1        0.2592
     14  O2        -3.0420   -3.2470    0.7290 O.2     1  UNL1       -0.2672
     15  N2        -2.5040   -1.2470    1.6210 N.ar    1  UNL1       -0.3103
     16  N3         1.2580    1.4880    0.6090 N.am    1  UNL1       -0.2341
     17  N4         2.2740    0.7640   -0.0210 N.am    1  UNL1       -0.2304
     18  C12        3.6280    1.1880   -0.0500 C.2     1  UNL1        0.2601
     19  O3         3.8590    2.2840    0.5420 O.2     1  UNL1       -0.2687
     20  C13        4.7040    0.4590   -0.6950 C.ar    1  UNL1        0.0383
     21  C14        5.9670    1.0080   -0.6850 C.ar    1  UNL1       -0.0469
     22  C15        7.0470    0.3550   -1.2880 C.ar    1  UNL1       -0.0257
     23  C16        6.8440   -0.8660   -1.9070 C.ar    1  UNL1        0.1234
     24  F1         7.8450   -1.5490   -2.5080 F       1  UNL1       -0.2055
     25  C17        5.5950   -1.4260   -1.9260 C.ar    1  UNL1       -0.0257
     26  C18        4.5420   -0.7480   -1.3160 C.ar    1  UNL1       -0.0469
     27 H          -1.2480    2.2076    1.1651 H       1  UNL1        0.0363
     28 H          -0.3057    2.1000    2.7110 H       1  UNL1        0.0363
     29 H          -2.5961    1.6490    3.0337 H       1  UNL1        0.0348
     30 H          -1.5429    0.2817    3.3806 H       1  UNL1        0.0348
     31 H          -5.5421    1.5173   -0.6728 H       1  UNL1        0.0639
     32 H          -6.8875    0.2154   -2.1823 H       1  UNL1        0.0618
     33 H          -6.5329   -2.1654   -2.3153 H       1  UNL1        0.0618
     34 H          -4.8398   -3.2134   -0.9404 H       1  UNL1        0.0626
     35 H          -1.8130   -1.6623    2.1860 H       1  UNL1        0.1700
     36 H           1.2565    2.4723    0.5902 H       1  UNL1        0.1728
     37 H           2.0388   -0.0818   -0.4666 H       1  UNL1        0.1731
     38 H           6.1195    1.9185   -0.2238 H       1  UNL1        0.0626
     39 H           7.9872    0.7801   -1.2714 H       1  UNL1        0.0646
     40 H           5.4359   -2.3364   -2.3852 H       1  UNL1        0.0646
     41 H           3.6021   -1.1739   -1.3336 H       1  UNL1        0.0626
@<TRIPOS>BOND
     1     1     2    2
     2     2     3    1
     3     2    16   am
     4     3     4    1
     5     4     5    1
     6     5     6   ar
     7     5    15   ar
     8     6     7   ar
     9     7     8   ar
    10     7    12   ar
    11     8     9   ar
    12     9    10   ar
    13    10    11   ar
    14    11    12   ar
    15    12    13   ar
    16    13    14    2
    17    13    15   ar
    18    16    17    1
    19    17    18   am
    20    18    19    2
    21    18    20    1
    22    20    21   ar
    23    20    26   ar
    24    21    22   ar
    25    22    23   ar
    26    23    24    1
    27    23    25   ar
    28    25    26   ar
    29     3    27    1
    30     3    28    1
    31     4    29    1
    32     4    30    1
    33     8    31    1
    34     9    32    1
    35    10    33    1
    36    11    34    1
    37    15    35    1
    38    16    36    1
    39    17    37    1
    40    21    38    1
    41    22    39    1
    42    25    40    1
    43    26    41    1
@<TRIPOS>MOLECULE
../data/bude_mols_rdkit_confs/molecule_83.pdb
 41 43 0 0 0
SMALL
GASTEIGER

@<TRIPOS>ATOM
      1  O1         1.0080    1.0740   -0.9950 O.2     1  UNL1       -0.2743
      2  C1         0.7380   -0.0060   -0.3750 C.2     1  UNL1        0.2295
      3  C2        -0.6610   -0.4760   -0.2230 C.3     1  UNL1        0.0322
      4  C3        -1.5360    0.4830   -0.9920 C.3     1  UNL1        0.0138
      5  C4        -2.9640    0.1840   -0.9700 C.ar    1  UNL1        0.1108
      6  N1        -3.7560    0.6570    0.0400 N.ar    1  UNL1       -0.2337
      7  C5        -5.0860    0.4200    0.0790 C.ar    1  UNL1        0.0781
      8  C6        -5.8800    0.9000    1.0950 C.ar    1  UNL1       -0.0355
      9  C7        -7.2200    0.6870    1.1730 C.ar    1  UNL1       -0.0597
     10  C8        -7.8280   -0.0580    0.1720 C.ar    1  UNL1       -0.0609
     11  C9        -7.0510   -0.5590   -0.8740 C.ar    1  UNL1       -0.0474
     12  C10       -5.7030   -0.3260   -0.9210 C.ar    1  UNL1        0.0647
     13  C11       -4.8920   -0.7910   -1.9230 C.ar    1  UNL1        0.2592
     14  O2        -5.4550   -1.4740   -2.8390 O.2     1  UNL1       -0.2672
     15  N2        -3.5760   -0.5290   -1.9200 N.ar    1  UNL1       -0.3103
     16  N3         1.8540   -0.7100    0.1480 N.am    1  UNL1       -0.2341
     17  N4         3.1540   -0.2260   -0.0230 N.am    1  UNL1       -0.2304
     18  C12        4.2840   -0.8250    0.5890 C.2     1  UNL1        0.2601
     19  O3         4.0940   -1.8400    1.3280 O.2     1  UNL1       -0.2687
     20  C13        5.6320   -0.2730    0.3640 C.ar    1  UNL1        0.0383
     21  C14        6.6310   -0.2270    1.2850 C.ar    1  UNL1       -0.0469
     22  C15        7.8750    0.3040    0.9790 C.ar    1  UNL1       -0.0257
     23  C16        8.1610    0.8140   -0.2800 C.ar    1  UNL1        0.1234
     24  F1         9.3730    1.3390   -0.5900 F       1  UNL1       -0.2055
     25  C17        7.1400    0.7700   -1.2310 C.ar    1  UNL1       -0.0257
     26  C18        5.9060    0.2390   -0.9140 C.ar    1  UNL1       -0.0469
     27 H          -0.9377   -0.4774    0.8106 H       1  UNL1        0.0363
     28 H          -0.7706   -1.4736   -0.5942 H       1  UNL1        0.0363
     29 H          -1.2136    0.4781   -2.0123 H       1  UNL1        0.0348
     30 H          -1.4266    1.4322   -0.5104 H       1  UNL1        0.0348
     31 H          -5.4319    1.4541    1.8414 H       1  UNL1        0.0639
     32 H          -7.7717    1.0696    1.9568 H       1  UNL1        0.0618
     33 H          -8.8435   -0.2396    0.2007 H       1  UNL1        0.0618
     34 H          -7.4987   -1.1121   -1.6214 H       1  UNL1        0.0626
     35 H          -3.0305   -0.8821   -2.6596 H       1  UNL1        0.1700
     36 H           1.7103   -1.5515    0.6384 H       1  UNL1        0.1728
     37 H           3.2910    0.5650   -0.5930 H       1  UNL1        0.1731
     38 H           6.4596   -0.5957    2.2335 H       1  UNL1        0.0626
     39 H           8.6071    0.3204    1.7061 H       1  UNL1        0.0646
     40 H           7.3095    1.1380   -2.1801 H       1  UNL1        0.0646
     41 H           5.1669    0.2179   -1.6340 H       1  UNL1        0.0626
@<TRIPOS>BOND
     1     1     2    2
     2     2     3    1
     3     2    16   am
     4     3     4    1
     5     4     5    1
     6     5     6   ar
     7     5    15   ar
     8     6     7   ar
     9     7     8   ar
    10     7    12   ar
    11     8     9   ar
    12     9    10   ar
    13    10    11   ar
    14    11    12   ar
    15    12    13   ar
    16    13    14    2
    17    13    15   ar
    18    16    17    1
    19    17    18   am
    20    18    19    2
    21    18    20    1
    22    20    21   ar
    23    20    26   ar
    24    21    22   ar
    25    22    23   ar
    26    23    24    1
    27    23    25   ar
    28    25    26   ar
    29     3    27    1
    30     3    28    1
    31     4    29    1
    32     4    30    1
    33     8    31    1
    34     9    32    1
    35    10    33    1
    36    11    34    1
    37    15    35    1
    38    16    36    1
    39    17    37    1
    40    21    38    1
    41    22    39    1
    42    25    40    1
    43    26    41    1
@<TRIPOS>MOLECULE
../data/bude_mols_rdkit_confs/molecule_83.pdb
 41 43 0 0 0
SMALL
GASTEIGER

@<TRIPOS>ATOM
      1  O1         1.3190    0.7580   -0.5190 O.2     1  UNL1       -0.2743
      2  C1         0.8220    0.1400    0.4550 C.2     1  UNL1        0.2295
      3  C2        -0.6280   -0.1310    0.4560 C.3     1  UNL1        0.0322
      4  C3        -1.2750    0.4270   -0.8030 C.3     1  UNL1        0.0138
      5  C4        -2.7410    0.1040   -0.7070 C.ar    1  UNL1        0.1108
      6  N1        -3.6060    0.9520   -0.1250 N.ar    1  UNL1       -0.2337
      7  C5        -4.9180    0.7000   -0.0190 C.ar    1  UNL1        0.0781
      8  C6        -5.8030    1.5790    0.5820 C.ar    1  UNL1       -0.0355
      9  C7        -7.1540    1.3220    0.6930 C.ar    1  UNL1       -0.0597
     10  C8        -7.6700    0.1470    0.1920 C.ar    1  UNL1       -0.0609
     11  C9        -6.7940   -0.7350   -0.4100 C.ar    1  UNL1       -0.0474
     12  C10       -5.4400   -0.4760   -0.5200 C.ar    1  UNL1        0.0647
     13  C11       -4.5540   -1.3500   -1.1190 C.ar    1  UNL1        0.2592
     14  O2        -5.0070   -2.4140   -1.5760 O.2     1  UNL1       -0.2672
     15  N2        -3.2370   -1.0450   -1.1990 N.ar    1  UNL1       -0.3103
     16  N3         1.6930   -0.2610    1.4970 N.am    1  UNL1       -0.2341
     17  N4         3.0850    0.0120    1.4730 N.am    1  UNL1       -0.2304
     18  C12        3.8130   -0.4340    0.3500 C.2     1  UNL1        0.2601
     19  O3         3.2380   -1.0470   -0.5830 O.2     1  UNL1       -0.2687
     20  C13        5.2410   -0.1960    0.2460 C.ar    1  UNL1        0.0383
     21  C14        5.9760    0.4660    1.2090 C.ar    1  UNL1       -0.0469
     22  C15        7.3110    0.6470    1.0340 C.ar    1  UNL1       -0.0257
     23  C16        7.9990    0.1990   -0.0720 C.ar    1  UNL1        0.1234
     24  F1         9.3400    0.4020   -0.2080 F       1  UNL1       -0.2055
     25  C17        7.2630   -0.4620   -1.0310 C.ar    1  UNL1       -0.0257
     26  C18        5.9100   -0.6570   -0.8770 C.ar    1  UNL1       -0.0469
     27 H          -1.0718    0.3296    1.3138 H       1  UNL1        0.0363
     28 H          -0.7823   -1.1894    0.4845 H       1  UNL1        0.0363
     29 H          -0.8511   -0.0323   -1.6715 H       1  UNL1        0.0348
     30 H          -1.1151    1.4817   -0.8861 H       1  UNL1        0.0348
     31 H          -5.4361    2.4649    0.9635 H       1  UNL1        0.0639
     32 H          -7.7757    2.0075    1.1497 H       1  UNL1        0.0618
     33 H          -8.6770   -0.0670    0.2641 H       1  UNL1        0.0618
     34 H          -7.1634   -1.6198   -0.7917 H       1  UNL1        0.0626
     35 H          -2.6243   -1.6836   -1.6303 H       1  UNL1        0.1700
     36 H           1.3187   -0.7474    2.2668 H       1  UNL1        0.1728
     37 H           3.5252    0.4933    2.2104 H       1  UNL1        0.1731
     38 H           5.5126    0.8224    2.0595 H       1  UNL1        0.0626
     39 H           7.8372    1.1463    1.7681 H       1  UNL1        0.0646
     40 H           7.7341   -0.8163   -1.8781 H       1  UNL1        0.0646
     41 H           5.3834   -1.1557   -1.6111 H       1  UNL1        0.0626
@<TRIPOS>BOND
     1     1     2    2
     2     2     3    1
     3     2    16   am
     4     3     4    1
     5     4     5    1
     6     5     6   ar
     7     5    15   ar
     8     6     7   ar
     9     7     8   ar
    10     7    12   ar
    11     8     9   ar
    12     9    10   ar
    13    10    11   ar
    14    11    12   ar
    15    12    13   ar
    16    13    14    2
    17    13    15   ar
    18    16    17    1
    19    17    18   am
    20    18    19    2
    21    18    20    1
    22    20    21   ar
    23    20    26   ar
    24    21    22   ar
    25    22    23   ar
    26    23    24    1
    27    23    25   ar
    28    25    26   ar
    29     3    27    1
    30     3    28    1
    31     4    29    1
    32     4    30    1
    33     8    31    1
    34     9    32    1
    35    10    33    1
    36    11    34    1
    37    15    35    1
    38    16    36    1
    39    17    37    1
    40    21    38    1
    41    22    39    1
    42    25    40    1
    43    26    41    1
@<TRIPOS>MOLECULE
../data/bude_mols_rdkit_confs/molecule_83.pdb
 41 43 0 0 0
SMALL
GASTEIGER

@<TRIPOS>ATOM
      1  O1         1.1190   -0.9840   -0.8650 O.2     1  UNL1       -0.2743
      2  C1         0.8110   -0.3120    0.1480 C.2     1  UNL1        0.2295
      3  C2        -0.6370   -0.0940    0.3980 C.3     1  UNL1        0.0322
      4  C3        -1.4990   -0.8060   -0.5870 C.3     1  UNL1        0.0138
      5  C4        -2.9270   -0.5150   -0.2850 C.ar    1  UNL1        0.1108
      6  N1        -3.9130   -1.1060   -1.0050 N.ar    1  UNL1       -0.2337
      7  C5        -5.2080   -0.8440   -0.7650 C.ar    1  UNL1        0.0781
      8  C6        -6.1920   -1.4650   -1.5130 C.ar    1  UNL1       -0.0355
      9  C7        -7.5160   -1.1900   -1.2550 C.ar    1  UNL1       -0.0597
     10  C8        -7.9020   -0.3050   -0.2630 C.ar    1  UNL1       -0.0609
     11  C9        -6.9270    0.3290    0.5010 C.ar    1  UNL1       -0.0474
     12  C10       -5.5920    0.0300    0.2150 C.ar    1  UNL1        0.0647
     13  C11       -4.5920    0.6440    0.9620 C.ar    1  UNL1        0.2592
     14  O2        -4.8980    1.4580    1.8790 O.2     1  UNL1       -0.2672
     15  N2        -3.3150    0.3410    0.6750 N.ar    1  UNL1       -0.3103
     16  N3         1.8410    0.1990    0.9920 N.am    1  UNL1       -0.2341
     17  N4         3.1510   -0.0870    0.6090 N.am    1  UNL1       -0.2304
     18  C12        4.1330    0.9090    0.7630 C.2     1  UNL1        0.2601
     19  O3         3.8230    2.0480    1.2510 O.2     1  UNL1       -0.2687
     20  C13        5.5320    0.7180    0.3860 C.ar    1  UNL1        0.0383
     21  C14        6.5170    1.5710    0.8740 C.ar    1  UNL1       -0.0469
     22  C15        7.8370    1.4140    0.5190 C.ar    1  UNL1       -0.0257
     23  C16        8.2300    0.3940   -0.3380 C.ar    1  UNL1        0.1234
     24  F1         9.5300    0.2420   -0.6860 F       1  UNL1       -0.2055
     25  C17        7.2590   -0.4530   -0.8210 C.ar    1  UNL1       -0.0257
     26  C18        5.9270   -0.2890   -0.4600 C.ar    1  UNL1       -0.0469
     27 H          -0.8416    0.9546    0.3383 H       1  UNL1        0.0363
     28 H          -0.8619   -0.4838    1.3688 H       1  UNL1        0.0363
     29 H          -1.3259   -1.8597   -0.5187 H       1  UNL1        0.0348
     30 H          -1.2651   -0.4738   -1.5769 H       1  UNL1        0.0348
     31 H          -5.9354   -2.1299   -2.2594 H       1  UNL1        0.0639
     32 H          -8.2431   -1.6580   -1.8184 H       1  UNL1        0.0618
     33 H          -8.9023   -0.1174   -0.0919 H       1  UNL1        0.0618
     34 H          -7.1796    0.9936    1.2491 H       1  UNL1        0.0626
     35 H          -2.6118    0.7784    1.2074 H       1  UNL1        0.1700
     36 H           1.6384    0.7242    1.7997 H       1  UNL1        0.1728
     37 H           3.3843   -0.9686    0.2381 H       1  UNL1        0.1731
     38 H           6.2525    2.3359    1.5143 H       1  UNL1        0.0626
     39 H           8.5454    2.0635    0.8949 H       1  UNL1        0.0646
     40 H           7.5232   -1.2196   -1.4593 H       1  UNL1        0.0646
     41 H           5.2188   -0.9386   -0.8362 H       1  UNL1        0.0626
@<TRIPOS>BOND
     1     1     2    2
     2     2     3    1
     3     2    16   am
     4     3     4    1
     5     4     5    1
     6     5     6   ar
     7     5    15   ar
     8     6     7   ar
     9     7     8   ar
    10     7    12   ar
    11     8     9   ar
    12     9    10   ar
    13    10    11   ar
    14    11    12   ar
    15    12    13   ar
    16    13    14    2
    17    13    15   ar
    18    16    17    1
    19    17    18   am
    20    18    19    2
    21    18    20    1
    22    20    21   ar
    23    20    26   ar
    24    21    22   ar
    25    22    23   ar
    26    23    24    1
    27    23    25   ar
    28    25    26   ar
    29     3    27    1
    30     3    28    1
    31     4    29    1
    32     4    30    1
    33     8    31    1
    34     9    32    1
    35    10    33    1
    36    11    34    1
    37    15    35    1
    38    16    36    1
    39    17    37    1
    40    21    38    1
    41    22    39    1
    42    25    40    1
    43    26    41    1
@<TRIPOS>MOLECULE
../data/bude_mols_rdkit_confs/molecule_83.pdb
 41 43 0 0 0
SMALL
GASTEIGER

@<TRIPOS>ATOM
      1  O1         1.3080    0.2170    1.1250 O.2     1  UNL1       -0.2743
      2  C1         0.8680    0.1780   -0.0340 C.2     1  UNL1        0.2295
      3  C2        -0.5860   -0.0150   -0.3030 C.3     1  UNL1        0.0322
      4  C3        -1.4280    0.1450    0.9190 C.3     1  UNL1        0.0138
      5  C4        -2.8600   -0.0750    0.5680 C.ar    1  UNL1        0.1108
      6  N1        -3.5730    0.9370    0.0990 N.ar    1  UNL1       -0.2337
      7  C5        -4.8780    0.8230   -0.2160 C.ar    1  UNL1        0.0781
      8  C6        -5.5710    1.8970   -0.7010 C.ar    1  UNL1       -0.0355
      9  C7        -6.9210    1.7860   -1.0330 C.ar    1  UNL1       -0.0597
     10  C8        -7.5630    0.5720   -0.8680 C.ar    1  UNL1       -0.0609
     11  C9        -6.8530   -0.5060   -0.3770 C.ar    1  UNL1       -0.0474
     12  C10       -5.5090   -0.4080   -0.0440 C.ar    1  UNL1        0.0647
     13  C11       -4.7540   -1.4430    0.4420 C.ar    1  UNL1        0.2592
     14  O2        -5.2900   -2.5590    0.6070 O.2     1  UNL1       -0.2672
     15  N2        -3.4400   -1.2700    0.7430 N.ar    1  UNL1       -0.3103
     16  N3         1.6780    0.3130   -1.1980 N.am    1  UNL1       -0.2341
     17  N4         3.0480    0.4950   -0.9760 N.am    1  UNL1       -0.2304
     18  C12        3.8470   -0.5580   -0.4510 C.2     1  UNL1        0.2601
     19  O3         3.2530   -1.6270   -0.2060 O.2     1  UNL1       -0.2687
     20  C13        5.2770   -0.4100   -0.2090 C.ar    1  UNL1        0.0383
     21  C14        5.9580   -1.4180    0.4220 C.ar    1  UNL1       -0.0469
     22  C15        7.3100   -1.3690    0.6750 C.ar    1  UNL1       -0.0257
     23  C16        8.0130   -0.2550    0.2760 C.ar    1  UNL1        0.1234
     24  F1         9.3290   -0.1520    0.4970 F       1  UNL1       -0.2055
     25  C17        7.3480    0.7840   -0.3660 C.ar    1  UNL1       -0.0257
     26  C18        6.0100    0.6880   -0.5940 C.ar    1  UNL1       -0.0469
     27 H          -0.7334   -1.0005   -0.6928 H       1  UNL1        0.0363
     28 H          -0.8865    0.7379   -1.0014 H       1  UNL1        0.0363
     29 H          -1.3045    1.1331    1.3104 H       1  UNL1        0.0348
     30 H          -1.1273   -0.5705    1.6555 H       1  UNL1        0.0348
     31 H          -5.0891    2.8014   -0.8230 H       1  UNL1        0.0639
     32 H          -7.4362    2.6021   -1.3984 H       1  UNL1        0.0618
     33 H          -8.5615    0.4729   -1.1091 H       1  UNL1        0.0618
     34 H          -7.3353   -1.4100   -0.2542 H       1  UNL1        0.0626
     35 H          -2.9127   -2.0252    1.0907 H       1  UNL1        0.1700
     36 H           1.2967    0.2802   -2.1051 H       1  UNL1        0.1728
     37 H           3.4636    1.3625   -1.1858 H       1  UNL1        0.1731
     38 H           5.4320   -2.2537    0.7218 H       1  UNL1        0.0626
     39 H           7.7859   -2.1500    1.1531 H       1  UNL1        0.0646
     40 H           7.8666    1.6236   -0.6680 H       1  UNL1        0.0646
     41 H           5.5289    1.4657   -1.0722 H       1  UNL1        0.0626
@<TRIPOS>BOND
     1     1     2    2
     2     2     3    1
     3     2    16   am
     4     3     4    1
     5     4     5    1
     6     5     6   ar
     7     5    15   ar
     8     6     7   ar
     9     7     8   ar
    10     7    12   ar
    11     8     9   ar
    12     9    10   ar
    13    10    11   ar
    14    11    12   ar
    15    12    13   ar
    16    13    14    2
    17    13    15   ar
    18    16    17    1
    19    17    18   am
    20    18    19    2
    21    18    20    1
    22    20    21   ar
    23    20    26   ar
    24    21    22   ar
    25    22    23   ar
    26    23    24    1
    27    23    25   ar
    28    25    26   ar
    29     3    27    1
    30     3    28    1
    31     4    29    1
    32     4    30    1
    33     8    31    1
    34     9    32    1
    35    10    33    1
    36    11    34    1
    37    15    35    1
    38    16    36    1
    39    17    37    1
    40    21    38    1
    41    22    39    1
    42    25    40    1
    43    26    41    1
@<TRIPOS>MOLECULE
../data/bude_mols_rdkit_confs/molecule_83.pdb
 41 43 0 0 0
SMALL
GASTEIGER

@<TRIPOS>ATOM
      1  O1        -0.0980    0.5680   -1.0270 O.2     1  UNL1       -0.2743
      2  C1        -0.0260   -0.5950   -1.4860 C.2     1  UNL1        0.2295
      3  C2         1.1300   -1.0850   -2.2070 C.3     1  UNL1        0.0322
      4  C3         2.2980   -0.2170   -2.4070 C.3     1  UNL1        0.0138
      5  C4         2.9020    0.2170   -1.1320 C.ar    1  UNL1        0.1108
      6  N1         3.7710   -0.6200   -0.5060 N.ar    1  UNL1       -0.2337
      7  C5         4.3710   -0.2600    0.6390 C.ar    1  UNL1        0.0781
      8  C6         5.2610   -1.1180    1.2790 C.ar    1  UNL1       -0.0355
      9  C7         5.8410   -0.6920    2.4430 C.ar    1  UNL1       -0.0597
     10  C8         5.5610    0.5520    2.9820 C.ar    1  UNL1       -0.0609
     11  C9         4.6810    1.4020    2.3520 C.ar    1  UNL1       -0.0474
     12  C10        4.0810    0.9810    1.1610 C.ar    1  UNL1        0.0647
     13  C11        3.2000    1.8320    0.5260 C.ar    1  UNL1        0.2592
     14  O2         2.9310    2.9780    1.0070 O.2     1  UNL1       -0.2672
     15  N2         2.6320    1.4110   -0.6200 N.ar    1  UNL1       -0.3103
     16  N3        -1.1950   -1.4010   -1.2320 N.am    1  UNL1       -0.2341
     17  N4        -2.2800   -0.8740   -0.5290 N.am    1  UNL1       -0.2304
     18  C12       -3.5760   -0.7600   -1.0780 C.2     1  UNL1        0.2601
     19  O3        -3.7340   -1.1630   -2.2670 O.2     1  UNL1       -0.2687
     20  C13       -4.7340   -0.2030   -0.3460 C.ar    1  UNL1        0.0383
     21  C14       -4.6570    0.1460    0.9690 C.ar    1  UNL1       -0.0469
     22  C15       -5.7350    0.6630    1.6180 C.ar    1  UNL1       -0.0257
     23  C16       -6.9520    0.8580    0.9820 C.ar    1  UNL1        0.1234
     24  F1        -8.0220    1.3800    1.6550 F       1  UNL1       -0.2055
     25  C17       -7.0090    0.4990   -0.3480 C.ar    1  UNL1       -0.0257
     26  C18       -5.9250   -0.0250   -1.0160 C.ar    1  UNL1       -0.0469
     27 H           0.7881   -1.3704   -3.1799 H       1  UNL1        0.0363
     28 H           1.5062   -1.8572   -1.5690 H       1  UNL1        0.0363
     29 H           1.9921    0.6497   -2.9548 H       1  UNL1        0.0348
     30 H           3.0345   -0.7795   -2.9419 H       1  UNL1        0.0348
     31 H           5.4771   -2.0480    0.8872 H       1  UNL1        0.0639
     32 H           6.5040   -1.3140    2.9314 H       1  UNL1        0.0618
     33 H           6.0150    0.8437    3.8617 H       1  UNL1        0.0618
     34 H           4.4684    2.3302    2.7499 H       1  UNL1        0.0626
     35 H           2.0011    2.0034   -1.0894 H       1  UNL1        0.1700
     36 H          -1.2280   -2.3298   -1.5568 H       1  UNL1        0.1728
     37 H          -2.1344   -0.5667    0.3949 H       1  UNL1        0.1731
     38 H          -3.7693    0.0164    1.4792 H       1  UNL1        0.0626
     39 H          -5.6445    0.9179    2.6139 H       1  UNL1        0.0646
     40 H          -7.8953    0.6276   -0.8608 H       1  UNL1        0.0646
     41 H          -6.0039   -0.2828   -2.0122 H       1  UNL1        0.0626
@<TRIPOS>BOND
     1     1     2    2
     2     2     3    1
     3     2    16   am
     4     3     4    1
     5     4     5    1
     6     5     6   ar
     7     5    15   ar
     8     6     7   ar
     9     7     8   ar
    10     7    12   ar
    11     8     9   ar
    12     9    10   ar
    13    10    11   ar
    14    11    12   ar
    15    12    13   ar
    16    13    14    2
    17    13    15   ar
    18    16    17    1
    19    17    18   am
    20    18    19    2
    21    18    20    1
    22    20    21   ar
    23    20    26   ar
    24    21    22   ar
    25    22    23   ar
    26    23    24    1
    27    23    25   ar
    28    25    26   ar
    29     3    27    1
    30     3    28    1
    31     4    29    1
    32     4    30    1
    33     8    31    1
    34     9    32    1
    35    10    33    1
    36    11    34    1
    37    15    35    1
    38    16    36    1
    39    17    37    1
    40    21    38    1
    41    22    39    1
    42    25    40    1
    43    26    41    1
@<TRIPOS>MOLECULE
../data/bude_mols_rdkit_confs/molecule_83.pdb
 41 43 0 0 0
SMALL
GASTEIGER

@<TRIPOS>ATOM
      1  O1         1.1530    0.0340   -0.9010 O.2     1  UNL1       -0.2743
      2  C1         0.8070   -0.6070    0.1240 C.2     1  UNL1        0.2295
      3  C2        -0.5820   -0.5260    0.5810 C.3     1  UNL1        0.0322
      4  C3        -1.3360    0.4230   -0.3230 C.3     1  UNL1        0.0138
      5  C4        -2.7480    0.5250    0.1070 C.ar    1  UNL1        0.1108
      6  N1        -3.6470   -0.3200   -0.4190 N.ar    1  UNL1       -0.2337
      7  C5        -4.9280   -0.2190   -0.0220 C.ar    1  UNL1        0.0781
      8  C6        -5.8930   -1.0770   -0.5450 C.ar    1  UNL1       -0.0355
      9  C7        -7.2260   -0.9870   -0.1450 C.ar    1  UNL1       -0.0597
     10  C8        -7.5790   -0.0330    0.7770 C.ar    1  UNL1       -0.0609
     11  C9        -6.6410    0.8100    1.2930 C.ar    1  UNL1       -0.0474
     12  C10       -5.3090    0.7310    0.9050 C.ar    1  UNL1        0.0647
     13  C11       -4.3520    1.5750    1.4160 C.ar    1  UNL1        0.2592
     14  O2        -4.7230    2.4400    2.2660 O.2     1  UNL1       -0.2672
     15  N2        -3.0900    1.4500    1.0020 N.ar    1  UNL1       -0.3103
     16  N3         1.8120   -1.3760    0.7710 N.am    1  UNL1       -0.2341
     17  N4         3.1070   -1.3810    0.2500 N.am    1  UNL1       -0.2304
     18  C12        3.8450   -0.2150    0.0320 C.2     1  UNL1        0.2601
     19  O3         3.2960    0.8900    0.3280 O.2     1  UNL1       -0.2687
     20  C13        5.1910   -0.1680   -0.5060 C.ar    1  UNL1        0.0383
     21  C14        5.9380   -1.3040   -0.7210 C.ar    1  UNL1       -0.0469
     22  C15        7.2280   -1.2730   -1.2370 C.ar    1  UNL1       -0.0257
     23  C16        7.8080   -0.0530   -1.5570 C.ar    1  UNL1        0.1234
     24  F1         9.0660   -0.0300   -2.0600 F       1  UNL1       -0.2055
     25  C17        7.0750    1.0880   -1.3490 C.ar    1  UNL1       -0.0257
     26  C18        5.7980    1.0470   -0.8380 C.ar    1  UNL1       -0.0469
     27 H          -0.6093   -0.1628    1.5871 H       1  UNL1        0.0363
     28 H          -1.0332   -1.4957    0.5487 H       1  UNL1        0.0363
     29 H          -1.2981    0.0586   -1.3283 H       1  UNL1        0.0348
     30 H          -0.8835    1.3911   -0.2680 H       1  UNL1        0.0348
     31 H          -5.6174   -1.7897   -1.2386 H       1  UNL1        0.0639
     32 H          -7.9352   -1.6269   -0.5356 H       1  UNL1        0.0618
     33 H          -8.5619    0.0462    1.0815 H       1  UNL1        0.0618
     34 H          -6.9252    1.5207    1.9852 H       1  UNL1        0.0626
     35 H          -2.4000    2.0516    1.3641 H       1  UNL1        0.1700
     36 H           1.5974   -1.8989    1.5770 H       1  UNL1        0.1728
     37 H           3.5194   -2.2464    0.0258 H       1  UNL1        0.1731
     38 H           5.5217   -2.2193   -0.4887 H       1  UNL1        0.0626
     39 H           7.7511   -2.1508   -1.3813 H       1  UNL1        0.0646
     40 H           7.4929    2.0023   -1.5822 H       1  UNL1        0.0646
     41 H           5.2795    1.9281   -0.6974 H       1  UNL1        0.0626
@<TRIPOS>BOND
     1     1     2    2
     2     2     3    1
     3     2    16   am
     4     3     4    1
     5     4     5    1
     6     5     6   ar
     7     5    15   ar
     8     6     7   ar
     9     7     8   ar
    10     7    12   ar
    11     8     9   ar
    12     9    10   ar
    13    10    11   ar
    14    11    12   ar
    15    12    13   ar
    16    13    14    2
    17    13    15   ar
    18    16    17    1
    19    17    18   am
    20    18    19    2
    21    18    20    1
    22    20    21   ar
    23    20    26   ar
    24    21    22   ar
    25    22    23   ar
    26    23    24    1
    27    23    25   ar
    28    25    26   ar
    29     3    27    1
    30     3    28    1
    31     4    29    1
    32     4    30    1
    33     8    31    1
    34     9    32    1
    35    10    33    1
    36    11    34    1
    37    15    35    1
    38    16    36    1
    39    17    37    1
    40    21    38    1
    41    22    39    1
    42    25    40    1
    43    26    41    1
@<TRIPOS>MOLECULE
../data/bude_mols_rdkit_confs/molecule_83.pdb
 41 43 0 0 0
SMALL
GASTEIGER

@<TRIPOS>ATOM
      1  O1         0.1220   -1.1850   -0.2090 O.2     1  UNL1       -0.2743
      2  C1         0.3640   -0.7170   -1.3340 C.2     1  UNL1        0.2295
      3  C2        -0.5390   -0.9160   -2.4800 C.3     1  UNL1        0.0322
      4  C3        -1.8220   -1.5920   -2.1830 C.3     1  UNL1        0.0138
      5  C4        -2.7050   -0.8540   -1.2330 C.ar    1  UNL1        0.1108
      6  N1        -3.8790   -1.3980   -0.8260 N.ar    1  UNL1       -0.2337
      7  C5        -4.6720   -0.7100    0.0140 C.ar    1  UNL1        0.0781
      8  C6        -5.8900   -1.2640    0.4280 C.ar    1  UNL1       -0.0355
      9  C7        -6.7250   -0.5810    1.2790 C.ar    1  UNL1       -0.0597
     10  C8        -6.3710    0.6810    1.7440 C.ar    1  UNL1       -0.0609
     11  C9        -5.1840    1.2430    1.3520 C.ar    1  UNL1       -0.0474
     12  C10       -4.3520    0.5490    0.4990 C.ar    1  UNL1        0.0647
     13  C11       -3.1500    1.0730    0.0650 C.ar    1  UNL1        0.2592
     14  O2        -2.8400    2.2040    0.4870 O.2     1  UNL1       -0.2672
     15  N2        -2.3650    0.3580   -0.7860 N.ar    1  UNL1       -0.3103
     16  N3         1.5410    0.0360   -1.5400 N.am    1  UNL1       -0.2341
     17  N4         2.5000    0.3250   -0.5750 N.am    1  UNL1       -0.2304
     18  C12        3.8710   -0.0040   -0.6920 C.2     1  UNL1        0.2601
     19  O3         4.2200   -0.6070   -1.7570 O.2     1  UNL1       -0.2687
     20  C13        4.8670    0.3250    0.3530 C.ar    1  UNL1        0.0383
     21  C14        4.5070    0.5590    1.6600 C.ar    1  UNL1       -0.0469
     22  C15        5.4310    0.8820    2.6360 C.ar    1  UNL1       -0.0257
     23  C16        6.7430    0.9620    2.2420 C.ar    1  UNL1        0.1234
     24  F1         7.7430    1.2770    3.1270 F       1  UNL1       -0.2055
     25  C17        7.1250    0.7330    0.9420 C.ar    1  UNL1       -0.0257
     26  C18        6.1910    0.4160    0.0030 C.ar    1  UNL1       -0.0469
     27 H          -0.0199   -1.5035   -3.2082 H       1  UNL1        0.0363
     28 H          -0.8002    0.0656   -2.8164 H       1  UNL1        0.0363
     29 H          -1.6046   -2.5509   -1.7610 H       1  UNL1        0.0348
     30 H          -2.3550   -1.6533   -3.1087 H       1  UNL1        0.0348
     31 H          -6.1644   -2.1992    0.0888 H       1  UNL1        0.0639
     32 H          -7.6179   -1.0059    1.5741 H       1  UNL1        0.0618
     33 H          -7.0001    1.1927    2.3822 H       1  UNL1        0.0618
     34 H          -4.9147    2.1791    1.6929 H       1  UNL1        0.0626
     35 H          -1.5124    0.7496   -1.0842 H       1  UNL1        0.1700
     36 H           1.6963    0.3873   -2.4465 H       1  UNL1        0.1728
     37 H           2.2058    0.7884    0.2423 H       1  UNL1        0.1731
     38 H           3.5109    0.4909    1.9213 H       1  UNL1        0.0626
     39 H           5.1480    1.0546    3.6133 H       1  UNL1        0.0646
     40 H           8.1201    0.8013    0.6772 H       1  UNL1        0.0646
     41 H           6.4791    0.2440   -0.9729 H       1  UNL1        0.0626
@<TRIPOS>BOND
     1     1     2    2
     2     2     3    1
     3     2    16   am
     4     3     4    1
     5     4     5    1
     6     5     6   ar
     7     5    15   ar
     8     6     7   ar
     9     7     8   ar
    10     7    12   ar
    11     8     9   ar
    12     9    10   ar
    13    10    11   ar
    14    11    12   ar
    15    12    13   ar
    16    13    14    2
    17    13    15   ar
    18    16    17    1
    19    17    18   am
    20    18    19    2
    21    18    20    1
    22    20    21   ar
    23    20    26   ar
    24    21    22   ar
    25    22    23   ar
    26    23    24    1
    27    23    25   ar
    28    25    26   ar
    29     3    27    1
    30     3    28    1
    31     4    29    1
    32     4    30    1
    33     8    31    1
    34     9    32    1
    35    10    33    1
    36    11    34    1
    37    15    35    1
    38    16    36    1
    39    17    37    1
    40    21    38    1
    41    22    39    1
    42    25    40    1
    43    26    41    1
@<TRIPOS>MOLECULE
../data/bude_mols_rdkit_confs/molecule_83.pdb
 41 43 0 0 0
SMALL
GASTEIGER

@<TRIPOS>ATOM
      1  O1         1.3110    0.9780   -0.2180 O.2     1  UNL1       -0.2743
      2  C1         0.8680   -0.0420    0.3480 C.2     1  UNL1        0.2295
      3  C2        -0.5920   -0.3290    0.3840 C.3     1  UNL1        0.0322
      4  C3        -1.2860    0.7550   -0.4220 C.3     1  UNL1        0.0138
      5  C4        -2.7490    0.4150   -0.3530 C.ar    1  UNL1        0.1108
      6  N1        -3.5520    0.9090    0.6030 N.ar    1  UNL1       -0.2337
      7  C5        -4.8570    0.6070    0.6880 C.ar    1  UNL1        0.0781
      8  C6        -5.6970    1.1190    1.6740 C.ar    1  UNL1       -0.0355
      9  C7        -7.0250    0.8110    1.7510 C.ar    1  UNL1       -0.0597
     10  C8        -7.5310   -0.0500    0.7960 C.ar    1  UNL1       -0.0609
     11  C9        -6.7270   -0.5750   -0.1930 C.ar    1  UNL1       -0.0474
     12  C10       -5.3730   -0.2460   -0.2540 C.ar    1  UNL1        0.0647
     13  C11       -4.5400   -0.7520   -1.2370 C.ar    1  UNL1        0.2592
     14  O2        -5.0630   -1.5310   -2.0770 O.2     1  UNL1       -0.2672
     15  N2        -3.2460   -0.4220   -1.2810 N.ar    1  UNL1       -0.3103
     16  N3         1.8190   -0.9140    0.9540 N.am    1  UNL1       -0.2341
     17  N4         3.1840   -0.6430    0.9140 N.am    1  UNL1       -0.2304
     18  C12        3.7570   -0.4460   -0.3750 C.2     1  UNL1        0.2601
     19  O3         3.0630   -0.5120   -1.4510 O.2     1  UNL1       -0.2687
     20  C13        5.1770   -0.1590   -0.4750 C.ar    1  UNL1        0.0383
     21  C14        6.0780   -1.0960   -0.0830 C.ar    1  UNL1       -0.0469
     22  C15        7.4350   -0.8310   -0.1700 C.ar    1  UNL1       -0.0257
     23  C16        7.8420    0.3870   -0.6570 C.ar    1  UNL1        0.1234
     24  F1         9.1850    0.6190   -0.7300 F       1  UNL1       -0.2055
     25  C17        6.9030    1.3290   -1.0520 C.ar    1  UNL1       -0.0257
     26  C18        5.5680    1.0630   -0.9640 C.ar    1  UNL1       -0.0469
     27 H          -0.9430   -0.3150    1.3947 H       1  UNL1        0.0363
     28 H          -0.7980   -1.2958   -0.0256 H       1  UNL1        0.0363
     29 H          -0.9452    0.7459   -1.4362 H       1  UNL1        0.0348
     30 H          -1.0823    1.7331   -0.0391 H       1  UNL1        0.0348
     31 H          -5.2979    1.7597    2.3777 H       1  UNL1        0.0639
     32 H          -7.6259    1.2049    2.4918 H       1  UNL1        0.0618
     33 H          -8.5306   -0.3050    0.8237 H       1  UNL1        0.0618
     34 H          -7.1301   -1.2165   -0.8938 H       1  UNL1        0.0626
     35 H          -2.6628   -0.7875   -1.9849 H       1  UNL1        0.1700
     36 H           1.5033   -1.7266    1.4114 H       1  UNL1        0.1728
     37 H           3.7254   -0.5902    1.7346 H       1  UNL1        0.1731
     38 H           5.7520   -2.0055    0.2797 H       1  UNL1        0.0626
     39 H           8.1278   -1.5363    0.1259 H       1  UNL1        0.0646
     40 H           7.2182    2.2415   -1.4166 H       1  UNL1        0.0646
     41 H           4.8690    1.7631   -1.2578 H       1  UNL1        0.0626
@<TRIPOS>BOND
     1     1     2    2
     2     2     3    1
     3     2    16   am
     4     3     4    1
     5     4     5    1
     6     5     6   ar
     7     5    15   ar
     8     6     7   ar
     9     7     8   ar
    10     7    12   ar
    11     8     9   ar
    12     9    10   ar
    13    10    11   ar
    14    11    12   ar
    15    12    13   ar
    16    13    14    2
    17    13    15   ar
    18    16    17    1
    19    17    18   am
    20    18    19    2
    21    18    20    1
    22    20    21   ar
    23    20    26   ar
    24    21    22   ar
    25    22    23   ar
    26    23    24    1
    27    23    25   ar
    28    25    26   ar
    29     3    27    1
    30     3    28    1
    31     4    29    1
    32     4    30    1
    33     8    31    1
    34     9    32    1
    35    10    33    1
    36    11    34    1
    37    15    35    1
    38    16    36    1
    39    17    37    1
    40    21    38    1
    41    22    39    1
    42    25    40    1
    43    26    41    1
@<TRIPOS>MOLECULE
../data/bude_mols_rdkit_confs/molecule_83.pdb
 41 43 0 0 0
SMALL
GASTEIGER

@<TRIPOS>ATOM
      1  O1         1.1680   -2.2340   -0.7980 O.2     1  UNL1       -0.2743
      2  C1         0.7190   -1.2660   -0.1710 C.2     1  UNL1        0.2295
      3  C2        -0.6980   -0.9170    0.0350 C.3     1  UNL1        0.0322
      4  C3        -1.7150   -1.8460   -0.5140 C.3     1  UNL1        0.0138
      5  C4        -3.0450   -1.2610   -0.1020 C.ar    1  UNL1        0.1108
      6  N1        -3.6460   -0.3990   -0.9070 N.ar    1  UNL1       -0.2337
      7  C5        -4.8150    0.1890   -0.5450 C.ar    1  UNL1        0.0781
      8  C6        -5.4490    1.0940   -1.3580 C.ar    1  UNL1       -0.0355
      9  C7        -6.6470    1.7020   -0.9730 C.ar    1  UNL1       -0.0597
     10  C8        -7.1990    1.3880    0.2450 C.ar    1  UNL1       -0.0609
     11  C9        -6.5660    0.4770    1.0690 C.ar    1  UNL1       -0.0474
     12  C10       -5.3710   -0.1290    0.6800 C.ar    1  UNL1        0.0647
     13  C11       -4.7430   -1.0270    1.5110 C.ar    1  UNL1        0.2592
     14  O2        -5.2650   -1.2920    2.6030 O.2     1  UNL1       -0.2672
     15  N2        -3.5730   -1.5740    1.0760 N.ar    1  UNL1       -0.3103
     16  N3         1.6520   -0.3700    0.4360 N.am    1  UNL1       -0.2341
     17  N4         3.0210   -0.4560    0.4140 N.am    1  UNL1       -0.2304
     18  C12        3.7980    0.6720    0.0040 C.2     1  UNL1        0.2601
     19  O3         3.1540    1.7260   -0.3480 O.2     1  UNL1       -0.2687
     20  C13        5.2510    0.7090   -0.0360 C.ar    1  UNL1        0.0383
     21  C14        5.9340    1.5860   -0.8630 C.ar    1  UNL1       -0.0469
     22  C15        7.3040    1.5950   -0.8270 C.ar    1  UNL1       -0.0257
     23  C16        8.0230    0.7610    0.0040 C.ar    1  UNL1        0.1234
     24  F1         9.3890    0.8450   -0.0230 F       1  UNL1       -0.2055
     25  C17        7.3540   -0.1150    0.8300 C.ar    1  UNL1       -0.0257
     26  C18        5.9730   -0.1270    0.7950 C.ar    1  UNL1       -0.0469
     27 H          -0.8616    0.0403   -0.4142 H       1  UNL1        0.0363
     28 H          -0.8379   -0.9527    1.0952 H       1  UNL1        0.0363
     29 H          -1.5912   -2.8253   -0.1010 H       1  UNL1        0.0348
     30 H          -1.6334   -1.9478   -1.5760 H       1  UNL1        0.0348
     31 H          -5.0329    1.3306   -2.2723 H       1  UNL1        0.0639
     32 H          -7.1120    2.3797   -1.5971 H       1  UNL1        0.0618
     33 H          -8.0824    1.8304    0.5433 H       1  UNL1        0.0618
     34 H          -6.9824    0.2420    1.9835 H       1  UNL1        0.0626
     35 H          -3.1050   -2.2207    1.6522 H       1  UNL1        0.1700
     36 H           1.2697    0.3944    0.9246 H       1  UNL1        0.1728
     37 H           3.4673   -1.2923    0.6799 H       1  UNL1        0.1731
     38 H           5.4207    2.2207   -1.4944 H       1  UNL1        0.0626
     39 H           7.8148    2.2475   -1.4421 H       1  UNL1        0.0646
     40 H           7.8720   -0.7473    1.4600 H       1  UNL1        0.0646
     41 H           5.4638   -0.7815    1.4093 H       1  UNL1        0.0626
@<TRIPOS>BOND
     1     1     2    2
     2     2     3    1
     3     2    16   am
     4     3     4    1
     5     4     5    1
     6     5     6   ar
     7     5    15   ar
     8     6     7   ar
     9     7     8   ar
    10     7    12   ar
    11     8     9   ar
    12     9    10   ar
    13    10    11   ar
    14    11    12   ar
    15    12    13   ar
    16    13    14    2
    17    13    15   ar
    18    16    17    1
    19    17    18   am
    20    18    19    2
    21    18    20    1
    22    20    21   ar
    23    20    26   ar
    24    21    22   ar
    25    22    23   ar
    26    23    24    1
    27    23    25   ar
    28    25    26   ar
    29     3    27    1
    30     3    28    1
    31     4    29    1
    32     4    30    1
    33     8    31    1
    34     9    32    1
    35    10    33    1
    36    11    34    1
    37    15    35    1
    38    16    36    1
    39    17    37    1
    40    21    38    1
    41    22    39    1
    42    25    40    1
    43    26    41    1
@<TRIPOS>MOLECULE
../data/bude_mols_rdkit_confs/molecule_83.pdb
 41 43 0 0 0
SMALL
GASTEIGER

@<TRIPOS>ATOM
      1  O1         1.2720    0.7860   -0.7650 O.2     1  UNL1       -0.2743
      2  C1         0.8630    0.3850    0.3500 C.2     1  UNL1        0.2295
      3  C2        -0.5900    0.3180    0.6600 C.3     1  UNL1        0.0322
      4  C3        -1.3580    0.8060   -0.5400 C.3     1  UNL1        0.0138
      5  C4        -2.8290    0.7770   -0.3050 C.ar    1  UNL1        0.1108
      6  N1        -3.5670   -0.3120   -0.6020 N.ar    1  UNL1       -0.2337
      7  C5        -4.8940   -0.3890   -0.4080 C.ar    1  UNL1        0.0781
      8  C6        -5.6610   -1.4910   -0.7060 C.ar    1  UNL1       -0.0355
      9  C7        -7.0210   -1.5350   -0.4940 C.ar    1  UNL1       -0.0597
     10  C8        -7.5990   -0.3880    0.0470 C.ar    1  UNL1       -0.0609
     11  C9        -6.8690    0.7280    0.3570 C.ar    1  UNL1       -0.0474
     12  C10       -5.5090    0.7410    0.1330 C.ar    1  UNL1        0.0647
     13  C11       -4.7380    1.8460    0.4310 C.ar    1  UNL1        0.2592
     14  O2        -5.3110    2.8700    0.9250 O.2     1  UNL1       -0.2672
     15  N2        -3.4230    1.8510    0.2110 N.ar    1  UNL1       -0.3103
     16  N3         1.7820   -0.0170    1.3490 N.am    1  UNL1       -0.2341
     17  N4         3.1650    0.0310    1.1100 N.am    1  UNL1       -0.2304
     18  C12        3.7970   -0.5990    0.0140 C.2     1  UNL1        0.2601
     19  O3         3.0620   -1.2400   -0.7890 O.2     1  UNL1       -0.2687
     20  C13        5.2390   -0.5110   -0.1800 C.ar    1  UNL1        0.0383
     21  C14        6.0900    0.0960    0.7100 C.ar    1  UNL1       -0.0469
     22  C15        7.4740    0.1730    0.5020 C.ar    1  UNL1       -0.0257
     23  C16        8.0410   -0.3700   -0.6290 C.ar    1  UNL1        0.1234
     24  F1         9.3770   -0.3040   -0.8470 F       1  UNL1       -0.2055
     25  C17        7.1930   -0.9810   -1.5270 C.ar    1  UNL1       -0.0257
     26  C18        5.8330   -1.0590   -1.3260 C.ar    1  UNL1       -0.0469
     27 H          -0.8078    0.9380    1.5044 H       1  UNL1        0.0363
     28 H          -0.8697   -0.6890    0.8894 H       1  UNL1        0.0363
     29 H          -1.1285    0.1793   -1.3763 H       1  UNL1        0.0348
     30 H          -1.0713    1.8195   -0.7286 H       1  UNL1        0.0348
     31 H          -5.1970   -2.3214   -1.1061 H       1  UNL1        0.0639
     32 H          -7.5811   -2.3710   -0.7230 H       1  UNL1        0.0618
     33 H          -8.6163   -0.3796    0.2206 H       1  UNL1        0.0618
     34 H          -7.3356    1.5570    0.7572 H       1  UNL1        0.0626
     35 H          -2.8907    2.6496    0.4303 H       1  UNL1        0.1700
     36 H           1.4484   -0.3332    2.2196 H       1  UNL1        0.1728
     37 H           3.7274    0.5330    1.7432 H       1  UNL1        0.1731
     38 H           5.6945    0.5127    1.5673 H       1  UNL1        0.0626
     39 H           8.0721    0.6399    1.2015 H       1  UNL1        0.0646
     40 H           7.5926   -1.3961   -2.3832 H       1  UNL1        0.0646
     41 H           5.2416   -1.5281   -2.0297 H       1  UNL1        0.0626
@<TRIPOS>BOND
     1     1     2    2
     2     2     3    1
     3     2    16   am
     4     3     4    1
     5     4     5    1
     6     5     6   ar
     7     5    15   ar
     8     6     7   ar
     9     7     8   ar
    10     7    12   ar
    11     8     9   ar
    12     9    10   ar
    13    10    11   ar
    14    11    12   ar
    15    12    13   ar
    16    13    14    2
    17    13    15   ar
    18    16    17    1
    19    17    18   am
    20    18    19    2
    21    18    20    1
    22    20    21   ar
    23    20    26   ar
    24    21    22   ar
    25    22    23   ar
    26    23    24    1
    27    23    25   ar
    28    25    26   ar
    29     3    27    1
    30     3    28    1
    31     4    29    1
    32     4    30    1
    33     8    31    1
    34     9    32    1
    35    10    33    1
    36    11    34    1
    37    15    35    1
    38    16    36    1
    39    17    37    1
    40    21    38    1
    41    22    39    1
    42    25    40    1
    43    26    41    1
