@<TRIPOS>MOLECULE
../data/bude_mols_rdkit_confs/molecule_2.pdb
 55 59 0 0 0
SMALL
GASTEIGER

@<TRIPOS>ATOM
      1  O1        -0.7610    2.6560   -1.5810 O.2     1  UNL1       -0.2699
      2  C1        -0.9140    1.6070   -0.9060 C.2     1  UNL1        0.2495
      3  C2         0.0400    1.2060    0.1000 C.ar    1  UNL1        0.0723
      4  C3         1.1210    0.3980   -0.1860 C.ar    1  UNL1       -0.0433
      5  C4         2.0170    0.0370    0.8220 C.ar    1  UNL1       -0.0406
      6  C5         3.1780   -0.8280    0.5210 C.3     1  UNL1        0.0171
      7  C6         4.3460    0.0160    0.1360 C.ar    1  UNL1        0.0736
      8  N1         4.2030    1.3590    0.1140 N.ar    1  UNL1       -0.1750
      9  N2         5.2460    2.0850   -0.2290 N.ar    1  UNL1       -0.2425
     10  C7         6.4300    1.5310   -0.5520 C.ar    1  UNL1        0.2725
     11  O2         7.4150    2.2620   -0.8780 O.2     1  UNL1       -0.2658
     12  C8         6.6150    0.1630   -0.5420 C.ar    1  UNL1        0.0496
     13  C9         7.8340   -0.4310   -0.8740 C.ar    1  UNL1       -0.0487
     14  C10        7.9830   -1.8000   -0.8520 C.ar    1  UNL1       -0.0610
     15  C11        6.8930   -2.5620   -0.4940 C.ar    1  UNL1       -0.0611
     16  C12        5.6810   -1.9720   -0.1640 C.ar    1  UNL1       -0.0521
     17  C13        5.5330   -0.6040   -0.1860 C.ar    1  UNL1        0.0106
     18  C14        1.7950    0.5060    2.1060 C.ar    1  UNL1       -0.0555
     19  C15        0.7200    1.3140    2.4120 C.ar    1  UNL1       -0.0254
     20  C16       -0.1480    1.6540    1.3980 C.ar    1  UNL1        0.1355
     21  F1        -1.2130    2.4490    1.6790 F       1  UNL1       -0.2047
     22  N3        -2.0590    0.8000   -1.1460 N.am    1  UNL1       -0.2945
     23  C17       -3.0360    1.1790   -2.1530 C.3     1  UNL1        0.0308
     24  C18       -4.2100    0.2350   -2.1450 C.3     1  UNL1        0.0305
     25  N4        -4.6530   -0.1120   -0.8210 N.am    1  UNL1       -0.2983
     26  C19       -6.0400   -0.2530   -0.5760 C.2     1  UNL1        0.2187
     27  O3        -6.8710   -0.0780   -1.4990 O.2     1  UNL1       -0.2753
     28  C20       -6.5760   -0.6120    0.7730 C.3     1  UNL1        0.0358
     29  C21       -7.9730   -0.1690    1.1150 C.3     1  UNL1       -0.0412
     30  C22       -7.6840   -1.6180    0.7400 C.3     1  UNL1       -0.0412
     31  C23       -3.6750   -0.3040    0.2080 C.3     1  UNL1        0.0305
     32  C24       -2.2690   -0.4320   -0.3760 C.3     1  UNL1        0.0308
     33 H           1.2680    0.0588   -1.1495 H       1  UNL1        0.0629
     34 H           2.9322   -1.4852   -0.2868 H       1  UNL1        0.0377
     35 H           3.4264   -1.4030    1.3885 H       1  UNL1        0.0377
     36 H           5.1575    3.0653   -0.2501 H       1  UNL1        0.1921
     37 H           8.6344    0.1639   -1.1395 H       1  UNL1        0.0625
     38 H           8.8834   -2.2411   -1.0962 H       1  UNL1        0.0618
     39 H           6.9791   -3.5901   -0.4707 H       1  UNL1        0.0618
     40 H           4.8804   -2.5668    0.1013 H       1  UNL1        0.0624
     41 H           2.4534    0.2431    2.8560 H       1  UNL1        0.0621
     42 H           0.5700    1.6546    3.3746 H       1  UNL1        0.0646
     43 H          -2.5729    1.1540   -3.1173 H       1  UNL1        0.0480
     44 H          -3.3886    2.1650   -1.9332 H       1  UNL1        0.0480
     45 H          -3.9275   -0.6625   -2.6546 H       1  UNL1        0.0480
     46 H          -5.0221    0.7356   -2.6296 H       1  UNL1        0.0480
     47 H          -5.6354   -0.5132    1.2734 H       1  UNL1        0.0394
     48 H          -8.5162    0.4617    0.4426 H       1  UNL1        0.0273
     49 H          -8.4329    0.3250    1.9453 H       1  UNL1        0.0273
     50 H          -7.7341   -2.3844    1.4850 H       1  UNL1        0.0273
     51 H          -8.0647   -2.3029    0.0113 H       1  UNL1        0.0273
     52 H          -3.9098   -1.1967    0.7492 H       1  UNL1        0.0480
     53 H          -3.6947    0.5483    0.8546 H       1  UNL1        0.0480
     54 H          -1.5437   -0.5138    0.4064 H       1  UNL1        0.0480
     55 H          -2.1664   -1.3063   -0.9842 H       1  UNL1        0.0480
@<TRIPOS>BOND
     1     1     2    2
     2     2     3    1
     3     2    22   am
     4     3     4   ar
     5     3    20   ar
     6     4     5   ar
     7     5     6    1
     8     5    18   ar
     9     6     7    1
    10     7     8   ar
    11     7    17   ar
    12     8     9   ar
    13     9    10   ar
    14    10    11    2
    15    10    12   ar
    16    12    13   ar
    17    12    17   ar
    18    13    14   ar
    19    14    15   ar
    20    15    16   ar
    21    16    17   ar
    22    18    19   ar
    23    19    20   ar
    24    20    21    1
    25    22    23    1
    26    22    32    1
    27    23    24    1
    28    24    25    1
    29    25    26   am
    30    25    31    1
    31    26    27    2
    32    26    28    1
    33    28    29    1
    34    28    30    1
    35    29    30    1
    36    31    32    1
    37     4    33    1
    38     6    34    1
    39     6    35    1
    40     9    36    1
    41    13    37    1
    42    14    38    1
    43    15    39    1
    44    16    40    1
    45    18    41    1
    46    19    42    1
    47    23    43    1
    48    23    44    1
    49    24    45    1
    50    24    46    1
    51    28    47    1
    52    29    48    1
    53    29    49    1
    54    30    50    1
    55    30    51    1
    56    31    52    1
    57    31    53    1
    58    32    54    1
    59    32    55    1
@<TRIPOS>MOLECULE
../data/bude_mols_rdkit_confs/molecule_2.pdb
 55 59 0 0 0
SMALL
GASTEIGER

@<TRIPOS>ATOM
      1  O1         0.2930    2.4350    0.4640 O.2     1  UNL1       -0.2699
      2  C1         0.6770    1.2280    0.5430 C.2     1  UNL1        0.2495
      3  C2        -0.0840    0.2310   -0.1790 C.ar    1  UNL1        0.0723
      4  C3        -1.1390   -0.3950    0.4450 C.ar    1  UNL1       -0.0433
      5  C4        -1.8770   -1.3430   -0.2130 C.ar    1  UNL1       -0.0406
      6  C5        -3.0200   -2.0040    0.4550 C.3     1  UNL1        0.0171
      7  C6        -4.2670   -1.6090   -0.2210 C.ar    1  UNL1        0.0736
      8  N1        -4.7320   -2.4370   -1.1820 N.ar    1  UNL1       -0.1750
      9  N2        -5.8070   -2.1320   -1.8660 N.ar    1  UNL1       -0.2425
     10  C7        -6.4960   -1.0030   -1.6560 C.ar    1  UNL1        0.2725
     11  O2        -7.5270   -0.7150   -2.3170 O.2     1  UNL1       -0.2658
     12  C8        -6.0680   -0.1180   -0.6850 C.ar    1  UNL1        0.0496
     13  C9        -6.7960    1.0530   -0.4580 C.ar    1  UNL1       -0.0487
     14  C10       -6.3720    1.9240    0.5240 C.ar    1  UNL1       -0.0610
     15  C11       -5.2430    1.5930    1.2380 C.ar    1  UNL1       -0.0611
     16  C12       -4.5230    0.4250    1.0070 C.ar    1  UNL1       -0.0521
     17  C13       -4.9300   -0.4430    0.0380 C.ar    1  UNL1        0.0106
     18  C14       -1.5630   -1.6860   -1.5360 C.ar    1  UNL1       -0.0555
     19  C15       -0.5210   -1.0720   -2.1650 C.ar    1  UNL1       -0.0254
     20  C16        0.2140   -0.1090   -1.4680 C.ar    1  UNL1        0.1355
     21  F1         1.2570    0.5000   -2.1090 F       1  UNL1       -0.2047
     22  N3         1.8040    0.8480    1.3030 N.am    1  UNL1       -0.2945
     23  C17        2.5860    1.8070    2.0330 C.3     1  UNL1        0.0308
     24  C18        3.9820    1.2850    2.1910 C.3     1  UNL1        0.0305
     25  N4         4.3450    0.4830    1.0350 N.am    1  UNL1       -0.2983
     26  C19        5.5240    0.7890    0.3160 C.2     1  UNL1        0.2187
     27  O3         6.2460    1.7710    0.7010 O.2     1  UNL1       -0.2753
     28  C20        5.8930   -0.0280   -0.8560 C.3     1  UNL1        0.0358
     29  C21        6.3340    0.7860   -2.0790 C.3     1  UNL1       -0.0412
     30  C22        7.2970   -0.0570   -1.3420 C.3     1  UNL1       -0.0412
     31  C23        3.5240   -0.6280    0.5990 C.3     1  UNL1        0.0305
     32  C24        2.1900   -0.5330    1.3570 C.3     1  UNL1        0.0308
     33 H          -1.3764   -0.1477    1.4184 H       1  UNL1        0.0629
     34 H          -3.0580   -1.7034    1.4812 H       1  UNL1        0.0377
     35 H          -2.9027   -3.0663    0.4032 H       1  UNL1        0.0377
     36 H          -6.1199   -2.7560   -2.5602 H       1  UNL1        0.1921
     37 H          -7.6380    1.2630   -1.0165 H       1  UNL1        0.0625
     38 H          -6.8860    2.7977    0.7175 H       1  UNL1        0.0618
     39 H          -4.9170    2.2376    1.9751 H       1  UNL1        0.0618
     40 H          -3.6825    0.2163    1.5682 H       1  UNL1        0.0624
     41 H          -2.1187   -2.4006   -2.0316 H       1  UNL1        0.0621
     42 H          -0.2792   -1.3140   -3.1386 H       1  UNL1        0.0646
     43 H           2.1509    1.9637    2.9979 H       1  UNL1        0.0480
     44 H           2.6068    2.7348    1.5004 H       1  UNL1        0.0480
     45 H           4.0372    0.6814    3.0728 H       1  UNL1        0.0480
     46 H           4.6587    2.1097    2.2736 H       1  UNL1        0.0480
     47 H           5.1857   -0.7948   -0.6183 H       1  UNL1        0.0394
     48 H           6.3983    1.8524   -2.0200 H       1  UNL1        0.0273
     49 H           6.0142    0.8649   -3.0970 H       1  UNL1        0.0273
     50 H           7.6798   -0.9454   -1.7992 H       1  UNL1        0.0273
     51 H           8.2459    0.1268   -0.8830 H       1  UNL1        0.0273
     52 H           4.0096   -1.5540    0.8264 H       1  UNL1        0.0480
     53 H           3.3635   -0.5895   -0.4582 H       1  UNL1        0.0480
     54 H           1.4497   -1.1450    0.8855 H       1  UNL1        0.0480
     55 H           2.2867   -0.8745    2.3664 H       1  UNL1        0.0480
@<TRIPOS>BOND
     1     1     2    2
     2     2     3    1
     3     2    22   am
     4     3     4   ar
     5     3    20   ar
     6     4     5   ar
     7     5     6    1
     8     5    18   ar
     9     6     7    1
    10     7     8   ar
    11     7    17   ar
    12     8     9   ar
    13     9    10   ar
    14    10    11    2
    15    10    12   ar
    16    12    13   ar
    17    12    17   ar
    18    13    14   ar
    19    14    15   ar
    20    15    16   ar
    21    16    17   ar
    22    18    19   ar
    23    19    20   ar
    24    20    21    1
    25    22    23    1
    26    22    32    1
    27    23    24    1
    28    24    25    1
    29    25    26   am
    30    25    31    1
    31    26    27    2
    32    26    28    1
    33    28    29    1
    34    28    30    1
    35    29    30    1
    36    31    32    1
    37     4    33    1
    38     6    34    1
    39     6    35    1
    40     9    36    1
    41    13    37    1
    42    14    38    1
    43    15    39    1
    44    16    40    1
    45    18    41    1
    46    19    42    1
    47    23    43    1
    48    23    44    1
    49    24    45    1
    50    24    46    1
    51    28    47    1
    52    29    48    1
    53    29    49    1
    54    30    50    1
    55    30    51    1
    56    31    52    1
    57    31    53    1
    58    32    54    1
    59    32    55    1
@<TRIPOS>MOLECULE
../data/bude_mols_rdkit_confs/molecule_2.pdb
 55 59 0 0 0
SMALL
GASTEIGER

@<TRIPOS>ATOM
      1  O1         0.7800   -1.8950    1.5230 O.2     1  UNL1       -0.2699
      2  C1         0.8990   -0.7730    0.9450 C.2     1  UNL1        0.2495
      3  C2        -0.0230   -0.4330   -0.1190 C.ar    1  UNL1        0.0723
      4  C3        -1.1840    0.2160    0.2310 C.ar    1  UNL1       -0.0433
      5  C4        -2.1530    0.6040   -0.7070 C.ar    1  UNL1       -0.0406
      6  C5        -3.3740    1.3200   -0.2710 C.3     1  UNL1        0.0171
      7  C6        -4.3950    0.4420    0.3280 C.ar    1  UNL1        0.0736
      8  N1        -4.4090    0.3250    1.6870 N.ar    1  UNL1       -0.1750
      9  N2        -5.2060   -0.4320    2.3750 N.ar    1  UNL1       -0.2425
     10  C7        -6.1180   -1.1890    1.7450 C.ar    1  UNL1        0.2725
     11  O2        -6.8850   -1.9210    2.4300 O.2     1  UNL1       -0.2658
     12  C8        -6.1860   -1.1410    0.3700 C.ar    1  UNL1        0.0496
     13  C9        -7.1110   -1.8920   -0.3160 C.ar    1  UNL1       -0.0487
     14  C10       -7.1850   -1.8330   -1.6950 C.ar    1  UNL1       -0.0610
     15  C11       -6.2980   -0.9950   -2.3760 C.ar    1  UNL1       -0.0611
     16  C12       -5.3660   -0.2380   -1.7060 C.ar    1  UNL1       -0.0521
     17  C13       -5.3100   -0.3130   -0.3420 C.ar    1  UNL1        0.0106
     18  C14       -1.8560    0.2880   -2.0040 C.ar    1  UNL1       -0.0555
     19  C15       -0.6810   -0.3730   -2.3830 C.ar    1  UNL1       -0.0254
     20  C16        0.2400   -0.7340   -1.4260 C.ar    1  UNL1        0.1355
     21  F1         1.3950   -1.3770   -1.7450 F       1  UNL1       -0.2047
     22  N3         1.9020    0.1510    1.3100 N.am    1  UNL1       -0.2945
     23  C17        1.9820    1.4170    0.6060 C.3     1  UNL1        0.0308
     24  C18        3.4230    1.8710    0.4940 C.3     1  UNL1        0.0305
     25  N4         4.3730    0.7950    0.7020 N.am    1  UNL1       -0.2983
     26  C19        5.5100    0.7180   -0.1390 C.2     1  UNL1        0.2187
     27  O3         5.6410    1.5940   -1.0430 O.2     1  UNL1       -0.2753
     28  C20        6.4970   -0.3610    0.0550 C.3     1  UNL1        0.0358
     29  C21        7.9310   -0.1230   -0.2670 C.3     1  UNL1       -0.0412
     30  C22        7.0770   -0.9870   -1.1680 C.3     1  UNL1       -0.0412
     31  C23        4.2280   -0.2150    1.7310 C.3     1  UNL1        0.0305
     32  C24        2.8820   -0.1010    2.3770 C.3     1  UNL1        0.0308
     33 H          -1.3499    0.4270    1.2275 H       1  UNL1        0.0629
     34 H          -3.8033    1.8048   -1.1228 H       1  UNL1        0.0377
     35 H          -3.0753    2.0137    0.4869 H       1  UNL1        0.0377
     36 H          -5.1423   -0.4514    3.3572 H       1  UNL1        0.1921
     37 H          -7.7569   -2.5063    0.2041 H       1  UNL1        0.0625
     38 H          -7.8800   -2.3955   -2.2103 H       1  UNL1        0.0618
     39 H          -6.3435   -0.9431   -3.4057 H       1  UNL1        0.0618
     40 H          -4.7192    0.3768   -2.2243 H       1  UNL1        0.0624
     41 H          -2.5309    0.5495   -2.7396 H       1  UNL1        0.0621
     42 H          -0.5062   -0.5888   -3.3769 H       1  UNL1        0.0646
     43 H           1.4211    2.1540    1.1418 H       1  UNL1        0.0480
     44 H           1.5808    1.2920   -0.3780 H       1  UNL1        0.0480
     45 H           3.5999    2.6290    1.2282 H       1  UNL1        0.0480
     46 H           3.5670    2.2378   -0.5008 H       1  UNL1        0.0480
     47 H           5.9869   -0.7132    0.9272 H       1  UNL1        0.0394
     48 H           8.6964   -0.5678    0.3340 H       1  UNL1        0.0273
     49 H           8.5444    0.7428   -0.4046 H       1  UNL1        0.0273
     50 H           6.7929   -0.6344   -2.1375 H       1  UNL1        0.0273
     51 H           7.1448   -1.9832   -1.5526 H       1  UNL1        0.0273
     52 H           4.9886   -0.0781    2.4711 H       1  UNL1        0.0480
     53 H           4.3227   -1.1839    1.2869 H       1  UNL1        0.0480
     54 H           2.6424   -1.0111    2.8861 H       1  UNL1        0.0480
     55 H           2.8730    0.6936    3.0936 H       1  UNL1        0.0480
@<TRIPOS>BOND
     1     1     2    2
     2     2     3    1
     3     2    22   am
     4     3     4   ar
     5     3    20   ar
     6     4     5   ar
     7     5     6    1
     8     5    18   ar
     9     6     7    1
    10     7     8   ar
    11     7    17   ar
    12     8     9   ar
    13     9    10   ar
    14    10    11    2
    15    10    12   ar
    16    12    13   ar
    17    12    17   ar
    18    13    14   ar
    19    14    15   ar
    20    15    16   ar
    21    16    17   ar
    22    18    19   ar
    23    19    20   ar
    24    20    21    1
    25    22    23    1
    26    22    32    1
    27    23    24    1
    28    24    25    1
    29    25    26   am
    30    25    31    1
    31    26    27    2
    32    26    28    1
    33    28    29    1
    34    28    30    1
    35    29    30    1
    36    31    32    1
    37     4    33    1
    38     6    34    1
    39     6    35    1
    40     9    36    1
    41    13    37    1
    42    14    38    1
    43    15    39    1
    44    16    40    1
    45    18    41    1
    46    19    42    1
    47    23    43    1
    48    23    44    1
    49    24    45    1
    50    24    46    1
    51    28    47    1
    52    29    48    1
    53    29    49    1
    54    30    50    1
    55    30    51    1
    56    31    52    1
    57    31    53    1
    58    32    54    1
    59    32    55    1
@<TRIPOS>MOLECULE
../data/bude_mols_rdkit_confs/molecule_2.pdb
 55 59 0 0 0
SMALL
GASTEIGER

@<TRIPOS>ATOM
      1  O1        -1.3660   -2.9630    2.4920 O.2     1  UNL1       -0.2699
      2  C1        -1.0760   -1.9720    1.7720 C.2     1  UNL1        0.2495
      3  C2         0.0780   -2.1190    0.8910 C.ar    1  UNL1        0.0723
      4  C3         1.3300   -1.7510    1.3000 C.ar    1  UNL1       -0.0433
      5  C4         2.4440   -1.9010    0.4430 C.ar    1  UNL1       -0.0406
      6  C5         3.7850   -1.4950    0.9470 C.3     1  UNL1        0.0171
      7  C6         4.0880   -0.0650    0.7810 C.ar    1  UNL1        0.0736
      8  N1         3.7460    0.7510    1.8020 N.ar    1  UNL1       -0.1750
      9  N2         3.8890    2.0400    1.7830 N.ar    1  UNL1       -0.2425
     10  C7         4.4070    2.6340    0.6960 C.ar    1  UNL1        0.2725
     11  O2         4.5460    3.8990    0.6780 O.2     1  UNL1       -0.2658
     12  C8         4.7800    1.8750   -0.3800 C.ar    1  UNL1        0.0496
     13  C9         5.3280    2.4660   -1.4830 C.ar    1  UNL1       -0.0487
     14  C10        5.7130    1.6750   -2.5380 C.ar    1  UNL1       -0.0610
     15  C11        5.5540    0.2930   -2.4980 C.ar    1  UNL1       -0.0611
     16  C12        5.0040   -0.3000   -1.3910 C.ar    1  UNL1       -0.0521
     17  C13        4.6180    0.4900   -0.3360 C.ar    1  UNL1        0.0106
     18  C14        2.2130   -2.4220   -0.7950 C.ar    1  UNL1       -0.0555
     19  C15        0.9370   -2.7960   -1.2130 C.ar    1  UNL1       -0.0254
     20  C16       -0.1370   -2.6440   -0.3660 C.ar    1  UNL1        0.1355
     21  F1        -1.3960   -2.9910   -0.7230 F       1  UNL1       -0.2047
     22  N3        -1.8520   -0.8010    1.8430 N.am    1  UNL1       -0.2945
     23  C17       -1.5240    0.3400    1.0350 C.3     1  UNL1        0.0308
     24  C18       -2.6390    0.5920    0.0780 C.3     1  UNL1        0.0305
     25  N4        -3.8910    0.4950    0.7960 N.am    1  UNL1       -0.2983
     26  C19       -5.0930    0.6040    0.0420 C.2     1  UNL1        0.2187
     27  O3        -6.2380    0.5290    0.6040 O.2     1  UNL1       -0.2753
     28  C20       -5.1340    0.8090   -1.4280 C.3     1  UNL1        0.0358
     29  C21       -6.3380    0.3070   -2.1780 C.3     1  UNL1       -0.0412
     30  C22       -6.2000    1.7900   -1.9110 C.3     1  UNL1       -0.0412
     31  C23       -4.0060    0.2960    2.2250 C.3     1  UNL1        0.0305
     32  C24       -2.9860   -0.7320    2.7220 C.3     1  UNL1        0.0308
     33 H           1.4630   -1.3592    2.2454 H       1  UNL1        0.0629
     34 H           4.5258   -2.0578    0.4185 H       1  UNL1        0.0377
     35 H           3.7875   -1.6880    1.9994 H       1  UNL1        0.0377
     36 H           3.6193    2.5796    2.5610 H       1  UNL1        0.1921
     37 H           5.4507    3.4899   -1.5230 H       1  UNL1        0.0625
     38 H           6.1276    2.1134   -3.3752 H       1  UNL1        0.0618
     39 H           5.8497   -0.2846   -3.3005 H       1  UNL1        0.0618
     40 H           4.8820   -1.3240   -1.3511 H       1  UNL1        0.0624
     41 H           3.0072   -2.5433   -1.4428 H       1  UNL1        0.0621
     42 H           0.7976   -3.1870   -2.1578 H       1  UNL1        0.0646
     43 H          -0.6218    0.1484    0.4926 H       1  UNL1        0.0480
     44 H          -1.3822    1.1972    1.6595 H       1  UNL1        0.0480
     45 H          -2.6145   -0.1370   -0.7048 H       1  UNL1        0.0480
     46 H          -2.5385    1.5659   -0.3537 H       1  UNL1        0.0480
     47 H          -4.0785    0.6865   -1.5538 H       1  UNL1        0.0394
     48 H          -7.0872   -0.2593   -1.6652 H       1  UNL1        0.0273
     49 H          -6.4832   -0.2889   -3.0547 H       1  UNL1        0.0273
     50 H          -5.9857    2.4626   -2.7151 H       1  UNL1        0.0273
     51 H          -6.8086    2.5395   -1.4497 H       1  UNL1        0.0273
     52 H          -4.9921   -0.0525    2.4511 H       1  UNL1        0.0480
     53 H          -3.8153    1.2282    2.7145 H       1  UNL1        0.0480
     54 H          -2.6540   -0.4507    3.6995 H       1  UNL1        0.0480
     55 H          -3.4560   -1.6929    2.7469 H       1  UNL1        0.0480
@<TRIPOS>BOND
     1     1     2    2
     2     2     3    1
     3     2    22   am
     4     3     4   ar
     5     3    20   ar
     6     4     5   ar
     7     5     6    1
     8     5    18   ar
     9     6     7    1
    10     7     8   ar
    11     7    17   ar
    12     8     9   ar
    13     9    10   ar
    14    10    11    2
    15    10    12   ar
    16    12    13   ar
    17    12    17   ar
    18    13    14   ar
    19    14    15   ar
    20    15    16   ar
    21    16    17   ar
    22    18    19   ar
    23    19    20   ar
    24    20    21    1
    25    22    23    1
    26    22    32    1
    27    23    24    1
    28    24    25    1
    29    25    26   am
    30    25    31    1
    31    26    27    2
    32    26    28    1
    33    28    29    1
    34    28    30    1
    35    29    30    1
    36    31    32    1
    37     4    33    1
    38     6    34    1
    39     6    35    1
    40     9    36    1
    41    13    37    1
    42    14    38    1
    43    15    39    1
    44    16    40    1
    45    18    41    1
    46    19    42    1
    47    23    43    1
    48    23    44    1
    49    24    45    1
    50    24    46    1
    51    28    47    1
    52    29    48    1
    53    29    49    1
    54    30    50    1
    55    30    51    1
    56    31    52    1
    57    31    53    1
    58    32    54    1
    59    32    55    1
@<TRIPOS>MOLECULE
../data/bude_mols_rdkit_confs/molecule_2.pdb
 55 59 0 0 0
SMALL
GASTEIGER

@<TRIPOS>ATOM
      1  O1         0.0960   -1.1840   -2.6020 O.2     1  UNL1       -0.2699
      2  C1         0.4800   -1.0780   -1.4100 C.2     1  UNL1        0.2495
      3  C2        -0.4680   -1.3370   -0.3410 C.ar    1  UNL1        0.0723
      4  C3        -1.1920   -0.2830    0.1650 C.ar    1  UNL1       -0.0433
      5  C4        -2.1190   -0.4340    1.2050 C.ar    1  UNL1       -0.0406
      6  C5        -2.8590    0.7080    1.7570 C.3     1  UNL1        0.0171
      7  C6        -3.9300    1.1860    0.8690 C.ar    1  UNL1        0.0736
      8  N1        -3.5980    2.2220    0.0480 N.ar    1  UNL1       -0.1750
      9  N2        -4.4010    2.7560   -0.8420 N.ar    1  UNL1       -0.2425
     10  C7        -5.6480    2.2880   -0.9960 C.ar    1  UNL1        0.2725
     11  O2        -6.4330    2.7850   -1.8420 O.2     1  UNL1       -0.2658
     12  C8        -6.0450    1.2390   -0.1930 C.ar    1  UNL1        0.0496
     13  C9        -7.3200    0.7040   -0.2830 C.ar    1  UNL1       -0.0487
     14  C10       -7.6940   -0.3460    0.5490 C.ar    1  UNL1       -0.0610
     15  C11       -6.8320   -0.8790    1.4690 C.ar    1  UNL1       -0.0611
     16  C12       -5.5680   -0.3520    1.5610 C.ar    1  UNL1       -0.0521
     17  C13       -5.1840    0.6830    0.7460 C.ar    1  UNL1        0.0106
     18  C14       -2.2630   -1.6970    1.6900 C.ar    1  UNL1       -0.0555
     19  C15       -1.5360   -2.7800    1.1860 C.ar    1  UNL1       -0.0254
     20  C16       -0.6480   -2.5930    0.1790 C.ar    1  UNL1        0.1355
     21  F1         0.0960   -3.5920   -0.3640 F       1  UNL1       -0.2047
     22  N3         1.8080   -0.7140   -1.0870 N.am    1  UNL1       -0.2945
     23  C17        2.8010   -0.4450   -2.0950 C.3     1  UNL1        0.0308
     24  C18        4.1740   -0.6170   -1.5090 C.3     1  UNL1        0.0305
     25  N4         4.3390    0.2380   -0.3690 N.am    1  UNL1       -0.2983
     26  C19        5.5670    0.7330    0.0330 C.2     1  UNL1        0.2187
     27  O3         5.6530    1.4880    1.0470 O.2     1  UNL1       -0.2753
     28  C20        6.8240    0.4320   -0.6650 C.3     1  UNL1        0.0358
     29  C21        8.0990    0.3100    0.0940 C.3     1  UNL1       -0.0412
     30  C22        7.8770    1.4870   -0.7620 C.3     1  UNL1       -0.0412
     31  C23        3.1370    0.5790    0.3870 C.3     1  UNL1        0.0305
     32  C24        2.1830   -0.6000    0.3070 C.3     1  UNL1        0.0308
     33 H          -1.0469    0.6563   -0.2371 H       1  UNL1        0.0629
     34 H          -2.1714    1.5107    1.9238 H       1  UNL1        0.0377
     35 H          -3.3203    0.3801    2.6650 H       1  UNL1        0.0377
     36 H          -4.0862    3.5040   -1.3994 H       1  UNL1        0.1921
     37 H          -7.9921    1.0846   -0.9674 H       1  UNL1        0.0625
     38 H          -8.6472   -0.7337    0.4705 H       1  UNL1        0.0618
     39 H          -7.1254   -1.6582    2.0787 H       1  UNL1        0.0618
     40 H          -4.9014   -0.7371    2.2483 H       1  UNL1        0.0624
     41 H          -2.9329   -1.8617    2.4575 H       1  UNL1        0.0621
     42 H          -1.6757   -3.7230    1.5813 H       1  UNL1        0.0646
     43 H           2.6876    0.5588   -2.4476 H       1  UNL1        0.0480
     44 H           2.6743   -1.1273   -2.9094 H       1  UNL1        0.0480
     45 H           4.9069   -0.3665   -2.2473 H       1  UNL1        0.0480
     46 H           4.2965   -1.6346   -1.2017 H       1  UNL1        0.0480
     47 H           6.2943   -0.1905   -1.3556 H       1  UNL1        0.0394
     48 H           8.8203   -0.4276   -0.1899 H       1  UNL1        0.0273
     49 H           8.3518    0.1642    1.1234 H       1  UNL1        0.0273
     50 H           7.7139    2.4470   -0.3186 H       1  UNL1        0.0273
     51 H           8.4123    1.9480   -1.5656 H       1  UNL1        0.0273
     52 H           2.6768    1.4479   -0.0350 H       1  UNL1        0.0480
     53 H           3.3855    0.7880    1.4065 H       1  UNL1        0.0480
     54 H           2.6689   -1.4948    0.6360 H       1  UNL1        0.0480
     55 H           1.3274   -0.4559    0.9332 H       1  UNL1        0.0480
@<TRIPOS>BOND
     1     1     2    2
     2     2     3    1
     3     2    22   am
     4     3     4   ar
     5     3    20   ar
     6     4     5   ar
     7     5     6    1
     8     5    18   ar
     9     6     7    1
    10     7     8   ar
    11     7    17   ar
    12     8     9   ar
    13     9    10   ar
    14    10    11    2
    15    10    12   ar
    16    12    13   ar
    17    12    17   ar
    18    13    14   ar
    19    14    15   ar
    20    15    16   ar
    21    16    17   ar
    22    18    19   ar
    23    19    20   ar
    24    20    21    1
    25    22    23    1
    26    22    32    1
    27    23    24    1
    28    24    25    1
    29    25    26   am
    30    25    31    1
    31    26    27    2
    32    26    28    1
    33    28    29    1
    34    28    30    1
    35    29    30    1
    36    31    32    1
    37     4    33    1
    38     6    34    1
    39     6    35    1
    40     9    36    1
    41    13    37    1
    42    14    38    1
    43    15    39    1
    44    16    40    1
    45    18    41    1
    46    19    42    1
    47    23    43    1
    48    23    44    1
    49    24    45    1
    50    24    46    1
    51    28    47    1
    52    29    48    1
    53    29    49    1
    54    30    50    1
    55    30    51    1
    56    31    52    1
    57    31    53    1
    58    32    54    1
    59    32    55    1
@<TRIPOS>MOLECULE
../data/bude_mols_rdkit_confs/molecule_2.pdb
 55 59 0 0 0
SMALL
GASTEIGER

@<TRIPOS>ATOM
      1  O1         0.8570    2.2480   -3.6450 O.2     1  UNL1       -0.2699
      2  C1         0.7810    1.3860   -2.7150 C.2     1  UNL1        0.2495
      3  C2        -0.2920    0.3890   -2.7610 C.ar    1  UNL1        0.0723
      4  C3        -1.5180    0.6130   -2.1780 C.ar    1  UNL1       -0.0433
      5  C4        -2.5390   -0.3340   -2.2220 C.ar    1  UNL1       -0.0406
      6  C5        -3.8440   -0.0610   -1.6190 C.3     1  UNL1        0.0171
      7  C6        -3.8830   -0.0220   -0.1560 C.ar    1  UNL1        0.0736
      8  N1        -3.7830    1.2040    0.4420 N.ar    1  UNL1       -0.1750
      9  N2        -3.7570    1.4130    1.7210 N.ar    1  UNL1       -0.2425
     10  C7        -3.8330    0.3570    2.5470 C.ar    1  UNL1        0.2725
     11  O2        -3.8120    0.4920    3.8140 O.2     1  UNL1       -0.2658
     12  C8        -3.9380   -0.9210    2.0170 C.ar    1  UNL1        0.0496
     13  C9        -4.0300   -2.0290    2.8400 C.ar    1  UNL1       -0.0487
     14  C10       -4.1450   -3.2940    2.3110 C.ar    1  UNL1       -0.0610
     15  C11       -4.1710   -3.4750    0.9460 C.ar    1  UNL1       -0.0611
     16  C12       -4.0820   -2.3950    0.0820 C.ar    1  UNL1       -0.0521
     17  C13       -3.9660   -1.1350    0.6410 C.ar    1  UNL1        0.0106
     18  C14       -2.2560   -1.4990   -2.8770 C.ar    1  UNL1       -0.0555
     19  C15       -1.0170   -1.7400   -3.4730 C.ar    1  UNL1       -0.0254
     20  C16       -0.0180   -0.7970   -3.4210 C.ar    1  UNL1        0.1355
     21  F1         1.1950   -1.0120   -3.9940 F       1  UNL1       -0.2047
     22  N3         1.7150    1.3830   -1.6500 N.am    1  UNL1       -0.2945
     23  C17        2.7700    2.3770   -1.6250 C.3     1  UNL1        0.0308
     24  C18        4.1090    1.7710   -1.2040 C.3     1  UNL1        0.0305
     25  N4         3.8070    0.9390   -0.0370 N.am    1  UNL1       -0.2983
     26  C19        4.3370    1.2920    1.2000 C.2     1  UNL1        0.2187
     27  O3         5.0800    2.3360    1.2670 O.2     1  UNL1       -0.2753
     28  C20        4.0790    0.5170    2.4240 C.3     1  UNL1        0.0358
     29  C21        4.3290    1.1400    3.7540 C.3     1  UNL1       -0.0412
     30  C22        5.3560    0.2200    3.2140 C.3     1  UNL1       -0.0412
     31  C23        2.9750   -0.1930   -0.2670 C.3     1  UNL1        0.0305
     32  C24        1.5810    0.3740   -0.6140 C.3     1  UNL1        0.0308
     33 H          -1.6862    1.5088   -1.6939 H       1  UNL1        0.0629
     34 H          -4.5200   -0.8242   -1.9436 H       1  UNL1        0.0377
     35 H          -4.1076    0.9252   -1.9395 H       1  UNL1        0.0377
     36 H          -3.6831    2.3270    2.0794 H       1  UNL1        0.1921
     37 H          -4.0121   -1.9052    3.8644 H       1  UNL1        0.0625
     38 H          -4.2120   -4.1100    2.9393 H       1  UNL1        0.0618
     39 H          -4.2580   -4.4285    0.5610 H       1  UNL1        0.0618
     40 H          -4.1016   -2.5261   -0.9415 H       1  UNL1        0.0624
     41 H          -2.9848   -2.2275   -2.9332 H       1  UNL1        0.0621
     42 H          -0.8491   -2.6355   -3.9578 H       1  UNL1        0.0646
     43 H           2.5045    3.1469   -0.9310 H       1  UNL1        0.0480
     44 H           2.8791    2.7721   -2.6134 H       1  UNL1        0.0480
     45 H           4.8043    2.5419   -0.9448 H       1  UNL1        0.0480
     46 H           4.5558    1.2036   -1.9935 H       1  UNL1        0.0480
     47 H           3.2452   -0.0147    2.0154 H       1  UNL1        0.0394
     48 H           3.7417    0.8417    4.5972 H       1  UNL1        0.0273
     49 H           4.3467    2.1479    4.1128 H       1  UNL1        0.0273
     50 H           6.2967    0.6032    2.8778 H       1  UNL1        0.0273
     51 H           5.8450   -0.6646    3.5650 H       1  UNL1        0.0273
     52 H           2.9218   -0.8012    0.6117 H       1  UNL1        0.0480
     53 H           3.3568   -0.8094   -1.0539 H       1  UNL1        0.0480
     54 H           0.9513   -0.4166   -0.9650 H       1  UNL1        0.0480
     55 H           1.1465    0.8138    0.2593 H       1  UNL1        0.0480
@<TRIPOS>BOND
     1     1     2    2
     2     2     3    1
     3     2    22   am
     4     3     4   ar
     5     3    20   ar
     6     4     5   ar
     7     5     6    1
     8     5    18   ar
     9     6     7    1
    10     7     8   ar
    11     7    17   ar
    12     8     9   ar
    13     9    10   ar
    14    10    11    2
    15    10    12   ar
    16    12    13   ar
    17    12    17   ar
    18    13    14   ar
    19    14    15   ar
    20    15    16   ar
    21    16    17   ar
    22    18    19   ar
    23    19    20   ar
    24    20    21    1
    25    22    23    1
    26    22    32    1
    27    23    24    1
    28    24    25    1
    29    25    26   am
    30    25    31    1
    31    26    27    2
    32    26    28    1
    33    28    29    1
    34    28    30    1
    35    29    30    1
    36    31    32    1
    37     4    33    1
    38     6    34    1
    39     6    35    1
    40     9    36    1
    41    13    37    1
    42    14    38    1
    43    15    39    1
    44    16    40    1
    45    18    41    1
    46    19    42    1
    47    23    43    1
    48    23    44    1
    49    24    45    1
    50    24    46    1
    51    28    47    1
    52    29    48    1
    53    29    49    1
    54    30    50    1
    55    30    51    1
    56    31    52    1
    57    31    53    1
    58    32    54    1
    59    32    55    1
@<TRIPOS>MOLECULE
../data/bude_mols_rdkit_confs/molecule_2.pdb
 55 59 0 0 0
SMALL
GASTEIGER

@<TRIPOS>ATOM
      1  O1         0.0470   -2.6960    0.0750 O.2     1  UNL1       -0.2699
      2  C1         0.5320   -1.5350   -0.1640 C.2     1  UNL1        0.2495
      3  C2        -0.3630   -0.6070   -0.8030 C.ar    1  UNL1        0.0723
      4  C3        -1.1820    0.2290   -0.0700 C.ar    1  UNL1       -0.0433
      5  C4        -2.0400    1.1180   -0.6570 C.ar    1  UNL1       -0.0406
      6  C5        -2.9490    2.0220    0.0540 C.3     1  UNL1        0.0171
      7  C6        -4.3520    1.6250   -0.0930 C.ar    1  UNL1        0.0736
      8  N1        -5.0760    2.2600   -1.0710 N.ar    1  UNL1       -0.1750
      9  N2        -6.3310    1.9540   -1.3170 N.ar    1  UNL1       -0.2425
     10  C7        -6.9840    0.9960   -0.6220 C.ar    1  UNL1        0.2725
     11  O2        -8.1860    0.7490   -0.9050 O.2     1  UNL1       -0.2658
     12  C8        -6.2960    0.3340    0.3700 C.ar    1  UNL1        0.0496
     13  C9        -6.9160   -0.6390    1.1120 C.ar    1  UNL1       -0.0487
     14  C10       -6.2430   -1.3090    2.1230 C.ar    1  UNL1       -0.0610
     15  C11       -4.9290   -0.9880    2.3830 C.ar    1  UNL1       -0.0611
     16  C12       -4.3070   -0.0100    1.6360 C.ar    1  UNL1       -0.0521
     17  C13       -4.9630    0.6530    0.6380 C.ar    1  UNL1        0.0106
     18  C14       -2.0590    1.1520   -2.0570 C.ar    1  UNL1       -0.0555
     19  C15       -1.2650    0.3430   -2.8280 C.ar    1  UNL1       -0.0254
     20  C16       -0.4190   -0.5360   -2.1700 C.ar    1  UNL1        0.1355
     21  F1         0.3620   -1.3320   -2.9560 F       1  UNL1       -0.2047
     22  N3         1.8600   -1.2420    0.1970 N.am    1  UNL1       -0.2945
     23  C17        2.6680   -2.2520    0.8350 C.3     1  UNL1        0.0308
     24  C18        3.6240   -1.4800    1.7460 C.3     1  UNL1        0.0305
     25  N4         4.5470   -0.7790    0.8230 N.am    1  UNL1       -0.2983
     26  C19        5.9290   -0.9310    0.9500 C.2     1  UNL1        0.2187
     27  O3         6.2800   -1.7590    1.8940 O.2     1  UNL1       -0.2753
     28  C20        7.0330   -0.3360    0.2230 C.3     1  UNL1        0.0358
     29  C21        6.9710    0.5540   -0.9350 C.3     1  UNL1       -0.0412
     30  C22        7.0980    1.2030    0.3870 C.3     1  UNL1       -0.0412
     31  C23        3.9290    0.0080   -0.1840 C.3     1  UNL1        0.0305
     32  C24        2.4110    0.0450   -0.0620 C.3     1  UNL1        0.0308
     33 H          -1.1453    0.1812    0.9602 H       1  UNL1        0.0629
     34 H          -2.8278    3.0104   -0.3374 H       1  UNL1        0.0377
     35 H          -2.7039    1.9824    1.0948 H       1  UNL1        0.0377
     36 H          -6.8095    2.4372   -2.0289 H       1  UNL1        0.1921
     37 H          -7.9006   -0.8767    0.9145 H       1  UNL1        0.0625
     38 H          -6.7210   -2.0392    2.6738 H       1  UNL1        0.0618
     39 H          -4.4134   -1.4762    3.1319 H       1  UNL1        0.0618
     40 H          -3.3225    0.2267    1.8357 H       1  UNL1        0.0624
     41 H          -2.6968    1.8131   -2.5274 H       1  UNL1        0.0621
     42 H          -1.2960    0.3867   -3.8586 H       1  UNL1        0.0646
     43 H           3.2145   -2.8122    0.1054 H       1  UNL1        0.0480
     44 H           2.0741   -2.9552    1.3806 H       1  UNL1        0.0480
     45 H           4.1640   -2.1514    2.3805 H       1  UNL1        0.0480
     46 H           3.1061   -0.8009    2.3906 H       1  UNL1        0.0480
     47 H           7.6045   -1.2299    0.3616 H       1  UNL1        0.0394
     48 H           6.0540    0.6451   -1.4787 H       1  UNL1        0.0273
     49 H           7.5327    0.6193   -1.8433 H       1  UNL1        0.0273
     50 H           8.0135    1.6788    0.6705 H       1  UNL1        0.0273
     51 H           6.5536    1.9420    0.9370 H       1  UNL1        0.0273
     52 H           4.1845   -0.3993   -1.1399 H       1  UNL1        0.0480
     53 H           4.2840    1.0109   -0.0695 H       1  UNL1        0.0480
     54 H           2.1458    0.7011    0.7406 H       1  UNL1        0.0480
     55 H           2.0152    0.3898   -0.9944 H       1  UNL1        0.0480
@<TRIPOS>BOND
     1     1     2    2
     2     2     3    1
     3     2    22   am
     4     3     4   ar
     5     3    20   ar
     6     4     5   ar
     7     5     6    1
     8     5    18   ar
     9     6     7    1
    10     7     8   ar
    11     7    17   ar
    12     8     9   ar
    13     9    10   ar
    14    10    11    2
    15    10    12   ar
    16    12    13   ar
    17    12    17   ar
    18    13    14   ar
    19    14    15   ar
    20    15    16   ar
    21    16    17   ar
    22    18    19   ar
    23    19    20   ar
    24    20    21    1
    25    22    23    1
    26    22    32    1
    27    23    24    1
    28    24    25    1
    29    25    26   am
    30    25    31    1
    31    26    27    2
    32    26    28    1
    33    28    29    1
    34    28    30    1
    35    29    30    1
    36    31    32    1
    37     4    33    1
    38     6    34    1
    39     6    35    1
    40     9    36    1
    41    13    37    1
    42    14    38    1
    43    15    39    1
    44    16    40    1
    45    18    41    1
    46    19    42    1
    47    23    43    1
    48    23    44    1
    49    24    45    1
    50    24    46    1
    51    28    47    1
    52    29    48    1
    53    29    49    1
    54    30    50    1
    55    30    51    1
    56    31    52    1
    57    31    53    1
    58    32    54    1
    59    32    55    1
@<TRIPOS>MOLECULE
../data/bude_mols_rdkit_confs/molecule_2.pdb
 55 59 0 0 0
SMALL
GASTEIGER

@<TRIPOS>ATOM
      1  O1         1.2090   -0.9340    2.6100 O.2     1  UNL1       -0.2699
      2  C1         1.1940   -0.9510    1.3750 C.2     1  UNL1        0.2495
      3  C2         0.1980   -0.1840    0.6050 C.ar    1  UNL1        0.0723
      4  C3        -1.0060   -0.7460    0.2670 C.ar    1  UNL1       -0.0433
      5  C4        -1.9780   -0.0490   -0.4850 C.ar    1  UNL1       -0.0406
      6  C5        -3.2560   -0.7330   -0.8130 C.3     1  UNL1        0.0171
      7  C6        -4.2780   -0.5670    0.2180 C.ar    1  UNL1        0.0736
      8  N1        -4.3050   -1.5100    1.2050 N.ar    1  UNL1       -0.1750
      9  N2        -5.1130   -1.4630    2.2410 N.ar    1  UNL1       -0.2425
     10  C7        -5.9910   -0.4700    2.4160 C.ar    1  UNL1        0.2725
     11  O2        -6.7690   -0.3980    3.3870 O.2     1  UNL1       -0.2658
     12  C8        -6.0190    0.5150    1.4560 C.ar    1  UNL1        0.0496
     13  C9        -6.8990    1.5660    1.5320 C.ar    1  UNL1       -0.0487
     14  C10       -6.9420    2.5420    0.5580 C.ar    1  UNL1       -0.0610
     15  C11       -6.0790    2.4720   -0.5330 C.ar    1  UNL1       -0.0611
     16  C12       -5.1850    1.4220   -0.6300 C.ar    1  UNL1       -0.0521
     17  C13       -5.1650    0.4760    0.3480 C.ar    1  UNL1        0.0106
     18  C14       -1.6420    1.2170   -0.8530 C.ar    1  UNL1       -0.0555
     19  C15       -0.4080    1.7980   -0.5080 C.ar    1  UNL1       -0.0254
     20  C16        0.5180    1.0970    0.2250 C.ar    1  UNL1        0.1355
     21  F1         1.7250    1.6620    0.5640 F       1  UNL1       -0.2047
     22  N3         2.1190   -1.6990    0.6010 N.am    1  UNL1       -0.2945
     23  C17        2.0750   -1.6870   -0.8630 C.3     1  UNL1        0.0308
     24  C18        3.2950   -0.9390   -1.3560 C.3     1  UNL1        0.0305
     25  N4         4.3820   -1.2270   -0.4120 N.am    1  UNL1       -0.2983
     26  C19        5.4400   -0.3320   -0.1950 C.2     1  UNL1        0.2187
     27  O3         6.3470   -0.6270    0.6190 O.2     1  UNL1       -0.2753
     28  C20        5.5510    0.9970   -0.9050 C.3     1  UNL1        0.0358
     29  C21        6.2370    2.1000   -0.1190 C.3     1  UNL1       -0.0412
     30  C22        6.9660    1.3970   -1.2230 C.3     1  UNL1       -0.0412
     31  C23        4.3520   -2.4760    0.3130 C.3     1  UNL1        0.0305
     32  C24        3.1420   -2.5040    1.2380 C.3     1  UNL1        0.0308
     33 H          -1.2091   -1.7107    0.5722 H       1  UNL1        0.0629
     34 H          -3.0612   -1.7782   -0.9338 H       1  UNL1        0.0377
     35 H          -3.6337   -0.2886   -1.7101 H       1  UNL1        0.0377
     36 H          -5.0701   -2.1834    2.9106 H       1  UNL1        0.1921
     37 H          -7.5430    1.6273    2.3361 H       1  UNL1        0.0625
     38 H          -7.6124    3.3226    0.6376 H       1  UNL1        0.0618
     39 H          -6.1068    3.1995   -1.2645 H       1  UNL1        0.0618
     40 H          -4.5411    1.3564   -1.4338 H       1  UNL1        0.0624
     41 H          -2.3160    1.7706   -1.4046 H       1  UNL1        0.0621
     42 H          -0.1962    2.7621   -0.8092 H       1  UNL1        0.0646
     43 H           1.1860   -1.1936   -1.1965 H       1  UNL1        0.0480
     44 H           2.0694   -2.6864   -1.2451 H       1  UNL1        0.0480
     45 H           3.0973    0.1123   -1.3799 H       1  UNL1        0.0480
     46 H           3.5573   -1.2450   -2.3472 H       1  UNL1        0.0480
     47 H           4.6314    0.9184   -1.4463 H       1  UNL1        0.0394
     48 H           6.5201    1.9351    0.8996 H       1  UNL1        0.0273
     49 H           6.0107    3.1205    0.1098 H       1  UNL1        0.0273
     50 H           7.1814    1.9152   -2.1340 H       1  UNL1        0.0273
     51 H           7.8970    0.8747   -1.2966 H       1  UNL1        0.0273
     52 H           5.2457   -2.5718    0.8935 H       1  UNL1        0.0480
     53 H           4.2858   -3.2873   -0.3815 H       1  UNL1        0.0480
     54 H           2.7964   -3.5087    1.3644 H       1  UNL1        0.0480
     55 H           3.3868   -2.1228    2.2074 H       1  UNL1        0.0480
@<TRIPOS>BOND
     1     1     2    2
     2     2     3    1
     3     2    22   am
     4     3     4   ar
     5     3    20   ar
     6     4     5   ar
     7     5     6    1
     8     5    18   ar
     9     6     7    1
    10     7     8   ar
    11     7    17   ar
    12     8     9   ar
    13     9    10   ar
    14    10    11    2
    15    10    12   ar
    16    12    13   ar
    17    12    17   ar
    18    13    14   ar
    19    14    15   ar
    20    15    16   ar
    21    16    17   ar
    22    18    19   ar
    23    19    20   ar
    24    20    21    1
    25    22    23    1
    26    22    32    1
    27    23    24    1
    28    24    25    1
    29    25    26   am
    30    25    31    1
    31    26    27    2
    32    26    28    1
    33    28    29    1
    34    28    30    1
    35    29    30    1
    36    31    32    1
    37     4    33    1
    38     6    34    1
    39     6    35    1
    40     9    36    1
    41    13    37    1
    42    14    38    1
    43    15    39    1
    44    16    40    1
    45    18    41    1
    46    19    42    1
    47    23    43    1
    48    23    44    1
    49    24    45    1
    50    24    46    1
    51    28    47    1
    52    29    48    1
    53    29    49    1
    54    30    50    1
    55    30    51    1
    56    31    52    1
    57    31    53    1
    58    32    54    1
    59    32    55    1
@<TRIPOS>MOLECULE
../data/bude_mols_rdkit_confs/molecule_2.pdb
 55 59 0 0 0
SMALL
GASTEIGER

@<TRIPOS>ATOM
      1  O1         1.5560   -3.2210   -2.2030 O.2     1  UNL1       -0.2699
      2  C1         1.1670   -2.1360   -1.7080 C.2     1  UNL1        0.2495
      3  C2        -0.1450   -1.6620   -2.1160 C.ar    1  UNL1        0.0723
      4  C3        -1.2730   -2.0130   -1.4180 C.ar    1  UNL1       -0.0433
      5  C4        -2.5510   -1.5670   -1.8000 C.ar    1  UNL1       -0.0406
      6  C5        -3.7410   -1.9960   -1.0140 C.3     1  UNL1        0.0171
      7  C6        -3.9410   -1.2600    0.2390 C.ar    1  UNL1        0.0736
      8  N1        -3.4280   -1.7820    1.3980 N.ar    1  UNL1       -0.1750
      9  N2        -3.4950   -1.2050    2.5600 N.ar    1  UNL1       -0.2425
     10  C7        -4.0910   -0.0090    2.7270 C.ar    1  UNL1        0.2725
     11  O2        -4.1280    0.5050    3.8640 O.2     1  UNL1       -0.2658
     12  C8        -4.6360    0.5860    1.6070 C.ar    1  UNL1        0.0496
     13  C9        -5.2830    1.8250    1.7300 C.ar    1  UNL1       -0.0487
     14  C10       -5.8550    2.4400    0.6280 C.ar    1  UNL1       -0.0610
     15  C11       -5.7550    1.7770   -0.5780 C.ar    1  UNL1       -0.0611
     16  C12       -5.1170    0.5570   -0.6980 C.ar    1  UNL1       -0.0521
     17  C13       -4.5560   -0.0430    0.3830 C.ar    1  UNL1        0.0106
     18  C14       -2.6080   -0.7650   -2.9030 C.ar    1  UNL1       -0.0555
     19  C15       -1.4630   -0.4020   -3.6190 C.ar    1  UNL1       -0.0254
     20  C16       -0.2230   -0.8420   -3.2390 C.ar    1  UNL1        0.1355
     21  F1         0.9090   -0.5130   -3.9050 F       1  UNL1       -0.2047
     22  N3         2.0220   -1.4620   -0.7970 N.am    1  UNL1       -0.2945
     23  C17        1.6460   -0.2120   -0.1890 C.3     1  UNL1        0.0308
     24  C18        2.7730    0.6160    0.3030 C.3     1  UNL1        0.0305
     25  N4         4.0900    0.1530    0.0320 N.am    1  UNL1       -0.2983
     26  C19        5.2050    0.8130    0.6080 C.2     1  UNL1        0.2187
     27  O3         6.3870    0.4330    0.3920 O.2     1  UNL1       -0.2753
     28  C20        4.9980    1.9790    1.4910 C.3     1  UNL1        0.0358
     29  C21        5.9580    2.2870    2.5800 C.3     1  UNL1       -0.0412
     30  C22        6.0280    3.0980    1.3170 C.3     1  UNL1       -0.0412
     31  C23        4.3440   -0.9920   -0.8240 C.3     1  UNL1        0.0305
     32  C24        3.2910   -2.0540   -0.4700 C.3     1  UNL1        0.0308
     33 H          -1.1810   -2.6213   -0.5895 H       1  UNL1        0.0629
     34 H          -3.6289   -3.0336   -0.7777 H       1  UNL1        0.0377
     35 H          -4.5967   -1.7954   -1.6242 H       1  UNL1        0.0377
     36 H          -3.0987   -1.6550    3.3409 H       1  UNL1        0.1921
     37 H          -5.3335    2.2840    2.6529 H       1  UNL1        0.0625
     38 H          -6.3334    3.3511    0.7055 H       1  UNL1        0.0618
     39 H          -6.1708    2.2068   -1.4190 H       1  UNL1        0.0618
     40 H          -5.0664    0.0966   -1.6202 H       1  UNL1        0.0624
     41 H          -3.5261   -0.4151   -3.2189 H       1  UNL1        0.0621
     42 H          -1.5538    0.2072   -4.4470 H       1  UNL1        0.0646
     43 H           1.0064   -0.4272    0.6414 H       1  UNL1        0.0480
     44 H           1.1710    0.3607   -0.9580 H       1  UNL1        0.0480
     45 H           2.6729    0.6964    1.3653 H       1  UNL1        0.0480
     46 H           2.6905    1.5383   -0.2332 H       1  UNL1        0.0480
     47 H           3.9337    1.8702    1.4747 H       1  UNL1        0.0394
     48 H           6.7402    1.5939    2.8094 H       1  UNL1        0.0273
     49 H           5.8582    2.5278    3.6178 H       1  UNL1        0.0273
     50 H           5.7165    4.1217    1.3160 H       1  UNL1        0.0273
     51 H           6.7872    3.3339    0.6008 H       1  UNL1        0.0273
     52 H           5.3272   -1.3744   -0.6454 H       1  UNL1        0.0480
     53 H           4.2824   -0.7200   -1.8570 H       1  UNL1        0.0480
     54 H           3.4482   -2.9425   -1.0451 H       1  UNL1        0.0480
     55 H           3.3432   -2.3361    0.5608 H       1  UNL1        0.0480
@<TRIPOS>BOND
     1     1     2    2
     2     2     3    1
     3     2    22   am
     4     3     4   ar
     5     3    20   ar
     6     4     5   ar
     7     5     6    1
     8     5    18   ar
     9     6     7    1
    10     7     8   ar
    11     7    17   ar
    12     8     9   ar
    13     9    10   ar
    14    10    11    2
    15    10    12   ar
    16    12    13   ar
    17    12    17   ar
    18    13    14   ar
    19    14    15   ar
    20    15    16   ar
    21    16    17   ar
    22    18    19   ar
    23    19    20   ar
    24    20    21    1
    25    22    23    1
    26    22    32    1
    27    23    24    1
    28    24    25    1
    29    25    26   am
    30    25    31    1
    31    26    27    2
    32    26    28    1
    33    28    29    1
    34    28    30    1
    35    29    30    1
    36    31    32    1
    37     4    33    1
    38     6    34    1
    39     6    35    1
    40     9    36    1
    41    13    37    1
    42    14    38    1
    43    15    39    1
    44    16    40    1
    45    18    41    1
    46    19    42    1
    47    23    43    1
    48    23    44    1
    49    24    45    1
    50    24    46    1
    51    28    47    1
    52    29    48    1
    53    29    49    1
    54    30    50    1
    55    30    51    1
    56    31    52    1
    57    31    53    1
    58    32    54    1
    59    32    55    1
@<TRIPOS>MOLECULE
../data/bude_mols_rdkit_confs/molecule_2.pdb
 55 59 0 0 0
SMALL
GASTEIGER

@<TRIPOS>ATOM
      1  O1        -0.4900    0.3360    2.6340 O.2     1  UNL1       -0.2699
      2  C1        -0.7270    0.7870    1.4630 C.2     1  UNL1        0.2495
      3  C2         0.3620    1.3560    0.7020 C.ar    1  UNL1        0.0723
      4  C3         1.0900    0.5050   -0.1020 C.ar    1  UNL1       -0.0433
      5  C4         2.1720    0.9450   -0.8860 C.ar    1  UNL1       -0.0406
      6  C5         2.8960   -0.0350   -1.7480 C.3     1  UNL1        0.0171
      7  C6         3.7560   -0.9640   -1.0270 C.ar    1  UNL1        0.0736
      8  N1         3.3040   -2.2110   -0.6990 N.ar    1  UNL1       -0.1750
      9  N2         4.0220   -3.0810   -0.0120 N.ar    1  UNL1       -0.2425
     10  C7         5.2580   -2.8250    0.4270 C.ar    1  UNL1        0.2725
     11  O2         5.9350   -3.6380    1.0730 O.2     1  UNL1       -0.2658
     12  C8         5.7820   -1.5870    0.1350 C.ar    1  UNL1        0.0496
     13  C9         7.0480   -1.2760    0.5500 C.ar    1  UNL1       -0.0487
     14  C10        7.6150   -0.0650    0.2730 C.ar    1  UNL1       -0.0610
     15  C11        6.8680    0.8570   -0.4520 C.ar    1  UNL1       -0.0611
     16  C12        5.6000    0.5500   -0.8700 C.ar    1  UNL1       -0.0521
     17  C13        5.0190   -0.6650   -0.5950 C.ar    1  UNL1        0.0106
     18  C14        2.4510    2.2790   -0.7950 C.ar    1  UNL1       -0.0555
     19  C15        1.7350    3.1540    0.0060 C.ar    1  UNL1       -0.0254
     20  C16        0.6810    2.6790    0.7590 C.ar    1  UNL1        0.1355
     21  F1        -0.0160    3.5340    1.5400 F       1  UNL1       -0.2047
     22  N3        -2.0550    0.6930    0.9970 N.am    1  UNL1       -0.2945
     23  C17       -3.1250    0.1170    1.7810 C.3     1  UNL1        0.0308
     24  C18       -4.1710   -0.5320    0.8850 C.3     1  UNL1        0.0305
     25  N4        -4.5460    0.2960   -0.2100 N.am    1  UNL1       -0.2983
     26  C19       -5.5240    0.0310   -1.1760 C.2     1  UNL1        0.2187
     27  O3        -5.6620    0.9190   -2.1160 O.2     1  UNL1       -0.2753
     28  C20       -6.4240   -1.1070   -1.2910 C.3     1  UNL1        0.0358
     29  C21       -7.4090   -1.1870   -0.0940 C.3     1  UNL1       -0.0412
     30  C22       -6.4910   -2.2810   -0.4340 C.3     1  UNL1       -0.0412
     31  C23       -3.8090    1.5760   -0.3130 C.3     1  UNL1        0.0305
     32  C24       -2.3370    1.2130   -0.3510 C.3     1  UNL1        0.0308
     33 H           0.8311   -0.4936   -0.1298 H       1  UNL1        0.0629
     34 H           3.5028    0.5132   -2.4380 H       1  UNL1        0.0377
     35 H           2.1448   -0.6286   -2.2257 H       1  UNL1        0.0377
     36 H           3.6275   -3.9609    0.1863 H       1  UNL1        0.1921
     37 H           7.5878   -1.9738    1.0856 H       1  UNL1        0.0625
     38 H           8.5703    0.1595    0.5925 H       1  UNL1        0.0618
     39 H           7.2719    1.7796   -0.6769 H       1  UNL1        0.0618
     40 H           5.0657    1.2510   -1.4067 H       1  UNL1        0.0624
     41 H           3.2351    2.6543   -1.3512 H       1  UNL1        0.0621
     42 H           1.9883    4.1539    0.0391 H       1  UNL1        0.0646
     43 H          -3.5896    0.8885    2.3588 H       1  UNL1        0.0480
     44 H          -2.7117   -0.6342    2.4212 H       1  UNL1        0.0480
     45 H          -5.0419   -0.7402    1.4708 H       1  UNL1        0.0480
     46 H          -3.7421   -1.4258    0.4824 H       1  UNL1        0.0480
     47 H          -6.3778   -1.0503   -2.3585 H       1  UNL1        0.0394
     48 H          -8.4604   -1.2898   -0.2638 H       1  UNL1        0.0273
     49 H          -7.6162   -0.5967    0.7741 H       1  UNL1        0.0273
     50 H          -5.6723   -2.4996    0.2194 H       1  UNL1        0.0273
     51 H          -6.6347   -3.3231   -0.6298 H       1  UNL1        0.0273
     52 H          -4.0172    2.1935    0.5356 H       1  UNL1        0.0480
     53 H          -4.0986    2.1243   -1.1850 H       1  UNL1        0.0480
     54 H          -2.1503    0.4646   -1.0926 H       1  UNL1        0.0480
     55 H          -1.7169    2.0472   -0.6051 H       1  UNL1        0.0480
@<TRIPOS>BOND
     1     1     2    2
     2     2     3    1
     3     2    22   am
     4     3     4   ar
     5     3    20   ar
     6     4     5   ar
     7     5     6    1
     8     5    18   ar
     9     6     7    1
    10     7     8   ar
    11     7    17   ar
    12     8     9   ar
    13     9    10   ar
    14    10    11    2
    15    10    12   ar
    16    12    13   ar
    17    12    17   ar
    18    13    14   ar
    19    14    15   ar
    20    15    16   ar
    21    16    17   ar
    22    18    19   ar
    23    19    20   ar
    24    20    21    1
    25    22    23    1
    26    22    32    1
    27    23    24    1
    28    24    25    1
    29    25    26   am
    30    25    31    1
    31    26    27    2
    32    26    28    1
    33    28    29    1
    34    28    30    1
    35    29    30    1
    36    31    32    1
    37     4    33    1
    38     6    34    1
    39     6    35    1
    40     9    36    1
    41    13    37    1
    42    14    38    1
    43    15    39    1
    44    16    40    1
    45    18    41    1
    46    19    42    1
    47    23    43    1
    48    23    44    1
    49    24    45    1
    50    24    46    1
    51    28    47    1
    52    29    48    1
    53    29    49    1
    54    30    50    1
    55    30    51    1
    56    31    52    1
    57    31    53    1
    58    32    54    1
    59    32    55    1
@<TRIPOS>MOLECULE
../data/bude_mols_rdkit_confs/molecule_2.pdb
 55 59 0 0 0
SMALL
GASTEIGER

@<TRIPOS>ATOM
      1  O1         0.4230   -0.7270   -2.4050 O.2     1  UNL1       -0.2699
      2  C1         0.6900   -0.5750   -1.1910 C.2     1  UNL1        0.2495
      3  C2        -0.3540   -0.8510   -0.1850 C.ar    1  UNL1        0.0723
      4  C3        -1.2260    0.1400    0.2010 C.ar    1  UNL1       -0.0433
      5  C4        -2.2360   -0.0450    1.1540 C.ar    1  UNL1       -0.0406
      6  C5        -3.1260    1.0860    1.5150 C.3     1  UNL1        0.0171
      7  C6        -4.2170    1.2030    0.5410 C.ar    1  UNL1        0.0736
      8  N1        -4.0360    2.0000   -0.5620 N.ar    1  UNL1       -0.1750
      9  N2        -4.9250    2.1090   -1.5230 N.ar    1  UNL1       -0.2425
     10  C7        -6.0660    1.4340   -1.4600 C.ar    1  UNL1        0.2725
     11  O2        -6.9090    1.5470   -2.3880 O.2     1  UNL1       -0.2658
     12  C8        -6.3450    0.6150   -0.4020 C.ar    1  UNL1        0.0496
     13  C9        -7.5450   -0.0550   -0.3630 C.ar    1  UNL1       -0.0487
     14  C10       -7.8100   -0.8560    0.7190 C.ar    1  UNL1       -0.0610
     15  C11       -6.8840   -0.9720    1.7290 C.ar    1  UNL1       -0.0611
     16  C12       -5.6940   -0.2960    1.6690 C.ar    1  UNL1       -0.0521
     17  C13       -5.3930    0.5080    0.6100 C.ar    1  UNL1        0.0106
     18  C14       -2.3210   -1.2860    1.7020 C.ar    1  UNL1       -0.0555
     19  C15       -1.4320   -2.3060    1.3110 C.ar    1  UNL1       -0.0254
     20  C16       -0.4470   -2.1080    0.3730 C.ar    1  UNL1        0.1355
     21  F1         0.3910   -3.1160    0.0230 F       1  UNL1       -0.2047
     22  N3         1.9780   -0.1450   -0.8190 N.am    1  UNL1       -0.2945
     23  C17        2.3300    0.0270    0.5650 C.3     1  UNL1        0.0308
     24  C18        3.6400   -0.6720    0.8930 C.3     1  UNL1        0.0305
     25  N4         4.6080   -0.4420   -0.1910 N.am    1  UNL1       -0.2983
     26  C19        5.8510    0.0900    0.0960 C.2     1  UNL1        0.2187
     27  O3         6.1630    0.3800    1.2960 O.2     1  UNL1       -0.2753
     28  C20        6.8830    0.3580   -0.9160 C.3     1  UNL1        0.0358
     29  C21        8.3380    0.1350   -0.5620 C.3     1  UNL1       -0.0412
     30  C22        7.8170    1.5130   -0.7500 C.3     1  UNL1       -0.0412
     31  C23        4.1490   -0.8060   -1.5060 C.3     1  UNL1        0.0305
     32  C24        2.9690    0.1320   -1.8260 C.3     1  UNL1        0.0308
     33 H          -1.1311    1.0705   -0.2351 H       1  UNL1        0.0629
     34 H          -2.5593    1.9936    1.5216 H       1  UNL1        0.0377
     35 H          -3.5414    0.9077    2.4848 H       1  UNL1        0.0377
     36 H          -4.7440    2.6942   -2.2937 H       1  UNL1        0.1921
     37 H          -8.2298    0.0422   -1.1290 H       1  UNL1        0.0625
     38 H          -8.7028   -1.3706    0.7748 H       1  UNL1        0.0618
     39 H          -7.0878   -1.5751    2.5413 H       1  UNL1        0.0618
     40 H          -5.0138   -0.3971    2.4385 H       1  UNL1        0.0624
     41 H          -3.0441   -1.4827    2.4116 H       1  UNL1        0.0621
     42 H          -1.5236   -3.2376    1.7454 H       1  UNL1        0.0646
     43 H           1.5534   -0.3837    1.1758 H       1  UNL1        0.0480
     44 H           2.4485    1.0732    0.7558 H       1  UNL1        0.0480
     45 H           3.4663   -1.7226    0.9981 H       1  UNL1        0.0480
     46 H           4.0321   -0.2800    1.8082 H       1  UNL1        0.0480
     47 H           6.2217    0.0265   -1.6891 H       1  UNL1        0.0394
     48 H           9.0059   -0.2881   -1.2830 H       1  UNL1        0.0273
     49 H           8.8577   -0.3787    0.2196 H       1  UNL1        0.0273
     50 H           7.7148    2.1629    0.0938 H       1  UNL1        0.0273
     51 H           8.0982    2.3446   -1.3617 H       1  UNL1        0.0273
     52 H           3.8253   -1.8258   -1.5165 H       1  UNL1        0.0480
     53 H           4.9299   -0.7106   -2.2312 H       1  UNL1        0.0480
     54 H           3.2791    1.1548   -1.7750 H       1  UNL1        0.0480
     55 H           2.5892   -0.0281   -2.8134 H       1  UNL1        0.0480
@<TRIPOS>BOND
     1     1     2    2
     2     2     3    1
     3     2    22   am
     4     3     4   ar
     5     3    20   ar
     6     4     5   ar
     7     5     6    1
     8     5    18   ar
     9     6     7    1
    10     7     8   ar
    11     7    17   ar
    12     8     9   ar
    13     9    10   ar
    14    10    11    2
    15    10    12   ar
    16    12    13   ar
    17    12    17   ar
    18    13    14   ar
    19    14    15   ar
    20    15    16   ar
    21    16    17   ar
    22    18    19   ar
    23    19    20   ar
    24    20    21    1
    25    22    23    1
    26    22    32    1
    27    23    24    1
    28    24    25    1
    29    25    26   am
    30    25    31    1
    31    26    27    2
    32    26    28    1
    33    28    29    1
    34    28    30    1
    35    29    30    1
    36    31    32    1
    37     4    33    1
    38     6    34    1
    39     6    35    1
    40     9    36    1
    41    13    37    1
    42    14    38    1
    43    15    39    1
    44    16    40    1
    45    18    41    1
    46    19    42    1
    47    23    43    1
    48    23    44    1
    49    24    45    1
    50    24    46    1
    51    28    47    1
    52    29    48    1
    53    29    49    1
    54    30    50    1
    55    30    51    1
    56    31    52    1
    57    31    53    1
    58    32    54    1
    59    32    55    1
@<TRIPOS>MOLECULE
../data/bude_mols_rdkit_confs/molecule_2.pdb
 55 59 0 0 0
SMALL
GASTEIGER

@<TRIPOS>ATOM
      1  O1         0.4340    1.3560    2.2110 O.2     1  UNL1       -0.2699
      2  C1         0.7110    0.5740    1.2600 C.2     1  UNL1        0.2495
      3  C2        -0.1500    0.5750    0.0830 C.ar    1  UNL1        0.0723
      4  C3        -1.2260   -0.2440   -0.0480 C.ar    1  UNL1       -0.0433
      5  C4        -2.0700   -0.2750   -1.1640 C.ar    1  UNL1       -0.0406
      6  C5        -3.1620   -1.2610   -1.1000 C.3     1  UNL1        0.0171
      7  C6        -4.2820   -0.9080   -0.2210 C.ar    1  UNL1        0.0736
      8  N1        -4.3110   -1.4070    1.0480 N.ar    1  UNL1       -0.1750
      9  N2        -5.2270   -1.1350    1.9330 N.ar    1  UNL1       -0.2425
     10  C7        -6.2520   -0.3010    1.6310 C.ar    1  UNL1        0.2725
     11  O2        -7.1350   -0.0340    2.4760 O.2     1  UNL1       -0.2658
     12  C8        -6.2730    0.2300    0.3650 C.ar    1  UNL1        0.0496
     13  C9        -7.3000    1.0750    0.0070 C.ar    1  UNL1       -0.0487
     14  C10       -7.3810    1.6270   -1.2440 C.ar    1  UNL1       -0.0610
     15  C11       -6.4020    1.3210   -2.1590 C.ar    1  UNL1       -0.0611
     16  C12       -5.3500    0.4810   -1.8550 C.ar    1  UNL1       -0.0521
     17  C13       -5.2880   -0.0620   -0.5910 C.ar    1  UNL1        0.0106
     18  C14       -1.7740    0.5790   -2.1720 C.ar    1  UNL1       -0.0555
     19  C15       -0.6730    1.4410   -2.0760 C.ar    1  UNL1       -0.0254
     20  C16        0.1410    1.4450   -0.9560 C.ar    1  UNL1        0.1355
     21  F1         1.1990    2.2850   -0.8840 F       1  UNL1       -0.2047
     22  N3         1.8460   -0.2710    1.3750 N.am    1  UNL1       -0.2945
     23  C17        2.6970   -0.2700    2.5330 C.3     1  UNL1        0.0308
     24  C18        4.1760   -0.2430    2.1880 C.3     1  UNL1        0.0305
     25  N4         4.4210   -0.9040    0.9260 N.am    1  UNL1       -0.2983
     26  C19        5.5640   -0.6240    0.1810 C.2     1  UNL1        0.2187
     27  O3         5.7330   -1.2190   -0.9260 O.2     1  UNL1       -0.2753
     28  C20        6.6230    0.3350    0.5860 C.3     1  UNL1        0.0358
     29  C21        8.0450    0.0210    0.1150 C.3     1  UNL1       -0.0412
     30  C22        7.2660    1.2110   -0.4290 C.3     1  UNL1       -0.0412
     31  C23        3.4370   -1.8560    0.4900 C.3     1  UNL1        0.0305
     32  C24        2.1350   -1.1630    0.2800 C.3     1  UNL1        0.0308
     33 H          -1.4358   -0.8886    0.7301 H       1  UNL1        0.0629
     34 H          -2.7506   -2.1862   -0.7541 H       1  UNL1        0.0377
     35 H          -3.5694   -1.3121   -2.0881 H       1  UNL1        0.0377
     36 H          -5.1745   -1.5387    2.8294 H       1  UNL1        0.1921
     37 H          -8.0298    1.2988    0.7015 H       1  UNL1        0.0625
     38 H          -8.1587    2.2578   -1.4936 H       1  UNL1        0.0618
     39 H          -6.4553    1.7327   -3.1038 H       1  UNL1        0.0618
     40 H          -4.6266    0.2648   -2.5586 H       1  UNL1        0.0624
     41 H          -2.3642    0.5954   -3.0184 H       1  UNL1        0.0621
     42 H          -0.4651    2.0851   -2.8551 H       1  UNL1        0.0646
     43 H           2.4967   -1.1531    3.1031 H       1  UNL1        0.0480
     44 H           2.4826    0.6214    3.0846 H       1  UNL1        0.0480
     45 H           4.7251   -0.7431    2.9583 H       1  UNL1        0.0480
     46 H           4.4909    0.7765    2.1079 H       1  UNL1        0.0480
     47 H           6.1425    0.5291    1.5221 H       1  UNL1        0.0394
     48 H           8.2322   -0.8305   -0.5054 H       1  UNL1        0.0273
     49 H           8.9945   -0.1222    0.5871 H       1  UNL1        0.0273
     50 H           7.5599    2.2052   -0.1641 H       1  UNL1        0.0273
     51 H           6.9968    1.5469   -1.4086 H       1  UNL1        0.0273
     52 H           3.3209   -2.6155    1.2347 H       1  UNL1        0.0480
     53 H           3.7555   -2.3031   -0.4285 H       1  UNL1        0.0480
     54 H           2.1803   -0.5996   -0.6285 H       1  UNL1        0.0480
     55 H           1.3604   -1.8991    0.2243 H       1  UNL1        0.0480
@<TRIPOS>BOND
     1     1     2    2
     2     2     3    1
     3     2    22   am
     4     3     4   ar
     5     3    20   ar
     6     4     5   ar
     7     5     6    1
     8     5    18   ar
     9     6     7    1
    10     7     8   ar
    11     7    17   ar
    12     8     9   ar
    13     9    10   ar
    14    10    11    2
    15    10    12   ar
    16    12    13   ar
    17    12    17   ar
    18    13    14   ar
    19    14    15   ar
    20    15    16   ar
    21    16    17   ar
    22    18    19   ar
    23    19    20   ar
    24    20    21    1
    25    22    23    1
    26    22    32    1
    27    23    24    1
    28    24    25    1
    29    25    26   am
    30    25    31    1
    31    26    27    2
    32    26    28    1
    33    28    29    1
    34    28    30    1
    35    29    30    1
    36    31    32    1
    37     4    33    1
    38     6    34    1
    39     6    35    1
    40     9    36    1
    41    13    37    1
    42    14    38    1
    43    15    39    1
    44    16    40    1
    45    18    41    1
    46    19    42    1
    47    23    43    1
    48    23    44    1
    49    24    45    1
    50    24    46    1
    51    28    47    1
    52    29    48    1
    53    29    49    1
    54    30    50    1
    55    30    51    1
    56    31    52    1
    57    31    53    1
    58    32    54    1
    59    32    55    1
@<TRIPOS>MOLECULE
../data/bude_mols_rdkit_confs/molecule_2.pdb
 55 59 0 0 0
SMALL
GASTEIGER

@<TRIPOS>ATOM
      1  O1         0.0850    1.5290    1.9000 O.2     1  UNL1       -0.2699
      2  C1         0.5380    1.1610    0.7760 C.2     1  UNL1        0.2495
      3  C2        -0.4010    1.1870   -0.3360 C.ar    1  UNL1        0.0723
      4  C3        -1.1910    0.0800   -0.6530 C.ar    1  UNL1       -0.0433
      5  C4        -2.0590    0.1080   -1.6840 C.ar    1  UNL1       -0.0406
      6  C5        -2.9090   -1.0510   -2.0170 C.3     1  UNL1        0.0171
      7  C6        -4.3490   -0.8530   -1.7360 C.ar    1  UNL1        0.0736
      8  N1        -5.1610   -0.4400   -2.7590 N.ar    1  UNL1       -0.1750
      9  N2        -6.4380   -0.1960   -2.5830 N.ar    1  UNL1       -0.2425
     10  C7        -7.0150   -0.3400   -1.3790 C.ar    1  UNL1        0.2725
     11  O2        -8.2640   -0.0900   -1.2520 O.2     1  UNL1       -0.2658
     12  C8        -6.2820   -0.7530   -0.2870 C.ar    1  UNL1        0.0496
     13  C9        -6.8960   -0.9080    0.9360 C.ar    1  UNL1       -0.0487
     14  C10       -6.1130   -1.3370    1.9840 C.ar    1  UNL1       -0.0610
     15  C11       -4.7690   -1.6050    1.8290 C.ar    1  UNL1       -0.0611
     16  C12       -4.1940   -1.4320    0.5680 C.ar    1  UNL1       -0.0521
     17  C13       -4.9250   -1.0070   -0.5020 C.ar    1  UNL1        0.0106
     18  C14       -2.1880    1.2570   -2.4670 C.ar    1  UNL1       -0.0555
     19  C15       -1.4140    2.3410   -2.1560 C.ar    1  UNL1       -0.0254
     20  C16       -0.5340    2.3090   -1.1080 C.ar    1  UNL1        0.1355
     21  F1         0.2400    3.3890   -0.7940 F       1  UNL1       -0.2047
     22  N3         1.8890    0.7420    0.5970 N.am    1  UNL1       -0.2945
     23  C17        2.8040    0.7220    1.7160 C.3     1  UNL1        0.0308
     24  C18        3.8660   -0.3530    1.3560 C.3     1  UNL1        0.0305
     25  N4         4.5830    0.1920    0.2590 N.am    1  UNL1       -0.2983
     26  C19        5.9430    0.4670    0.2210 C.2     1  UNL1        0.2187
     27  O3         6.3430    0.9830   -0.9280 O.2     1  UNL1       -0.2753
     28  C20        7.0150    0.3050    1.1820 C.3     1  UNL1        0.0358
     29  C21        6.9100    0.3140    2.6390 C.3     1  UNL1       -0.0412
     30  C22        7.0900   -0.9750    1.9610 C.3     1  UNL1       -0.0412
     31  C23        3.7840    0.4810   -0.9410 C.3     1  UNL1        0.0305
     32  C24        2.3240    0.3430   -0.7020 C.3     1  UNL1        0.0308
     33 H          -1.1085   -0.7781   -0.0857 H       1  UNL1        0.0629
     34 H          -2.5690   -1.8903   -1.4471 H       1  UNL1        0.0377
     35 H          -2.8213   -1.2012   -3.0728 H       1  UNL1        0.0377
     36 H          -6.9835    0.0982   -3.3480 H       1  UNL1        0.1921
     37 H          -7.9012   -0.7108    1.0616 H       1  UNL1        0.0625
     38 H          -6.5445   -1.4617    2.9131 H       1  UNL1        0.0618
     39 H          -4.2003   -1.9266    2.6278 H       1  UNL1        0.0618
     40 H          -3.1892   -1.6311    0.4426 H       1  UNL1        0.0624
     41 H          -2.8493    1.2875   -3.2587 H       1  UNL1        0.0621
     42 H          -1.4951    3.1998   -2.7225 H       1  UNL1        0.0646
     43 H           2.2902    0.4550    2.6158 H       1  UNL1        0.0480
     44 H           3.2478    1.6806    1.8864 H       1  UNL1        0.0480
     45 H           3.3923   -1.2710    1.0769 H       1  UNL1        0.0480
     46 H           4.5066   -0.5779    2.1830 H       1  UNL1        0.0480
     47 H           7.6145    0.8835    0.5105 H       1  UNL1        0.0394
     48 H           5.9731    0.5436    3.1020 H       1  UNL1        0.0273
     49 H           7.4296    0.8251    3.4223 H       1  UNL1        0.0273
     50 H           8.0182   -1.5009    2.0432 H       1  UNL1        0.0273
     51 H           6.5670   -1.9084    1.9462 H       1  UNL1        0.0273
     52 H           4.0703   -0.1995   -1.7155 H       1  UNL1        0.0480
     53 H           3.9724    1.4970   -1.2189 H       1  UNL1        0.0480
     54 H           1.8106    0.9433   -1.4237 H       1  UNL1        0.0480
     55 H           2.1028   -0.7005   -0.7859 H       1  UNL1        0.0480
@<TRIPOS>BOND
     1     1     2    2
     2     2     3    1
     3     2    22   am
     4     3     4   ar
     5     3    20   ar
     6     4     5   ar
     7     5     6    1
     8     5    18   ar
     9     6     7    1
    10     7     8   ar
    11     7    17   ar
    12     8     9   ar
    13     9    10   ar
    14    10    11    2
    15    10    12   ar
    16    12    13   ar
    17    12    17   ar
    18    13    14   ar
    19    14    15   ar
    20    15    16   ar
    21    16    17   ar
    22    18    19   ar
    23    19    20   ar
    24    20    21    1
    25    22    23    1
    26    22    32    1
    27    23    24    1
    28    24    25    1
    29    25    26   am
    30    25    31    1
    31    26    27    2
    32    26    28    1
    33    28    29    1
    34    28    30    1
    35    29    30    1
    36    31    32    1
    37     4    33    1
    38     6    34    1
    39     6    35    1
    40     9    36    1
    41    13    37    1
    42    14    38    1
    43    15    39    1
    44    16    40    1
    45    18    41    1
    46    19    42    1
    47    23    43    1
    48    23    44    1
    49    24    45    1
    50    24    46    1
    51    28    47    1
    52    29    48    1
    53    29    49    1
    54    30    50    1
    55    30    51    1
    56    31    52    1
    57    31    53    1
    58    32    54    1
    59    32    55    1
@<TRIPOS>MOLECULE
../data/bude_mols_rdkit_confs/molecule_2.pdb
 55 59 0 0 0
SMALL
GASTEIGER

@<TRIPOS>ATOM
      1  O1        -0.6980   -1.4950    1.4240 O.2     1  UNL1       -0.2699
      2  C1        -0.8320   -0.7090    0.4590 C.2     1  UNL1        0.2495
      3  C2         0.2610   -0.5700   -0.4890 C.ar    1  UNL1        0.0723
      4  C3         1.2670    0.3850   -0.3000 C.ar    1  UNL1       -0.0433
      5  C4         2.3130    0.5530   -1.1600 C.ar    1  UNL1       -0.0406
      6  C5         3.4200    1.5330   -1.0070 C.3     1  UNL1        0.0171
      7  C6         4.6700    0.8320   -0.6930 C.ar    1  UNL1        0.0736
      8  N1         5.5230    0.5300   -1.7010 N.ar    1  UNL1       -0.1750
      9  N2         6.6460   -0.1300   -1.5620 N.ar    1  UNL1       -0.2425
     10  C7         7.0170   -0.5590   -0.3450 C.ar    1  UNL1        0.2725
     11  O2         8.0870   -1.2000   -0.1490 O.2     1  UNL1       -0.2658
     12  C8         6.1800   -0.2780    0.7380 C.ar    1  UNL1        0.0496
     13  C9         6.5550   -0.6990    1.9830 C.ar    1  UNL1       -0.0487
     14  C10        5.7730   -0.4380    3.0820 C.ar    1  UNL1       -0.0610
     15  C11        4.5900    0.2670    2.9000 C.ar    1  UNL1       -0.0611
     16  C12        4.1840    0.7050    1.6610 C.ar    1  UNL1       -0.0521
     17  C13        4.9840    0.4300    0.5730 C.ar    1  UNL1        0.0106
     18  C14        2.3480   -0.2920   -2.2810 C.ar    1  UNL1       -0.0555
     19  C15        1.3740   -1.2350   -2.4880 C.ar    1  UNL1       -0.0254
     20  C16        0.3320   -1.3790   -1.6000 C.ar    1  UNL1        0.1355
     21  F1        -0.6270   -2.3320   -1.8340 F       1  UNL1       -0.2047
     22  N3        -2.0100    0.0440    0.2640 N.am    1  UNL1       -0.2945
     23  C17       -2.1180    0.9310   -0.8590 C.3     1  UNL1        0.0308
     24  C18       -3.4780    0.9970   -1.4560 C.3     1  UNL1        0.0305
     25  N4        -4.5200    0.6640   -0.4640 N.am    1  UNL1       -0.2983
     26  C19       -5.7120    0.1290   -0.9260 C.2     1  UNL1        0.2187
     27  O3        -5.7410   -0.0310   -2.2400 O.2     1  UNL1       -0.2753
     28  C20       -6.9360   -0.2930   -0.2820 C.3     1  UNL1        0.0358
     29  C21       -6.7900   -1.1480    0.9810 C.3     1  UNL1       -0.0412
     30  C22       -7.5010    0.1770    0.9820 C.3     1  UNL1       -0.0412
     31  C23       -4.1740    0.9260    0.8830 C.3     1  UNL1        0.0305
     32  C24       -3.0860   -0.1190    1.2350 C.3     1  UNL1        0.0308
     33 H           1.2148    0.9930    0.5323 H       1  UNL1        0.0629
     34 H           3.1854    2.2118   -0.2138 H       1  UNL1        0.0377
     35 H           3.5404    2.0732   -1.9228 H       1  UNL1        0.0377
     36 H           7.2146   -0.3104   -2.3452 H       1  UNL1        0.1921
     37 H           7.4380   -1.2203    2.0992 H       1  UNL1        0.0625
     38 H           6.0578   -0.7582    4.0208 H       1  UNL1        0.0618
     39 H           3.9971    0.4685    3.7203 H       1  UNL1        0.0618
     40 H           3.3010    1.2273    1.5487 H       1  UNL1        0.0624
     41 H           3.1196   -0.2019   -2.9604 H       1  UNL1        0.0621
     42 H           1.4228   -1.8441   -3.3196 H       1  UNL1        0.0646
     43 H          -1.4359    0.6005   -1.6142 H       1  UNL1        0.0480
     44 H          -1.8933    1.9127   -0.4976 H       1  UNL1        0.0480
     45 H          -3.5357    0.3023   -2.2677 H       1  UNL1        0.0480
     46 H          -3.6468    1.9966   -1.7982 H       1  UNL1        0.0480
     47 H          -7.3720   -0.3364   -1.2582 H       1  UNL1        0.0394
     48 H          -5.8376   -1.2517    1.4575 H       1  UNL1        0.0273
     49 H          -7.0307   -2.1515    1.2639 H       1  UNL1        0.0273
     50 H          -8.5631    0.2073    1.1079 H       1  UNL1        0.0273
     51 H          -7.3989    1.0755    1.5540 H       1  UNL1        0.0273
     52 H          -5.0265    0.8084    1.5188 H       1  UNL1        0.0480
     53 H          -3.8238    1.9280    1.0177 H       1  UNL1        0.0480
     54 H          -2.7174    0.0531    2.2247 H       1  UNL1        0.0480
     55 H          -3.4841   -1.1116    1.2015 H       1  UNL1        0.0480
@<TRIPOS>BOND
     1     1     2    2
     2     2     3    1
     3     2    22   am
     4     3     4   ar
     5     3    20   ar
     6     4     5   ar
     7     5     6    1
     8     5    18   ar
     9     6     7    1
    10     7     8   ar
    11     7    17   ar
    12     8     9   ar
    13     9    10   ar
    14    10    11    2
    15    10    12   ar
    16    12    13   ar
    17    12    17   ar
    18    13    14   ar
    19    14    15   ar
    20    15    16   ar
    21    16    17   ar
    22    18    19   ar
    23    19    20   ar
    24    20    21    1
    25    22    23    1
    26    22    32    1
    27    23    24    1
    28    24    25    1
    29    25    26   am
    30    25    31    1
    31    26    27    2
    32    26    28    1
    33    28    29    1
    34    28    30    1
    35    29    30    1
    36    31    32    1
    37     4    33    1
    38     6    34    1
    39     6    35    1
    40     9    36    1
    41    13    37    1
    42    14    38    1
    43    15    39    1
    44    16    40    1
    45    18    41    1
    46    19    42    1
    47    23    43    1
    48    23    44    1
    49    24    45    1
    50    24    46    1
    51    28    47    1
    52    29    48    1
    53    29    49    1
    54    30    50    1
    55    30    51    1
    56    31    52    1
    57    31    53    1
    58    32    54    1
    59    32    55    1
@<TRIPOS>MOLECULE
../data/bude_mols_rdkit_confs/molecule_2.pdb
 55 59 0 0 0
SMALL
GASTEIGER

@<TRIPOS>ATOM
      1  O1         1.2540   -0.3710    4.1840 O.2     1  UNL1       -0.2699
      2  C1         0.9450   -0.7290    3.0370 C.2     1  UNL1        0.2495
      3  C2        -0.4260   -1.1530    2.7630 C.ar    1  UNL1        0.0723
      4  C3        -1.3990   -0.2380    2.3980 C.ar    1  UNL1       -0.0433
      5  C4        -2.7040   -0.5550    2.1280 C.ar    1  UNL1       -0.0406
      6  C5        -3.7550    0.4150    1.7290 C.3     1  UNL1        0.0171
      7  C6        -4.1940    0.3060    0.3190 C.ar    1  UNL1        0.0736
      8  N1        -5.2960   -0.4170    0.0220 N.ar    1  UNL1       -0.1750
      9  N2        -5.6830   -0.5670   -1.2140 N.ar    1  UNL1       -0.2425
     10  C7        -5.0430   -0.0350   -2.2640 C.ar    1  UNL1        0.2725
     11  O2        -5.4340   -0.1910   -3.4690 O.2     1  UNL1       -0.2658
     12  C8        -3.9100    0.7180   -2.0350 C.ar    1  UNL1        0.0496
     13  C9        -3.2290    1.2970   -3.0980 C.ar    1  UNL1       -0.0487
     14  C10       -2.1130    2.0540   -2.8240 C.ar    1  UNL1       -0.0610
     15  C11       -1.6790    2.2340   -1.5330 C.ar    1  UNL1       -0.0611
     16  C12       -2.3630    1.6520   -0.4730 C.ar    1  UNL1       -0.0521
     17  C13       -3.5040    0.8730   -0.7130 C.ar    1  UNL1        0.0106
     18  C14       -3.0140   -1.9120    2.2470 C.ar    1  UNL1       -0.0555
     19  C15       -2.0780   -2.8520    2.6070 C.ar    1  UNL1       -0.0254
     20  C16       -0.7850   -2.4780    2.8660 C.ar    1  UNL1        0.1355
     21  F1         0.1410   -3.3780    3.2180 F       1  UNL1       -0.2047
     22  N3         1.8920   -0.7310    2.0030 N.am    1  UNL1       -0.2945
     23  C17        1.5040   -1.1590    0.6790 C.3     1  UNL1        0.0308
     24  C18        2.1480   -0.2430   -0.3330 C.3     1  UNL1        0.0305
     25  N4         3.5720   -0.2320   -0.1270 N.am    1  UNL1       -0.2983
     26  C19        4.4390    0.2660   -1.1250 C.2     1  UNL1        0.2187
     27  O3         5.7080    0.2650   -0.9510 O.2     1  UNL1       -0.2753
     28  C20        3.8700    0.7950   -2.3870 C.3     1  UNL1        0.0358
     29  C21        4.6260    1.9990   -2.9480 C.3     1  UNL1       -0.0412
     30  C22        4.6980    0.6930   -3.6320 C.3     1  UNL1       -0.0412
     31  C23        4.1420   -0.7260    1.1110 C.3     1  UNL1        0.0305
     32  C24        3.2560   -0.3040    2.2890 C.3     1  UNL1        0.0308
     33 H          -1.1213    0.7532    2.3241 H       1  UNL1        0.0629
     34 H          -3.3733    1.4025    1.8839 H       1  UNL1        0.0377
     35 H          -4.6125    0.1961    2.3304 H       1  UNL1        0.0377
     36 H          -6.4916   -1.1017   -1.3855 H       1  UNL1        0.1921
     37 H          -3.5518    1.1629   -4.0690 H       1  UNL1        0.0625
     38 H          -1.5940    2.4933   -3.6003 H       1  UNL1        0.0618
     39 H          -0.8394    2.8053   -1.3494 H       1  UNL1        0.0618
     40 H          -2.0304    1.7934    0.4937 H       1  UNL1        0.0624
     41 H          -3.9807   -2.2198    2.0578 H       1  UNL1        0.0621
     42 H          -2.3502   -3.8446    2.6827 H       1  UNL1        0.0646
     43 H           0.4395   -1.1108    0.5824 H       1  UNL1        0.0480
     44 H           1.8225   -2.1670    0.5134 H       1  UNL1        0.0480
     45 H           1.7622    0.7479   -0.2145 H       1  UNL1        0.0480
     46 H           1.9317   -0.5923   -1.3210 H       1  UNL1        0.0480
     47 H           2.8602    0.5390   -2.1427 H       1  UNL1        0.0394
     48 H           5.4821    2.3814   -2.4325 H       1  UNL1        0.0273
     49 H           4.3582    2.9931   -3.2394 H       1  UNL1        0.0273
     50 H           4.2173    0.5635   -4.5791 H       1  UNL1        0.0273
     51 H           5.5003    0.0577   -3.9444 H       1  UNL1        0.0273
     52 H           5.1229   -0.3183    1.2391 H       1  UNL1        0.0480
     53 H           4.2001   -1.7938    1.0745 H       1  UNL1        0.0480
     54 H           3.6013   -0.7701    3.1881 H       1  UNL1        0.0480
     55 H           3.2932    0.7573    2.4203 H       1  UNL1        0.0480
@<TRIPOS>BOND
     1     1     2    2
     2     2     3    1
     3     2    22   am
     4     3     4   ar
     5     3    20   ar
     6     4     5   ar
     7     5     6    1
     8     5    18   ar
     9     6     7    1
    10     7     8   ar
    11     7    17   ar
    12     8     9   ar
    13     9    10   ar
    14    10    11    2
    15    10    12   ar
    16    12    13   ar
    17    12    17   ar
    18    13    14   ar
    19    14    15   ar
    20    15    16   ar
    21    16    17   ar
    22    18    19   ar
    23    19    20   ar
    24    20    21    1
    25    22    23    1
    26    22    32    1
    27    23    24    1
    28    24    25    1
    29    25    26   am
    30    25    31    1
    31    26    27    2
    32    26    28    1
    33    28    29    1
    34    28    30    1
    35    29    30    1
    36    31    32    1
    37     4    33    1
    38     6    34    1
    39     6    35    1
    40     9    36    1
    41    13    37    1
    42    14    38    1
    43    15    39    1
    44    16    40    1
    45    18    41    1
    46    19    42    1
    47    23    43    1
    48    23    44    1
    49    24    45    1
    50    24    46    1
    51    28    47    1
    52    29    48    1
    53    29    49    1
    54    30    50    1
    55    30    51    1
    56    31    52    1
    57    31    53    1
    58    32    54    1
    59    32    55    1
@<TRIPOS>MOLECULE
../data/bude_mols_rdkit_confs/molecule_2.pdb
 55 59 0 0 0
SMALL
GASTEIGER

@<TRIPOS>ATOM
      1  O1         0.7150   -0.7400   -2.4200 O.2     1  UNL1       -0.2699
      2  C1         0.9190   -0.7690   -1.1830 C.2     1  UNL1        0.2495
      3  C2         0.0020   -0.0880   -0.2810 C.ar    1  UNL1        0.0723
      4  C3        -1.1120   -0.6510    0.2710 C.ar    1  UNL1       -0.0433
      5  C4        -1.9820    0.0200    1.1330 C.ar    1  UNL1       -0.0406
      6  C5        -3.1190   -0.7730    1.6420 C.3     1  UNL1        0.0171
      7  C6        -4.1290   -0.9770    0.5750 C.ar    1  UNL1        0.0736
      8  N1        -4.0980   -2.1560   -0.1350 N.ar    1  UNL1       -0.1750
      9  N2        -4.9180   -2.4100   -1.1120 N.ar    1  UNL1       -0.2425
     10  C7        -5.8570   -1.5340   -1.4980 C.ar    1  UNL1        0.2725
     11  O2        -6.6170   -1.8300   -2.4440 O.2     1  UNL1       -0.2658
     12  C8        -5.9770   -0.3160   -0.8510 C.ar    1  UNL1        0.0496
     13  C9        -6.9450    0.5960   -1.2280 C.ar    1  UNL1       -0.0487
     14  C10       -7.0370    1.8070   -0.5390 C.ar    1  UNL1       -0.0610
     15  C11       -6.1720    2.0730    0.4940 C.ar    1  UNL1       -0.0611
     16  C12       -5.2050    1.1260    0.8470 C.ar    1  UNL1       -0.0521
     17  C13       -5.0850   -0.0740    0.1910 C.ar    1  UNL1        0.0106
     18  C14       -1.6970    1.3210    1.4410 C.ar    1  UNL1       -0.0555
     19  C15       -0.5630    1.9340    0.8930 C.ar    1  UNL1       -0.0254
     20  C16        0.2640    1.2410    0.0520 C.ar    1  UNL1        0.1355
     21  F1         1.3680    1.8400   -0.4810 F       1  UNL1       -0.2047
     22  N3         2.0240   -1.4500   -0.6730 N.am    1  UNL1       -0.2945
     23  C17        2.9420   -2.1220   -1.5740 C.3     1  UNL1        0.0308
     24  C18        4.3800   -1.8680   -1.1700 C.3     1  UNL1        0.0305
     25  N4         4.4620   -0.7950   -0.1900 N.am    1  UNL1       -0.2983
     26  C19        5.3650    0.2660   -0.4270 C.2     1  UNL1        0.2187
     27  O3         6.0950    0.2920   -1.4830 O.2     1  UNL1       -0.2753
     28  C20        5.5760    1.4310    0.4670 C.3     1  UNL1        0.0358
     29  C21        7.0370    1.8850    0.5960 C.3     1  UNL1       -0.0412
     30  C22        6.0490    2.7240   -0.0850 C.3     1  UNL1       -0.0412
     31  C23        3.6490   -0.7970    0.9920 C.3     1  UNL1        0.0305
     32  C24        2.3220   -1.5220    0.7480 C.3     1  UNL1        0.0308
     33 H          -1.3246   -1.6334    0.0369 H       1  UNL1        0.0629
     34 H          -3.5718   -0.2540    2.4609 H       1  UNL1        0.0377
     35 H          -2.7585   -1.7275    1.9644 H       1  UNL1        0.0377
     36 H          -4.8471   -3.2718   -1.5826 H       1  UNL1        0.1921
     37 H          -7.5893    0.3852   -2.0061 H       1  UNL1        0.0625
     38 H          -7.7533    2.5005   -0.8054 H       1  UNL1        0.0618
     39 H          -6.2351    2.9664    1.0068 H       1  UNL1        0.0618
     40 H          -4.5611    1.3361    1.6256 H       1  UNL1        0.0624
     41 H          -2.3156    1.8500    2.0755 H       1  UNL1        0.0621
     42 H          -0.3496    2.9165    1.1256 H       1  UNL1        0.0646
     43 H           2.7877   -1.7567   -2.5678 H       1  UNL1        0.0480
     44 H           2.7554   -3.1747   -1.5293 H       1  UNL1        0.0480
     45 H           4.9445   -1.5946   -2.0369 H       1  UNL1        0.0480
     46 H           4.7754   -2.7612   -0.7331 H       1  UNL1        0.0480
     47 H           4.7644    1.1561    1.1078 H       1  UNL1        0.0394
     48 H           7.8036    1.3941    0.0337 H       1  UNL1        0.0273
     49 H           7.7227    2.0218    1.4059 H       1  UNL1        0.0273
     50 H           5.7314    3.6392    0.3694 H       1  UNL1        0.0273
     51 H           6.0036    3.1764   -1.0536 H       1  UNL1        0.0273
     52 H           3.4472    0.2139    1.2789 H       1  UNL1        0.0480
     53 H           4.1786   -1.3098    1.7676 H       1  UNL1        0.0480
     54 H           2.4066   -2.5451    1.0496 H       1  UNL1        0.0480
     55 H           1.5389   -1.0637    1.3152 H       1  UNL1        0.0480
@<TRIPOS>BOND
     1     1     2    2
     2     2     3    1
     3     2    22   am
     4     3     4   ar
     5     3    20   ar
     6     4     5   ar
     7     5     6    1
     8     5    18   ar
     9     6     7    1
    10     7     8   ar
    11     7    17   ar
    12     8     9   ar
    13     9    10   ar
    14    10    11    2
    15    10    12   ar
    16    12    13   ar
    17    12    17   ar
    18    13    14   ar
    19    14    15   ar
    20    15    16   ar
    21    16    17   ar
    22    18    19   ar
    23    19    20   ar
    24    20    21    1
    25    22    23    1
    26    22    32    1
    27    23    24    1
    28    24    25    1
    29    25    26   am
    30    25    31    1
    31    26    27    2
    32    26    28    1
    33    28    29    1
    34    28    30    1
    35    29    30    1
    36    31    32    1
    37     4    33    1
    38     6    34    1
    39     6    35    1
    40     9    36    1
    41    13    37    1
    42    14    38    1
    43    15    39    1
    44    16    40    1
    45    18    41    1
    46    19    42    1
    47    23    43    1
    48    23    44    1
    49    24    45    1
    50    24    46    1
    51    28    47    1
    52    29    48    1
    53    29    49    1
    54    30    50    1
    55    30    51    1
    56    31    52    1
    57    31    53    1
    58    32    54    1
    59    32    55    1
@<TRIPOS>MOLECULE
../data/bude_mols_rdkit_confs/molecule_2.pdb
 55 59 0 0 0
SMALL
GASTEIGER

@<TRIPOS>ATOM
      1  O1         0.2110    2.2650    1.1350 O.2     1  UNL1       -0.2699
      2  C1         0.5880    1.1820    0.5810 C.2     1  UNL1        0.2495
      3  C2        -0.3130    0.6220   -0.4200 C.ar    1  UNL1        0.0723
      4  C3        -1.3180   -0.2740   -0.1100 C.ar    1  UNL1       -0.0433
      5  C4        -2.1690   -0.8050   -1.0450 C.ar    1  UNL1       -0.0406
      6  C5        -3.2680   -1.7510   -0.7600 C.3     1  UNL1        0.0171
      7  C6        -4.6150   -1.1710   -0.9050 C.ar    1  UNL1        0.0736
      8  N1        -5.2490   -1.3730   -2.0730 N.ar    1  UNL1       -0.1750
      9  N2        -6.4280   -0.8640   -2.3130 N.ar    1  UNL1       -0.2425
     10  C7        -7.0330   -0.1170   -1.3740 C.ar    1  UNL1        0.2725
     11  O2        -8.1700    0.3750   -1.6060 O.2     1  UNL1       -0.2658
     12  C8        -6.4430    0.1260   -0.1640 C.ar    1  UNL1        0.0496
     13  C9        -7.0720    0.8810    0.7960 C.ar    1  UNL1       -0.0487
     14  C10       -6.4940    1.1250    2.0310 C.ar    1  UNL1       -0.0610
     15  C11       -5.2620    0.5750    2.2470 C.ar    1  UNL1       -0.0611
     16  C12       -4.6130   -0.1960    1.2750 C.ar    1  UNL1       -0.0521
     17  C13       -5.1890   -0.4250    0.0730 C.ar    1  UNL1        0.0106
     18  C14       -2.0250   -0.4310   -2.3860 C.ar    1  UNL1       -0.0555
     19  C15       -1.0350    0.4560   -2.7220 C.ar    1  UNL1       -0.0254
     20  C16       -0.1860    0.9790   -1.7460 C.ar    1  UNL1        0.1355
     21  F1         0.7930    1.8560   -2.0700 F       1  UNL1       -0.2047
     22  N3         1.8080    0.6190    0.9590 N.am    1  UNL1       -0.2945
     23  C17        2.6390    1.2340    1.9520 C.3     1  UNL1        0.0308
     24  C18        3.9200    0.4160    2.1770 C.3     1  UNL1        0.0305
     25  N4         4.5120    0.0560    0.9120 N.am    1  UNL1       -0.2983
     26  C19        5.9050    0.1900    0.6910 C.2     1  UNL1        0.2187
     27  O3         6.6580    0.6300    1.6020 O.2     1  UNL1       -0.2753
     28  C20        6.5430   -0.1720   -0.5990 C.3     1  UNL1        0.0358
     29  C21        7.8310    0.3870   -1.0080 C.3     1  UNL1       -0.0412
     30  C22        7.8560   -0.9890   -0.5020 C.3     1  UNL1       -0.0412
     31  C23        3.6890   -0.4500   -0.1500 C.3     1  UNL1        0.0305
     32  C24        2.2710   -0.6010    0.3580 C.3     1  UNL1        0.0308
     33 H          -1.4341   -0.5581    0.8753 H       1  UNL1        0.0629
     34 H          -3.1589   -2.0995    0.2458 H       1  UNL1        0.0377
     35 H          -3.1920   -2.5379   -1.4810 H       1  UNL1        0.0377
     36 H          -6.8708   -1.0268   -3.1771 H       1  UNL1        0.1921
     37 H          -8.0023    1.2780    0.5911 H       1  UNL1        0.0625
     38 H          -6.9690    1.6925    2.7503 H       1  UNL1        0.0618
     39 H          -4.7957    0.7326    3.1541 H       1  UNL1        0.0618
     40 H          -3.6831   -0.5947    1.4784 H       1  UNL1        0.0624
     41 H          -2.6528   -0.8160   -3.1090 H       1  UNL1        0.0621
     42 H          -0.9165    0.7398   -3.7071 H       1  UNL1        0.0646
     43 H           2.0971    1.2968    2.8725 H       1  UNL1        0.0480
     44 H           2.9122    2.2111    1.6121 H       1  UNL1        0.0480
     45 H           3.6798   -0.4739    2.7204 H       1  UNL1        0.0480
     46 H           4.6178    1.0072    2.7324 H       1  UNL1        0.0480
     47 H           5.5891   -0.2447   -1.0782 H       1  UNL1        0.0394
     48 H           8.2724    1.1681   -0.4249 H       1  UNL1        0.0273
     49 H           8.1793    0.8430   -1.9111 H       1  UNL1        0.0273
     50 H           8.0342   -1.8068   -1.1686 H       1  UNL1        0.0273
     51 H           8.3787   -1.5143    0.2699 H       1  UNL1        0.0273
     52 H           4.0594   -1.4017   -0.4692 H       1  UNL1        0.0480
     53 H           3.7074    0.2281   -0.9775 H       1  UNL1        0.0480
     54 H           1.6305   -0.8528   -0.4613 H       1  UNL1        0.0480
     55 H           2.2538   -1.3739    1.0977 H       1  UNL1        0.0480
@<TRIPOS>BOND
     1     1     2    2
     2     2     3    1
     3     2    22   am
     4     3     4   ar
     5     3    20   ar
     6     4     5   ar
     7     5     6    1
     8     5    18   ar
     9     6     7    1
    10     7     8   ar
    11     7    17   ar
    12     8     9   ar
    13     9    10   ar
    14    10    11    2
    15    10    12   ar
    16    12    13   ar
    17    12    17   ar
    18    13    14   ar
    19    14    15   ar
    20    15    16   ar
    21    16    17   ar
    22    18    19   ar
    23    19    20   ar
    24    20    21    1
    25    22    23    1
    26    22    32    1
    27    23    24    1
    28    24    25    1
    29    25    26   am
    30    25    31    1
    31    26    27    2
    32    26    28    1
    33    28    29    1
    34    28    30    1
    35    29    30    1
    36    31    32    1
    37     4    33    1
    38     6    34    1
    39     6    35    1
    40     9    36    1
    41    13    37    1
    42    14    38    1
    43    15    39    1
    44    16    40    1
    45    18    41    1
    46    19    42    1
    47    23    43    1
    48    23    44    1
    49    24    45    1
    50    24    46    1
    51    28    47    1
    52    29    48    1
    53    29    49    1
    54    30    50    1
    55    30    51    1
    56    31    52    1
    57    31    53    1
    58    32    54    1
    59    32    55    1
@<TRIPOS>MOLECULE
../data/bude_mols_rdkit_confs/molecule_2.pdb
 55 59 0 0 0
SMALL
GASTEIGER

@<TRIPOS>ATOM
      1  O1        -0.8450   -2.5500   -2.7180 O.2     1  UNL1       -0.2699
      2  C1        -0.9030   -1.6360   -1.8330 C.2     1  UNL1        0.2495
      3  C2         0.2840   -0.8860   -1.4390 C.ar    1  UNL1        0.0723
      4  C3         1.1400   -1.2510   -0.4260 C.ar    1  UNL1       -0.0433
      5  C4         2.2540   -0.5030   -0.0950 C.ar    1  UNL1       -0.0406
      6  C5         3.1190   -0.9610    1.0150 C.3     1  UNL1        0.0171
      7  C6         4.1410    0.0110    1.3860 C.ar    1  UNL1        0.0736
      8  N1         4.0020    0.8190    2.4720 N.ar    1  UNL1       -0.1750
      9  N2         4.8860    1.7080    2.8300 N.ar    1  UNL1       -0.2425
     10  C7         6.0110    1.8820    2.1330 C.ar    1  UNL1        0.2725
     11  O2         6.8800    2.7520    2.4810 O.2     1  UNL1       -0.2658
     12  C8         6.2370    1.1120    1.0240 C.ar    1  UNL1        0.0496
     13  C9         7.4010    1.2910    0.3090 C.ar    1  UNL1       -0.0487
     14  C10        7.6340    0.5170   -0.8000 C.ar    1  UNL1       -0.0610
     15  C11        6.6870   -0.4260   -1.1730 C.ar    1  UNL1       -0.0611
     16  C12        5.5260   -0.5920   -0.4470 C.ar    1  UNL1       -0.0521
     17  C13        5.2920    0.1740    0.6560 C.ar    1  UNL1        0.0106
     18  C14        2.5280    0.6470   -0.7920 C.ar    1  UNL1       -0.0555
     19  C15        1.6780    1.0350   -1.8180 C.ar    1  UNL1       -0.0254
     20  C16        0.5660    0.2700   -2.1350 C.ar    1  UNL1        0.1355
     21  F1        -0.2570    0.6540   -3.1370 F       1  UNL1       -0.2047
     22  N3        -2.1710   -1.3840   -1.2520 N.am    1  UNL1       -0.2945
     23  C17       -3.3480   -2.1390   -1.6580 C.3     1  UNL1        0.0308
     24  C18       -4.5520   -1.2200   -1.7620 C.3     1  UNL1        0.0305
     25  N4        -4.7470   -0.5720   -0.4710 N.am    1  UNL1       -0.2983
     26  C19       -5.9930    0.0530   -0.2090 C.2     1  UNL1        0.2187
     27  O3        -6.8660    0.0080   -1.1490 O.2     1  UNL1       -0.2753
     28  C20       -6.3430    0.7390    1.0490 C.3     1  UNL1        0.0358
     29  C21       -7.7600    0.7970    1.5000 C.3     1  UNL1       -0.0412
     30  C22       -7.1630    2.0050    0.8170 C.3     1  UNL1       -0.0412
     31  C23       -3.6790   -0.5910    0.4760 C.3     1  UNL1        0.0305
     32  C24       -2.3410   -0.3570   -0.2280 C.3     1  UNL1        0.0308
     33 H           0.9435   -2.1136    0.1054 H       1  UNL1        0.0629
     34 H           3.6038   -1.8670    0.7167 H       1  UNL1        0.0377
     35 H           2.4909   -1.1036    1.8694 H       1  UNL1        0.0377
     36 H           4.7209    2.2604    3.6280 H       1  UNL1        0.1921
     37 H           8.0905    1.9998    0.6043 H       1  UNL1        0.0625
     38 H           8.5004    0.6345   -1.3482 H       1  UNL1        0.0618
     39 H           6.8538   -1.0119   -2.0060 H       1  UNL1        0.0618
     40 H           4.8326   -1.2981   -0.7397 H       1  UNL1        0.0624
     41 H           3.3559    1.2162   -0.5561 H       1  UNL1        0.0621
     42 H           1.8748    1.8982   -2.3483 H       1  UNL1        0.0646
     43 H          -3.5465   -2.9005   -0.9330 H       1  UNL1        0.0480
     44 H          -3.1647   -2.5828   -2.6142 H       1  UNL1        0.0480
     45 H          -5.4213   -1.7901   -2.0155 H       1  UNL1        0.0480
     46 H          -4.3896   -0.4849   -2.5223 H       1  UNL1        0.0480
     47 H          -5.4444    0.4495    1.5526 H       1  UNL1        0.0394
     48 H          -7.9842    0.8339    2.5456 H       1  UNL1        0.0273
     49 H          -8.6260    0.1918    1.3310 H       1  UNL1        0.0273
     50 H          -7.4726    2.2724   -0.1717 H       1  UNL1        0.0273
     51 H          -7.0523    3.0417    1.0574 H       1  UNL1        0.0273
     52 H          -3.6585   -1.5420    0.9659 H       1  UNL1        0.0480
     53 H          -3.8358    0.1874    1.1932 H       1  UNL1        0.0480
     54 H          -2.3372    0.6112   -0.6836 H       1  UNL1        0.0480
     55 H          -1.5402   -0.4085    0.4797 H       1  UNL1        0.0480
@<TRIPOS>BOND
     1     1     2    2
     2     2     3    1
     3     2    22   am
     4     3     4   ar
     5     3    20   ar
     6     4     5   ar
     7     5     6    1
     8     5    18   ar
     9     6     7    1
    10     7     8   ar
    11     7    17   ar
    12     8     9   ar
    13     9    10   ar
    14    10    11    2
    15    10    12   ar
    16    12    13   ar
    17    12    17   ar
    18    13    14   ar
    19    14    15   ar
    20    15    16   ar
    21    16    17   ar
    22    18    19   ar
    23    19    20   ar
    24    20    21    1
    25    22    23    1
    26    22    32    1
    27    23    24    1
    28    24    25    1
    29    25    26   am
    30    25    31    1
    31    26    27    2
    32    26    28    1
    33    28    29    1
    34    28    30    1
    35    29    30    1
    36    31    32    1
    37     4    33    1
    38     6    34    1
    39     6    35    1
    40     9    36    1
    41    13    37    1
    42    14    38    1
    43    15    39    1
    44    16    40    1
    45    18    41    1
    46    19    42    1
    47    23    43    1
    48    23    44    1
    49    24    45    1
    50    24    46    1
    51    28    47    1
    52    29    48    1
    53    29    49    1
    54    30    50    1
    55    30    51    1
    56    31    52    1
    57    31    53    1
    58    32    54    1
    59    32    55    1
@<TRIPOS>MOLECULE
../data/bude_mols_rdkit_confs/molecule_2.pdb
 55 59 0 0 0
SMALL
GASTEIGER

@<TRIPOS>ATOM
      1  O1         0.1770   -1.9880    1.9160 O.2     1  UNL1       -0.2699
      2  C1         0.5710   -1.0710    1.1570 C.2     1  UNL1        0.2495
      3  C2        -0.2890    0.0610    0.8520 C.ar    1  UNL1        0.0723
      4  C3        -1.1540    0.0520   -0.2170 C.ar    1  UNL1       -0.0433
      5  C4        -1.9960    1.1300   -0.5320 C.ar    1  UNL1       -0.0406
      6  C5        -2.8760    1.0390   -1.7210 C.3     1  UNL1        0.0171
      7  C6        -3.9710    0.0470   -1.5020 C.ar    1  UNL1        0.0736
      8  N1        -3.7630   -1.2040   -1.9720 N.ar    1  UNL1       -0.1750
      9  N2        -4.6680   -2.1330   -1.7680 N.ar    1  UNL1       -0.2425
     10  C7        -5.8100   -1.9070   -1.1060 C.ar    1  UNL1        0.2725
     11  O2        -6.6540   -2.8270   -0.9300 O.2     1  UNL1       -0.2658
     12  C8        -6.0750   -0.6510   -0.6070 C.ar    1  UNL1        0.0496
     13  C9        -7.2620   -0.3890    0.0740 C.ar    1  UNL1       -0.0487
     14  C10       -7.4790    0.8900    0.5390 C.ar    1  UNL1       -0.0610
     15  C11       -6.5280    1.8650    0.3210 C.ar    1  UNL1       -0.0611
     16  C12       -5.3550    1.5990   -0.3530 C.ar    1  UNL1       -0.0521
     17  C13       -5.1100    0.3380   -0.8260 C.ar    1  UNL1        0.0106
     18  C14       -1.9010    2.2070    0.3000 C.ar    1  UNL1       -0.0555
     19  C15       -1.0290    2.2340    1.3910 C.ar    1  UNL1       -0.0254
     20  C16       -0.2180    1.1660    1.6760 C.ar    1  UNL1        0.1355
     21  F1         0.6360    1.1750    2.7300 F       1  UNL1       -0.2047
     22  N3         1.8530   -1.1390    0.5980 N.am    1  UNL1       -0.2945
     23  C17        2.7230   -2.2500    0.8860 C.3     1  UNL1        0.0308
     24  C18        3.7970   -2.2760   -0.2090 C.3     1  UNL1        0.0305
     25  N4         4.5660   -1.0290   -0.0250 N.am    1  UNL1       -0.2983
     26  C19        5.9600   -1.1550    0.1030 C.2     1  UNL1        0.2187
     27  O3         6.4610   -2.3690    0.0810 O.2     1  UNL1       -0.2753
     28  C20        6.9730   -0.1140    0.2630 C.3     1  UNL1        0.0358
     29  C21        6.7560    1.3130    0.4510 C.3     1  UNL1       -0.0412
     30  C22        7.0230    0.8690   -0.9360 C.3     1  UNL1       -0.0412
     31  C23        3.8250    0.1870    0.0280 C.3     1  UNL1        0.0305
     32  C24        2.3280   -0.0960   -0.2750 C.3     1  UNL1        0.0308
     33 H          -1.1856   -0.7875   -0.8163 H       1  UNL1        0.0629
     34 H          -2.2930    0.7358   -2.5654 H       1  UNL1        0.0377
     35 H          -3.3155    1.9991   -1.8941 H       1  UNL1        0.0377
     36 H          -4.4993   -3.0376   -2.1179 H       1  UNL1        0.1921
     37 H          -7.9605   -1.1333    0.2262 H       1  UNL1        0.0625
     38 H          -8.3480    1.1170    1.0474 H       1  UNL1        0.0618
     39 H          -6.6992    2.8202    0.6722 H       1  UNL1        0.0618
     40 H          -4.6625    2.3497   -0.5007 H       1  UNL1        0.0624
     41 H          -2.4945    3.0312    0.1168 H       1  UNL1        0.0621
     42 H          -0.9947    3.0719    1.9925 H       1  UNL1        0.0646
     43 H           2.1668   -3.1640    0.8766 H       1  UNL1        0.0480
     44 H           3.1675   -2.1454    1.8537 H       1  UNL1        0.0480
     45 H           3.3444   -2.2984   -1.1783 H       1  UNL1        0.0480
     46 H           4.4189   -3.1439   -0.1393 H       1  UNL1        0.0480
     47 H           7.5804   -0.7900    0.8278 H       1  UNL1        0.0394
     48 H           7.4928    1.8921    0.9674 H       1  UNL1        0.0273
     49 H           5.9705    1.8833    0.9011 H       1  UNL1        0.0273
     50 H           6.2412    0.8732   -1.6665 H       1  UNL1        0.0273
     51 H           7.7273    1.1153   -1.7029 H       1  UNL1        0.0273
     52 H           4.2115    0.8706   -0.6988 H       1  UNL1        0.0480
     53 H           3.9134    0.6125    1.0058 H       1  UNL1        0.0480
     54 H           1.7563    0.7937   -0.1125 H       1  UNL1        0.0480
     55 H           2.2214   -0.4058   -1.2936 H       1  UNL1        0.0480
@<TRIPOS>BOND
     1     1     2    2
     2     2     3    1
     3     2    22   am
     4     3     4   ar
     5     3    20   ar
     6     4     5   ar
     7     5     6    1
     8     5    18   ar
     9     6     7    1
    10     7     8   ar
    11     7    17   ar
    12     8     9   ar
    13     9    10   ar
    14    10    11    2
    15    10    12   ar
    16    12    13   ar
    17    12    17   ar
    18    13    14   ar
    19    14    15   ar
    20    15    16   ar
    21    16    17   ar
    22    18    19   ar
    23    19    20   ar
    24    20    21    1
    25    22    23    1
    26    22    32    1
    27    23    24    1
    28    24    25    1
    29    25    26   am
    30    25    31    1
    31    26    27    2
    32    26    28    1
    33    28    29    1
    34    28    30    1
    35    29    30    1
    36    31    32    1
    37     4    33    1
    38     6    34    1
    39     6    35    1
    40     9    36    1
    41    13    37    1
    42    14    38    1
    43    15    39    1
    44    16    40    1
    45    18    41    1
    46    19    42    1
    47    23    43    1
    48    23    44    1
    49    24    45    1
    50    24    46    1
    51    28    47    1
    52    29    48    1
    53    29    49    1
    54    30    50    1
    55    30    51    1
    56    31    52    1
    57    31    53    1
    58    32    54    1
    59    32    55    1
@<TRIPOS>MOLECULE
../data/bude_mols_rdkit_confs/molecule_2.pdb
 55 59 0 0 0
SMALL
GASTEIGER

@<TRIPOS>ATOM
      1  O1         0.1680   -2.4470   -0.1850 O.2     1  UNL1       -0.2699
      2  C1         0.5370   -1.3230    0.2640 C.2     1  UNL1        0.2495
      3  C2        -0.4400   -0.6150    1.0880 C.ar    1  UNL1        0.0723
      4  C3        -1.3450    0.2690    0.4870 C.ar    1  UNL1       -0.0433
      5  C4        -2.2730    0.9480    1.2160 C.ar    1  UNL1       -0.0406
      6  C5        -3.2750    1.8900    0.6660 C.3     1  UNL1        0.0171
      7  C6        -4.5850    1.2930    0.6280 C.ar    1  UNL1        0.0736
      8  N1        -5.4140    1.5510    1.6880 N.ar    1  UNL1       -0.1750
      9  N2        -6.6180    1.0320    1.8010 N.ar    1  UNL1       -0.2425
     10  C7        -7.1520    0.2010    0.8930 C.ar    1  UNL1        0.2725
     11  O2        -8.3030   -0.2880    1.0140 O.2     1  UNL1       -0.2658
     12  C8        -6.3900   -0.1080   -0.1990 C.ar    1  UNL1        0.0496
     13  C9        -6.8510   -0.9420   -1.1950 C.ar    1  UNL1       -0.0487
     14  C10       -6.0600   -1.2260   -2.2960 C.ar    1  UNL1       -0.0610
     15  C11       -4.8090   -0.6900   -2.4240 C.ar    1  UNL1       -0.0611
     16  C12       -4.3560    0.1500   -1.4100 C.ar    1  UNL1       -0.0521
     17  C13       -5.1210    0.4440   -0.3100 C.ar    1  UNL1        0.0106
     18  C14       -2.3100    0.7480    2.6030 C.ar    1  UNL1       -0.0555
     19  C15       -1.4240   -0.1180    3.2050 C.ar    1  UNL1       -0.0254
     20  C16       -0.4850   -0.8030    2.4430 C.ar    1  UNL1        0.1355
     21  F1         0.3860   -1.6560    3.0330 F       1  UNL1       -0.2047
     22  N3         1.8010   -0.7660    0.0040 N.am    1  UNL1       -0.2945
     23  C17        2.7570   -1.4710   -0.8090 C.3     1  UNL1        0.0308
     24  C18        4.1360   -1.1810   -0.1810 C.3     1  UNL1        0.0305
     25  N4         4.4130    0.2070   -0.3970 N.am    1  UNL1       -0.2983
     26  C19        5.6630    0.6860   -0.7570 C.2     1  UNL1        0.2187
     27  O3         5.8310    1.9400   -0.9450 O.2     1  UNL1       -0.2753
     28  C20        6.8340   -0.1760   -0.9390 C.3     1  UNL1        0.0358
     29  C21        8.2110    0.3650   -0.7800 C.3     1  UNL1       -0.0412
     30  C22        7.6610    0.1850   -2.1700 C.3     1  UNL1       -0.0412
     31  C23        3.2980    1.1540   -0.2140 C.3     1  UNL1        0.0305
     32  C24        2.1530    0.5160    0.5450 C.3     1  UNL1        0.0308
     33 H          -1.3074    0.4093   -0.5347 H       1  UNL1        0.0629
     34 H          -2.9876    2.1645   -0.3274 H       1  UNL1        0.0377
     35 H          -3.3135    2.7516    1.2992 H       1  UNL1        0.0377
     36 H          -7.1546    1.2655    2.5927 H       1  UNL1        0.1921
     37 H          -7.7925   -1.3579   -1.1198 H       1  UNL1        0.0625
     38 H          -6.4211   -1.8528   -3.0320 H       1  UNL1        0.0618
     39 H          -4.2200   -0.9009   -3.2447 H       1  UNL1        0.0618
     40 H          -3.4143    0.5648   -1.4886 H       1  UNL1        0.0624
     41 H          -3.0046    1.2522    3.1760 H       1  UNL1        0.0621
     42 H          -1.4576   -0.2589    4.2268 H       1  UNL1        0.0646
     43 H           2.7240   -1.1142   -1.8172 H       1  UNL1        0.0480
     44 H           2.5506   -2.5205   -0.8397 H       1  UNL1        0.0480
     45 H           4.8866   -1.7824   -0.6497 H       1  UNL1        0.0480
     46 H           4.1348   -1.4112    0.8640 H       1  UNL1        0.0480
     47 H           6.3509   -1.0353   -0.5229 H       1  UNL1        0.0394
     48 H           8.9960   -0.2735   -0.4323 H       1  UNL1        0.0273
     49 H           8.6353    1.1875   -0.2430 H       1  UNL1        0.0273
     50 H           7.4020    1.0385   -2.7611 H       1  UNL1        0.0273
     51 H           7.9758   -0.3269   -3.0553 H       1  UNL1        0.0273
     52 H           2.9469    1.4689   -1.1745 H       1  UNL1        0.0480
     53 H           3.6540    1.9896    0.3516 H       1  UNL1        0.0480
     54 H           2.4422    0.3923    1.5677 H       1  UNL1        0.0480
     55 H           1.3006    1.1572    0.4601 H       1  UNL1        0.0480
@<TRIPOS>BOND
     1     1     2    2
     2     2     3    1
     3     2    22   am
     4     3     4   ar
     5     3    20   ar
     6     4     5   ar
     7     5     6    1
     8     5    18   ar
     9     6     7    1
    10     7     8   ar
    11     7    17   ar
    12     8     9   ar
    13     9    10   ar
    14    10    11    2
    15    10    12   ar
    16    12    13   ar
    17    12    17   ar
    18    13    14   ar
    19    14    15   ar
    20    15    16   ar
    21    16    17   ar
    22    18    19   ar
    23    19    20   ar
    24    20    21    1
    25    22    23    1
    26    22    32    1
    27    23    24    1
    28    24    25    1
    29    25    26   am
    30    25    31    1
    31    26    27    2
    32    26    28    1
    33    28    29    1
    34    28    30    1
    35    29    30    1
    36    31    32    1
    37     4    33    1
    38     6    34    1
    39     6    35    1
    40     9    36    1
    41    13    37    1
    42    14    38    1
    43    15    39    1
    44    16    40    1
    45    18    41    1
    46    19    42    1
    47    23    43    1
    48    23    44    1
    49    24    45    1
    50    24    46    1
    51    28    47    1
    52    29    48    1
    53    29    49    1
    54    30    50    1
    55    30    51    1
    56    31    52    1
    57    31    53    1
    58    32    54    1
    59    32    55    1
@<TRIPOS>MOLECULE
../data/bude_mols_rdkit_confs/molecule_2.pdb
 55 59 0 0 0
SMALL
GASTEIGER

@<TRIPOS>ATOM
      1  O1         1.4650    2.8540   -1.6720 O.2     1  UNL1       -0.2699
      2  C1         1.2250    1.8340   -0.9360 C.2     1  UNL1        0.2495
      3  C2         0.1720    2.0530    0.0550 C.ar    1  UNL1        0.0723
      4  C3        -1.1300    1.7710   -0.3020 C.ar    1  UNL1       -0.0433
      5  C4        -2.1830    1.9580    0.5960 C.ar    1  UNL1       -0.0406
      6  C5        -3.5700    1.6410    0.1730 C.3     1  UNL1        0.0171
      7  C6        -3.9040    0.2240    0.4800 C.ar    1  UNL1        0.0736
      8  N1        -3.0310   -0.6210    1.0650 N.ar    1  UNL1       -0.1750
      9  N2        -3.3690   -1.8820    1.3240 N.ar    1  UNL1       -0.2425
     10  C7        -4.5860   -2.3790    1.0190 C.ar    1  UNL1        0.2725
     11  O2        -4.8910   -3.5730    1.2700 O.2     1  UNL1       -0.2658
     12  C8        -5.5110   -1.5360    0.4160 C.ar    1  UNL1        0.0496
     13  C9        -6.7730   -1.9900    0.0820 C.ar    1  UNL1       -0.0487
     14  C10       -7.6630   -1.1110   -0.5200 C.ar    1  UNL1       -0.0610
     15  C11       -7.3220    0.1910   -0.7890 C.ar    1  UNL1       -0.0611
     16  C12       -6.0600    0.6520   -0.4580 C.ar    1  UNL1       -0.0521
     17  C13       -5.1640   -0.2300    0.1470 C.ar    1  UNL1        0.0106
     18  C14       -1.8890    2.4340    1.8510 C.ar    1  UNL1       -0.0555
     19  C15       -0.5640    2.7130    2.1890 C.ar    1  UNL1       -0.0254
     20  C16        0.4770    2.5270    1.3000 C.ar    1  UNL1        0.1355
     21  F1         1.7620    2.8170    1.6820 F       1  UNL1       -0.2047
     22  N3         1.9120    0.6260   -1.0740 N.am    1  UNL1       -0.2945
     23  C17        2.9380    0.4430   -2.0540 C.3     1  UNL1        0.0308
     24  C18        4.2430    0.2170   -1.2590 C.3     1  UNL1        0.0305
     25  N4         4.0260   -0.8860   -0.3780 N.am    1  UNL1       -0.2983
     26  C19        5.0320   -1.3960    0.4600 C.2     1  UNL1        0.2187
     27  O3         4.6640   -2.3760    1.2270 O.2     1  UNL1       -0.2753
     28  C20        6.4270   -1.0010    0.6140 C.3     1  UNL1        0.0358
     29  C21        7.2890   -1.1420   -0.6550 C.3     1  UNL1       -0.0412
     30  C22        7.1080    0.1400    0.0250 C.3     1  UNL1       -0.0412
     31  C23        2.7140   -1.5390   -0.3090 C.3     1  UNL1        0.0305
     32  C24        1.6110   -0.5000   -0.2240 C.3     1  UNL1        0.0308
     33 H          -1.3297    1.4153   -1.2500 H       1  UNL1        0.0629
     34 H          -3.6612    1.8027   -0.8808 H       1  UNL1        0.0377
     35 H          -4.2455    2.2765    0.7066 H       1  UNL1        0.0377
     36 H          -2.7083   -2.4726    1.7529 H       1  UNL1        0.1921
     37 H          -7.0488   -2.9652    0.2767 H       1  UNL1        0.0625
     38 H          -8.6062   -1.4455   -0.7720 H       1  UNL1        0.0618
     39 H          -8.0039    0.8235   -1.2362 H       1  UNL1        0.0618
     40 H          -5.7872    1.6277   -0.6545 H       1  UNL1        0.0624
     41 H          -2.6432    2.5842    2.5392 H       1  UNL1        0.0621
     42 H          -0.3549    3.0701    3.1344 H       1  UNL1        0.0646
     43 H           3.0234    1.3130   -2.6711 H       1  UNL1        0.0480
     44 H           2.7227   -0.3818   -2.7007 H       1  UNL1        0.0480
     45 H           4.4826    1.0936   -0.6941 H       1  UNL1        0.0480
     46 H           5.0571    0.0134   -1.9228 H       1  UNL1        0.0480
     47 H           6.3726   -1.3236    1.6328 H       1  UNL1        0.0394
     48 H           6.8287   -1.3203   -1.6043 H       1  UNL1        0.0273
     49 H           8.1225   -1.7419   -0.9555 H       1  UNL1        0.0273
     50 H           7.9348    0.5812    0.5413 H       1  UNL1        0.0273
     51 H           6.7778    1.1040   -0.3013 H       1  UNL1        0.0273
     52 H           2.6766   -2.1649    0.5580 H       1  UNL1        0.0480
     53 H           2.5711   -2.1261   -1.1920 H       1  UNL1        0.0480
     54 H           0.6873   -0.9404   -0.5367 H       1  UNL1        0.0480
     55 H           1.5331   -0.1595    0.7874 H       1  UNL1        0.0480
@<TRIPOS>BOND
     1     1     2    2
     2     2     3    1
     3     2    22   am
     4     3     4   ar
     5     3    20   ar
     6     4     5   ar
     7     5     6    1
     8     5    18   ar
     9     6     7    1
    10     7     8   ar
    11     7    17   ar
    12     8     9   ar
    13     9    10   ar
    14    10    11    2
    15    10    12   ar
    16    12    13   ar
    17    12    17   ar
    18    13    14   ar
    19    14    15   ar
    20    15    16   ar
    21    16    17   ar
    22    18    19   ar
    23    19    20   ar
    24    20    21    1
    25    22    23    1
    26    22    32    1
    27    23    24    1
    28    24    25    1
    29    25    26   am
    30    25    31    1
    31    26    27    2
    32    26    28    1
    33    28    29    1
    34    28    30    1
    35    29    30    1
    36    31    32    1
    37     4    33    1
    38     6    34    1
    39     6    35    1
    40     9    36    1
    41    13    37    1
    42    14    38    1
    43    15    39    1
    44    16    40    1
    45    18    41    1
    46    19    42    1
    47    23    43    1
    48    23    44    1
    49    24    45    1
    50    24    46    1
    51    28    47    1
    52    29    48    1
    53    29    49    1
    54    30    50    1
    55    30    51    1
    56    31    52    1
    57    31    53    1
    58    32    54    1
    59    32    55    1
@<TRIPOS>MOLECULE
../data/bude_mols_rdkit_confs/molecule_2.pdb
 55 59 0 0 0
SMALL
GASTEIGER

@<TRIPOS>ATOM
      1  O1        -0.6750   -2.3860    0.7880 O.2     1  UNL1       -0.2699
      2  C1        -0.8910   -1.1490    0.6270 C.2     1  UNL1        0.2495
      3  C2         0.0140   -0.4130   -0.2530 C.ar    1  UNL1        0.0723
      4  C3         1.1500    0.1900    0.2260 C.ar    1  UNL1       -0.0433
      5  C4         1.9980    0.8910   -0.6480 C.ar    1  UNL1       -0.0406
      6  C5         3.2100    1.5560   -0.0860 C.3     1  UNL1        0.0171
      7  C6         4.2650    0.6390    0.3370 C.ar    1  UNL1        0.0736
      8  N1         4.3530    0.2980    1.6620 N.ar    1  UNL1       -0.1750
      9  N2         5.2570   -0.5490    2.1160 N.ar    1  UNL1       -0.2425
     10  C7         6.1600   -1.1470    1.3330 C.ar    1  UNL1        0.2725
     11  O2         7.0320   -1.9600    1.7440 O.2     1  UNL1       -0.2658
     12  C8         6.1500   -0.8620   -0.0300 C.ar    1  UNL1        0.0496
     13  C9         7.0700   -1.4500   -0.8600 C.ar    1  UNL1       -0.0487
     14  C10        7.0680   -1.1600   -2.2000 C.ar    1  UNL1       -0.0610
     15  C11        6.1220   -0.2740   -2.6540 C.ar    1  UNL1       -0.0611
     16  C12        5.1940    0.3190   -1.8200 C.ar    1  UNL1       -0.0521
     17  C13        5.1810    0.0410   -0.4830 C.ar    1  UNL1        0.0106
     18  C14        1.6390    0.9400   -1.9700 C.ar    1  UNL1       -0.0555
     19  C15        0.4880    0.3320   -2.4700 C.ar    1  UNL1       -0.0254
     20  C16       -0.3220   -0.3470   -1.5890 C.ar    1  UNL1        0.1355
     21  F1        -1.4570   -0.9460   -2.0800 F       1  UNL1       -0.2047
     22  N3        -1.9730   -0.5570    1.2940 N.am    1  UNL1       -0.2945
     23  C17       -2.2970    0.8410    1.1740 C.3     1  UNL1        0.0308
     24  C18       -3.7390    0.9900    0.6570 C.3     1  UNL1        0.0305
     25  N4        -4.6170    0.1550    1.4080 N.am    1  UNL1       -0.2983
     26  C19       -5.9740   -0.1220    1.1380 C.2     1  UNL1        0.2187
     27  O3        -6.5410   -0.8990    2.0050 O.2     1  UNL1       -0.2753
     28  C20       -6.8280    0.3250    0.0550 C.3     1  UNL1        0.0358
     29  C21       -6.5410    1.4290   -0.8910 C.3     1  UNL1       -0.0412
     30  C22       -6.3640    0.0440   -1.3890 C.3     1  UNL1       -0.0412
     31  C23       -4.0220   -0.4820    2.6070 C.3     1  UNL1        0.0305
     32  C24       -2.8300   -1.3440    2.1510 C.3     1  UNL1        0.0308
     33 H           1.3818    0.1285    1.2298 H       1  UNL1        0.0629
     34 H           2.9101    2.1343    0.7629 H       1  UNL1        0.0377
     35 H           3.6227    2.1507   -0.8740 H       1  UNL1        0.0377
     36 H           5.2668   -0.7505    3.0796 H       1  UNL1        0.1921
     37 H           7.7636   -2.1106   -0.4760 H       1  UNL1        0.0625
     38 H           7.7510   -1.5908   -2.8426 H       1  UNL1        0.0618
     39 H           6.1036   -0.0417   -3.6593 H       1  UNL1        0.0618
     40 H           4.5036    0.9787   -2.2113 H       1  UNL1        0.0624
     41 H           2.2496    1.4512   -2.6265 H       1  UNL1        0.0621
     42 H           0.2504    0.3897   -3.4726 H       1  UNL1        0.0646
     43 H          -1.6216    1.3061    0.4866 H       1  UNL1        0.0480
     44 H          -2.2106    1.3110    2.1314 H       1  UNL1        0.0480
     45 H          -3.7765    0.7064   -0.3740 H       1  UNL1        0.0480
     46 H          -4.0465    2.0091    0.7655 H       1  UNL1        0.0480
     47 H          -7.6639    0.1287    0.6934 H       1  UNL1        0.0394
     48 H          -5.6818    2.0474   -0.7351 H       1  UNL1        0.0273
     49 H          -7.1001    2.2740   -1.2348 H       1  UNL1        0.0273
     50 H          -7.0475   -0.3625   -2.1049 H       1  UNL1        0.0273
     51 H          -5.5682   -0.5095   -1.8421 H       1  UNL1        0.0273
     52 H          -4.7514   -1.0984    3.0895 H       1  UNL1        0.0480
     53 H          -3.6948    0.2654    3.2992 H       1  UNL1        0.0480
     54 H          -2.2770   -1.6710    3.0067 H       1  UNL1        0.0480
     55 H          -3.1887   -2.1971    1.6140 H       1  UNL1        0.0480
@<TRIPOS>BOND
     1     1     2    2
     2     2     3    1
     3     2    22   am
     4     3     4   ar
     5     3    20   ar
     6     4     5   ar
     7     5     6    1
     8     5    18   ar
     9     6     7    1
    10     7     8   ar
    11     7    17   ar
    12     8     9   ar
    13     9    10   ar
    14    10    11    2
    15    10    12   ar
    16    12    13   ar
    17    12    17   ar
    18    13    14   ar
    19    14    15   ar
    20    15    16   ar
    21    16    17   ar
    22    18    19   ar
    23    19    20   ar
    24    20    21    1
    25    22    23    1
    26    22    32    1
    27    23    24    1
    28    24    25    1
    29    25    26   am
    30    25    31    1
    31    26    27    2
    32    26    28    1
    33    28    29    1
    34    28    30    1
    35    29    30    1
    36    31    32    1
    37     4    33    1
    38     6    34    1
    39     6    35    1
    40     9    36    1
    41    13    37    1
    42    14    38    1
    43    15    39    1
    44    16    40    1
    45    18    41    1
    46    19    42    1
    47    23    43    1
    48    23    44    1
    49    24    45    1
    50    24    46    1
    51    28    47    1
    52    29    48    1
    53    29    49    1
    54    30    50    1
    55    30    51    1
    56    31    52    1
    57    31    53    1
    58    32    54    1
    59    32    55    1
@<TRIPOS>MOLECULE
../data/bude_mols_rdkit_confs/molecule_2.pdb
 55 59 0 0 0
SMALL
GASTEIGER

@<TRIPOS>ATOM
      1  O1         1.2030   -3.3490    0.8990 O.2     1  UNL1       -0.2699
      2  C1         1.2430   -2.1780    0.4200 C.2     1  UNL1        0.2495
      3  C2         0.0230   -1.4000    0.5620 C.ar    1  UNL1        0.0723
      4  C3        -0.9890   -1.4040   -0.3720 C.ar    1  UNL1       -0.0433
      5  C4        -2.1530   -0.6690   -0.2420 C.ar    1  UNL1       -0.0406
      6  C5        -3.1440   -0.7480   -1.3230 C.3     1  UNL1        0.0171
      7  C6        -4.1240    0.3370   -1.3750 C.ar    1  UNL1        0.0736
      8  N1        -4.0080    1.4090   -2.1820 N.ar    1  UNL1       -0.1750
      9  N2        -4.8940    2.3880   -2.1970 N.ar    1  UNL1       -0.2425
     10  C7        -5.9750    2.3830   -1.4060 C.ar    1  UNL1        0.2725
     11  O2        -6.8310    3.3000   -1.4010 O.2     1  UNL1       -0.2658
     12  C8        -6.1720    1.3280   -0.5520 C.ar    1  UNL1        0.0496
     13  C9        -7.2730    1.2660    0.2760 C.ar    1  UNL1       -0.0487
     14  C10       -7.4310    0.1780    1.1050 C.ar    1  UNL1       -0.0610
     15  C11       -6.5270   -0.8630    1.1460 C.ar    1  UNL1       -0.0611
     16  C12       -5.4270   -0.7730    0.3020 C.ar    1  UNL1       -0.0521
     17  C13       -5.2270    0.3020   -0.5490 C.ar    1  UNL1        0.0106
     18  C14       -2.2990    0.1030    0.8810 C.ar    1  UNL1       -0.0555
     19  C15       -1.2760    0.1100    1.8290 C.ar    1  UNL1       -0.0254
     20  C16       -0.1220   -0.6260    1.6890 C.ar    1  UNL1        0.1355
     21  F1         0.8630   -0.5860    2.6550 F       1  UNL1       -0.2047
     22  N3         2.4150   -1.7330   -0.1910 N.am    1  UNL1       -0.2945
     23  C17        2.5270   -0.4150   -0.7550 C.3     1  UNL1        0.0308
     24  C18        3.6800    0.2820   -0.0280 C.3     1  UNL1        0.0305
     25  N4         4.8780   -0.4830   -0.2300 N.am    1  UNL1       -0.2983
     26  C19        6.1790   -0.0800    0.1430 C.2     1  UNL1        0.2187
     27  O3         7.0970   -0.9470   -0.1170 O.2     1  UNL1       -0.2753
     28  C20        6.6180    1.1570    0.7700 C.3     1  UNL1        0.0358
     29  C21        6.2930    2.5080    0.2020 C.3     1  UNL1       -0.0412
     30  C22        5.8190    2.0700    1.5790 C.3     1  UNL1       -0.0412
     31  C23        4.7500   -1.7920   -0.8710 C.3     1  UNL1        0.0305
     32  C24        3.5810   -2.5760   -0.2820 C.3     1  UNL1        0.0308
     33 H          -0.8722   -1.9875   -1.2151 H       1  UNL1        0.0629
     34 H          -3.6793   -1.6675   -1.2098 H       1  UNL1        0.0377
     35 H          -2.5851   -0.6759   -2.2326 H       1  UNL1        0.0377
     36 H          -4.7556    3.1463   -2.8095 H       1  UNL1        0.1921
     37 H          -7.9707    2.0265    0.2743 H       1  UNL1        0.0625
     38 H          -8.2587    0.1399    1.7202 H       1  UNL1        0.0618
     39 H          -6.6614   -1.6708    1.7741 H       1  UNL1        0.0618
     40 H          -4.7323   -1.5361    0.3092 H       1  UNL1        0.0624
     41 H          -3.1504    0.6688    1.0226 H       1  UNL1        0.0621
     42 H          -1.3897    0.6931    2.6729 H       1  UNL1        0.0646
     43 H           1.6167    0.1275   -0.6067 H       1  UNL1        0.0480
     44 H           2.7107   -0.4629   -1.8080 H       1  UNL1        0.0480
     45 H           3.4628    0.3421    1.0180 H       1  UNL1        0.0480
     46 H           3.8093    1.2721   -0.4126 H       1  UNL1        0.0480
     47 H           7.5039    0.5955    0.9816 H       1  UNL1        0.0394
     48 H           5.5969    2.6024   -0.6051 H       1  UNL1        0.0273
     49 H           6.8508    3.3307   -0.1941 H       1  UNL1        0.0273
     50 H           6.2413    2.5154    2.4555 H       1  UNL1        0.0273
     51 H           4.8677    2.0107    2.0653 H       1  UNL1        0.0273
     52 H           5.6536   -2.3452   -0.7210 H       1  UNL1        0.0480
     53 H           4.5704   -1.6446   -1.9155 H       1  UNL1        0.0480
     54 H           3.3638   -3.4137   -0.9112 H       1  UNL1        0.0480
     55 H           3.8451   -2.9155    0.6977 H       1  UNL1        0.0480
@<TRIPOS>BOND
     1     1     2    2
     2     2     3    1
     3     2    22   am
     4     3     4   ar
     5     3    20   ar
     6     4     5   ar
     7     5     6    1
     8     5    18   ar
     9     6     7    1
    10     7     8   ar
    11     7    17   ar
    12     8     9   ar
    13     9    10   ar
    14    10    11    2
    15    10    12   ar
    16    12    13   ar
    17    12    17   ar
    18    13    14   ar
    19    14    15   ar
    20    15    16   ar
    21    16    17   ar
    22    18    19   ar
    23    19    20   ar
    24    20    21    1
    25    22    23    1
    26    22    32    1
    27    23    24    1
    28    24    25    1
    29    25    26   am
    30    25    31    1
    31    26    27    2
    32    26    28    1
    33    28    29    1
    34    28    30    1
    35    29    30    1
    36    31    32    1
    37     4    33    1
    38     6    34    1
    39     6    35    1
    40     9    36    1
    41    13    37    1
    42    14    38    1
    43    15    39    1
    44    16    40    1
    45    18    41    1
    46    19    42    1
    47    23    43    1
    48    23    44    1
    49    24    45    1
    50    24    46    1
    51    28    47    1
    52    29    48    1
    53    29    49    1
    54    30    50    1
    55    30    51    1
    56    31    52    1
    57    31    53    1
    58    32    54    1
    59    32    55    1
@<TRIPOS>MOLECULE
../data/bude_mols_rdkit_confs/molecule_2.pdb
 55 59 0 0 0
SMALL
GASTEIGER

@<TRIPOS>ATOM
      1  O1         0.6560   -0.9840    2.5820 O.2     1  UNL1       -0.2699
      2  C1         0.8730   -1.0240    1.3280 C.2     1  UNL1        0.2495
      3  C2        -0.1940   -1.3740    0.3890 C.ar    1  UNL1        0.0723
      4  C3        -1.0060   -0.4220   -0.1810 C.ar    1  UNL1       -0.0433
      5  C4        -2.0250   -0.7290   -1.0920 C.ar    1  UNL1       -0.0406
      6  C5        -2.8010    0.3790   -1.6450 C.3     1  UNL1        0.0171
      7  C6        -3.8290    0.9460   -0.7450 C.ar    1  UNL1        0.0736
      8  N1        -3.5300    2.0200    0.0540 N.ar    1  UNL1       -0.1750
      9  N2        -4.3920    2.5260    0.9130 N.ar    1  UNL1       -0.2425
     10  C7        -5.6330    2.0310    1.0750 C.ar    1  UNL1        0.2725
     11  O2        -6.4390    2.5500    1.9220 O.2     1  UNL1       -0.2658
     12  C8        -6.0050    0.9540    0.3060 C.ar    1  UNL1        0.0496
     13  C9        -7.2780    0.4600    0.4590 C.ar    1  UNL1       -0.0487
     14  C10       -7.6580   -0.6050   -0.3250 C.ar    1  UNL1       -0.0610
     15  C11       -6.7800   -1.1510   -1.2300 C.ar    1  UNL1       -0.0611
     16  C12       -5.4990   -0.6350   -1.3670 C.ar    1  UNL1       -0.0521
     17  C13       -5.0860    0.4220   -0.6040 C.ar    1  UNL1        0.0106
     18  C14       -2.2100   -2.0290   -1.4210 C.ar    1  UNL1       -0.0555
     19  C15       -1.4030   -3.0000   -0.8570 C.ar    1  UNL1       -0.0254
     20  C16       -0.4200   -2.6720    0.0260 C.ar    1  UNL1        0.1355
     21  F1         0.3480   -3.6750    0.5520 F       1  UNL1       -0.2047
     22  N3         2.1650   -0.7280    0.8090 N.am    1  UNL1       -0.2945
     23  C17        3.2270   -0.3770    1.7240 C.3     1  UNL1        0.0308
     24  C18        3.8460    0.9280    1.1760 C.3     1  UNL1        0.0305
     25  N4         4.3440    0.5860   -0.1220 N.am    1  UNL1       -0.2983
     26  C19        5.6730    0.5030   -0.5320 C.2     1  UNL1        0.2187
     27  O3         5.7900    0.1410   -1.7980 O.2     1  UNL1       -0.2753
     28  C20        6.9380    0.7250    0.1220 C.3     1  UNL1        0.0358
     29  C21        7.1820    0.6150    1.5710 C.3     1  UNL1       -0.0412
     30  C22        7.0750    1.9550    0.9910 C.3     1  UNL1       -0.0412
     31  C23        3.2910    0.2770   -1.1250 C.3     1  UNL1        0.0305
     32  C24        2.3790   -0.7890   -0.6020 C.3     1  UNL1        0.0308
     33 H          -0.8576    0.5667    0.0747 H       1  UNL1        0.0629
     34 H          -3.2927    0.0289   -2.5285 H       1  UNL1        0.0377
     35 H          -2.1007    1.1675   -1.8260 H       1  UNL1        0.0377
     36 H          -4.1168    3.2979    1.4586 H       1  UNL1        0.1921
     37 H          -7.9303    0.8757    1.1422 H       1  UNL1        0.0625
     38 H          -8.6085   -0.9962   -0.2327 H       1  UNL1        0.0618
     39 H          -7.0752   -1.9505   -1.8120 H       1  UNL1        0.0618
     40 H          -4.8509   -1.0537   -2.0523 H       1  UNL1        0.0624
     41 H          -2.9499   -2.2942   -2.0897 H       1  UNL1        0.0621
     42 H          -1.5483   -3.9900   -1.1097 H       1  UNL1        0.0646
     43 H           3.9628   -1.1532    1.7551 H       1  UNL1        0.0480
     44 H           2.8596   -0.2485    2.7207 H       1  UNL1        0.0480
     45 H           4.6422    1.2610    1.8085 H       1  UNL1        0.0480
     46 H           3.1329    1.7247    1.1356 H       1  UNL1        0.0480
     47 H           7.4145    0.2767   -0.7247 H       1  UNL1        0.0394
     48 H           8.1296    0.2645    1.9234 H       1  UNL1        0.0273
     49 H           6.6876    0.1088    2.3736 H       1  UNL1        0.0273
     50 H           6.2196    2.5633    1.1991 H       1  UNL1        0.0273
     51 H           7.6910    2.8298    0.9790 H       1  UNL1        0.0273
     52 H           3.7520   -0.0637   -2.0285 H       1  UNL1        0.0480
     53 H           2.7210    1.1617   -1.3181 H       1  UNL1        0.0480
     54 H           1.4321   -0.6916   -1.0907 H       1  UNL1        0.0480
     55 H           2.8514   -1.7277   -0.8037 H       1  UNL1        0.0480
@<TRIPOS>BOND
     1     1     2    2
     2     2     3    1
     3     2    22   am
     4     3     4   ar
     5     3    20   ar
     6     4     5   ar
     7     5     6    1
     8     5    18   ar
     9     6     7    1
    10     7     8   ar
    11     7    17   ar
    12     8     9   ar
    13     9    10   ar
    14    10    11    2
    15    10    12   ar
    16    12    13   ar
    17    12    17   ar
    18    13    14   ar
    19    14    15   ar
    20    15    16   ar
    21    16    17   ar
    22    18    19   ar
    23    19    20   ar
    24    20    21    1
    25    22    23    1
    26    22    32    1
    27    23    24    1
    28    24    25    1
    29    25    26   am
    30    25    31    1
    31    26    27    2
    32    26    28    1
    33    28    29    1
    34    28    30    1
    35    29    30    1
    36    31    32    1
    37     4    33    1
    38     6    34    1
    39     6    35    1
    40     9    36    1
    41    13    37    1
    42    14    38    1
    43    15    39    1
    44    16    40    1
    45    18    41    1
    46    19    42    1
    47    23    43    1
    48    23    44    1
    49    24    45    1
    50    24    46    1
    51    28    47    1
    52    29    48    1
    53    29    49    1
    54    30    50    1
    55    30    51    1
    56    31    52    1
    57    31    53    1
    58    32    54    1
    59    32    55    1
@<TRIPOS>MOLECULE
../data/bude_mols_rdkit_confs/molecule_2.pdb
 55 59 0 0 0
SMALL
GASTEIGER

@<TRIPOS>ATOM
      1  O1        -0.8080   -3.1910   -0.2080 O.2     1  UNL1       -0.2699
      2  C1        -0.9650   -2.1910    0.5250 C.2     1  UNL1        0.2495
      3  C2         0.1730   -1.6790    1.2650 C.ar    1  UNL1        0.0723
      4  C3         0.9990   -0.7090    0.6960 C.ar    1  UNL1       -0.0433
      5  C4         2.0770   -0.2340    1.4140 C.ar    1  UNL1       -0.0406
      6  C5         2.9800    0.7960    0.8470 C.3     1  UNL1        0.0171
      7  C6         4.1070    0.1720    0.1010 C.ar    1  UNL1        0.0736
      8  N1         4.1820   -1.1680    0.0290 N.ar    1  UNL1       -0.1750
      9  N2         5.1280   -1.8230   -0.5990 N.ar    1  UNL1       -0.2425
     10  C7         6.0990   -1.1420   -1.2200 C.ar    1  UNL1        0.2725
     11  O2         7.0040   -1.7530   -1.8210 O.2     1  UNL1       -0.2658
     12  C8         6.0730    0.2430   -1.1790 C.ar    1  UNL1        0.0496
     13  C9         7.0460    1.0020   -1.8000 C.ar    1  UNL1       -0.0487
     14  C10        7.0350    2.3830   -1.7690 C.ar    1  UNL1       -0.0610
     15  C11        6.0160    3.0310   -1.0930 C.ar    1  UNL1       -0.0611
     16  C12        5.0240    2.3110   -0.4580 C.ar    1  UNL1       -0.0521
     17  C13        5.0630    0.9190   -0.5080 C.ar    1  UNL1        0.0106
     18  C14        2.3250   -0.7190    2.6770 C.ar    1  UNL1       -0.0555
     19  C15        1.5380   -1.6760    3.2800 C.ar    1  UNL1       -0.0254
     20  C16        0.4490   -2.1450    2.5340 C.ar    1  UNL1        0.1355
     21  F1        -0.3880   -3.0900    3.0410 F       1  UNL1       -0.2047
     22  N3        -2.2520   -1.5990    0.6040 N.am    1  UNL1       -0.2945
     23  C17       -2.5080   -0.4270    1.4440 C.3     1  UNL1        0.0308
     24  C18       -2.8780    0.6970    0.5040 C.3     1  UNL1        0.0305
     25  N4        -4.0290    0.2280   -0.2890 N.am    1  UNL1       -0.2983
     26  C19       -5.2140    1.0010   -0.2330 C.2     1  UNL1        0.2187
     27  O3        -5.2530    2.0500    0.4820 O.2     1  UNL1       -0.2753
     28  C20       -6.4660    0.6880   -0.9620 C.3     1  UNL1        0.0358
     29  C21       -7.7440    1.0780   -0.2980 C.3     1  UNL1       -0.0412
     30  C22       -7.2590    1.8680   -1.4390 C.3     1  UNL1       -0.0412
     31  C23       -3.8580   -0.9710   -1.0510 C.3     1  UNL1        0.0305
     32  C24       -3.3890   -2.1080   -0.1330 C.3     1  UNL1        0.0308
     33 H           0.8055   -0.3506   -0.2522 H       1  UNL1        0.0629
     34 H           3.3756    1.3903    1.6440 H       1  UNL1        0.0377
     35 H           2.4182    1.4022    0.1674 H       1  UNL1        0.0377
     36 H           5.1245   -2.8074   -0.6139 H       1  UNL1        0.1921
     37 H           7.8071    0.5209   -2.3043 H       1  UNL1        0.0625
     38 H           7.7756    2.9234   -2.2428 H       1  UNL1        0.0618
     39 H           5.9975    4.0624   -1.0633 H       1  UNL1        0.0618
     40 H           4.2653    2.7962    0.0459 H       1  UNL1        0.0624
     41 H           3.1368   -0.3497    3.1962 H       1  UNL1        0.0621
     42 H           1.7398   -2.0279    4.2290 H       1  UNL1        0.0646
     43 H          -1.6304   -0.1710    2.0000 H       1  UNL1        0.0480
     44 H          -3.2902   -0.6175    2.1488 H       1  UNL1        0.0480
     45 H          -2.0547    0.9242   -0.1406 H       1  UNL1        0.0480
     46 H          -3.1225    1.5863    1.0465 H       1  UNL1        0.0480
     47 H          -6.0813   -0.2081   -1.4023 H       1  UNL1        0.0394
     48 H          -7.7267    1.4974    0.6862 H       1  UNL1        0.0273
     49 H          -8.6577    0.5705   -0.0691 H       1  UNL1        0.0273
     50 H          -7.7723    1.8228   -2.3767 H       1  UNL1        0.0273
     51 H          -7.0462    2.9035   -1.6041 H       1  UNL1        0.0273
     52 H          -3.1262   -0.8057   -1.8139 H       1  UNL1        0.0480
     53 H          -4.7914   -1.2409   -1.4991 H       1  UNL1        0.0480
     54 H          -4.1722   -2.3857    0.5411 H       1  UNL1        0.0480
     55 H          -3.1259   -2.9778   -0.6980 H       1  UNL1        0.0480
@<TRIPOS>BOND
     1     1     2    2
     2     2     3    1
     3     2    22   am
     4     3     4   ar
     5     3    20   ar
     6     4     5   ar
     7     5     6    1
     8     5    18   ar
     9     6     7    1
    10     7     8   ar
    11     7    17   ar
    12     8     9   ar
    13     9    10   ar
    14    10    11    2
    15    10    12   ar
    16    12    13   ar
    17    12    17   ar
    18    13    14   ar
    19    14    15   ar
    20    15    16   ar
    21    16    17   ar
    22    18    19   ar
    23    19    20   ar
    24    20    21    1
    25    22    23    1
    26    22    32    1
    27    23    24    1
    28    24    25    1
    29    25    26   am
    30    25    31    1
    31    26    27    2
    32    26    28    1
    33    28    29    1
    34    28    30    1
    35    29    30    1
    36    31    32    1
    37     4    33    1
    38     6    34    1
    39     6    35    1
    40     9    36    1
    41    13    37    1
    42    14    38    1
    43    15    39    1
    44    16    40    1
    45    18    41    1
    46    19    42    1
    47    23    43    1
    48    23    44    1
    49    24    45    1
    50    24    46    1
    51    28    47    1
    52    29    48    1
    53    29    49    1
    54    30    50    1
    55    30    51    1
    56    31    52    1
    57    31    53    1
    58    32    54    1
    59    32    55    1
@<TRIPOS>MOLECULE
../data/bude_mols_rdkit_confs/molecule_2.pdb
 55 59 0 0 0
SMALL
GASTEIGER

@<TRIPOS>ATOM
      1  O1         0.9450    2.3560    0.0520 O.2     1  UNL1       -0.2699
      2  C1         0.9290    1.0990    0.0510 C.2     1  UNL1        0.2495
      3  C2        -0.2460    0.3440    0.5260 C.ar    1  UNL1        0.0723
      4  C3        -1.2850   -0.0260   -0.2870 C.ar    1  UNL1       -0.0433
      5  C4        -2.3750   -0.7460    0.1820 C.ar    1  UNL1       -0.0406
      6  C5        -3.4720   -1.1480   -0.7320 C.3     1  UNL1        0.0171
      7  C6        -4.3190    0.0310   -0.9570 C.ar    1  UNL1        0.0736
      8  N1        -4.0300    0.8510   -2.0130 N.ar    1  UNL1       -0.1750
      9  N2        -4.6860    1.9600   -2.2500 N.ar    1  UNL1       -0.2425
     10  C7        -5.6850    2.3620   -1.4690 C.ar    1  UNL1        0.2725
     11  O2        -6.3350    3.4420   -1.6840 O.2     1  UNL1       -0.2658
     12  C8        -6.0610    1.6010   -0.3700 C.ar    1  UNL1        0.0496
     13  C9        -7.1090    2.0100    0.4250 C.ar    1  UNL1       -0.0487
     14  C10       -7.4500    1.2040    1.4870 C.ar    1  UNL1       -0.0610
     15  C11       -6.7640    0.0340    1.7360 C.ar    1  UNL1       -0.0611
     16  C12       -5.7130   -0.3610    0.9260 C.ar    1  UNL1       -0.0521
     17  C13       -5.3420    0.4130   -0.1380 C.ar    1  UNL1        0.0106
     18  C14       -2.3780   -1.0770    1.4960 C.ar    1  UNL1       -0.0555
     19  C15       -1.3340   -0.7170    2.3630 C.ar    1  UNL1       -0.0254
     20  C16       -0.2720   -0.0040    1.8570 C.ar    1  UNL1        0.1355
     21  F1         0.7660    0.3660    2.6710 F       1  UNL1       -0.2047
     22  N3         2.0610    0.4110   -0.4130 N.am    1  UNL1       -0.2945
     23  C17        2.1360   -1.0590   -0.4520 C.3     1  UNL1        0.0308
     24  C18        3.3870   -1.4950   -1.1540 C.3     1  UNL1        0.0305
     25  N4         4.5700   -0.9060   -0.4380 N.am    1  UNL1       -0.2983
     26  C19        5.6230   -1.7740   -0.1150 C.2     1  UNL1        0.2187
     27  O3         5.4440   -3.0340   -0.4160 O.2     1  UNL1       -0.2753
     28  C20        6.8950   -1.4800    0.5080 C.3     1  UNL1        0.0358
     29  C21        7.2260   -0.2590    1.3190 C.3     1  UNL1       -0.0412
     30  C22        7.7860   -0.3880   -0.0400 C.3     1  UNL1       -0.0412
     31  C23        4.4740    0.4910   -0.1350 C.3     1  UNL1        0.0305
     32  C24        3.2560    1.0740   -0.8770 C.3     1  UNL1        0.0308
     33 H          -1.2561    0.2402   -1.2837 H       1  UNL1        0.0629
     34 H          -4.0487   -1.9317   -0.2869 H       1  UNL1        0.0377
     35 H          -3.0756   -1.5076   -1.6585 H       1  UNL1        0.0377
     36 H          -4.4330    2.5101   -3.0263 H       1  UNL1        0.1921
     37 H          -7.6184    2.8865    0.2317 H       1  UNL1        0.0625
     38 H          -8.2293    1.4788    2.1052 H       1  UNL1        0.0618
     39 H          -7.0379   -0.5555    2.5375 H       1  UNL1        0.0618
     40 H          -5.2097   -1.2396    1.1254 H       1  UNL1        0.0624
     41 H          -3.1757   -1.6125    1.8727 H       1  UNL1        0.0621
     42 H          -1.3628   -0.9820    3.3600 H       1  UNL1        0.0646
     43 H           1.2851   -1.4426   -0.9752 H       1  UNL1        0.0480
     44 H           2.1487   -1.4347    0.5498 H       1  UNL1        0.0480
     45 H           3.3706   -1.1503   -2.1668 H       1  UNL1        0.0480
     46 H           3.4536   -2.5629   -1.1519 H       1  UNL1        0.0480
     47 H           6.9501   -2.5297    0.7078 H       1  UNL1        0.0394
     48 H           7.8692   -0.3435    2.1699 H       1  UNL1        0.0273
     49 H           6.6477    0.4855    1.8251 H       1  UNL1        0.0273
     50 H           7.4319    0.2460   -0.8259 H       1  UNL1        0.0273
     51 H           8.7712   -0.3560   -0.4562 H       1  UNL1        0.0273
     52 H           5.3641    0.9910   -0.4553 H       1  UNL1        0.0480
     53 H           4.3588    0.6285    0.9199 H       1  UNL1        0.0480
     54 H           3.1839    2.1231   -0.6792 H       1  UNL1        0.0480
     55 H           3.3678    0.9219   -1.9302 H       1  UNL1        0.0480
@<TRIPOS>BOND
     1     1     2    2
     2     2     3    1
     3     2    22   am
     4     3     4   ar
     5     3    20   ar
     6     4     5   ar
     7     5     6    1
     8     5    18   ar
     9     6     7    1
    10     7     8   ar
    11     7    17   ar
    12     8     9   ar
    13     9    10   ar
    14    10    11    2
    15    10    12   ar
    16    12    13   ar
    17    12    17   ar
    18    13    14   ar
    19    14    15   ar
    20    15    16   ar
    21    16    17   ar
    22    18    19   ar
    23    19    20   ar
    24    20    21    1
    25    22    23    1
    26    22    32    1
    27    23    24    1
    28    24    25    1
    29    25    26   am
    30    25    31    1
    31    26    27    2
    32    26    28    1
    33    28    29    1
    34    28    30    1
    35    29    30    1
    36    31    32    1
    37     4    33    1
    38     6    34    1
    39     6    35    1
    40     9    36    1
    41    13    37    1
    42    14    38    1
    43    15    39    1
    44    16    40    1
    45    18    41    1
    46    19    42    1
    47    23    43    1
    48    23    44    1
    49    24    45    1
    50    24    46    1
    51    28    47    1
    52    29    48    1
    53    29    49    1
    54    30    50    1
    55    30    51    1
    56    31    52    1
    57    31    53    1
    58    32    54    1
    59    32    55    1
@<TRIPOS>MOLECULE
../data/bude_mols_rdkit_confs/molecule_2.pdb
 55 59 0 0 0
SMALL
GASTEIGER

@<TRIPOS>ATOM
      1  O1         0.6030   -2.5200    0.0680 O.2     1  UNL1       -0.2699
      2  C1         0.7570   -1.2760    0.1900 C.2     1  UNL1        0.2495
      3  C2        -0.2140   -0.5690    1.0000 C.ar    1  UNL1        0.0723
      4  C3        -1.3760   -0.0500    0.4000 C.ar    1  UNL1       -0.0433
      5  C4        -2.3120    0.6170    1.1360 C.ar    1  UNL1       -0.0406
      6  C5        -3.5790    1.2070    0.6390 C.3     1  UNL1        0.0171
      7  C6        -4.7710    0.3990    0.8190 C.ar    1  UNL1        0.0736
      8  N1        -5.5160    0.5830    1.9250 N.ar    1  UNL1       -0.1750
      9  N2        -6.5850   -0.1440    2.1970 N.ar    1  UNL1       -0.2425
     10  C7        -6.9780   -1.1070    1.3750 C.ar    1  UNL1        0.2725
     11  O2        -8.0030   -1.7700    1.6840 O.2     1  UNL1       -0.2658
     12  C8        -6.2920   -1.3770    0.2210 C.ar    1  UNL1        0.0496
     13  C9        -6.7130   -2.3660   -0.6390 C.ar    1  UNL1       -0.0487
     14  C10       -6.0110   -2.5930   -1.7930 C.ar    1  UNL1       -0.0610
     15  C11       -4.9050   -1.8420   -2.0840 C.ar    1  UNL1       -0.0611
     16  C12       -4.4720   -0.8370   -1.2150 C.ar    1  UNL1       -0.0521
     17  C13       -5.1580   -0.5890   -0.0470 C.ar    1  UNL1        0.0106
     18  C14       -2.0390    0.7490    2.5110 C.ar    1  UNL1       -0.0555
     19  C15       -0.9010    0.2400    3.0930 C.ar    1  UNL1       -0.0254
     20  C16        0.0370   -0.4320    2.3410 C.ar    1  UNL1        0.1355
     21  F1         1.1740   -0.9420    2.9130 F       1  UNL1       -0.2047
     22  N3         1.8620   -0.6560   -0.4700 N.am    1  UNL1       -0.2945
     23  C17        2.7520   -1.4520   -1.2480 C.3     1  UNL1        0.0308
     24  C18        4.0840   -0.8920   -1.5450 C.3     1  UNL1        0.0305
     25  N4         4.4630    0.3030   -0.8490 N.am    1  UNL1       -0.2983
     26  C19        5.7950    0.7500   -0.9870 C.2     1  UNL1        0.2187
     27  O3         6.6090    0.1230   -1.7100 O.2     1  UNL1       -0.2753
     28  C20        6.2870    1.9580   -0.2960 C.3     1  UNL1        0.0358
     29  C21        7.3160    2.8220   -0.9340 C.3     1  UNL1       -0.0412
     30  C22        7.6890    1.8610    0.2190 C.3     1  UNL1       -0.0412
     31  C23        3.5500    1.0470   -0.0410 C.3     1  UNL1        0.0305
     32  C24        2.0900    0.7570   -0.3670 C.3     1  UNL1        0.0308
     33 H          -1.5230   -0.1758   -0.6137 H       1  UNL1        0.0629
     34 H          -3.4647    1.3929   -0.4085 H       1  UNL1        0.0377
     35 H          -3.7365    2.0879    1.2256 H       1  UNL1        0.0377
     36 H          -7.0959    0.0315    3.0200 H       1  UNL1        0.1921
     37 H          -7.5481   -2.9301   -0.4167 H       1  UNL1        0.0625
     38 H          -6.3171   -3.3324   -2.4446 H       1  UNL1        0.0618
     39 H          -4.3837   -2.0201   -2.9567 H       1  UNL1        0.0618
     40 H          -3.6359   -0.2792   -1.4492 H       1  UNL1        0.0624
     41 H          -2.7195    1.2473    3.1058 H       1  UNL1        0.0621
     42 H          -0.7482    0.3633    4.1062 H       1  UNL1        0.0646
     43 H           2.2713   -1.6489   -2.1834 H       1  UNL1        0.0480
     44 H           2.9470   -2.3129   -0.6433 H       1  UNL1        0.0480
     45 H           4.1168   -0.6782   -2.5929 H       1  UNL1        0.0480
     46 H           4.7765   -1.6365   -1.2117 H       1  UNL1        0.0480
     47 H           5.3249    2.1826    0.1148 H       1  UNL1        0.0394
     48 H           7.3064    3.8794   -0.7705 H       1  UNL1        0.0273
     49 H           7.6621    2.9832   -1.9336 H       1  UNL1        0.0273
     50 H           8.2755    0.9875    0.0243 H       1  UNL1        0.0273
     51 H           8.1619    1.9587    1.1739 H       1  UNL1        0.0273
     52 H           3.7323    2.0902   -0.1937 H       1  UNL1        0.0480
     53 H           3.7137    0.7563    0.9756 H       1  UNL1        0.0480
     54 H           1.4712    1.1566    0.4091 H       1  UNL1        0.0480
     55 H           1.8510    1.2123   -1.3053 H       1  UNL1        0.0480
@<TRIPOS>BOND
     1     1     2    2
     2     2     3    1
     3     2    22   am
     4     3     4   ar
     5     3    20   ar
     6     4     5   ar
     7     5     6    1
     8     5    18   ar
     9     6     7    1
    10     7     8   ar
    11     7    17   ar
    12     8     9   ar
    13     9    10   ar
    14    10    11    2
    15    10    12   ar
    16    12    13   ar
    17    12    17   ar
    18    13    14   ar
    19    14    15   ar
    20    15    16   ar
    21    16    17   ar
    22    18    19   ar
    23    19    20   ar
    24    20    21    1
    25    22    23    1
    26    22    32    1
    27    23    24    1
    28    24    25    1
    29    25    26   am
    30    25    31    1
    31    26    27    2
    32    26    28    1
    33    28    29    1
    34    28    30    1
    35    29    30    1
    36    31    32    1
    37     4    33    1
    38     6    34    1
    39     6    35    1
    40     9    36    1
    41    13    37    1
    42    14    38    1
    43    15    39    1
    44    16    40    1
    45    18    41    1
    46    19    42    1
    47    23    43    1
    48    23    44    1
    49    24    45    1
    50    24    46    1
    51    28    47    1
    52    29    48    1
    53    29    49    1
    54    30    50    1
    55    30    51    1
    56    31    52    1
    57    31    53    1
    58    32    54    1
    59    32    55    1
@<TRIPOS>MOLECULE
../data/bude_mols_rdkit_confs/molecule_2.pdb
 55 59 0 0 0
SMALL
GASTEIGER

@<TRIPOS>ATOM
      1  O1         0.7020    0.9760    2.7540 O.2     1  UNL1       -0.2699
      2  C1         0.8820    0.2340    1.7560 C.2     1  UNL1        0.2495
      3  C2        -0.1910   -0.6510    1.3310 C.ar    1  UNL1        0.0723
      4  C3        -1.1620   -0.2690    0.4120 C.ar    1  UNL1       -0.0433
      5  C4        -2.1550   -1.1550    0.0490 C.ar    1  UNL1       -0.0406
      6  C5        -3.1810   -0.7390   -0.9280 C.3     1  UNL1        0.0171
      7  C6        -4.3150   -0.1310   -0.1860 C.ar    1  UNL1        0.0736
      8  N1        -4.3160   -0.0210    1.1640 N.ar    1  UNL1       -0.1750
      9  N2        -5.3610    0.5310    1.7520 N.ar    1  UNL1       -0.2425
     10  C7        -6.4290    0.9900    1.0590 C.ar    1  UNL1        0.2725
     11  O2        -7.4180    1.5160    1.6490 O.2     1  UNL1       -0.2658
     12  C8        -6.4600    0.8950   -0.3030 C.ar    1  UNL1        0.0496
     13  C9        -7.5260    1.3480   -1.0660 C.ar    1  UNL1       -0.0487
     14  C10       -7.5480    1.2470   -2.4360 C.ar    1  UNL1       -0.0610
     15  C11       -6.4540    0.6690   -3.0530 C.ar    1  UNL1       -0.0611
     16  C12       -5.3620    0.2000   -2.3360 C.ar    1  UNL1       -0.0521
     17  C13       -5.3850    0.3230   -0.9500 C.ar    1  UNL1        0.0106
     18  C14       -2.2070   -2.4190    0.5810 C.ar    1  UNL1       -0.0555
     19  C15       -1.2460   -2.7930    1.4900 C.ar    1  UNL1       -0.0254
     20  C16       -0.2330   -1.9170    1.8720 C.ar    1  UNL1        0.1355
     21  F1         0.7120   -2.2930    2.7690 F       1  UNL1       -0.2047
     22  N3         2.1040    0.2730    1.0770 N.am    1  UNL1       -0.2945
     23  C17        3.2000    1.1430    1.4720 C.3     1  UNL1        0.0308
     24  C18        4.5340    0.5350    1.0500 C.3     1  UNL1        0.0305
     25  N4         4.5450    0.1310   -0.3200 N.am    1  UNL1       -0.2983
     26  C19        5.6390   -0.2980   -1.0870 C.2     1  UNL1        0.2187
     27  O3         5.3380   -0.6330   -2.3040 O.2     1  UNL1       -0.2753
     28  C20        7.0430   -0.4260   -0.7330 C.3     1  UNL1        0.0358
     29  C21        7.7330    0.9040   -0.3350 C.3     1  UNL1       -0.0412
     30  C22        7.6480   -0.2890    0.5850 C.3     1  UNL1       -0.0412
     31  C23        3.2290    0.1810   -0.9990 C.3     1  UNL1        0.0305
     32  C24        2.2820   -0.6100   -0.0870 C.3     1  UNL1        0.0308
     33 H          -1.1398    0.6775    0.0014 H       1  UNL1        0.0629
     34 H          -3.5237   -1.5910   -1.4772 H       1  UNL1        0.0377
     35 H          -2.7686   -0.0300   -1.6151 H       1  UNL1        0.0377
     36 H          -5.3636    0.6120    2.7332 H       1  UNL1        0.1921
     37 H          -8.3329    1.7770   -0.5866 H       1  UNL1        0.0625
     38 H          -8.3519    1.5901   -2.9846 H       1  UNL1        0.0618
     39 H          -6.4492    0.5834   -4.0814 H       1  UNL1        0.0618
     40 H          -4.5556   -0.2279   -2.8172 H       1  UNL1        0.0624
     41 H          -2.9531   -3.0760    0.3040 H       1  UNL1        0.0621
     42 H          -1.2758   -3.7409    1.8970 H       1  UNL1        0.0646
     43 H           3.1881    1.2660    2.5348 H       1  UNL1        0.0480
     44 H           3.0820    2.0925    0.9929 H       1  UNL1        0.0480
     45 H           4.7289   -0.3213    1.6613 H       1  UNL1        0.0480
     46 H           5.2857    1.2867    1.1721 H       1  UNL1        0.0480
     47 H           7.1241   -1.2259   -1.4390 H       1  UNL1        0.0394
     48 H           7.1515    1.7813   -0.1422 H       1  UNL1        0.0273
     49 H           8.5114    1.5214   -0.7322 H       1  UNL1        0.0273
     50 H           8.5357   -0.8396    0.8169 H       1  UNL1        0.0273
     51 H           7.2864   -0.4289    1.5823 H       1  UNL1        0.0273
     52 H           3.2871   -0.2736   -1.9659 H       1  UNL1        0.0480
     53 H           2.8937    1.1854   -1.1527 H       1  UNL1        0.0480
     54 H           1.3470   -0.7931   -0.5740 H       1  UNL1        0.0480
     55 H           2.6669   -1.5729    0.1768 H       1  UNL1        0.0480
@<TRIPOS>BOND
     1     1     2    2
     2     2     3    1
     3     2    22   am
     4     3     4   ar
     5     3    20   ar
     6     4     5   ar
     7     5     6    1
     8     5    18   ar
     9     6     7    1
    10     7     8   ar
    11     7    17   ar
    12     8     9   ar
    13     9    10   ar
    14    10    11    2
    15    10    12   ar
    16    12    13   ar
    17    12    17   ar
    18    13    14   ar
    19    14    15   ar
    20    15    16   ar
    21    16    17   ar
    22    18    19   ar
    23    19    20   ar
    24    20    21    1
    25    22    23    1
    26    22    32    1
    27    23    24    1
    28    24    25    1
    29    25    26   am
    30    25    31    1
    31    26    27    2
    32    26    28    1
    33    28    29    1
    34    28    30    1
    35    29    30    1
    36    31    32    1
    37     4    33    1
    38     6    34    1
    39     6    35    1
    40     9    36    1
    41    13    37    1
    42    14    38    1
    43    15    39    1
    44    16    40    1
    45    18    41    1
    46    19    42    1
    47    23    43    1
    48    23    44    1
    49    24    45    1
    50    24    46    1
    51    28    47    1
    52    29    48    1
    53    29    49    1
    54    30    50    1
    55    30    51    1
    56    31    52    1
    57    31    53    1
    58    32    54    1
    59    32    55    1
@<TRIPOS>MOLECULE
../data/bude_mols_rdkit_confs/molecule_2.pdb
 55 59 0 0 0
SMALL
GASTEIGER

@<TRIPOS>ATOM
      1  O1         0.1310   -2.9040    0.2360 O.2     1  UNL1       -0.2699
      2  C1         0.5330   -1.7260    0.4020 C.2     1  UNL1        0.2495
      3  C2        -0.4000   -0.7820    1.0040 C.ar    1  UNL1        0.0723
      4  C3        -1.2670   -0.0200    0.2110 C.ar    1  UNL1       -0.0433
      5  C4        -2.1540    0.8750    0.7340 C.ar    1  UNL1       -0.0406
      6  C5        -3.0870    1.6830   -0.0730 C.3     1  UNL1        0.0171
      7  C6        -4.5110    1.2650    0.0490 C.ar    1  UNL1        0.0736
      8  N1        -5.3300    1.9040    0.9350 N.ar    1  UNL1       -0.1750
      9  N2        -6.5790    1.5940    1.1570 N.ar    1  UNL1       -0.2425
     10  C7        -7.1510    0.5790    0.4900 C.ar    1  UNL1        0.2725
     11  O2        -8.3630    0.2680    0.6960 O.2     1  UNL1       -0.2658
     12  C8        -6.3970   -0.1190   -0.4260 C.ar    1  UNL1        0.0496
     13  C9        -6.9190   -1.1640   -1.1580 C.ar    1  UNL1       -0.0487
     14  C10       -6.1940   -1.8740   -2.0910 C.ar    1  UNL1       -0.0610
     15  C11       -4.8760   -1.5100   -2.2950 C.ar    1  UNL1       -0.0611
     16  C12       -4.3100   -0.4660   -1.5810 C.ar    1  UNL1       -0.0521
     17  C13       -5.0590    0.2240   -0.6540 C.ar    1  UNL1        0.0106
     18  C14       -2.1410    0.9850    2.1330 C.ar    1  UNL1       -0.0555
     19  C15       -1.3090    0.2570    2.9350 C.ar    1  UNL1       -0.0254
     20  C16       -0.4380   -0.6280    2.3630 C.ar    1  UNL1        0.1355
     21  F1         0.3920   -1.3580    3.1230 F       1  UNL1       -0.2047
     22  N3         1.8330   -1.2970    0.0320 N.am    1  UNL1       -0.2945
     23  C17        2.7850   -2.2040   -0.5670 C.3     1  UNL1        0.0308
     24  C18        3.7920   -1.3850   -1.3760 C.3     1  UNL1        0.0305
     25  N4         4.4630   -0.4330   -0.5210 N.am    1  UNL1       -0.2983
     26  C19        5.8270   -0.1200   -0.6950 C.2     1  UNL1        0.2187
     27  O3         6.4700   -0.6930   -1.6280 O.2     1  UNL1       -0.2753
     28  C20        6.5280    0.8460    0.1650 C.3     1  UNL1        0.0358
     29  C21        7.4420    1.8020   -0.6060 C.3     1  UNL1       -0.0412
     30  C22        8.0080    0.7650    0.2980 C.3     1  UNL1       -0.0412
     31  C23        3.7030    0.1990    0.5260 C.3     1  UNL1        0.0305
     32  C24        2.2100    0.0820    0.2610 C.3     1  UNL1        0.0308
     33 H          -1.2335   -0.1407   -0.8134 H       1  UNL1        0.0629
     34 H          -2.7996    1.6029   -1.1006 H       1  UNL1        0.0377
     35 H          -3.0260    2.6860    0.2946 H       1  UNL1        0.0377
     36 H          -7.1025    2.1059    1.8152 H       1  UNL1        0.1921
     37 H          -7.9038   -1.4285   -0.9992 H       1  UNL1        0.0625
     38 H          -6.6207   -2.6510   -2.6194 H       1  UNL1        0.0618
     39 H          -4.3069   -2.0219   -2.9872 H       1  UNL1        0.0618
     40 H          -3.3250   -0.2050   -1.7443 H       1  UNL1        0.0624
     41 H          -2.7930    1.6495    2.5783 H       1  UNL1        0.0621
     42 H          -1.3375    0.3735    3.9600 H       1  UNL1        0.0646
     43 H           2.2749   -2.8884   -1.2122 H       1  UNL1        0.0480
     44 H           3.2914   -2.7597    0.1944 H       1  UNL1        0.0480
     45 H           3.2773   -0.8602   -2.1535 H       1  UNL1        0.0480
     46 H           4.5187   -2.0459   -1.8002 H       1  UNL1        0.0480
     47 H           5.7323    0.9078    0.8777 H       1  UNL1        0.0394
     48 H           7.4899    2.8359   -0.3346 H       1  UNL1        0.0273
     49 H           7.5713    2.0696   -1.6339 H       1  UNL1        0.0273
     50 H           8.5322   -0.0705   -0.1169 H       1  UNL1        0.0273
     51 H           8.6843    0.7874    1.1269 H       1  UNL1        0.0273
     52 H           3.9696    1.2340    0.5762 H       1  UNL1        0.0480
     53 H           3.9247   -0.2900    1.4515 H       1  UNL1        0.0480
     54 H           1.6734    0.4560    1.1078 H       1  UNL1        0.0480
     55 H           1.9720    0.6514   -0.6131 H       1  UNL1        0.0480
@<TRIPOS>BOND
     1     1     2    2
     2     2     3    1
     3     2    22   am
     4     3     4   ar
     5     3    20   ar
     6     4     5   ar
     7     5     6    1
     8     5    18   ar
     9     6     7    1
    10     7     8   ar
    11     7    17   ar
    12     8     9   ar
    13     9    10   ar
    14    10    11    2
    15    10    12   ar
    16    12    13   ar
    17    12    17   ar
    18    13    14   ar
    19    14    15   ar
    20    15    16   ar
    21    16    17   ar
    22    18    19   ar
    23    19    20   ar
    24    20    21    1
    25    22    23    1
    26    22    32    1
    27    23    24    1
    28    24    25    1
    29    25    26   am
    30    25    31    1
    31    26    27    2
    32    26    28    1
    33    28    29    1
    34    28    30    1
    35    29    30    1
    36    31    32    1
    37     4    33    1
    38     6    34    1
    39     6    35    1
    40     9    36    1
    41    13    37    1
    42    14    38    1
    43    15    39    1
    44    16    40    1
    45    18    41    1
    46    19    42    1
    47    23    43    1
    48    23    44    1
    49    24    45    1
    50    24    46    1
    51    28    47    1
    52    29    48    1
    53    29    49    1
    54    30    50    1
    55    30    51    1
    56    31    52    1
    57    31    53    1
    58    32    54    1
    59    32    55    1
@<TRIPOS>MOLECULE
../data/bude_mols_rdkit_confs/molecule_2.pdb
 55 59 0 0 0
SMALL
GASTEIGER

@<TRIPOS>ATOM
      1  O1         0.2300    1.3600    2.0380 O.2     1  UNL1       -0.2699
      2  C1         0.6340    0.6700    1.0500 C.2     1  UNL1        0.2495
      3  C2        -0.2500    0.6000   -0.1110 C.ar    1  UNL1        0.0723
      4  C3        -1.2090   -0.4230   -0.1640 C.ar    1  UNL1       -0.0433
      5  C4        -2.0810   -0.5610   -1.2100 C.ar    1  UNL1       -0.0406
      6  C5        -3.1190   -1.5960   -1.3150 C.3     1  UNL1        0.0171
      7  C6        -4.4950   -1.0420   -1.1520 C.ar    1  UNL1        0.0736
      8  N1        -5.1890   -0.7470   -2.2760 N.ar    1  UNL1       -0.1750
      9  N2        -6.3890   -0.2150   -2.1990 N.ar    1  UNL1       -0.2425
     10  C7        -7.0150    0.0740   -1.0510 C.ar    1  UNL1        0.2725
     11  O2        -8.1800    0.5900   -1.0290 O.2     1  UNL1       -0.2658
     12  C8        -6.3580   -0.2060    0.1320 C.ar    1  UNL1        0.0496
     13  C9        -6.9810    0.0690    1.3360 C.ar    1  UNL1       -0.0487
     14  C10       -6.3150   -0.2290    2.4950 C.ar    1  UNL1       -0.0610
     15  C11       -5.0520   -0.7920    2.4360 C.ar    1  UNL1       -0.0611
     16  C12       -4.4400   -1.0610    1.2260 C.ar    1  UNL1       -0.0521
     17  C13       -5.0910   -0.7680    0.0400 C.ar    1  UNL1        0.0106
     18  C14       -2.0170    0.3540   -2.2750 C.ar    1  UNL1       -0.0555
     19  C15       -1.0870    1.3630   -2.2440 C.ar    1  UNL1       -0.0254
     20  C16       -0.2210    1.4700   -1.1650 C.ar    1  UNL1        0.1355
     21  F1         0.6770    2.4620   -1.1580 F       1  UNL1       -0.2047
     22  N3         1.8780   -0.0010    1.0640 N.am    1  UNL1       -0.2945
     23  C17        2.2760   -0.7610   -0.0780 C.3     1  UNL1        0.0308
     24  C18        3.7510   -0.5980   -0.3960 C.3     1  UNL1        0.0305
     25  N4         4.5300   -0.3070    0.7790 N.am    1  UNL1       -0.2983
     26  C19        5.7830    0.3310    0.7520 C.2     1  UNL1        0.2187
     27  O3         6.4010    0.5600    1.8160 O.2     1  UNL1       -0.2753
     28  C20        6.3730    0.7340   -0.5440 C.3     1  UNL1        0.0358
     29  C21        7.8540    0.7540   -0.6360 C.3     1  UNL1       -0.0412
     30  C22        7.1250    2.0790   -0.4990 C.3     1  UNL1       -0.0412
     31  C23        3.9800   -0.7070    2.0730 C.3     1  UNL1        0.0305
     32  C24        2.7050    0.1200    2.2640 C.3     1  UNL1        0.0308
     33 H          -1.2588   -1.0973    0.6157 H       1  UNL1        0.0629
     34 H          -2.9515   -2.3289   -0.5536 H       1  UNL1        0.0377
     35 H          -3.0541   -2.0243   -2.2934 H       1  UNL1        0.0377
     36 H          -6.8584   -0.0159   -3.0412 H       1  UNL1        0.1921
     37 H          -7.9238    0.4881    1.3603 H       1  UNL1        0.0625
     38 H          -6.7532   -0.0345    3.4089 H       1  UNL1        0.0618
     39 H          -4.5569   -1.0156    3.3134 H       1  UNL1        0.0618
     40 H          -3.4973   -1.4805    1.2069 H       1  UNL1        0.0624
     41 H          -2.6643    0.2678   -3.0741 H       1  UNL1        0.0621
     42 H          -1.0320    2.0401   -3.0209 H       1  UNL1        0.0646
     43 H           1.7045   -0.4370   -0.9226 H       1  UNL1        0.0480
     44 H           2.1015   -1.7938    0.1405 H       1  UNL1        0.0480
     45 H           3.8667    0.2047   -1.0940 H       1  UNL1        0.0480
     46 H           4.1038   -1.5219   -0.8044 H       1  UNL1        0.0480
     47 H           5.6008    0.2981   -1.1428 H       1  UNL1        0.0394
     48 H           8.3312    0.5046   -1.5607 H       1  UNL1        0.0273
     49 H           8.6420    0.2761   -0.0924 H       1  UNL1        0.0273
     50 H           7.1826    2.6356    0.4131 H       1  UNL1        0.0273
     51 H           7.0905    2.9967   -1.0481 H       1  UNL1        0.0273
     52 H           4.6796   -0.4975    2.8550 H       1  UNL1        0.0480
     53 H           3.7745   -1.7566    2.1038 H       1  UNL1        0.0480
     54 H           2.1636   -0.2451    3.1117 H       1  UNL1        0.0480
     55 H           2.9595    1.1464    2.4270 H       1  UNL1        0.0480
@<TRIPOS>BOND
     1     1     2    2
     2     2     3    1
     3     2    22   am
     4     3     4   ar
     5     3    20   ar
     6     4     5   ar
     7     5     6    1
     8     5    18   ar
     9     6     7    1
    10     7     8   ar
    11     7    17   ar
    12     8     9   ar
    13     9    10   ar
    14    10    11    2
    15    10    12   ar
    16    12    13   ar
    17    12    17   ar
    18    13    14   ar
    19    14    15   ar
    20    15    16   ar
    21    16    17   ar
    22    18    19   ar
    23    19    20   ar
    24    20    21    1
    25    22    23    1
    26    22    32    1
    27    23    24    1
    28    24    25    1
    29    25    26   am
    30    25    31    1
    31    26    27    2
    32    26    28    1
    33    28    29    1
    34    28    30    1
    35    29    30    1
    36    31    32    1
    37     4    33    1
    38     6    34    1
    39     6    35    1
    40     9    36    1
    41    13    37    1
    42    14    38    1
    43    15    39    1
    44    16    40    1
    45    18    41    1
    46    19    42    1
    47    23    43    1
    48    23    44    1
    49    24    45    1
    50    24    46    1
    51    28    47    1
    52    29    48    1
    53    29    49    1
    54    30    50    1
    55    30    51    1
    56    31    52    1
    57    31    53    1
    58    32    54    1
    59    32    55    1
