@<TRIPOS>MOLECULE
../data/bude_mols_rdkit_confs/molecule_74.pdb
 39 42 0 0 0
SMALL
GASTEIGER

@<TRIPOS>ATOM
      1  O1        -3.6280    2.2070    3.0100 O.2     1  UNL1       -0.2658
      2  C1        -3.0600    1.9030    1.9320 C.ar    1  UNL1        0.2725
      3  N1        -2.1160    2.6480    1.3380 N.ar    1  UNL1       -0.2425
      4  N2        -1.5570    2.2760    0.2100 N.ar    1  UNL1       -0.1750
      5  C2        -1.8660    1.1220   -0.4660 C.ar    1  UNL1        0.0736
      6  C3        -1.1330    0.7800   -1.7020 C.3     1  UNL1        0.0171
      7  C4         0.0160   -0.1230   -1.5230 C.ar    1  UNL1       -0.0408
      8  C5         0.0270   -1.4200   -1.9380 C.ar    1  UNL1       -0.0555
      9  C6         1.1030   -2.2750   -1.7640 C.ar    1  UNL1       -0.0256
     10  C7         2.2440   -1.8310   -1.1430 C.ar    1  UNL1        0.1311
     11  F1         3.3170   -2.6440   -0.9570 F       1  UNL1       -0.2049
     12  C8         2.2730   -0.5260   -0.7090 C.ar    1  UNL1        0.0177
     13  C9         3.4960   -0.0360   -0.0420 C.ar    1  UNL1       -0.0123
     14  C10        4.0580    1.1690   -0.3200 C.ar    1  UNL1       -0.0358
     15  C11        5.2030    1.6070    0.3170 C.ar    1  UNL1        0.0281
     16  N3         5.7530    0.7860    1.2380 N.ar    1  UNL1       -0.2632
     17  C12        5.2250   -0.4060    1.5350 C.ar    1  UNL1        0.0281
     18  C13        4.0900   -0.8460    0.9070 C.ar    1  UNL1       -0.0358
     19  C14        1.1920    0.3090   -0.8910 C.ar    1  UNL1       -0.0477
     20  C15       -2.8210    0.3220    0.0880 C.ar    1  UNL1        0.0106
     21  C16       -3.2190   -0.8470   -0.5130 C.ar    1  UNL1       -0.0521
     22  C17       -4.1920   -1.6260    0.0610 C.ar    1  UNL1       -0.0611
     23  C18       -4.7910   -1.2710    1.2320 C.ar    1  UNL1       -0.0610
     24  C19       -4.3820   -0.1060    1.8110 C.ar    1  UNL1       -0.0487
     25  C20       -3.4100    0.7170    1.2810 C.ar    1  UNL1        0.0496
     26 H          -1.8359    3.4934    1.7577 H       1  UNL1        0.1921
     27 H          -0.7739    1.6898   -2.1358 H       1  UNL1        0.0377
     28 H          -1.8284    0.2543   -2.3224 H       1  UNL1        0.0377
     29 H          -0.8146   -1.7870   -2.4092 H       1  UNL1        0.0621
     30 H           1.0467   -3.2484   -2.1021 H       1  UNL1        0.0646
     31 H           3.6163    1.7756   -1.0285 H       1  UNL1        0.0639
     32 H           5.6214    2.5246    0.0980 H       1  UNL1        0.0830
     33 H           5.6780   -1.0015    2.2458 H       1  UNL1        0.0830
     34 H           3.6854   -1.7667    1.1386 H       1  UNL1        0.0639
     35 H           1.2491    1.2821   -0.5520 H       1  UNL1        0.0627
     36 H          -2.7839   -1.1412   -1.4013 H       1  UNL1        0.0624
     37 H          -4.4767   -2.5015   -0.4054 H       1  UNL1        0.0618
     38 H          -5.5225   -1.8582    1.6622 H       1  UNL1        0.0618
     39 H          -4.8261    0.1768    2.6986 H       1  UNL1        0.0625
@<TRIPOS>BOND
     1     1     2    2
     2     2     3   ar
     3     2    25   ar
     4     3     4   ar
     5     4     5   ar
     6     5     6    1
     7     5    20   ar
     8     6     7    1
     9     7     8   ar
    10     7    19   ar
    11     8     9   ar
    12     9    10   ar
    13    10    11    1
    14    10    12   ar
    15    12    13    1
    16    12    19   ar
    17    13    14   ar
    18    13    18   ar
    19    14    15   ar
    20    15    16   ar
    21    16    17   ar
    22    17    18   ar
    23    20    21   ar
    24    20    25   ar
    25    21    22   ar
    26    22    23   ar
    27    23    24   ar
    28    24    25   ar
    29     3    26    1
    30     6    27    1
    31     6    28    1
    32     8    29    1
    33     9    30    1
    34    14    31    1
    35    15    32    1
    36    17    33    1
    37    18    34    1
    38    19    35    1
    39    21    36    1
    40    22    37    1
    41    23    38    1
    42    24    39    1
@<TRIPOS>MOLECULE
../data/bude_mols_rdkit_confs/molecule_74.pdb
 39 42 0 0 0
SMALL
GASTEIGER

@<TRIPOS>ATOM
      1  O1         4.1400    1.9170   -2.7670 O.2     1  UNL1       -0.2658
      2  C1         3.4320    1.3370   -1.8790 C.ar    1  UNL1        0.2725
      3  N1         2.2920    0.7100   -2.2160 N.ar    1  UNL1       -0.2425
      4  N2         1.5290    0.0950   -1.3160 N.ar    1  UNL1       -0.1750
      5  C2         1.8480    0.0630   -0.0190 C.ar    1  UNL1        0.0736
      6  C3         1.0530   -0.5980    1.0360 C.3     1  UNL1        0.0171
      7  C4        -0.1720   -1.2410    0.4900 C.ar    1  UNL1       -0.0408
      8  C5        -0.1460   -2.5570    0.0560 C.ar    1  UNL1       -0.0555
      9  C6        -1.2810   -3.1640   -0.4540 C.ar    1  UNL1       -0.0256
     10  C7        -2.4600   -2.4780   -0.5430 C.ar    1  UNL1        0.1311
     11  F1        -3.5820   -3.0670   -1.0430 F       1  UNL1       -0.2049
     12  C8        -2.5280   -1.1640   -0.1210 C.ar    1  UNL1        0.0177
     13  C9        -3.7650   -0.4000   -0.1990 C.ar    1  UNL1       -0.0123
     14  C10       -4.5770   -0.4080   -1.3130 C.ar    1  UNL1       -0.0358
     15  C11       -5.7520    0.3290   -1.3620 C.ar    1  UNL1        0.0281
     16  N3        -6.1370    1.0890   -0.2950 N.ar    1  UNL1       -0.2632
     17  C12       -5.3630    1.1140    0.8040 C.ar    1  UNL1        0.0281
     18  C13       -4.1880    0.3780    0.8570 C.ar    1  UNL1       -0.0358
     19  C14       -1.3750   -0.5800    0.3860 C.ar    1  UNL1       -0.0477
     20  C15        3.0110    0.6980    0.3560 C.ar    1  UNL1        0.0106
     21  C16        3.3940    0.7000    1.6820 C.ar    1  UNL1       -0.0521
     22  C17        4.5540    1.3270    2.0930 C.ar    1  UNL1       -0.0611
     23  C18        5.3290    1.9560    1.1540 C.ar    1  UNL1       -0.0610
     24  C19        4.9630    1.9640   -0.1720 C.ar    1  UNL1       -0.0487
     25  C20        3.8160    1.3410   -0.5580 C.ar    1  UNL1        0.0496
     26 H           2.0123    0.7056   -3.1599 H       1  UNL1        0.1921
     27 H           0.7649    0.1340    1.7613 H       1  UNL1        0.0377
     28 H           1.6589   -1.3619    1.4767 H       1  UNL1        0.0377
     29 H           0.7338   -3.0932    0.1139 H       1  UNL1        0.0621
     30 H          -1.2364   -4.1453   -0.7705 H       1  UNL1        0.0646
     31 H          -4.3045   -0.9759   -2.1305 H       1  UNL1        0.0639
     32 H          -6.3387    0.3024   -2.2106 H       1  UNL1        0.0830
     33 H          -5.6453    1.6857    1.6154 H       1  UNL1        0.0830
     34 H          -3.6132    0.4143    1.7134 H       1  UNL1        0.0639
     35 H          -1.4223    0.4014    0.7016 H       1  UNL1        0.0627
     36 H           2.8019    0.2236    2.3802 H       1  UNL1        0.0624
     37 H           4.8315    1.3219    3.0870 H       1  UNL1        0.0618
     38 H           6.1983    2.4297    1.4454 H       1  UNL1        0.0618
     39 H           5.5550    2.4399   -0.8706 H       1  UNL1        0.0625
@<TRIPOS>BOND
     1     1     2    2
     2     2     3   ar
     3     2    25   ar
     4     3     4   ar
     5     4     5   ar
     6     5     6    1
     7     5    20   ar
     8     6     7    1
     9     7     8   ar
    10     7    19   ar
    11     8     9   ar
    12     9    10   ar
    13    10    11    1
    14    10    12   ar
    15    12    13    1
    16    12    19   ar
    17    13    14   ar
    18    13    18   ar
    19    14    15   ar
    20    15    16   ar
    21    16    17   ar
    22    17    18   ar
    23    20    21   ar
    24    20    25   ar
    25    21    22   ar
    26    22    23   ar
    27    23    24   ar
    28    24    25   ar
    29     3    26    1
    30     6    27    1
    31     6    28    1
    32     8    29    1
    33     9    30    1
    34    14    31    1
    35    15    32    1
    36    17    33    1
    37    18    34    1
    38    19    35    1
    39    21    36    1
    40    22    37    1
    41    23    38    1
    42    24    39    1
@<TRIPOS>MOLECULE
../data/bude_mols_rdkit_confs/molecule_74.pdb
 39 42 0 0 0
SMALL
GASTEIGER

@<TRIPOS>ATOM
      1  O1        -3.5750   -1.1860    3.2500 O.2     1  UNL1       -0.2658
      2  C1        -2.9920   -0.8820    2.1580 C.ar    1  UNL1        0.2725
      3  N1        -1.6850   -1.0550    1.9870 N.ar    1  UNL1       -0.2425
      4  N2        -1.1060   -0.7350    0.8600 N.ar    1  UNL1       -0.1750
      5  C2        -1.7570   -0.2150   -0.2070 C.ar    1  UNL1        0.0736
      6  C3        -1.0310    0.1410   -1.4130 C.3     1  UNL1        0.0171
      7  C4         0.3640   -0.3510   -1.4330 C.ar    1  UNL1       -0.0408
      8  C5         0.7260   -1.4620   -2.1440 C.ar    1  UNL1       -0.0555
      9  C6         2.0450   -1.9360   -2.1540 C.ar    1  UNL1       -0.0256
     10  C7         3.0150   -1.2530   -1.4140 C.ar    1  UNL1        0.1311
     11  F1         4.2680   -1.7560   -1.4680 F       1  UNL1       -0.2049
     12  C8         2.6550   -0.1380   -0.6980 C.ar    1  UNL1        0.0177
     13  C9         3.6850    0.5410    0.0750 C.ar    1  UNL1       -0.0123
     14  C10        3.7750    1.9320    0.0650 C.ar    1  UNL1       -0.0358
     15  C11        4.7620    2.5360    0.8150 C.ar    1  UNL1        0.0281
     16  N3         5.6390    1.8450    1.5530 N.ar    1  UNL1       -0.2632
     17  C12        5.5580    0.4760    1.5670 C.ar    1  UNL1        0.0281
     18  C13        4.5960   -0.1380    0.8380 C.ar    1  UNL1       -0.0358
     19  C14        1.3300    0.3080   -0.7110 C.ar    1  UNL1       -0.0477
     20  C15       -3.1080   -0.0370   -0.0330 C.ar    1  UNL1        0.0106
     21  C16       -3.8490    0.4780   -1.0680 C.ar    1  UNL1       -0.0521
     22  C17       -5.1910    0.6580   -0.9200 C.ar    1  UNL1       -0.0611
     23  C18       -5.8650    0.3360    0.2610 C.ar    1  UNL1       -0.0610
     24  C19       -5.1340   -0.1810    1.3060 C.ar    1  UNL1       -0.0487
     25  C20       -3.7740   -0.3620    1.1540 C.ar    1  UNL1        0.0496
     26 H          -1.1454   -1.4297    2.7202 H       1  UNL1        0.1921
     27 H          -1.0144    1.2077   -1.4951 H       1  UNL1        0.0377
     28 H          -1.5386   -0.3231   -2.2327 H       1  UNL1        0.0377
     29 H           0.0080   -1.9653   -2.6882 H       1  UNL1        0.0621
     30 H           2.2962   -2.7757   -2.6988 H       1  UNL1        0.0646
     31 H           3.1164    2.4982   -0.4923 H       1  UNL1        0.0639
     32 H           4.8273    3.5659    0.8069 H       1  UNL1        0.0830
     33 H           6.2229   -0.0802    2.1270 H       1  UNL1        0.0830
     34 H           4.5474   -1.1686    0.8588 H       1  UNL1        0.0639
     35 H           1.0727    1.1474   -0.1685 H       1  UNL1        0.0627
     36 H          -3.3894    0.7285   -1.9574 H       1  UNL1        0.0624
     37 H          -5.7301    1.0467   -1.7095 H       1  UNL1        0.0618
     38 H          -6.8830    0.4819    0.3471 H       1  UNL1        0.0618
     39 H          -5.5975   -0.4307    2.1936 H       1  UNL1        0.0625
@<TRIPOS>BOND
     1     1     2    2
     2     2     3   ar
     3     2    25   ar
     4     3     4   ar
     5     4     5   ar
     6     5     6    1
     7     5    20   ar
     8     6     7    1
     9     7     8   ar
    10     7    19   ar
    11     8     9   ar
    12     9    10   ar
    13    10    11    1
    14    10    12   ar
    15    12    13    1
    16    12    19   ar
    17    13    14   ar
    18    13    18   ar
    19    14    15   ar
    20    15    16   ar
    21    16    17   ar
    22    17    18   ar
    23    20    21   ar
    24    20    25   ar
    25    21    22   ar
    26    22    23   ar
    27    23    24   ar
    28    24    25   ar
    29     3    26    1
    30     6    27    1
    31     6    28    1
    32     8    29    1
    33     9    30    1
    34    14    31    1
    35    15    32    1
    36    17    33    1
    37    18    34    1
    38    19    35    1
    39    21    36    1
    40    22    37    1
    41    23    38    1
    42    24    39    1
@<TRIPOS>MOLECULE
../data/bude_mols_rdkit_confs/molecule_74.pdb
 39 42 0 0 0
SMALL
GASTEIGER

@<TRIPOS>ATOM
      1  O1        -3.0010    1.8110   -3.3110 O.2     1  UNL1       -0.2658
      2  C1        -2.5360    1.6920   -2.1470 C.ar    1  UNL1        0.2725
      3  N1        -1.4780    2.4060   -1.7380 N.ar    1  UNL1       -0.2425
      4  N2        -1.0030    2.2700   -0.5190 N.ar    1  UNL1       -0.1750
      5  C2        -1.5680    1.4050    0.3580 C.ar    1  UNL1        0.0736
      6  C3        -0.9190    1.2340    1.6900 C.3     1  UNL1        0.0171
      7  C4         0.0490    0.0940    1.5300 C.ar    1  UNL1       -0.0408
      8  C5        -0.1930   -1.1330    2.0600 C.ar    1  UNL1       -0.0555
      9  C6         0.7480   -2.1480    1.8460 C.ar    1  UNL1       -0.0256
     10  C7         1.8960   -1.9490    1.1260 C.ar    1  UNL1        0.1311
     11  F1         2.7810   -2.9750    0.9460 F       1  UNL1       -0.2049
     12  C8         2.1210   -0.7080    0.6020 C.ar    1  UNL1        0.0177
     13  C9         3.3180   -0.4130   -0.1790 C.ar    1  UNL1       -0.0123
     14  C10        3.2680    0.3260   -1.3430 C.ar    1  UNL1       -0.0358
     15  C11        4.4120    0.5840   -2.0660 C.ar    1  UNL1        0.0281
     16  N3         5.5560    0.0840   -1.5830 N.ar    1  UNL1       -0.2632
     17  C12        5.6490   -0.6380   -0.4580 C.ar    1  UNL1        0.0281
     18  C13        4.5190   -0.9070    0.2800 C.ar    1  UNL1       -0.0358
     19  C14        1.2220    0.2900    0.7980 C.ar    1  UNL1       -0.0477
     20  C15       -2.6510    0.6510    0.0010 C.ar    1  UNL1        0.0106
     21  C16       -3.2760   -0.2250    0.8570 C.ar    1  UNL1       -0.0521
     22  C17       -4.3890   -0.9800    0.4950 C.ar    1  UNL1       -0.0611
     23  C18       -4.8630   -0.8220   -0.7870 C.ar    1  UNL1       -0.0610
     24  C19       -4.2430    0.0580   -1.6550 C.ar    1  UNL1       -0.0487
     25  C20       -3.1550    0.7980   -1.3010 C.ar    1  UNL1        0.0496
     26 H          -1.0509    3.0404   -2.3580 H       1  UNL1        0.1921
     27 H          -1.6513    0.9995    2.4341 H       1  UNL1        0.0377
     28 H          -0.4250    2.1292    2.0056 H       1  UNL1        0.0377
     29 H          -1.0494   -1.3129    2.6070 H       1  UNL1        0.0621
     30 H           0.5694   -3.0822    2.2464 H       1  UNL1        0.0646
     31 H           2.3618    0.6903   -1.6764 H       1  UNL1        0.0639
     32 H           4.3882    1.1360   -2.9377 H       1  UNL1        0.0830
     33 H           6.5667   -0.9918   -0.1454 H       1  UNL1        0.0830
     34 H           4.5698   -1.4610    1.1492 H       1  UNL1        0.0639
     35 H           1.4109    1.2208    0.3943 H       1  UNL1        0.0627
     36 H          -2.9025   -0.3280    1.8135 H       1  UNL1        0.0624
     37 H          -4.8385   -1.6295    1.1592 H       1  UNL1        0.0618
     38 H          -5.6841   -1.3621   -1.1019 H       1  UNL1        0.0618
     39 H          -4.6199    0.1584   -2.6104 H       1  UNL1        0.0625
@<TRIPOS>BOND
     1     1     2    2
     2     2     3   ar
     3     2    25   ar
     4     3     4   ar
     5     4     5   ar
     6     5     6    1
     7     5    20   ar
     8     6     7    1
     9     7     8   ar
    10     7    19   ar
    11     8     9   ar
    12     9    10   ar
    13    10    11    1
    14    10    12   ar
    15    12    13    1
    16    12    19   ar
    17    13    14   ar
    18    13    18   ar
    19    14    15   ar
    20    15    16   ar
    21    16    17   ar
    22    17    18   ar
    23    20    21   ar
    24    20    25   ar
    25    21    22   ar
    26    22    23   ar
    27    23    24   ar
    28    24    25   ar
    29     3    26    1
    30     6    27    1
    31     6    28    1
    32     8    29    1
    33     9    30    1
    34    14    31    1
    35    15    32    1
    36    17    33    1
    37    18    34    1
    38    19    35    1
    39    21    36    1
    40    22    37    1
    41    23    38    1
    42    24    39    1
@<TRIPOS>MOLECULE
../data/bude_mols_rdkit_confs/molecule_74.pdb
 39 42 0 0 0
SMALL
GASTEIGER

@<TRIPOS>ATOM
      1  O1        -5.0310    2.2970    1.7540 O.2     1  UNL1       -0.2658
      2  C1        -4.1000    1.8200    1.0750 C.ar    1  UNL1        0.2725
      3  N1        -3.0030    2.5340    0.8330 N.ar    1  UNL1       -0.2425
      4  N2        -1.9800    2.1050    0.1300 N.ar    1  UNL1       -0.1750
      5  C2        -1.9860    0.8500   -0.4140 C.ar    1  UNL1        0.0736
      6  C3        -0.7980    0.3730   -1.1440 C.3     1  UNL1        0.0171
      7  C4         0.2430   -0.2760   -0.3160 C.ar    1  UNL1       -0.0408
      8  C5         0.0500   -1.2680    0.5840 C.ar    1  UNL1       -0.0555
      9  C6         1.1200   -1.8150    1.2680 C.ar    1  UNL1       -0.0256
     10  C7         2.4220   -1.3510    1.0420 C.ar    1  UNL1        0.1311
     11  F1         3.4510   -1.8780    1.7020 F       1  UNL1       -0.2049
     12  C8         2.6510   -0.3470    0.1370 C.ar    1  UNL1        0.0177
     13  C9         3.9880    0.1380   -0.1140 C.ar    1  UNL1       -0.0123
     14  C10        4.2940    1.5030   -0.2430 C.ar    1  UNL1       -0.0358
     15  C11        5.5630    1.9360   -0.4800 C.ar    1  UNL1        0.0281
     16  N3         6.5460    1.0320   -0.5930 N.ar    1  UNL1       -0.2632
     17  C12        6.2810   -0.2860   -0.4730 C.ar    1  UNL1        0.0281
     18  C13        5.0260   -0.7780   -0.2360 C.ar    1  UNL1       -0.0358
     19  C14        1.5670    0.1660   -0.5180 C.ar    1  UNL1       -0.0477
     20  C15       -3.1140    0.0920   -0.1770 C.ar    1  UNL1        0.0106
     21  C16       -3.2030   -1.1720   -0.7250 C.ar    1  UNL1       -0.0521
     22  C17       -4.3340   -1.9260   -0.5210 C.ar    1  UNL1       -0.0611
     23  C18       -5.4050   -1.4330    0.2370 C.ar    1  UNL1       -0.0610
     24  C19       -5.3270   -0.1860    0.7820 C.ar    1  UNL1       -0.0487
     25  C20       -4.1850    0.5520    0.5630 C.ar    1  UNL1        0.0496
     26 H          -2.9553    3.4440    1.2057 H       1  UNL1        0.1921
     27 H          -0.3526    1.2139   -1.6334 H       1  UNL1        0.0377
     28 H          -1.1505   -0.3816   -1.8158 H       1  UNL1        0.0377
     29 H          -0.9040   -1.6193    0.7614 H       1  UNL1        0.0621
     30 H           0.9578   -2.5716    1.9508 H       1  UNL1        0.0646
     31 H           3.5355    2.1973   -0.1557 H       1  UNL1        0.0639
     32 H           5.7646    2.9440   -0.5711 H       1  UNL1        0.0830
     33 H           7.0618   -0.9546   -0.5643 H       1  UNL1        0.0830
     34 H           4.8566   -1.7925   -0.1510 H       1  UNL1        0.0639
     35 H           1.7268    0.9224   -1.2016 H       1  UNL1        0.0627
     36 H          -2.4232   -1.5494   -1.2858 H       1  UNL1        0.0624
     37 H          -4.3956   -2.8704   -0.9326 H       1  UNL1        0.0618
     38 H          -6.2478   -2.0108    0.3817 H       1  UNL1        0.0618
     39 H          -6.1038    0.1953    1.3443 H       1  UNL1        0.0625
@<TRIPOS>BOND
     1     1     2    2
     2     2     3   ar
     3     2    25   ar
     4     3     4   ar
     5     4     5   ar
     6     5     6    1
     7     5    20   ar
     8     6     7    1
     9     7     8   ar
    10     7    19   ar
    11     8     9   ar
    12     9    10   ar
    13    10    11    1
    14    10    12   ar
    15    12    13    1
    16    12    19   ar
    17    13    14   ar
    18    13    18   ar
    19    14    15   ar
    20    15    16   ar
    21    16    17   ar
    22    17    18   ar
    23    20    21   ar
    24    20    25   ar
    25    21    22   ar
    26    22    23   ar
    27    23    24   ar
    28    24    25   ar
    29     3    26    1
    30     6    27    1
    31     6    28    1
    32     8    29    1
    33     9    30    1
    34    14    31    1
    35    15    32    1
    36    17    33    1
    37    18    34    1
    38    19    35    1
    39    21    36    1
    40    22    37    1
    41    23    38    1
    42    24    39    1
@<TRIPOS>MOLECULE
../data/bude_mols_rdkit_confs/molecule_74.pdb
 39 42 0 0 0
SMALL
GASTEIGER

@<TRIPOS>ATOM
      1  O1         3.8020    1.9680   -2.9630 O.2     1  UNL1       -0.2658
      2  C1         3.1560    1.2620   -2.1450 C.ar    1  UNL1        0.2725
      3  N1         1.8720    0.9350   -2.3830 N.ar    1  UNL1       -0.2425
      4  N2         1.1760    0.1960   -1.5400 N.ar    1  UNL1       -0.1750
      5  C2         1.7880   -0.2320   -0.4110 C.ar    1  UNL1        0.0736
      6  C3         1.0510   -1.0750    0.5890 C.3     1  UNL1        0.0171
      7  C4        -0.3440   -1.3210    0.1390 C.ar    1  UNL1       -0.0408
      8  C5        -0.6140   -2.4270   -0.6380 C.ar    1  UNL1       -0.0555
      9  C6        -1.9130   -2.6690   -1.0660 C.ar    1  UNL1       -0.0256
     10  C7        -2.9080   -1.7730   -0.6890 C.ar    1  UNL1        0.1311
     11  F1        -4.1860   -1.9730   -1.0850 F       1  UNL1       -0.2049
     12  C8        -2.6480   -0.6630    0.0880 C.ar    1  UNL1        0.0177
     13  C9        -3.7200    0.2530    0.4620 C.ar    1  UNL1       -0.0123
     14  C10       -3.5220    1.6150    0.3640 C.ar    1  UNL1       -0.0358
     15  C11       -4.5350    2.4910    0.7170 C.ar    1  UNL1        0.0281
     16  N3        -5.7320    2.0620    1.1620 N.ar    1  UNL1       -0.2632
     17  C12       -5.9490    0.7370    1.2660 C.ar    1  UNL1        0.0281
     18  C13       -4.9510   -0.1710    0.9190 C.ar    1  UNL1       -0.0358
     19  C14       -1.3630   -0.4370    0.5020 C.ar    1  UNL1       -0.0477
     20  C15        3.0920    0.0680   -0.1100 C.ar    1  UNL1        0.0106
     21  C16        3.7270   -0.3650    1.0410 C.ar    1  UNL1       -0.0521
     22  C17        5.0430   -0.0330    1.2930 C.ar    1  UNL1       -0.0611
     23  C18        5.7410    0.7480    0.3760 C.ar    1  UNL1       -0.0610
     24  C19        5.1220    1.1870   -0.7760 C.ar    1  UNL1       -0.0487
     25  C20        3.8080    0.8390   -0.9980 C.ar    1  UNL1        0.0496
     26 H           1.4408    1.2557   -3.2079 H       1  UNL1        0.1921
     27 H           1.0323   -0.5676    1.5309 H       1  UNL1        0.0377
     28 H           1.5533   -2.0149    0.6847 H       1  UNL1        0.0377
     29 H           0.1465   -3.0732   -0.9009 H       1  UNL1        0.0621
     30 H          -2.1341   -3.4918   -1.6483 H       1  UNL1        0.0646
     31 H          -2.6179    1.9814    0.0272 H       1  UNL1        0.0639
     32 H          -4.3673    3.5061    0.6365 H       1  UNL1        0.0830
     33 H          -6.8606    0.3919    1.6050 H       1  UNL1        0.0830
     34 H          -5.1364   -1.1825    1.0056 H       1  UNL1        0.0639
     35 H          -1.1466    0.3878    1.0833 H       1  UNL1        0.0627
     36 H           3.2094   -0.9442    1.7204 H       1  UNL1        0.0624
     37 H           5.5060   -0.3614    2.1549 H       1  UNL1        0.0618
     38 H           6.7251    0.9995    0.5587 H       1  UNL1        0.0618
     39 H           5.6345    1.7660   -1.4595 H       1  UNL1        0.0625
@<TRIPOS>BOND
     1     1     2    2
     2     2     3   ar
     3     2    25   ar
     4     3     4   ar
     5     4     5   ar
     6     5     6    1
     7     5    20   ar
     8     6     7    1
     9     7     8   ar
    10     7    19   ar
    11     8     9   ar
    12     9    10   ar
    13    10    11    1
    14    10    12   ar
    15    12    13    1
    16    12    19   ar
    17    13    14   ar
    18    13    18   ar
    19    14    15   ar
    20    15    16   ar
    21    16    17   ar
    22    17    18   ar
    23    20    21   ar
    24    20    25   ar
    25    21    22   ar
    26    22    23   ar
    27    23    24   ar
    28    24    25   ar
    29     3    26    1
    30     6    27    1
    31     6    28    1
    32     8    29    1
    33     9    30    1
    34    14    31    1
    35    15    32    1
    36    17    33    1
    37    18    34    1
    38    19    35    1
    39    21    36    1
    40    22    37    1
    41    23    38    1
    42    24    39    1
@<TRIPOS>MOLECULE
../data/bude_mols_rdkit_confs/molecule_74.pdb
 39 42 0 0 0
SMALL
GASTEIGER

@<TRIPOS>ATOM
      1  O1        -4.3790   -0.3660   -3.1180 O.2     1  UNL1       -0.2658
      2  C1        -3.5780    0.0880   -2.2190 C.ar    1  UNL1        0.2725
      3  N1        -2.4850    0.7650   -2.5490 N.ar    1  UNL1       -0.2425
      4  N2        -1.6550    1.2360   -1.6440 N.ar    1  UNL1       -0.1750
      5  C2        -1.8500    1.0660   -0.2970 C.ar    1  UNL1        0.0736
      6  C3        -0.8350    1.5400    0.6680 C.3     1  UNL1        0.0171
      7  C4         0.2340    0.5680    0.9640 C.ar    1  UNL1       -0.0408
      8  C5         0.1200   -0.4140    1.8950 C.ar    1  UNL1       -0.0555
      9  C6         1.1660   -1.3160    2.1500 C.ar    1  UNL1       -0.0256
     10  C7         2.3220   -1.2070    1.4500 C.ar    1  UNL1        0.1311
     11  F1         3.3250   -2.0810    1.6990 F       1  UNL1       -0.2049
     12  C8         2.4970   -0.2130    0.4790 C.ar    1  UNL1        0.0177
     13  C9         3.7500   -0.1090   -0.2430 C.ar    1  UNL1       -0.0123
     14  C10        4.3870   -1.1970   -0.7780 C.ar    1  UNL1       -0.0358
     15  C11        5.6030   -1.0530   -1.4640 C.ar    1  UNL1        0.0281
     16  N3         6.1570    0.1670   -1.6030 N.ar    1  UNL1       -0.2632
     17  C12        5.5560    1.2570   -1.0900 C.ar    1  UNL1        0.0281
     18  C13        4.3520    1.1180   -0.4100 C.ar    1  UNL1       -0.0358
     19  C14        1.4460    0.6380    0.2720 C.ar    1  UNL1       -0.0477
     20  C15       -2.9740    0.3710    0.0590 C.ar    1  UNL1        0.0106
     21  C16       -3.2890    0.1700    1.3710 C.ar    1  UNL1       -0.0521
     22  C17       -4.4320   -0.5050    1.7230 C.ar    1  UNL1       -0.0611
     23  C18       -5.3160   -1.0120    0.7900 C.ar    1  UNL1       -0.0610
     24  C19       -5.0170   -0.8180   -0.5370 C.ar    1  UNL1       -0.0487
     25  C20       -3.8630   -0.1350   -0.8950 C.ar    1  UNL1        0.0496
     26 H          -2.2894    0.9195   -3.5014 H       1  UNL1        0.1921
     27 H          -1.3323    1.7783    1.5850 H       1  UNL1        0.0377
     28 H          -0.3590    2.3850    0.2159 H       1  UNL1        0.0377
     29 H          -0.7587   -0.4998    2.4294 H       1  UNL1        0.0621
     30 H           1.0558   -2.0541    2.8628 H       1  UNL1        0.0646
     31 H           3.9677   -2.1344   -0.6755 H       1  UNL1        0.0639
     32 H           6.0725   -1.8815   -1.8618 H       1  UNL1        0.0830
     33 H           5.9861    2.1886   -1.2009 H       1  UNL1        0.0830
     34 H           3.8965    1.9577   -0.0194 H       1  UNL1        0.0639
     35 H           1.5550    1.3776   -0.4394 H       1  UNL1        0.0627
     36 H          -2.6614    0.5292    2.1072 H       1  UNL1        0.0624
     37 H          -4.6391   -0.6390    2.7251 H       1  UNL1        0.0618
     38 H          -6.1683   -1.5171    1.0788 H       1  UNL1        0.0618
     39 H          -5.6502   -1.1800   -1.2671 H       1  UNL1        0.0625
@<TRIPOS>BOND
     1     1     2    2
     2     2     3   ar
     3     2    25   ar
     4     3     4   ar
     5     4     5   ar
     6     5     6    1
     7     5    20   ar
     8     6     7    1
     9     7     8   ar
    10     7    19   ar
    11     8     9   ar
    12     9    10   ar
    13    10    11    1
    14    10    12   ar
    15    12    13    1
    16    12    19   ar
    17    13    14   ar
    18    13    18   ar
    19    14    15   ar
    20    15    16   ar
    21    16    17   ar
    22    17    18   ar
    23    20    21   ar
    24    20    25   ar
    25    21    22   ar
    26    22    23   ar
    27    23    24   ar
    28    24    25   ar
    29     3    26    1
    30     6    27    1
    31     6    28    1
    32     8    29    1
    33     9    30    1
    34    14    31    1
    35    15    32    1
    36    17    33    1
    37    18    34    1
    38    19    35    1
    39    21    36    1
    40    22    37    1
    41    23    38    1
    42    24    39    1
@<TRIPOS>MOLECULE
../data/bude_mols_rdkit_confs/molecule_74.pdb
 39 42 0 0 0
SMALL
GASTEIGER

@<TRIPOS>ATOM
      1  O1        -3.9560   -2.8670   -1.8330 O.2     1  UNL1       -0.2658
      2  C1        -3.3230   -1.8160   -1.6000 C.ar    1  UNL1        0.2725
      3  N1        -2.3970   -1.3980   -2.4730 N.ar    1  UNL1       -0.2425
      4  N2        -1.6970   -0.2920   -2.2750 N.ar    1  UNL1       -0.1750
      5  C2        -1.8640    0.5000   -1.1760 C.ar    1  UNL1        0.0736
      6  C3        -1.0280    1.6740   -0.9940 C.3     1  UNL1        0.0171
      7  C4         0.1570    1.5260   -0.1540 C.ar    1  UNL1       -0.0408
      8  C5         0.2480    2.1550    1.0530 C.ar    1  UNL1       -0.0555
      9  C6         1.3690    2.0170    1.8820 C.ar    1  UNL1       -0.0256
     10  C7         2.4090    1.2270    1.4720 C.ar    1  UNL1        0.1311
     11  F1         3.5340    1.0450    2.2260 F       1  UNL1       -0.2049
     12  C8         2.3680    0.5610    0.2460 C.ar    1  UNL1        0.0177
     13  C9         3.4650   -0.2750   -0.1940 C.ar    1  UNL1       -0.0123
     14  C10        4.0760   -1.1610    0.6540 C.ar    1  UNL1       -0.0358
     15  C11        5.1380   -1.9590    0.1980 C.ar    1  UNL1        0.0281
     16  N3         5.5430   -1.8480   -1.0660 N.ar    1  UNL1       -0.2632
     17  C12        4.9660   -0.9860   -1.9330 C.ar    1  UNL1        0.0281
     18  C13        3.9120   -0.1900   -1.4870 C.ar    1  UNL1       -0.0358
     19  C14        1.2440    0.7360   -0.5200 C.ar    1  UNL1       -0.0477
     20  C15       -2.7970    0.1160   -0.2600 C.ar    1  UNL1        0.0106
     21  C16       -3.0680    0.8410    0.8800 C.ar    1  UNL1       -0.0521
     22  C17       -4.0240    0.4610    1.8100 C.ar    1  UNL1       -0.0611
     23  C18       -4.7280   -0.7020    1.5600 C.ar    1  UNL1       -0.0610
     24  C19       -4.4960   -1.4570    0.4390 C.ar    1  UNL1       -0.0487
     25  C20       -3.5410   -1.0600   -0.4690 C.ar    1  UNL1        0.0496
     26 H          -2.2322   -1.9288   -3.2856 H       1  UNL1        0.1921
     27 H          -1.6372    2.4386   -0.5592 H       1  UNL1        0.0377
     28 H          -0.6484    1.8960   -1.9695 H       1  UNL1        0.0377
     29 H          -0.5339    2.7516    1.3655 H       1  UNL1        0.0621
     30 H           1.4101    2.5049    2.7905 H       1  UNL1        0.0646
     31 H           3.7547   -1.2423    1.6313 H       1  UNL1        0.0639
     32 H           5.6003   -2.6252    0.8364 H       1  UNL1        0.0830
     33 H           5.2997   -0.9185   -2.9072 H       1  UNL1        0.0830
     34 H           3.4624    0.4719   -2.1388 H       1  UNL1        0.0639
     35 H           1.2007    0.2494   -1.4291 H       1  UNL1        0.0627
     36 H          -2.5343    1.7078    1.0498 H       1  UNL1        0.0624
     37 H          -4.2029    1.0246    2.6558 H       1  UNL1        0.0618
     38 H          -5.4463   -1.0099    2.2340 H       1  UNL1        0.0618
     39 H          -5.0364   -2.3211    0.2766 H       1  UNL1        0.0625
@<TRIPOS>BOND
     1     1     2    2
     2     2     3   ar
     3     2    25   ar
     4     3     4   ar
     5     4     5   ar
     6     5     6    1
     7     5    20   ar
     8     6     7    1
     9     7     8   ar
    10     7    19   ar
    11     8     9   ar
    12     9    10   ar
    13    10    11    1
    14    10    12   ar
    15    12    13    1
    16    12    19   ar
    17    13    14   ar
    18    13    18   ar
    19    14    15   ar
    20    15    16   ar
    21    16    17   ar
    22    17    18   ar
    23    20    21   ar
    24    20    25   ar
    25    21    22   ar
    26    22    23   ar
    27    23    24   ar
    28    24    25   ar
    29     3    26    1
    30     6    27    1
    31     6    28    1
    32     8    29    1
    33     9    30    1
    34    14    31    1
    35    15    32    1
    36    17    33    1
    37    18    34    1
    38    19    35    1
    39    21    36    1
    40    22    37    1
    41    23    38    1
    42    24    39    1
@<TRIPOS>MOLECULE
../data/bude_mols_rdkit_confs/molecule_74.pdb
 39 42 0 0 0
SMALL
GASTEIGER

@<TRIPOS>ATOM
      1  O1         5.2000    1.7170   -2.3440 O.2     1  UNL1       -0.2658
      2  C1         4.1650    1.0800   -2.0820 C.ar    1  UNL1        0.2725
      3  N1         3.1460    1.0980   -2.9590 N.ar    1  UNL1       -0.2425
      4  N2         2.0590    0.4130   -2.6540 N.ar    1  UNL1       -0.1750
      5  C2         1.9160   -0.3000   -1.5180 C.ar    1  UNL1        0.0736
      6  C3         0.6440   -1.0080   -1.2510 C.3     1  UNL1        0.0171
      7  C4        -0.2480   -0.2040   -0.3960 C.ar    1  UNL1       -0.0408
      8  C5         0.2400    0.8460    0.3310 C.ar    1  UNL1       -0.0555
      9  C6        -0.6460    1.5700    1.1330 C.ar    1  UNL1       -0.0256
     10  C7        -1.9670    1.2800    1.2220 C.ar    1  UNL1        0.1311
     11  F1        -2.8550    1.9650    1.9930 F       1  UNL1       -0.2049
     12  C8        -2.4790    0.2120    0.4850 C.ar    1  UNL1        0.0177
     13  C9        -3.8940   -0.1370    0.5410 C.ar    1  UNL1       -0.0123
     14  C10       -4.3640   -1.4170    0.6750 C.ar    1  UNL1       -0.0358
     15  C11       -5.7150   -1.7160    0.7210 C.ar    1  UNL1        0.0281
     16  N3        -6.5670   -0.6700    0.6270 N.ar    1  UNL1       -0.2632
     17  C12       -6.1890    0.6020    0.4960 C.ar    1  UNL1        0.0281
     18  C13       -4.8420    0.8850    0.4510 C.ar    1  UNL1       -0.0358
     19  C14       -1.6120   -0.5070   -0.3070 C.ar    1  UNL1       -0.0477
     20  C15        2.9590   -0.3250   -0.6120 C.ar    1  UNL1        0.0106
     21  C16        2.9070   -1.0370    0.5620 C.ar    1  UNL1       -0.0521
     22  C17        3.9580   -1.0670    1.4550 C.ar    1  UNL1       -0.0611
     23  C18        5.1120   -0.3660    1.1790 C.ar    1  UNL1       -0.0610
     24  C19        5.1700    0.3490    0.0030 C.ar    1  UNL1       -0.0487
     25  C20        4.1190    0.3790   -0.8880 C.ar    1  UNL1        0.0496
     26 H           3.2082    1.6050   -3.8006 H       1  UNL1        0.1921
     27 H           0.8572   -1.9338   -0.7587 H       1  UNL1        0.0377
     28 H           0.1512   -1.1802   -2.1850 H       1  UNL1        0.0377
     29 H           1.2398    1.0981    0.2884 H       1  UNL1        0.0621
     30 H          -0.2777    2.3619    1.6828 H       1  UNL1        0.0646
     31 H          -3.6833   -2.1896    0.7445 H       1  UNL1        0.0639
     32 H          -6.0539   -2.6856    0.8217 H       1  UNL1        0.0830
     33 H          -6.8896    1.3569    0.4299 H       1  UNL1        0.0830
     34 H          -4.5294    1.8633    0.3496 H       1  UNL1        0.0639
     35 H          -1.9815   -1.2991   -0.8557 H       1  UNL1        0.0627
     36 H           2.0507   -1.5686    0.7837 H       1  UNL1        0.0624
     37 H           3.8803   -1.6129    2.3274 H       1  UNL1        0.0618
     38 H           5.9093   -0.3764    1.8341 H       1  UNL1        0.0618
     39 H           6.0276    0.8789   -0.2178 H       1  UNL1        0.0625
@<TRIPOS>BOND
     1     1     2    2
     2     2     3   ar
     3     2    25   ar
     4     3     4   ar
     5     4     5   ar
     6     5     6    1
     7     5    20   ar
     8     6     7    1
     9     7     8   ar
    10     7    19   ar
    11     8     9   ar
    12     9    10   ar
    13    10    11    1
    14    10    12   ar
    15    12    13    1
    16    12    19   ar
    17    13    14   ar
    18    13    18   ar
    19    14    15   ar
    20    15    16   ar
    21    16    17   ar
    22    17    18   ar
    23    20    21   ar
    24    20    25   ar
    25    21    22   ar
    26    22    23   ar
    27    23    24   ar
    28    24    25   ar
    29     3    26    1
    30     6    27    1
    31     6    28    1
    32     8    29    1
    33     9    30    1
    34    14    31    1
    35    15    32    1
    36    17    33    1
    37    18    34    1
    38    19    35    1
    39    21    36    1
    40    22    37    1
    41    23    38    1
    42    24    39    1
@<TRIPOS>MOLECULE
../data/bude_mols_rdkit_confs/molecule_74.pdb
 39 42 0 0 0
SMALL
GASTEIGER

@<TRIPOS>ATOM
      1  O1         3.6040    3.2560    1.3970 O.2     1  UNL1       -0.2658
      2  C1         3.0160    2.1400    1.3200 C.ar    1  UNL1        0.2725
      3  N1         1.9870    1.8270    2.1010 N.ar    1  UNL1       -0.2425
      4  N2         1.4040    0.6780    1.9990 N.ar    1  UNL1       -0.1750
      5  C2         1.7770   -0.2820    1.1130 C.ar    1  UNL1        0.0736
      6  C3         0.9800   -1.5200    1.0560 C.3     1  UNL1        0.0171
      7  C4        -0.0940   -1.5020    0.0380 C.ar    1  UNL1       -0.0408
      8  C5        -0.0380   -2.1260   -1.1720 C.ar    1  UNL1       -0.0555
      9  C6        -1.1410   -1.9930   -2.0250 C.ar    1  UNL1       -0.0256
     10  C7        -2.2600   -1.2640   -1.6820 C.ar    1  UNL1        0.1311
     11  F1        -3.2870   -1.1800   -2.5610 F       1  UNL1       -0.2049
     12  C8        -2.3210   -0.6300   -0.4530 C.ar    1  UNL1        0.0177
     13  C9        -3.4850    0.1500   -0.0420 C.ar    1  UNL1       -0.0123
     14  C10       -3.3920    1.3920    0.5490 C.ar    1  UNL1       -0.0358
     15  C11       -4.4970    2.1320    0.9410 C.ar    1  UNL1        0.0281
     16  N3        -5.7050    1.5720    0.7130 N.ar    1  UNL1       -0.2632
     17  C12       -5.8490    0.3600    0.1380 C.ar    1  UNL1        0.0281
     18  C13       -4.7530   -0.3790   -0.2530 C.ar    1  UNL1       -0.0358
     19  C14       -1.2350   -0.7680    0.3720 C.ar    1  UNL1       -0.0477
     20  C15        2.8240   -0.0220    0.2870 C.ar    1  UNL1        0.0106
     21  C16        3.2710   -0.9570   -0.6250 C.ar    1  UNL1       -0.0521
     22  C17        4.3450   -0.6550   -1.4310 C.ar    1  UNL1       -0.0611
     23  C18        4.9440    0.5790   -1.3000 C.ar    1  UNL1       -0.0610
     24  C19        4.5180    1.5280   -0.3970 C.ar    1  UNL1       -0.0487
     25  C20        3.4510    1.2130    0.3970 C.ar    1  UNL1        0.0496
     26 H           1.6650    2.4784    2.7653 H       1  UNL1        0.1921
     27 H           0.5313   -1.6750    2.0149 H       1  UNL1        0.0377
     28 H           1.6516   -2.3064    0.7815 H       1  UNL1        0.0377
     29 H           0.7886   -2.6776   -1.4504 H       1  UNL1        0.0621
     30 H          -1.1152   -2.4586   -2.9457 H       1  UNL1        0.0646
     31 H          -2.4534    1.7907    0.7075 H       1  UNL1        0.0639
     32 H          -4.4019    3.0598    1.3828 H       1  UNL1        0.0830
     33 H          -6.7965   -0.0206   -0.0118 H       1  UNL1        0.0830
     34 H          -4.8713   -1.3050   -0.6929 H       1  UNL1        0.0639
     35 H          -1.2617   -0.3029    1.2929 H       1  UNL1        0.0627
     36 H           2.8041   -1.8741   -0.7017 H       1  UNL1        0.0624
     37 H           4.6948   -1.3392   -2.1198 H       1  UNL1        0.0618
     38 H           5.7487    0.8025   -1.9062 H       1  UNL1        0.0618
     39 H           4.9876    2.4439   -0.3227 H       1  UNL1        0.0625
@<TRIPOS>BOND
     1     1     2    2
     2     2     3   ar
     3     2    25   ar
     4     3     4   ar
     5     4     5   ar
     6     5     6    1
     7     5    20   ar
     8     6     7    1
     9     7     8   ar
    10     7    19   ar
    11     8     9   ar
    12     9    10   ar
    13    10    11    1
    14    10    12   ar
    15    12    13    1
    16    12    19   ar
    17    13    14   ar
    18    13    18   ar
    19    14    15   ar
    20    15    16   ar
    21    16    17   ar
    22    17    18   ar
    23    20    21   ar
    24    20    25   ar
    25    21    22   ar
    26    22    23   ar
    27    23    24   ar
    28    24    25   ar
    29     3    26    1
    30     6    27    1
    31     6    28    1
    32     8    29    1
    33     9    30    1
    34    14    31    1
    35    15    32    1
    36    17    33    1
    37    18    34    1
    38    19    35    1
    39    21    36    1
    40    22    37    1
    41    23    38    1
    42    24    39    1
@<TRIPOS>MOLECULE
../data/bude_mols_rdkit_confs/molecule_74.pdb
 39 42 0 0 0
SMALL
GASTEIGER

@<TRIPOS>ATOM
      1  O1        -5.0730   -2.7290   -1.2870 O.2     1  UNL1       -0.2658
      2  C1        -4.0810   -1.9420   -1.2480 C.ar    1  UNL1        0.2725
      3  N1        -2.9990   -2.2630   -1.9470 N.ar    1  UNL1       -0.2425
      4  N2        -1.9500   -1.4650   -1.9250 N.ar    1  UNL1       -0.1750
      5  C2        -1.9440   -0.3110   -1.2000 C.ar    1  UNL1        0.0736
      6  C3        -0.7310    0.5240   -1.1710 C.3     1  UNL1        0.0171
      7  C4         0.2170    0.2230   -0.1030 C.ar    1  UNL1       -0.0408
      8  C5        -0.1470   -0.1520    1.1440 C.ar    1  UNL1       -0.0555
      9  C6         0.8370   -0.3900    2.0980 C.ar    1  UNL1       -0.0256
     10  C7         2.1770   -0.2470    1.7820 C.ar    1  UNL1        0.1311
     11  F1         3.1050   -0.4870    2.7260 F       1  UNL1       -0.2049
     12  C8         2.5810    0.1320    0.5260 C.ar    1  UNL1        0.0177
     13  C9         3.9980    0.2750    0.2330 C.ar    1  UNL1       -0.0123
     14  C10        4.5220   -0.2260   -0.9570 C.ar    1  UNL1       -0.0358
     15  C11        5.8380   -0.1180   -1.2930 C.ar    1  UNL1        0.0281
     16  N3         6.6900    0.5030   -0.4420 N.ar    1  UNL1       -0.2632
     17  C12        6.2000    0.9940    0.7180 C.ar    1  UNL1        0.0281
     18  C13        4.8780    0.9020    1.0890 C.ar    1  UNL1       -0.0358
     19  C14        1.5890    0.3600   -0.3970 C.ar    1  UNL1       -0.0477
     20  C15       -3.0620    0.0470   -0.4630 C.ar    1  UNL1        0.0106
     21  C16       -3.1250    1.2210    0.2720 C.ar    1  UNL1       -0.0521
     22  C17       -4.2780    1.5270    0.9620 C.ar    1  UNL1       -0.0611
     23  C18       -5.3660    0.6940    0.9370 C.ar    1  UNL1       -0.0610
     24  C19       -5.2800   -0.4630    0.2010 C.ar    1  UNL1       -0.0487
     25  C20       -4.1420   -0.8060   -0.5050 C.ar    1  UNL1        0.0496
     26 H          -2.9802   -3.0916   -2.4783 H       1  UNL1        0.1921
     27 H          -1.0360    1.5438   -1.0625 H       1  UNL1        0.0377
     28 H          -0.2146    0.3216   -2.0860 H       1  UNL1        0.0377
     29 H          -1.1445   -0.2605    1.3855 H       1  UNL1        0.0621
     30 H           0.5651   -0.6762    3.0515 H       1  UNL1        0.0646
     31 H           3.8837   -0.7009   -1.6143 H       1  UNL1        0.0639
     32 H           6.1820   -0.5049   -2.1858 H       1  UNL1        0.0830
     33 H           6.8546    1.4647    1.3622 H       1  UNL1        0.0830
     34 H           4.5530    1.2932    1.9870 H       1  UNL1        0.0639
     35 H           1.8612    0.6451   -1.3508 H       1  UNL1        0.0627
     36 H          -2.3154    1.8602    0.3021 H       1  UNL1        0.0624
     37 H          -4.3231    2.4012    1.5086 H       1  UNL1        0.0618
     38 H          -6.2260    0.9293    1.4566 H       1  UNL1        0.0618
     39 H          -6.0931   -1.0980    0.1743 H       1  UNL1        0.0625
@<TRIPOS>BOND
     1     1     2    2
     2     2     3   ar
     3     2    25   ar
     4     3     4   ar
     5     4     5   ar
     6     5     6    1
     7     5    20   ar
     8     6     7    1
     9     7     8   ar
    10     7    19   ar
    11     8     9   ar
    12     9    10   ar
    13    10    11    1
    14    10    12   ar
    15    12    13    1
    16    12    19   ar
    17    13    14   ar
    18    13    18   ar
    19    14    15   ar
    20    15    16   ar
    21    16    17   ar
    22    17    18   ar
    23    20    21   ar
    24    20    25   ar
    25    21    22   ar
    26    22    23   ar
    27    23    24   ar
    28    24    25   ar
    29     3    26    1
    30     6    27    1
    31     6    28    1
    32     8    29    1
    33     9    30    1
    34    14    31    1
    35    15    32    1
    36    17    33    1
    37    18    34    1
    38    19    35    1
    39    21    36    1
    40    22    37    1
    41    23    38    1
    42    24    39    1
@<TRIPOS>MOLECULE
../data/bude_mols_rdkit_confs/molecule_74.pdb
 39 42 0 0 0
SMALL
GASTEIGER

@<TRIPOS>ATOM
      1  O1         5.3060   -0.5510   -2.9640 O.2     1  UNL1       -0.2658
      2  C1         4.2450   -0.1530   -2.3710 C.ar    1  UNL1        0.2725
      3  N1         3.1480    0.1090   -3.1010 N.ar    1  UNL1       -0.2425
      4  N2         2.0280    0.5220   -2.5390 N.ar    1  UNL1       -0.1750
      5  C2         1.8930    0.7140   -1.1900 C.ar    1  UNL1        0.0736
      6  C3         0.5990    1.1550   -0.6180 C.3     1  UNL1        0.0171
      7  C4        -0.2600    0.0960   -0.0930 C.ar    1  UNL1       -0.0408
      8  C5         0.1280   -1.1410    0.3540 C.ar    1  UNL1       -0.0555
      9  C6        -0.7850   -2.0390    0.8540 C.ar    1  UNL1       -0.0256
     10  C7        -2.1150   -1.7170    0.9170 C.ar    1  UNL1        0.1311
     11  F1        -3.0270   -2.6060    1.4130 F       1  UNL1       -0.2049
     12  C8        -2.5490   -0.4960    0.4830 C.ar    1  UNL1        0.0177
     13  C9        -3.9380   -0.0780    0.5180 C.ar    1  UNL1       -0.0123
     14  C10       -4.7030   -0.3210    1.6330 C.ar    1  UNL1       -0.0358
     15  C11       -6.0310    0.0660    1.7010 C.ar    1  UNL1        0.0281
     16  N3        -6.5690    0.6960    0.6400 N.ar    1  UNL1       -0.2632
     17  C12       -5.8580    0.9540   -0.4710 C.ar    1  UNL1        0.0281
     18  C13       -4.5190    0.5660   -0.5470 C.ar    1  UNL1       -0.0358
     19  C14       -1.6290    0.3910   -0.0140 C.ar    1  UNL1       -0.0477
     20  C15        3.0150    0.4480   -0.4280 C.ar    1  UNL1        0.0106
     21  C16        2.9570    0.6350    0.9390 C.ar    1  UNL1       -0.0521
     22  C17        4.0600    0.3940    1.7340 C.ar    1  UNL1       -0.0611
     23  C18        5.2170   -0.0350    1.1410 C.ar    1  UNL1       -0.0610
     24  C19        5.3200   -0.2360   -0.2330 C.ar    1  UNL1       -0.0487
     25  C20        4.2070    0.0110   -1.0070 C.ar    1  UNL1        0.0496
     26 H           3.1806   -0.0099   -4.0777 H       1  UNL1        0.1921
     27 H           0.0576    1.6655   -1.3868 H       1  UNL1        0.0377
     28 H           0.8478    1.7695    0.2219 H       1  UNL1        0.0377
     29 H           1.1254   -1.4031    0.3143 H       1  UNL1        0.0621
     30 H          -0.4659   -2.9631    1.1845 H       1  UNL1        0.0646
     31 H          -4.2776   -0.8038    2.4398 H       1  UNL1        0.0639
     32 H          -6.5944   -0.1240    2.5445 H       1  UNL1        0.0830
     33 H          -6.3014    1.4384   -1.2671 H       1  UNL1        0.0830
     34 H          -3.9692    0.7619   -1.3981 H       1  UNL1        0.0639
     35 H          -1.9569    1.3125   -0.3431 H       1  UNL1        0.0627
     36 H           2.0780    0.9590    1.3720 H       1  UNL1        0.0624
     37 H           4.0131    0.5345    2.7553 H       1  UNL1        0.0618
     38 H           6.0423   -0.2159    1.7335 H       1  UNL1        0.0618
     39 H           6.2026   -0.5599   -0.6585 H       1  UNL1        0.0625
@<TRIPOS>BOND
     1     1     2    2
     2     2     3   ar
     3     2    25   ar
     4     3     4   ar
     5     4     5   ar
     6     5     6    1
     7     5    20   ar
     8     6     7    1
     9     7     8   ar
    10     7    19   ar
    11     8     9   ar
    12     9    10   ar
    13    10    11    1
    14    10    12   ar
    15    12    13    1
    16    12    19   ar
    17    13    14   ar
    18    13    18   ar
    19    14    15   ar
    20    15    16   ar
    21    16    17   ar
    22    17    18   ar
    23    20    21   ar
    24    20    25   ar
    25    21    22   ar
    26    22    23   ar
    27    23    24   ar
    28    24    25   ar
    29     3    26    1
    30     6    27    1
    31     6    28    1
    32     8    29    1
    33     9    30    1
    34    14    31    1
    35    15    32    1
    36    17    33    1
    37    18    34    1
    38    19    35    1
    39    21    36    1
    40    22    37    1
    41    23    38    1
    42    24    39    1
@<TRIPOS>MOLECULE
../data/bude_mols_rdkit_confs/molecule_74.pdb
 39 42 0 0 0
SMALL
GASTEIGER

@<TRIPOS>ATOM
      1  O1        -5.8360   -1.6130   -1.1390 O.2     1  UNL1       -0.2658
      2  C1        -4.6820   -1.5090   -0.6760 C.ar    1  UNL1        0.2725
      3  N1        -3.8720   -2.5660   -0.6650 N.ar    1  UNL1       -0.2425
      4  N2        -2.6330   -2.4990   -0.1800 N.ar    1  UNL1       -0.1750
      5  C2        -2.1260   -1.3650    0.3260 C.ar    1  UNL1        0.0736
      6  C3        -0.7760   -1.3000    0.8620 C.3     1  UNL1        0.0171
      7  C4         0.1910   -0.6060   -0.0220 C.ar    1  UNL1       -0.0408
      8  C5        -0.1440   -0.0570   -1.2350 C.ar    1  UNL1       -0.0555
      9  C6         0.8200    0.5820   -2.0170 C.ar    1  UNL1       -0.0256
     10  C7         2.1210    0.6610   -1.5640 C.ar    1  UNL1        0.1311
     11  F1         3.0430    1.2850   -2.3360 F       1  UNL1       -0.2049
     12  C8         2.5050    0.1140   -0.3330 C.ar    1  UNL1        0.0177
     13  C9         3.8680    0.2070    0.1200 C.ar    1  UNL1       -0.0123
     14  C10        4.5040   -0.8750    0.6680 C.ar    1  UNL1       -0.0358
     15  C11        5.8320   -0.7810    1.1080 C.ar    1  UNL1        0.0281
     16  N3         6.4690    0.3920    0.9820 N.ar    1  UNL1       -0.2632
     17  C12        5.8730    1.4830    0.4460 C.ar    1  UNL1        0.0281
     18  C13        4.5470    1.3880    0.0070 C.ar    1  UNL1       -0.0358
     19  C14        1.5010   -0.5050    0.3920 C.ar    1  UNL1       -0.0477
     20  C15       -2.9220   -0.2410    0.3390 C.ar    1  UNL1        0.0106
     21  C16       -2.4600    0.9580    0.8430 C.ar    1  UNL1       -0.0521
     22  C17       -3.2610    2.0960    0.8560 C.ar    1  UNL1       -0.0611
     23  C18       -4.5330    1.9760    0.3450 C.ar    1  UNL1       -0.0610
     24  C19       -5.0200    0.7960   -0.1640 C.ar    1  UNL1       -0.0487
     25  C20       -4.2120   -0.3130   -0.1670 C.ar    1  UNL1        0.0496
     26 H          -4.1983   -3.4219   -1.0258 H       1  UNL1        0.1921
     27 H          -0.4288   -2.2995    1.0215 H       1  UNL1        0.0377
     28 H          -0.8295   -0.7330    1.7678 H       1  UNL1        0.0377
     29 H          -1.1176   -0.1172   -1.5719 H       1  UNL1        0.0621
     30 H           0.5613    0.9925   -2.9278 H       1  UNL1        0.0646
     31 H           3.9995   -1.7708    0.7582 H       1  UNL1        0.0639
     32 H           6.3093   -1.5978    1.5203 H       1  UNL1        0.0830
     33 H           6.3892    2.3727    0.3621 H       1  UNL1        0.0830
     34 H           4.0807    2.2122   -0.4032 H       1  UNL1        0.0639
     35 H           1.7508   -0.9186    1.3039 H       1  UNL1        0.0627
     36 H          -1.5001    1.0118    1.2182 H       1  UNL1        0.0624
     37 H          -2.9155    2.9923    1.2331 H       1  UNL1        0.0618
     38 H          -5.1463    2.8060    0.3439 H       1  UNL1        0.0618
     39 H          -5.9802    0.7447   -0.5388 H       1  UNL1        0.0625
@<TRIPOS>BOND
     1     1     2    2
     2     2     3   ar
     3     2    25   ar
     4     3     4   ar
     5     4     5   ar
     6     5     6    1
     7     5    20   ar
     8     6     7    1
     9     7     8   ar
    10     7    19   ar
    11     8     9   ar
    12     9    10   ar
    13    10    11    1
    14    10    12   ar
    15    12    13    1
    16    12    19   ar
    17    13    14   ar
    18    13    18   ar
    19    14    15   ar
    20    15    16   ar
    21    16    17   ar
    22    17    18   ar
    23    20    21   ar
    24    20    25   ar
    25    21    22   ar
    26    22    23   ar
    27    23    24   ar
    28    24    25   ar
    29     3    26    1
    30     6    27    1
    31     6    28    1
    32     8    29    1
    33     9    30    1
    34    14    31    1
    35    15    32    1
    36    17    33    1
    37    18    34    1
    38    19    35    1
    39    21    36    1
    40    22    37    1
    41    23    38    1
    42    24    39    1
@<TRIPOS>MOLECULE
../data/bude_mols_rdkit_confs/molecule_74.pdb
 39 42 0 0 0
SMALL
GASTEIGER

@<TRIPOS>ATOM
      1  O1        -3.8020    3.4190    0.2860 O.2     1  UNL1       -0.2658
      2  C1        -3.1430    2.3880    0.5810 C.ar    1  UNL1        0.2725
      3  N1        -2.0800    2.4230    1.3890 N.ar    1  UNL1       -0.2425
      4  N2        -1.4110    1.3280    1.6790 N.ar    1  UNL1       -0.1750
      5  C2        -1.7730    0.1050    1.1640 C.ar    1  UNL1        0.0736
      6  C3        -0.9270   -1.0320    1.4960 C.3     1  UNL1        0.0171
      7  C4         0.1490   -1.3240    0.4930 C.ar    1  UNL1       -0.0408
      8  C5         0.1190   -2.3160   -0.4430 C.ar    1  UNL1       -0.0555
      9  C6         1.1910   -2.4940   -1.3350 C.ar    1  UNL1       -0.0256
     10  C7         2.2970   -1.6830   -1.2940 C.ar    1  UNL1        0.1311
     11  F1         3.3430   -1.8390   -2.1470 F       1  UNL1       -0.2049
     12  C8         2.3500   -0.6680   -0.3530 C.ar    1  UNL1        0.0177
     13  C9         3.5110    0.2160   -0.2640 C.ar    1  UNL1       -0.0123
     14  C10        3.4110    1.5870   -0.1770 C.ar    1  UNL1       -0.0358
     15  C11        4.5530    2.3630   -0.0860 C.ar    1  UNL1        0.0281
     16  N3         5.7710    1.7590   -0.0830 N.ar    1  UNL1       -0.2632
     17  C12        5.9010    0.4350   -0.1650 C.ar    1  UNL1        0.0281
     18  C13        4.7690   -0.3660   -0.2570 C.ar    1  UNL1       -0.0358
     19  C14        1.3050   -0.5160    0.4950 C.ar    1  UNL1       -0.0477
     20  C15       -2.8470    0.0350    0.3420 C.ar    1  UNL1        0.0106
     21  C16       -3.2490   -1.1780   -0.1720 C.ar    1  UNL1       -0.0521
     22  C17       -4.3550   -1.2040   -0.9890 C.ar    1  UNL1       -0.0611
     23  C18       -5.0650   -0.0700   -1.3040 C.ar    1  UNL1       -0.0610
     24  C19       -4.6660    1.1350   -0.7910 C.ar    1  UNL1       -0.0487
     25  C20       -3.5620    1.1980    0.0310 C.ar    1  UNL1        0.0496
     26 H          -1.7924    3.2823    1.7738 H       1  UNL1        0.1921
     27 H          -1.5497   -1.8982    1.5791 H       1  UNL1        0.0377
     28 H          -0.4297   -0.7831    2.4101 H       1  UNL1        0.0377
     29 H          -0.6993   -2.9425   -0.4969 H       1  UNL1        0.0621
     30 H           1.1451   -3.2506   -2.0354 H       1  UNL1        0.0646
     31 H           2.4821    2.0366   -0.1797 H       1  UNL1        0.0639
     32 H           4.4809    3.3904   -0.0210 H       1  UNL1        0.0830
     33 H           6.8396    0.0059   -0.1602 H       1  UNL1        0.0830
     34 H           4.8648   -1.3916   -0.3200 H       1  UNL1        0.0639
     35 H           1.3583    0.2440    1.1911 H       1  UNL1        0.0627
     36 H          -2.7340   -2.0443    0.0500 H       1  UNL1        0.0624
     37 H          -4.6631   -2.1080   -1.3799 H       1  UNL1        0.0618
     38 H          -5.8904   -0.1263   -1.9209 H       1  UNL1        0.0618
     39 H          -5.1907    1.9938   -1.0194 H       1  UNL1        0.0625
@<TRIPOS>BOND
     1     1     2    2
     2     2     3   ar
     3     2    25   ar
     4     3     4   ar
     5     4     5   ar
     6     5     6    1
     7     5    20   ar
     8     6     7    1
     9     7     8   ar
    10     7    19   ar
    11     8     9   ar
    12     9    10   ar
    13    10    11    1
    14    10    12   ar
    15    12    13    1
    16    12    19   ar
    17    13    14   ar
    18    13    18   ar
    19    14    15   ar
    20    15    16   ar
    21    16    17   ar
    22    17    18   ar
    23    20    21   ar
    24    20    25   ar
    25    21    22   ar
    26    22    23   ar
    27    23    24   ar
    28    24    25   ar
    29     3    26    1
    30     6    27    1
    31     6    28    1
    32     8    29    1
    33     9    30    1
    34    14    31    1
    35    15    32    1
    36    17    33    1
    37    18    34    1
    38    19    35    1
    39    21    36    1
    40    22    37    1
    41    23    38    1
    42    24    39    1
@<TRIPOS>MOLECULE
../data/bude_mols_rdkit_confs/molecule_74.pdb
 39 42 0 0 0
SMALL
GASTEIGER

@<TRIPOS>ATOM
      1  O1         4.3790   -0.4730    3.1920 O.2     1  UNL1       -0.2658
      2  C1         3.5870   -0.6790    2.2450 C.ar    1  UNL1        0.2725
      3  N1         2.4660   -1.4160    2.3370 N.ar    1  UNL1       -0.2425
      4  N2         1.6410   -1.6240    1.3330 N.ar    1  UNL1       -0.1750
      5  C2         1.8340   -1.1080    0.0780 C.ar    1  UNL1        0.0736
      6  C3         0.8010   -1.3180   -0.9640 C.3     1  UNL1        0.0171
      7  C4        -0.2660   -0.2980   -0.9840 C.ar    1  UNL1       -0.0408
      8  C5        -0.1400    0.8840   -1.6430 C.ar    1  UNL1       -0.0555
      9  C6        -1.1830    1.8340   -1.6490 C.ar    1  UNL1       -0.0256
     10  C7        -2.3480    1.5800   -0.9890 C.ar    1  UNL1        0.1311
     11  F1        -3.3330    2.4980   -1.0060 F       1  UNL1       -0.2049
     12  C8        -2.5180    0.4100   -0.3170 C.ar    1  UNL1        0.0177
     13  C9        -3.7430    0.0680    0.3930 C.ar    1  UNL1       -0.0123
     14  C10       -4.2940   -1.1970    0.2570 C.ar    1  UNL1       -0.0358
     15  C11       -5.4520   -1.5320    0.9220 C.ar    1  UNL1        0.0281
     16  N3        -6.0570   -0.6430    1.7040 N.ar    1  UNL1       -0.2632
     17  C12       -5.5430    0.6000    1.8570 C.ar    1  UNL1        0.0281
     18  C13       -4.3780    0.9630    1.1990 C.ar    1  UNL1       -0.0358
     19  C14       -1.4750   -0.5110   -0.3240 C.ar    1  UNL1       -0.0477
     20  C15        2.9700   -0.3490   -0.0660 C.ar    1  UNL1        0.0106
     21  C16        3.2700    0.1830   -1.2920 C.ar    1  UNL1       -0.0521
     22  C17        4.4160    0.9190   -1.4350 C.ar    1  UNL1       -0.0611
     23  C18        5.2890    1.1550   -0.4100 C.ar    1  UNL1       -0.0610
     24  C19        4.9790    0.6110    0.8230 C.ar    1  UNL1       -0.0487
     25  C20        3.8370   -0.1280    0.9820 C.ar    1  UNL1        0.0496
     26 H           2.2498   -1.8239    3.2065 H       1  UNL1        0.1921
     27 H           0.3474   -2.2726   -0.7971 H       1  UNL1        0.0377
     28 H           1.3026   -1.2516   -1.9068 H       1  UNL1        0.0377
     29 H           0.7355    1.0906   -2.1488 H       1  UNL1        0.0621
     30 H          -1.0632    2.7252   -2.1554 H       1  UNL1        0.0646
     31 H          -3.8320   -1.8937   -0.3481 H       1  UNL1        0.0639
     32 H          -5.8521   -2.4770    0.8131 H       1  UNL1        0.0830
     33 H          -6.0212    1.2813    2.4670 H       1  UNL1        0.0830
     34 H          -3.9918    1.9123    1.3202 H       1  UNL1        0.0639
     35 H          -1.6034   -1.3987    0.1865 H       1  UNL1        0.0627
     36 H           2.6415    0.0314   -2.0964 H       1  UNL1        0.0624
     37 H           4.6313    1.3153   -2.3632 H       1  UNL1        0.0618
     38 H           6.1439    1.7158   -0.5505 H       1  UNL1        0.0618
     39 H           5.6099    0.7623    1.6255 H       1  UNL1        0.0625
@<TRIPOS>BOND
     1     1     2    2
     2     2     3   ar
     3     2    25   ar
     4     3     4   ar
     5     4     5   ar
     6     5     6    1
     7     5    20   ar
     8     6     7    1
     9     7     8   ar
    10     7    19   ar
    11     8     9   ar
    12     9    10   ar
    13    10    11    1
    14    10    12   ar
    15    12    13    1
    16    12    19   ar
    17    13    14   ar
    18    13    18   ar
    19    14    15   ar
    20    15    16   ar
    21    16    17   ar
    22    17    18   ar
    23    20    21   ar
    24    20    25   ar
    25    21    22   ar
    26    22    23   ar
    27    23    24   ar
    28    24    25   ar
    29     3    26    1
    30     6    27    1
    31     6    28    1
    32     8    29    1
    33     9    30    1
    34    14    31    1
    35    15    32    1
    36    17    33    1
    37    18    34    1
    38    19    35    1
    39    21    36    1
    40    22    37    1
    41    23    38    1
    42    24    39    1
@<TRIPOS>MOLECULE
../data/bude_mols_rdkit_confs/molecule_74.pdb
 39 42 0 0 0
SMALL
GASTEIGER

@<TRIPOS>ATOM
      1  O1         5.8340   -1.0080    0.3170 O.2     1  UNL1       -0.2658
      2  C1         4.6470   -0.7680    0.7390 C.ar    1  UNL1        0.2725
      3  N1         4.1100   -1.4830    1.7370 N.ar    1  UNL1       -0.2425
      4  N2         2.9000   -1.2700    2.1960 N.ar    1  UNL1       -0.1750
      5  C2         2.0730   -0.2930    1.6930 C.ar    1  UNL1        0.0736
      6  C3         0.7150   -0.1480    2.2290 C.3     1  UNL1        0.0171
      7  C4        -0.3460   -0.8190    1.4630 C.ar    1  UNL1       -0.0408
      8  C5        -0.4170   -2.2140    1.3980 C.ar    1  UNL1       -0.0555
      9  C6        -1.4300   -2.8130    0.7020 C.ar    1  UNL1       -0.0256
     10  C7        -2.4100   -2.1060    0.0450 C.ar    1  UNL1        0.1311
     11  F1        -3.3650   -2.7890   -0.6120 F       1  UNL1       -0.2049
     12  C8        -2.3400   -0.7350    0.1100 C.ar    1  UNL1        0.0177
     13  C9        -3.3410    0.0680   -0.5600 C.ar    1  UNL1       -0.0123
     14  C10       -3.7420   -0.2290   -1.8480 C.ar    1  UNL1       -0.0358
     15  C11       -4.7030    0.5870   -2.4170 C.ar    1  UNL1        0.0281
     16  N3        -5.2300    1.6300   -1.7460 N.ar    1  UNL1       -0.2632
     17  C12       -4.8330    1.9150   -0.4860 C.ar    1  UNL1        0.0281
     18  C13       -3.8920    1.1500    0.1280 C.ar    1  UNL1       -0.0358
     19  C14       -1.3060   -0.1060    0.8200 C.ar    1  UNL1       -0.0477
     20  C15        2.5980    0.4540    0.6720 C.ar    1  UNL1        0.0106
     21  C16        1.8530    1.4660    0.1150 C.ar    1  UNL1       -0.0521
     22  C17        2.3970    2.2170   -0.9040 C.ar    1  UNL1       -0.0611
     23  C18        3.6610    1.9860   -1.3790 C.ar    1  UNL1       -0.0610
     24  C19        4.4340    0.9810   -0.8400 C.ar    1  UNL1       -0.0487
     25  C20        3.8870    0.2320    0.1790 C.ar    1  UNL1        0.0496
     26 H           4.6478   -2.2003    2.1439 H       1  UNL1        0.1921
     27 H           0.4850    0.8964    2.2645 H       1  UNL1        0.0377
     28 H           0.7272   -0.6215    3.1885 H       1  UNL1        0.0377
     29 H           0.2940   -2.7905    1.8746 H       1  UNL1        0.0621
     30 H          -1.4608   -3.8440    0.6680 H       1  UNL1        0.0646
     31 H          -3.3409   -1.0272   -2.3647 H       1  UNL1        0.0639
     32 H          -5.0241    0.3924   -3.3783 H       1  UNL1        0.0830
     33 H          -5.2467    2.7181    0.0129 H       1  UNL1        0.0830
     34 H          -3.5890    1.3665    1.0905 H       1  UNL1        0.0639
     35 H          -1.2744    0.9249    0.8543 H       1  UNL1        0.0627
     36 H           0.8985    1.6608    0.4557 H       1  UNL1        0.0624
     37 H           1.8358    2.9757   -1.3217 H       1  UNL1        0.0618
     38 H           4.0361    2.5677   -2.1445 H       1  UNL1        0.0618
     39 H           5.3882    0.7959   -1.1869 H       1  UNL1        0.0625
@<TRIPOS>BOND
     1     1     2    2
     2     2     3   ar
     3     2    25   ar
     4     3     4   ar
     5     4     5   ar
     6     5     6    1
     7     5    20   ar
     8     6     7    1
     9     7     8   ar
    10     7    19   ar
    11     8     9   ar
    12     9    10   ar
    13    10    11    1
    14    10    12   ar
    15    12    13    1
    16    12    19   ar
    17    13    14   ar
    18    13    18   ar
    19    14    15   ar
    20    15    16   ar
    21    16    17   ar
    22    17    18   ar
    23    20    21   ar
    24    20    25   ar
    25    21    22   ar
    26    22    23   ar
    27    23    24   ar
    28    24    25   ar
    29     3    26    1
    30     6    27    1
    31     6    28    1
    32     8    29    1
    33     9    30    1
    34    14    31    1
    35    15    32    1
    36    17    33    1
    37    18    34    1
    38    19    35    1
    39    21    36    1
    40    22    37    1
    41    23    38    1
    42    24    39    1
@<TRIPOS>MOLECULE
../data/bude_mols_rdkit_confs/molecule_74.pdb
 39 42 0 0 0
SMALL
GASTEIGER

@<TRIPOS>ATOM
      1  O1        -4.2520    2.8350    1.2640 O.2     1  UNL1       -0.2658
      2  C1        -3.4700    1.9840    0.7660 C.ar    1  UNL1        0.2725
      3  N1        -2.2380    2.2990    0.3530 N.ar    1  UNL1       -0.2425
      4  N2        -1.4200    1.4100   -0.1660 N.ar    1  UNL1       -0.1750
      5  C2        -1.8020    0.1470   -0.3000 C.ar    1  UNL1        0.0736
      6  C3        -0.9490   -0.9250   -0.8750 C.3     1  UNL1        0.0171
      7  C4         0.3760   -0.4210   -1.2820 C.ar    1  UNL1       -0.0408
      8  C5         0.5610    0.0540   -2.5530 C.ar    1  UNL1       -0.0555
      9  C6         1.8140    0.5190   -2.9040 C.ar    1  UNL1       -0.0256
     10  C7         2.8480    0.4960   -1.9730 C.ar    1  UNL1        0.1311
     11  F1         4.0690    0.9470   -2.3100 F       1  UNL1       -0.2049
     12  C8         2.6730    0.0190   -0.6890 C.ar    1  UNL1        0.0177
     13  C9         3.7700   -0.0010    0.2850 C.ar    1  UNL1       -0.0123
     14  C10        3.9920   -1.1210    1.0680 C.ar    1  UNL1       -0.0358
     15  C11        5.0340   -1.0800    1.9600 C.ar    1  UNL1        0.0281
     16  N3         5.8400   -0.0230    2.1120 N.ar    1  UNL1       -0.2632
     17  C12        5.6460    1.0730    1.3660 C.ar    1  UNL1        0.0281
     18  C13        4.6200    1.0720    0.4670 C.ar    1  UNL1       -0.0358
     19  C14        1.4070   -0.4450   -0.3520 C.ar    1  UNL1       -0.0477
     20  C15       -3.0620   -0.2270    0.1100 C.ar    1  UNL1        0.0106
     21  C16       -3.5080   -1.5480   -0.0120 C.ar    1  UNL1       -0.0521
     22  C17       -4.7680   -1.9350    0.3960 C.ar    1  UNL1       -0.0611
     23  C18       -5.6250   -1.0010    0.9410 C.ar    1  UNL1       -0.0610
     24  C19       -5.1720    0.2940    1.0540 C.ar    1  UNL1       -0.0487
     25  C20       -3.9210    0.6930    0.6530 C.ar    1  UNL1        0.0496
     26 H          -1.9321    3.2307    0.4407 H       1  UNL1        0.1921
     27 H          -1.4407   -1.3345   -1.7325 H       1  UNL1        0.0377
     28 H          -0.8011   -1.6689   -0.1203 H       1  UNL1        0.0377
     29 H          -0.2162    0.0644   -3.2319 H       1  UNL1        0.0621
     30 H           1.9827    0.8827   -3.8549 H       1  UNL1        0.0646
     31 H           3.3943   -1.9581    0.9837 H       1  UNL1        0.0639
     32 H           5.2056   -1.9115    2.5467 H       1  UNL1        0.0830
     33 H           6.2578    1.8977    1.4690 H       1  UNL1        0.0830
     34 H           4.4713    1.9168   -0.1068 H       1  UNL1        0.0639
     35 H           1.2317   -0.8104    0.5971 H       1  UNL1        0.0627
     36 H          -2.8752   -2.2541   -0.4195 H       1  UNL1        0.0624
     37 H          -5.0677   -2.9173    0.2941 H       1  UNL1        0.0618
     38 H          -6.5728   -1.2642    1.2531 H       1  UNL1        0.0618
     39 H          -5.8047    1.0006    1.4607 H       1  UNL1        0.0625
@<TRIPOS>BOND
     1     1     2    2
     2     2     3   ar
     3     2    25   ar
     4     3     4   ar
     5     4     5   ar
     6     5     6    1
     7     5    20   ar
     8     6     7    1
     9     7     8   ar
    10     7    19   ar
    11     8     9   ar
    12     9    10   ar
    13    10    11    1
    14    10    12   ar
    15    12    13    1
    16    12    19   ar
    17    13    14   ar
    18    13    18   ar
    19    14    15   ar
    20    15    16   ar
    21    16    17   ar
    22    17    18   ar
    23    20    21   ar
    24    20    25   ar
    25    21    22   ar
    26    22    23   ar
    27    23    24   ar
    28    24    25   ar
    29     3    26    1
    30     6    27    1
    31     6    28    1
    32     8    29    1
    33     9    30    1
    34    14    31    1
    35    15    32    1
    36    17    33    1
    37    18    34    1
    38    19    35    1
    39    21    36    1
    40    22    37    1
    41    23    38    1
    42    24    39    1
