@<TRIPOS>MOLECULE
../data/bude_mols_rdkit_confs/molecule_63.pdb
 43 45 0 0 0
SMALL
GASTEIGER

@<TRIPOS>ATOM
      1  C1        -6.6330   -1.6330   -2.9880 C.3     1  UNL1        0.0125
      2  C2        -5.3330   -1.2230   -2.3180 C.2     1  UNL1        0.2141
      3  O1        -4.3450   -1.0660   -3.0540 O.2     1  UNL1       -0.2758
      4  N1        -5.2780   -1.0390   -0.9460 N.am    1  UNL1       -0.2857
      5  C3        -4.1290   -0.6660   -0.2250 C.ar    1  UNL1        0.0334
      6  C4        -4.2590   -0.3250    1.1360 C.ar    1  UNL1       -0.0399
      7  C5        -3.1760    0.0390    1.9040 C.ar    1  UNL1       -0.0508
      8  C6        -1.9020    0.0960    1.4040 C.ar    1  UNL1        0.0006
      9  C7        -0.7260    0.4720    2.2030 C.ar    1  UNL1        0.0760
     10  C8        -0.8610    0.7380    3.5480 C.ar    1  UNL1       -0.0174
     11  C9         0.2890    1.0780    4.2710 C.ar    1  UNL1        0.0332
     12  N2         1.4580    1.1320    3.6390 N.ar    1  UNL1       -0.2226
     13  C10        1.6120    0.8720    2.3050 C.ar    1  UNL1        0.2200
     14  N3         2.9130    0.9420    1.7270 N.pl3   1  UNL1       -0.2836
     15  C11        3.2480    0.7250    0.3830 C.ar    1  UNL1        0.0343
     16  C12        2.3600    0.6680   -0.6510 C.ar    1  UNL1       -0.0404
     17  C13        2.7840    0.4300   -1.9580 C.ar    1  UNL1       -0.0593
     18  C14        4.1240    0.2470   -2.2270 C.ar    1  UNL1       -0.0495
     19  C15        5.0540    0.3000   -1.1920 C.ar    1  UNL1        0.0382
     20  C16        6.4640    0.1090   -1.4690 C.2     1  UNL1        0.2416
     21  N4         7.4010    0.1650   -0.4130 N.am    1  UNL1       -0.3253
     22  O2         6.8460   -0.1040   -2.6380 O.2     1  UNL1       -0.2704
     23  C17        4.6010    0.5350    0.0730 C.ar    1  UNL1       -0.0284
     24  N5         0.4940    0.5530    1.6530 N.ar    1  UNL1       -0.2142
     25  C18       -1.7470   -0.2320    0.0790 C.ar    1  UNL1       -0.0508
     26  C19       -2.8530   -0.6040   -0.7090 C.ar    1  UNL1       -0.0399
     27 H          -6.4773   -1.7246   -4.0426 H       1  UNL1        0.0323
     28 H          -7.3803   -0.8904   -2.8010 H       1  UNL1        0.0323
     29 H          -6.9572   -2.5728   -2.5923 H       1  UNL1        0.0323
     30 H          -6.1079   -1.1803   -0.4356 H       1  UNL1        0.1548
     31 H          -5.1948   -0.3489    1.5704 H       1  UNL1        0.0636
     32 H          -3.3301    0.2785    2.8959 H       1  UNL1        0.0625
     33 H          -1.7828    0.6881    4.0093 H       1  UNL1        0.0654
     34 H           0.2303    1.2839    5.2805 H       1  UNL1        0.0831
     35 H           3.6540    1.1662    2.3352 H       1  UNL1        0.1550
     36 H           1.3545    0.8037   -0.4623 H       1  UNL1        0.0636
     37 H           2.0943    0.3908   -2.7246 H       1  UNL1        0.0618
     38 H           4.4373    0.0709   -3.1944 H       1  UNL1        0.0625
     39 H           7.0956    0.3332    0.5077 H       1  UNL1        0.1453
     40 H           8.3593    0.0358   -0.5979 H       1  UNL1        0.1453
     41 H           5.2897    0.5749    0.8405 H       1  UNL1        0.0644
     42 H          -0.8065   -0.2054   -0.3449 H       1  UNL1        0.0625
     43 H          -2.6919   -0.8413   -1.7003 H       1  UNL1        0.0636
@<TRIPOS>BOND
     1     1     2    1
     2     2     3    2
     3     2     4   am
     4     4     5    1
     5     5     6   ar
     6     5    26   ar
     7     6     7   ar
     8     7     8   ar
     9     8     9    1
    10     8    25   ar
    11     9    10   ar
    12     9    24   ar
    13    10    11   ar
    14    11    12   ar
    15    12    13   ar
    16    13    14    1
    17    13    24   ar
    18    14    15    1
    19    15    16   ar
    20    15    23   ar
    21    16    17   ar
    22    17    18   ar
    23    18    19   ar
    24    19    20    1
    25    19    23   ar
    26    20    21   am
    27    20    22    2
    28    25    26   ar
    29     1    27    1
    30     1    28    1
    31     1    29    1
    32     4    30    1
    33     6    31    1
    34     7    32    1
    35    10    33    1
    36    11    34    1
    37    14    35    1
    38    16    36    1
    39    17    37    1
    40    18    38    1
    41    21    39    1
    42    21    40    1
    43    23    41    1
    44    25    42    1
    45    26    43    1
@<TRIPOS>MOLECULE
../data/bude_mols_rdkit_confs/molecule_63.pdb
 43 45 0 0 0
SMALL
GASTEIGER

@<TRIPOS>ATOM
      1  C1         8.8530   -0.5200    0.0290 C.3     1  UNL1        0.0125
      2  C2         7.4660    0.0910    0.0890 C.2     1  UNL1        0.2141
      3  O1         7.3290    1.3250    0.2200 O.2     1  UNL1       -0.2758
      4  N1         6.3320   -0.7310   -0.0040 N.am    1  UNL1       -0.2857
      5  C3         4.9880   -0.3000    0.0360 C.ar    1  UNL1        0.0334
      6  C4         4.5350    0.9750    0.1710 C.ar    1  UNL1       -0.0399
      7  C5         3.1730    1.3090    0.2010 C.ar    1  UNL1       -0.0508
      8  C6         2.2000    0.3530    0.0950 C.ar    1  UNL1        0.0006
      9  C7         0.7640    0.6360    0.1190 C.ar    1  UNL1        0.0760
     10  C8         0.3030    1.9170    0.2550 C.ar    1  UNL1       -0.0174
     11  C9        -1.0470    2.1920    0.2780 C.ar    1  UNL1        0.0332
     12  N2        -1.9130    1.1930    0.1680 N.ar    1  UNL1       -0.2226
     13  C10       -1.5070   -0.0650    0.0340 C.ar    1  UNL1        0.2200
     14  N3        -2.4200   -1.1170   -0.0820 N.pl3   1  UNL1       -0.2836
     15  C11       -3.8190   -1.0280   -0.0710 C.ar    1  UNL1        0.0343
     16  C12       -4.5800   -2.1820   -0.3960 C.ar    1  UNL1       -0.0404
     17  C13       -5.9470   -2.1750   -0.3970 C.ar    1  UNL1       -0.0593
     18  C14       -6.6590   -1.0430   -0.0810 C.ar    1  UNL1       -0.0495
     19  C15       -5.9280    0.0800    0.2350 C.ar    1  UNL1        0.0382
     20  C16       -6.6290    1.3090    0.5780 C.2     1  UNL1        0.2416
     21  N4        -8.0460    1.3110    0.5760 N.am    1  UNL1       -0.3253
     22  O2        -5.9790    2.3330    0.8670 O.2     1  UNL1       -0.2704
     23  C17       -4.5530    0.0780    0.2380 C.ar    1  UNL1       -0.0284
     24  N5        -0.1520   -0.3310    0.0110 N.ar    1  UNL1       -0.2142
     25  C18        2.6460   -0.9640   -0.0450 C.ar    1  UNL1       -0.0508
     26  C19        3.9870   -1.2720   -0.0720 C.ar    1  UNL1       -0.0399
     27 H           9.5874    0.2534    0.1151 H       1  UNL1        0.0323
     28 H           8.9786   -1.0288   -0.9039 H       1  UNL1        0.0323
     29 H           8.9714   -1.2156    0.8334 H       1  UNL1        0.0323
     30 H           6.4882   -1.6976   -0.1066 H       1  UNL1        0.1548
     31 H           5.2280    1.7350    0.2556 H       1  UNL1        0.0636
     32 H           2.8986    2.2984    0.3054 H       1  UNL1        0.0625
     33 H           0.9791    2.6918    0.3420 H       1  UNL1        0.0654
     34 H          -1.3804    3.1634    0.3796 H       1  UNL1        0.0831
     35 H          -2.0389   -2.0192   -0.1824 H       1  UNL1        0.1550
     36 H          -4.0850   -3.0542   -0.6393 H       1  UNL1        0.0636
     37 H          -6.4557   -3.0393   -0.6405 H       1  UNL1        0.0618
     38 H          -7.6910   -1.0350   -0.0806 H       1  UNL1        0.0625
     39 H          -8.5391    0.4909    0.3446 H       1  UNL1        0.1453
     40 H          -8.5374    2.1325    0.8060 H       1  UNL1        0.1453
     41 H          -4.0569    0.9489    0.4841 H       1  UNL1        0.0644
     42 H           1.9530   -1.7239   -0.1302 H       1  UNL1        0.0625
     43 H           4.2658   -2.2601   -0.1761 H       1  UNL1        0.0636
@<TRIPOS>BOND
     1     1     2    1
     2     2     3    2
     3     2     4   am
     4     4     5    1
     5     5     6   ar
     6     5    26   ar
     7     6     7   ar
     8     7     8   ar
     9     8     9    1
    10     8    25   ar
    11     9    10   ar
    12     9    24   ar
    13    10    11   ar
    14    11    12   ar
    15    12    13   ar
    16    13    14    1
    17    13    24   ar
    18    14    15    1
    19    15    16   ar
    20    15    23   ar
    21    16    17   ar
    22    17    18   ar
    23    18    19   ar
    24    19    20    1
    25    19    23   ar
    26    20    21   am
    27    20    22    2
    28    25    26   ar
    29     1    27    1
    30     1    28    1
    31     1    29    1
    32     4    30    1
    33     6    31    1
    34     7    32    1
    35    10    33    1
    36    11    34    1
    37    14    35    1
    38    16    36    1
    39    17    37    1
    40    18    38    1
    41    21    39    1
    42    21    40    1
    43    23    41    1
    44    25    42    1
    45    26    43    1
@<TRIPOS>MOLECULE
../data/bude_mols_rdkit_confs/molecule_63.pdb
 43 45 0 0 0
SMALL
GASTEIGER

@<TRIPOS>ATOM
      1  C1         8.4050    1.6310    0.1200 C.3     1  UNL1        0.0125
      2  C2         7.2060    0.7180    0.2890 C.2     1  UNL1        0.2141
      3  O1         7.3830   -0.4740    0.6430 O.2     1  UNL1       -0.2758
      4  N1         5.9450    1.2660    0.0370 N.am    1  UNL1       -0.2857
      5  C3         4.7280    0.5900    0.1330 C.ar    1  UNL1        0.0334
      6  C4         4.6200   -0.7600    0.3270 C.ar    1  UNL1       -0.0399
      7  C5         3.3490   -1.3390    0.4230 C.ar    1  UNL1       -0.0508
      8  C6         2.2060   -0.6080    0.3310 C.ar    1  UNL1        0.0006
      9  C7         0.8440   -1.1570    0.4230 C.ar    1  UNL1        0.0760
     10  C8         0.6850   -2.5110    0.6180 C.ar    1  UNL1       -0.0174
     11  C9        -0.6130   -3.0350    0.7060 C.ar    1  UNL1        0.0332
     12  N2        -1.6210   -2.1660    0.5930 N.ar    1  UNL1       -0.2226
     13  C10       -1.5080   -0.8630    0.4060 C.ar    1  UNL1        0.2200
     14  N3        -2.5740    0.0650    0.2840 N.pl3   1  UNL1       -0.2836
     15  C11       -3.9310   -0.2770    0.3540 C.ar    1  UNL1        0.0343
     16  C12       -4.4100   -1.4980    0.7320 C.ar    1  UNL1       -0.0404
     17  C13       -5.7990   -1.6840    0.7350 C.ar    1  UNL1       -0.0593
     18  C14       -6.6890   -0.7220    0.3860 C.ar    1  UNL1       -0.0495
     19  C15       -6.2000    0.5040    0.0070 C.ar    1  UNL1        0.0382
     20  C16       -7.0960    1.5880   -0.3820 C.2     1  UNL1        0.2416
     21  N4        -6.5660    2.8410   -0.7680 N.am    1  UNL1       -0.3253
     22  O2        -8.3220    1.4070   -0.3730 O.2     1  UNL1       -0.2704
     23  C17       -4.8440    0.7070   -0.0030 C.ar    1  UNL1       -0.0284
     24  N5        -0.2270   -0.3830    0.3240 N.ar    1  UNL1       -0.2142
     25  C18        2.3080    0.7660    0.1330 C.ar    1  UNL1       -0.0508
     26  C19        3.5450    1.3400    0.0380 C.ar    1  UNL1       -0.0399
     27 H           9.3003    1.0889    0.3425 H       1  UNL1        0.0323
     28 H           8.3167    2.4629    0.7871 H       1  UNL1        0.0323
     29 H           8.4441    1.9854   -0.8889 H       1  UNL1        0.0323
     30 H           5.9126    2.2125   -0.2320 H       1  UNL1        0.1548
     31 H           5.4666   -1.3454    0.4018 H       1  UNL1        0.0636
     32 H           3.2768   -2.3581    0.5690 H       1  UNL1        0.0625
     33 H           1.5071   -3.1297    0.6980 H       1  UNL1        0.0654
     34 H          -0.7811   -4.0428    0.8510 H       1  UNL1        0.0831
     35 H          -2.3453    1.0118    0.1407 H       1  UNL1        0.1550
     36 H          -3.7700   -2.2595    1.0067 H       1  UNL1        0.0636
     37 H          -6.1657   -2.6059    1.0191 H       1  UNL1        0.0618
     38 H          -7.7043   -0.9060    0.4047 H       1  UNL1        0.0625
     39 H          -5.5917    2.9825   -0.7744 H       1  UNL1        0.1453
     40 H          -7.1713    3.5718   -1.0303 H       1  UNL1        0.1453
     41 H          -4.4859    1.6318   -0.2884 H       1  UNL1        0.0644
     42 H           1.4576    1.3460    0.0586 H       1  UNL1        0.0625
     43 H           3.6115    2.3594   -0.1085 H       1  UNL1        0.0636
@<TRIPOS>BOND
     1     1     2    1
     2     2     3    2
     3     2     4   am
     4     4     5    1
     5     5     6   ar
     6     5    26   ar
     7     6     7   ar
     8     7     8   ar
     9     8     9    1
    10     8    25   ar
    11     9    10   ar
    12     9    24   ar
    13    10    11   ar
    14    11    12   ar
    15    12    13   ar
    16    13    14    1
    17    13    24   ar
    18    14    15    1
    19    15    16   ar
    20    15    23   ar
    21    16    17   ar
    22    17    18   ar
    23    18    19   ar
    24    19    20    1
    25    19    23   ar
    26    20    21   am
    27    20    22    2
    28    25    26   ar
    29     1    27    1
    30     1    28    1
    31     1    29    1
    32     4    30    1
    33     6    31    1
    34     7    32    1
    35    10    33    1
    36    11    34    1
    37    14    35    1
    38    16    36    1
    39    17    37    1
    40    18    38    1
    41    21    39    1
    42    21    40    1
    43    23    41    1
    44    25    42    1
    45    26    43    1
@<TRIPOS>MOLECULE
../data/bude_mols_rdkit_confs/molecule_63.pdb
 43 45 0 0 0
SMALL
GASTEIGER

@<TRIPOS>ATOM
      1  C1         7.3030    2.6320    0.3750 C.3     1  UNL1        0.0125
      2  C2         6.3320    1.4870    0.3380 C.2     1  UNL1        0.2141
      3  O1         6.8210    0.3390    0.3410 O.2     1  UNL1       -0.2758
      4  N1         4.9510    1.6710    0.3010 N.am    1  UNL1       -0.2857
      5  C3         3.9490    0.6590    0.2640 C.ar    1  UNL1        0.0334
      6  C4         4.1790   -0.6840    0.2590 C.ar    1  UNL1       -0.0399
      7  C5         3.1470   -1.6220    0.2220 C.ar    1  UNL1       -0.0508
      8  C6         1.8440   -1.2210    0.1900 C.ar    1  UNL1        0.0006
      9  C7         0.7060   -2.1660    0.1410 C.ar    1  UNL1        0.0760
     10  C8         0.9230   -3.5210    0.0670 C.ar    1  UNL1       -0.0174
     11  C9        -0.1980   -4.3520    0.0090 C.ar    1  UNL1        0.0332
     12  N2        -1.4290   -3.8360    0.0260 N.ar    1  UNL1       -0.2226
     13  C10       -1.6570   -2.4860    0.1010 C.ar    1  UNL1        0.2200
     14  N3        -2.9920   -2.0090    0.1000 N.pl3   1  UNL1       -0.2836
     15  C11       -3.4350   -0.6890    0.1840 C.ar    1  UNL1        0.0343
     16  C12       -2.6740    0.4010    0.5460 C.ar    1  UNL1       -0.0404
     17  C13       -3.1650    1.7010    0.5950 C.ar    1  UNL1       -0.0593
     18  C14       -4.4860    1.9110    0.2640 C.ar    1  UNL1       -0.0495
     19  C15       -5.2830    0.8400   -0.1050 C.ar    1  UNL1        0.0382
     20  C16       -6.6860    1.1020   -0.4510 C.2     1  UNL1        0.2416
     21  N4        -7.2150    2.4130   -0.4110 N.am    1  UNL1       -0.3253
     22  O2        -7.4150    0.1580   -0.7840 O.2     1  UNL1       -0.2704
     23  C17       -4.7750   -0.4340   -0.1460 C.ar    1  UNL1       -0.0284
     24  N5        -0.5560   -1.7330    0.1540 N.ar    1  UNL1       -0.2142
     25  C18        1.6060    0.1540    0.1950 C.ar    1  UNL1       -0.0508
     26  C19        2.6160    1.0540    0.2310 C.ar    1  UNL1       -0.0399
     27 H           8.3027    2.2512    0.3996 H       1  UNL1        0.0323
     28 H           7.1247    3.2228    1.2491 H       1  UNL1        0.0323
     29 H           7.1735    3.2378   -0.4974 H       1  UNL1        0.0323
     30 H           4.6330    2.6027    0.3004 H       1  UNL1        0.1548
     31 H           5.1544   -1.0203    0.2835 H       1  UNL1        0.0636
     32 H           3.3719   -2.6292    0.2188 H       1  UNL1        0.0625
     33 H           1.8788   -3.9100    0.0547 H       1  UNL1        0.0654
     34 H          -0.0734   -5.3749   -0.0475 H       1  UNL1        0.0831
     35 H          -3.6944   -2.6954    0.0314 H       1  UNL1        0.1550
     36 H          -1.6848    0.2439    0.7946 H       1  UNL1        0.0636
     37 H          -2.5565    2.4873    0.8718 H       1  UNL1        0.0618
     38 H          -4.8807    2.8642    0.2910 H       1  UNL1        0.0625
     39 H          -6.6406    3.1677   -0.1471 H       1  UNL1        0.1453
     40 H          -8.1576    2.5709   -0.6471 H       1  UNL1        0.1453
     41 H          -5.3877   -1.2166   -0.4238 H       1  UNL1        0.0644
     42 H           0.6320    0.4942    0.1705 H       1  UNL1        0.0625
     43 H           2.3908    2.0611    0.2340 H       1  UNL1        0.0636
@<TRIPOS>BOND
     1     1     2    1
     2     2     3    2
     3     2     4   am
     4     4     5    1
     5     5     6   ar
     6     5    26   ar
     7     6     7   ar
     8     7     8   ar
     9     8     9    1
    10     8    25   ar
    11     9    10   ar
    12     9    24   ar
    13    10    11   ar
    14    11    12   ar
    15    12    13   ar
    16    13    14    1
    17    13    24   ar
    18    14    15    1
    19    15    16   ar
    20    15    23   ar
    21    16    17   ar
    22    17    18   ar
    23    18    19   ar
    24    19    20    1
    25    19    23   ar
    26    20    21   am
    27    20    22    2
    28    25    26   ar
    29     1    27    1
    30     1    28    1
    31     1    29    1
    32     4    30    1
    33     6    31    1
    34     7    32    1
    35    10    33    1
    36    11    34    1
    37    14    35    1
    38    16    36    1
    39    17    37    1
    40    18    38    1
    41    21    39    1
    42    21    40    1
    43    23    41    1
    44    25    42    1
    45    26    43    1
@<TRIPOS>MOLECULE
../data/bude_mols_rdkit_confs/molecule_63.pdb
 43 45 0 0 0
SMALL
GASTEIGER

@<TRIPOS>ATOM
      1  C1        -8.2070    2.3670   -0.4500 C.3     1  UNL1        0.0125
      2  C2        -6.7620    1.9680   -0.4460 C.2     1  UNL1        0.2141
      3  O1        -6.0110    2.6200   -1.1850 O.2     1  UNL1       -0.2758
      4  N1        -6.2820    0.9170    0.3490 N.am    1  UNL1       -0.2857
      5  C3        -4.9490    0.4610    0.4330 C.ar    1  UNL1        0.0334
      6  C4        -4.7260   -0.7120    1.1410 C.ar    1  UNL1       -0.0399
      7  C5        -3.4440   -1.2030    1.2660 C.ar    1  UNL1       -0.0508
      8  C6        -2.3400   -0.6050    0.7280 C.ar    1  UNL1        0.0006
      9  C7        -0.9770   -1.1320    0.8630 C.ar    1  UNL1        0.0760
     10  C8        -0.6920   -2.2860    1.5500 C.ar    1  UNL1       -0.0174
     11  C9         0.6420   -2.7130    1.6260 C.ar    1  UNL1        0.0332
     12  N2         1.5780   -1.9810    1.0290 N.ar    1  UNL1       -0.2226
     13  C10        1.3430   -0.8540    0.3530 C.ar    1  UNL1        0.2200
     14  N3         2.3390   -0.0720   -0.2840 N.pl3   1  UNL1       -0.2836
     15  C11        3.7250   -0.3160   -0.3320 C.ar    1  UNL1        0.0343
     16  C12        4.3190   -1.3930    0.2310 C.ar    1  UNL1       -0.0404
     17  C13        5.7090   -1.6220    0.1760 C.ar    1  UNL1       -0.0593
     18  C14        6.4900   -0.7000   -0.4850 C.ar    1  UNL1       -0.0495
     19  C15        5.9060    0.4100   -1.0690 C.ar    1  UNL1        0.0382
     20  C16        6.7510    1.3880   -1.7710 C.2     1  UNL1        0.2416
     21  N4         8.1510    1.1680   -1.8310 N.am    1  UNL1       -0.3253
     22  O2         6.2280    2.3980   -2.3050 O.2     1  UNL1       -0.2704
     23  C17        4.5610    0.6050   -0.9990 C.ar    1  UNL1       -0.0284
     24  N5         0.0380   -0.4770    0.3040 N.ar    1  UNL1       -0.2142
     25  C18       -2.5590    0.5610    0.0230 C.ar    1  UNL1       -0.0508
     26  C19       -3.8530    1.0820   -0.1190 C.ar    1  UNL1       -0.0399
     27 H          -8.3491    3.1858   -1.1240 H       1  UNL1        0.0323
     28 H          -8.4982    2.6623    0.5363 H       1  UNL1        0.0323
     29 H          -8.8051    1.5377   -0.7652 H       1  UNL1        0.0323
     30 H          -6.9442    0.4483    0.9068 H       1  UNL1        0.1548
     31 H          -5.5173   -1.2148    1.5723 H       1  UNL1        0.0636
     32 H          -3.3100   -2.0765    1.7990 H       1  UNL1        0.0625
     33 H          -1.4446   -2.8288    2.0017 H       1  UNL1        0.0654
     34 H           0.8915   -3.5760    2.1339 H       1  UNL1        0.0831
     35 H           2.0245    0.7375   -0.7477 H       1  UNL1        0.1550
     36 H           3.7268   -2.0794    0.7240 H       1  UNL1        0.0636
     37 H           6.1285   -2.4551    0.6176 H       1  UNL1        0.0618
     38 H           7.5111   -0.8372   -0.5447 H       1  UNL1        0.0625
     39 H           8.5426    0.3707   -1.4065 H       1  UNL1        0.1453
     40 H           8.7311    1.8126   -2.2971 H       1  UNL1        0.1453
     41 H           4.1455    1.4400   -1.4408 H       1  UNL1        0.0644
     42 H          -1.7606    1.0555   -0.4049 H       1  UNL1        0.0625
     43 H          -3.9867    1.9553   -0.6523 H       1  UNL1        0.0636
@<TRIPOS>BOND
     1     1     2    1
     2     2     3    2
     3     2     4   am
     4     4     5    1
     5     5     6   ar
     6     5    26   ar
     7     6     7   ar
     8     7     8   ar
     9     8     9    1
    10     8    25   ar
    11     9    10   ar
    12     9    24   ar
    13    10    11   ar
    14    11    12   ar
    15    12    13   ar
    16    13    14    1
    17    13    24   ar
    18    14    15    1
    19    15    16   ar
    20    15    23   ar
    21    16    17   ar
    22    17    18   ar
    23    18    19   ar
    24    19    20    1
    25    19    23   ar
    26    20    21   am
    27    20    22    2
    28    25    26   ar
    29     1    27    1
    30     1    28    1
    31     1    29    1
    32     4    30    1
    33     6    31    1
    34     7    32    1
    35    10    33    1
    36    11    34    1
    37    14    35    1
    38    16    36    1
    39    17    37    1
    40    18    38    1
    41    21    39    1
    42    21    40    1
    43    23    41    1
    44    25    42    1
    45    26    43    1
@<TRIPOS>MOLECULE
../data/bude_mols_rdkit_confs/molecule_63.pdb
 43 45 0 0 0
SMALL
GASTEIGER

@<TRIPOS>ATOM
      1  C1         8.6250    0.6160   -0.0300 C.3     1  UNL1        0.0125
      2  C2         7.2370    0.1220    0.2340 C.2     1  UNL1        0.2141
      3  O1         7.1630   -0.9750    0.8190 O.2     1  UNL1       -0.2758
      4  N1         6.0920    0.8280   -0.1400 N.am    1  UNL1       -0.2857
      5  C3         4.7670    0.4390    0.0730 C.ar    1  UNL1        0.0334
      6  C4         3.7430    1.1570   -0.5660 C.ar    1  UNL1       -0.0399
      7  C5         2.4120    0.8360   -0.3910 C.ar    1  UNL1       -0.0508
      8  C6         2.0210   -0.2140    0.4280 C.ar    1  UNL1        0.0006
      9  C7         0.6000   -0.5050    0.5730 C.ar    1  UNL1        0.0760
     10  C8         0.1610   -1.5380    1.3750 C.ar    1  UNL1       -0.0174
     11  C9        -1.2000   -1.7710    1.4780 C.ar    1  UNL1        0.0332
     12  N2        -2.0300   -0.9840    0.7940 N.ar    1  UNL1       -0.2226
     13  C10       -1.6350    0.0260    0.0080 C.ar    1  UNL1        0.2200
     14  N3        -2.4690    0.8790   -0.7290 N.pl3   1  UNL1       -0.2836
     15  C11       -3.8600    0.8250   -0.7730 C.ar    1  UNL1        0.0343
     16  C12       -4.5410    1.7760   -1.5510 C.ar    1  UNL1       -0.0404
     17  C13       -5.9040    1.7830   -1.6420 C.ar    1  UNL1       -0.0593
     18  C14       -6.6590    0.8590   -0.9750 C.ar    1  UNL1       -0.0495
     19  C15       -6.0360   -0.0910   -0.2000 C.ar    1  UNL1        0.0382
     20  C16       -6.7800   -1.0930    0.5280 C.2     1  UNL1        0.2416
     21  N4        -6.0870   -2.0490    1.3110 N.am    1  UNL1       -0.3253
     22  O2        -8.0410   -1.1200    0.4700 O.2     1  UNL1       -0.2704
     23  C17       -4.6360   -0.0870   -0.1160 C.ar    1  UNL1       -0.0284
     24  N5        -0.2850    0.2510   -0.0890 N.ar    1  UNL1       -0.2142
     25  C18        3.0020   -0.9270    1.0610 C.ar    1  UNL1       -0.0508
     26  C19        4.3440   -0.5900    0.8740 C.ar    1  UNL1       -0.0399
     27 H           9.3333   -0.0925    0.3458 H       1  UNL1        0.0323
     28 H           8.7678    1.5568    0.4592 H       1  UNL1        0.0323
     29 H           8.7662    0.7368   -1.0837 H       1  UNL1        0.0323
     30 H           6.2324    1.6868   -0.6004 H       1  UNL1        0.1548
     31 H           3.9924    1.9458   -1.1830 H       1  UNL1        0.0636
     32 H           1.6913    1.3893   -0.8803 H       1  UNL1        0.0625
     33 H           0.8350   -2.1267    1.8891 H       1  UNL1        0.0654
     34 H          -1.5626   -2.5349    2.0696 H       1  UNL1        0.0831
     35 H          -2.0314    1.5800   -1.2641 H       1  UNL1        0.1550
     36 H          -3.9984    2.4866   -2.0663 H       1  UNL1        0.0636
     37 H          -6.3708    2.4967   -2.2231 H       1  UNL1        0.0618
     38 H          -7.6880    0.8742   -1.0524 H       1  UNL1        0.0625
     39 H          -5.1038   -2.0284    1.3566 H       1  UNL1        0.1453
     40 H          -6.5887   -2.7339    1.8095 H       1  UNL1        0.1453
     41 H          -4.1732   -0.8025    0.4661 H       1  UNL1        0.0644
     42 H           2.7498   -1.7151    1.6777 H       1  UNL1        0.0625
     43 H           5.0587   -1.1477    1.3672 H       1  UNL1        0.0636
@<TRIPOS>BOND
     1     1     2    1
     2     2     3    2
     3     2     4   am
     4     4     5    1
     5     5     6   ar
     6     5    26   ar
     7     6     7   ar
     8     7     8   ar
     9     8     9    1
    10     8    25   ar
    11     9    10   ar
    12     9    24   ar
    13    10    11   ar
    14    11    12   ar
    15    12    13   ar
    16    13    14    1
    17    13    24   ar
    18    14    15    1
    19    15    16   ar
    20    15    23   ar
    21    16    17   ar
    22    17    18   ar
    23    18    19   ar
    24    19    20    1
    25    19    23   ar
    26    20    21   am
    27    20    22    2
    28    25    26   ar
    29     1    27    1
    30     1    28    1
    31     1    29    1
    32     4    30    1
    33     6    31    1
    34     7    32    1
    35    10    33    1
    36    11    34    1
    37    14    35    1
    38    16    36    1
    39    17    37    1
    40    18    38    1
    41    21    39    1
    42    21    40    1
    43    23    41    1
    44    25    42    1
    45    26    43    1
@<TRIPOS>MOLECULE
../data/bude_mols_rdkit_confs/molecule_63.pdb
 43 45 0 0 0
SMALL
GASTEIGER

@<TRIPOS>ATOM
      1  C1         8.5450   -1.5970    1.1550 C.3     1  UNL1        0.0125
      2  C2         7.3560   -0.8380    0.6220 C.2     1  UNL1        0.2141
      3  O1         7.5710    0.1720   -0.0690 O.2     1  UNL1       -0.2758
      4  N1         6.0400   -1.2470    0.8910 N.am    1  UNL1       -0.2857
      5  C3         4.8440   -0.6380    0.4610 C.ar    1  UNL1        0.0334
      6  C4         3.6510   -1.2280    0.8550 C.ar    1  UNL1       -0.0399
      7  C5         2.4530   -0.6860    0.4710 C.ar    1  UNL1       -0.0508
      8  C6         2.3350    0.4550   -0.3120 C.ar    1  UNL1        0.0006
      9  C7         1.0130    0.9340   -0.6540 C.ar    1  UNL1        0.0760
     10  C8         0.8350    2.0530   -1.4230 C.ar    1  UNL1       -0.0174
     11  C9        -0.4610    2.4710   -1.7220 C.ar    1  UNL1        0.0332
     12  N2        -1.4760    1.7430   -1.2330 N.ar    1  UNL1       -0.2226
     13  C10       -1.3420    0.6650   -0.4920 C.ar    1  UNL1        0.2200
     14  N3        -2.4300   -0.0790    0.0080 N.pl3   1  UNL1       -0.2836
     15  C11       -3.7990    0.1550   -0.1660 C.ar    1  UNL1        0.0343
     16  C12       -4.3110    1.1830   -0.8830 C.ar    1  UNL1       -0.0404
     17  C13       -5.6930    1.3920   -1.0380 C.ar    1  UNL1       -0.0593
     18  C14       -6.5580    0.5190   -0.4400 C.ar    1  UNL1       -0.0495
     19  C15       -6.0850   -0.5390    0.2970 C.ar    1  UNL1        0.0382
     20  C16       -7.0320   -1.4750    0.9380 C.2     1  UNL1        0.2416
     21  N4        -8.4230   -1.2990    0.8070 N.am    1  UNL1       -0.3253
     22  O2        -6.5780   -2.4300    1.6020 O.2     1  UNL1       -0.2704
     23  C17       -4.7270   -0.7050    0.4230 C.ar    1  UNL1       -0.0284
     24  N5        -0.0720    0.2710   -0.2100 N.ar    1  UNL1       -0.2142
     25  C18        3.5120    1.0330   -0.6980 C.ar    1  UNL1       -0.0508
     26  C19        4.7460    0.4900   -0.3130 C.ar    1  UNL1       -0.0399
     27 H           9.4466   -1.1184    0.8343 H       1  UNL1        0.0323
     28 H           8.5227   -2.6006    0.7846 H       1  UNL1        0.0323
     29 H           8.5093   -1.6106    2.2243 H       1  UNL1        0.0323
     30 H           5.9411   -2.0545    1.4454 H       1  UNL1        0.1548
     31 H           3.6666   -2.0783    1.4395 H       1  UNL1        0.0636
     32 H           1.5869   -1.1531    0.7819 H       1  UNL1        0.0625
     33 H           1.6491    2.5797   -1.7764 H       1  UNL1        0.0654
     34 H          -0.6331    3.3096   -2.2983 H       1  UNL1        0.0831
     35 H          -2.1963   -0.8664    0.5507 H       1  UNL1        0.1550
     36 H          -3.6585    1.8421   -1.3356 H       1  UNL1        0.0636
     37 H          -6.0466    2.1879   -1.5917 H       1  UNL1        0.0618
     38 H          -7.5756    0.6560   -0.5432 H       1  UNL1        0.0625
     39 H          -8.7765   -0.5446    0.2825 H       1  UNL1        0.1453
     40 H          -9.0420   -1.9304    1.2399 H       1  UNL1        0.1453
     41 H          -4.3774   -1.5016    0.9782 H       1  UNL1        0.0644
     42 H           3.4920    1.8832   -1.2826 H       1  UNL1        0.0625
     43 H           5.6127    0.9564   -0.6235 H       1  UNL1        0.0636
@<TRIPOS>BOND
     1     1     2    1
     2     2     3    2
     3     2     4   am
     4     4     5    1
     5     5     6   ar
     6     5    26   ar
     7     6     7   ar
     8     7     8   ar
     9     8     9    1
    10     8    25   ar
    11     9    10   ar
    12     9    24   ar
    13    10    11   ar
    14    11    12   ar
    15    12    13   ar
    16    13    14    1
    17    13    24   ar
    18    14    15    1
    19    15    16   ar
    20    15    23   ar
    21    16    17   ar
    22    17    18   ar
    23    18    19   ar
    24    19    20    1
    25    19    23   ar
    26    20    21   am
    27    20    22    2
    28    25    26   ar
    29     1    27    1
    30     1    28    1
    31     1    29    1
    32     4    30    1
    33     6    31    1
    34     7    32    1
    35    10    33    1
    36    11    34    1
    37    14    35    1
    38    16    36    1
    39    17    37    1
    40    18    38    1
    41    21    39    1
    42    21    40    1
    43    23    41    1
    44    25    42    1
    45    26    43    1
@<TRIPOS>MOLECULE
../data/bude_mols_rdkit_confs/molecule_63.pdb
 43 45 0 0 0
SMALL
GASTEIGER

@<TRIPOS>ATOM
      1  C1         6.2810   -3.6620   -0.0120 C.3     1  UNL1        0.0125
      2  C2         5.5730   -2.3490   -0.1440 C.2     1  UNL1        0.2141
      3  O1         6.2240   -1.3350   -0.4030 O.2     1  UNL1       -0.2758
      4  N1         4.1820   -2.2600    0.0250 N.am    1  UNL1       -0.2857
      5  C3         3.3720   -1.1060   -0.0660 C.ar    1  UNL1        0.0334
      6  C4         3.7970    0.1660   -0.3380 C.ar    1  UNL1       -0.0399
      7  C5         2.9200    1.2660   -0.4110 C.ar    1  UNL1       -0.0508
      8  C6         1.5740    1.1150   -0.2090 C.ar    1  UNL1        0.0006
      9  C7         0.6200    2.2220   -0.2660 C.ar    1  UNL1        0.0760
     10  C8         0.9890    3.5300   -0.4890 C.ar    1  UNL1       -0.0174
     11  C9         0.0900    4.5710   -0.5320 C.ar    1  UNL1        0.0332
     12  N2        -1.2010    4.2850   -0.3470 N.ar    1  UNL1       -0.2226
     13  C10       -1.6240    2.9980   -0.1220 C.ar    1  UNL1        0.2200
     14  N3        -3.0110    2.8190    0.0770 N.pl3   1  UNL1       -0.2836
     15  C11       -3.6850    1.6030    0.3070 C.ar    1  UNL1        0.0343
     16  C12       -4.9960    1.6220    0.7880 C.ar    1  UNL1       -0.0404
     17  C13       -5.7090    0.4660    1.0130 C.ar    1  UNL1       -0.0593
     18  C14       -5.1410   -0.7650    0.7660 C.ar    1  UNL1       -0.0495
     19  C15       -3.8510   -0.7960    0.2920 C.ar    1  UNL1        0.0382
     20  C16       -3.2300   -2.0750    0.0240 C.2     1  UNL1        0.2416
     21  N4        -3.8940   -3.3040    0.2290 N.am    1  UNL1       -0.3253
     22  O2        -2.0380   -2.1080   -0.4150 O.2     1  UNL1       -0.2704
     23  C17       -3.1380    0.3870    0.0670 C.ar    1  UNL1       -0.0284
     24  N5        -0.7000    2.0230   -0.0910 N.ar    1  UNL1       -0.2142
     25  C18        1.1410   -0.1630    0.0660 C.ar    1  UNL1       -0.0508
     26  C19        1.9940   -1.2410    0.1380 C.ar    1  UNL1       -0.0399
     27 H           7.3289   -3.5201   -0.1752 H       1  UNL1        0.0323
     28 H           5.8969   -4.3488   -0.7370 H       1  UNL1        0.0323
     29 H           6.1231   -4.0552    0.9705 H       1  UNL1        0.0323
     30 H           3.7155   -3.1020    0.2315 H       1  UNL1        0.1548
     31 H           4.8040    0.3265   -0.4966 H       1  UNL1        0.0636
     32 H           3.2988    2.2028   -0.6205 H       1  UNL1        0.0625
     33 H           1.9894    3.7399   -0.6309 H       1  UNL1        0.0654
     34 H           0.4030    5.5397   -0.7015 H       1  UNL1        0.0831
     35 H          -3.5667    3.6313    0.0524 H       1  UNL1        0.1550
     36 H          -5.4444    2.5313    0.9809 H       1  UNL1        0.0636
     37 H          -6.6760    0.5217    1.3693 H       1  UNL1        0.0618
     38 H          -5.6678   -1.6368    0.9318 H       1  UNL1        0.0625
     39 H          -4.8182   -3.3136    0.5682 H       1  UNL1        0.1453
     40 H          -3.4329   -4.1514    0.0327 H       1  UNL1        0.1453
     41 H          -2.1715    0.3317   -0.2906 H       1  UNL1        0.0644
     42 H           0.1334   -0.3193    0.2250 H       1  UNL1        0.0625
     43 H           1.6068   -2.1742    0.3481 H       1  UNL1        0.0636
@<TRIPOS>BOND
     1     1     2    1
     2     2     3    2
     3     2     4   am
     4     4     5    1
     5     5     6   ar
     6     5    26   ar
     7     6     7   ar
     8     7     8   ar
     9     8     9    1
    10     8    25   ar
    11     9    10   ar
    12     9    24   ar
    13    10    11   ar
    14    11    12   ar
    15    12    13   ar
    16    13    14    1
    17    13    24   ar
    18    14    15    1
    19    15    16   ar
    20    15    23   ar
    21    16    17   ar
    22    17    18   ar
    23    18    19   ar
    24    19    20    1
    25    19    23   ar
    26    20    21   am
    27    20    22    2
    28    25    26   ar
    29     1    27    1
    30     1    28    1
    31     1    29    1
    32     4    30    1
    33     6    31    1
    34     7    32    1
    35    10    33    1
    36    11    34    1
    37    14    35    1
    38    16    36    1
    39    17    37    1
    40    18    38    1
    41    21    39    1
    42    21    40    1
    43    23    41    1
    44    25    42    1
    45    26    43    1
@<TRIPOS>MOLECULE
../data/bude_mols_rdkit_confs/molecule_63.pdb
 43 45 0 0 0
SMALL
GASTEIGER

@<TRIPOS>ATOM
      1  C1         8.2330    1.4610    0.8260 C.3     1  UNL1        0.0125
      2  C2         6.7310    1.2660    0.8510 C.2     1  UNL1        0.2141
      3  O1         5.9990    1.9970    1.5310 O.2     1  UNL1       -0.2758
      4  N1         6.1910    0.2310    0.0790 N.am    1  UNL1       -0.2857
      5  C3         4.8270   -0.1180   -0.0430 C.ar    1  UNL1        0.0334
      6  C4         4.4890   -1.3110   -0.7000 C.ar    1  UNL1       -0.0399
      7  C5         3.1930   -1.7350   -0.8800 C.ar    1  UNL1       -0.0508
      8  C6         2.1610   -0.9720   -0.4040 C.ar    1  UNL1        0.0006
      9  C7         0.7470   -1.3370   -0.5450 C.ar    1  UNL1        0.0760
     10  C8         0.3890   -2.4980   -1.1840 C.ar    1  UNL1       -0.0174
     11  C9        -0.9670   -2.7850   -1.2830 C.ar    1  UNL1        0.0332
     12  N2        -1.8590   -1.9470   -0.7710 N.ar    1  UNL1       -0.2226
     13  C10       -1.5490   -0.8160   -0.1480 C.ar    1  UNL1        0.2200
     14  N3        -2.4840    0.0910    0.4060 N.pl3   1  UNL1       -0.2836
     15  C11       -3.8800   -0.0560    0.3890 C.ar    1  UNL1        0.0343
     16  C12       -4.5700   -1.1340   -0.0980 C.ar    1  UNL1       -0.0404
     17  C13       -5.9710   -1.1350   -0.0510 C.ar    1  UNL1       -0.0593
     18  C14       -6.7060   -0.1040    0.4610 C.ar    1  UNL1       -0.0495
     19  C15       -6.0060    0.9920    0.9570 C.ar    1  UNL1        0.0382
     20  C16       -6.7220    2.1220    1.5160 C.2     1  UNL1        0.2416
     21  N4        -6.0140    3.2340    2.0190 N.am    1  UNL1       -0.3253
     22  O2        -7.9670    2.0990    1.5470 O.2     1  UNL1       -0.2704
     23  C17       -4.6450    0.9950    0.9120 C.ar    1  UNL1       -0.0284
     24  N5        -0.2250   -0.5430   -0.0540 N.ar    1  UNL1       -0.2142
     25  C18        2.4410    0.2050    0.2460 C.ar    1  UNL1       -0.0508
     26  C19        3.7660    0.6200    0.4200 C.ar    1  UNL1       -0.0399
     27 H           8.4966    2.2825    1.4589 H       1  UNL1        0.0323
     28 H           8.5494    1.6663   -0.1753 H       1  UNL1        0.0323
     29 H           8.7140    0.5719    1.1768 H       1  UNL1        0.0323
     30 H           6.8308   -0.3130   -0.4348 H       1  UNL1        0.1548
     31 H           5.2522   -1.9007   -1.0671 H       1  UNL1        0.0636
     32 H           3.0000   -2.6222   -1.3705 H       1  UNL1        0.0625
     33 H           1.1006   -3.1341   -1.5764 H       1  UNL1        0.0654
     34 H          -1.2796   -3.6484   -1.7539 H       1  UNL1        0.0831
     35 H          -2.1232    0.8966    0.8420 H       1  UNL1        0.1550
     36 H          -4.0625   -1.9394   -0.4965 H       1  UNL1        0.0636
     37 H          -6.4727   -1.9569   -0.4223 H       1  UNL1        0.0618
     38 H          -7.7373   -0.1363    0.4793 H       1  UNL1        0.0625
     39 H          -5.0300    3.2447    1.9910 H       1  UNL1        0.1453
     40 H          -6.5040    3.9992    2.3980 H       1  UNL1        0.1453
     41 H          -4.1482    1.8192    1.2847 H       1  UNL1        0.0644
     42 H           1.6695    0.7869    0.6083 H       1  UNL1        0.0625
     43 H           3.9513    1.5083    0.9116 H       1  UNL1        0.0636
@<TRIPOS>BOND
     1     1     2    1
     2     2     3    2
     3     2     4   am
     4     4     5    1
     5     5     6   ar
     6     5    26   ar
     7     6     7   ar
     8     7     8   ar
     9     8     9    1
    10     8    25   ar
    11     9    10   ar
    12     9    24   ar
    13    10    11   ar
    14    11    12   ar
    15    12    13   ar
    16    13    14    1
    17    13    24   ar
    18    14    15    1
    19    15    16   ar
    20    15    23   ar
    21    16    17   ar
    22    17    18   ar
    23    18    19   ar
    24    19    20    1
    25    19    23   ar
    26    20    21   am
    27    20    22    2
    28    25    26   ar
    29     1    27    1
    30     1    28    1
    31     1    29    1
    32     4    30    1
    33     6    31    1
    34     7    32    1
    35    10    33    1
    36    11    34    1
    37    14    35    1
    38    16    36    1
    39    17    37    1
    40    18    38    1
    41    21    39    1
    42    21    40    1
    43    23    41    1
    44    25    42    1
    45    26    43    1
@<TRIPOS>MOLECULE
../data/bude_mols_rdkit_confs/molecule_63.pdb
 43 45 0 0 0
SMALL
GASTEIGER

@<TRIPOS>ATOM
      1  C1         7.8850   -2.6230    0.2650 C.3     1  UNL1        0.0125
      2  C2         6.4440   -2.1790    0.3030 C.2     1  UNL1        0.2141
      3  O1         5.6370   -2.9940    0.7440 O.2     1  UNL1       -0.2758
      4  N1         6.0920   -0.9110   -0.1440 N.am    1  UNL1       -0.2857
      5  C3         4.7980   -0.3700   -0.1720 C.ar    1  UNL1        0.0334
      6  C4         3.6940   -1.1620    0.0070 C.ar    1  UNL1       -0.0399
      7  C5         2.4270   -0.5570   -0.0150 C.ar    1  UNL1       -0.0508
      8  C6         2.2890    0.8100   -0.2120 C.ar    1  UNL1        0.0006
      9  C7         0.9570    1.3840   -0.2250 C.ar    1  UNL1        0.0760
     10  C8         0.7500    2.7290   -0.4160 C.ar    1  UNL1       -0.0174
     11  C9        -0.5570    3.2340   -0.4200 C.ar    1  UNL1        0.0332
     12  N2        -1.5250    2.3420   -0.2330 N.ar    1  UNL1       -0.2226
     13  C10       -1.3750    1.0290   -0.0440 C.ar    1  UNL1        0.2200
     14  N3        -2.4230    0.1050    0.1530 N.pl3   1  UNL1       -0.2836
     15  C11       -3.7890    0.4100    0.1910 C.ar    1  UNL1        0.0343
     16  C12       -4.2850    1.6690    0.2560 C.ar    1  UNL1       -0.0404
     17  C13       -5.6530    1.9460    0.2790 C.ar    1  UNL1       -0.0593
     18  C14       -6.5410    0.9210    0.2360 C.ar    1  UNL1       -0.0495
     19  C15       -6.0930   -0.4020    0.1680 C.ar    1  UNL1        0.0382
     20  C16       -7.0610   -1.4840    0.1230 C.2     1  UNL1        0.2416
     21  N4        -6.5940   -2.8140    0.0550 N.am    1  UNL1       -0.3253
     22  O2        -8.2780   -1.2200    0.1450 O.2     1  UNL1       -0.2704
     23  C17       -4.7360   -0.6290    0.1470 C.ar    1  UNL1       -0.0284
     24  N5        -0.0870    0.5790   -0.0470 N.ar    1  UNL1       -0.2142
     25  C18        3.3900    1.6060   -0.3920 C.ar    1  UNL1       -0.0508
     26  C19        4.6210    1.0110   -0.3700 C.ar    1  UNL1       -0.0399
     27 H           7.9612   -3.6199    0.6461 H       1  UNL1        0.0323
     28 H           8.4769   -1.9651    0.8664 H       1  UNL1        0.0323
     29 H           8.2391   -2.5989   -0.7444 H       1  UNL1        0.0323
     30 H           6.8212   -0.3370   -0.4727 H       1  UNL1        0.1548
     31 H           3.7915   -2.1788    0.1544 H       1  UNL1        0.0636
     32 H           1.5846   -1.1383    0.1175 H       1  UNL1        0.0625
     33 H           1.5521    3.3631   -0.5556 H       1  UNL1        0.0654
     34 H          -0.7561    4.2370   -0.5596 H       1  UNL1        0.0831
     35 H          -2.1711   -0.8389    0.2747 H       1  UNL1        0.1550
     36 H          -3.6217    2.4588    0.2900 H       1  UNL1        0.0636
     37 H          -5.9859    2.9216    0.3283 H       1  UNL1        0.0618
     38 H          -7.5537    1.1190    0.2536 H       1  UNL1        0.0625
     39 H          -5.6266   -2.9958    0.0389 H       1  UNL1        0.1453
     40 H          -7.2356   -3.5600    0.0237 H       1  UNL1        0.1453
     41 H          -4.3988   -1.6030    0.0968 H       1  UNL1        0.0644
     42 H           3.2931    2.6228   -0.5396 H       1  UNL1        0.0625
     43 H           5.4568    1.6013   -0.5046 H       1  UNL1        0.0636
@<TRIPOS>BOND
     1     1     2    1
     2     2     3    2
     3     2     4   am
     4     4     5    1
     5     5     6   ar
     6     5    26   ar
     7     6     7   ar
     8     7     8   ar
     9     8     9    1
    10     8    25   ar
    11     9    10   ar
    12     9    24   ar
    13    10    11   ar
    14    11    12   ar
    15    12    13   ar
    16    13    14    1
    17    13    24   ar
    18    14    15    1
    19    15    16   ar
    20    15    23   ar
    21    16    17   ar
    22    17    18   ar
    23    18    19   ar
    24    19    20    1
    25    19    23   ar
    26    20    21   am
    27    20    22    2
    28    25    26   ar
    29     1    27    1
    30     1    28    1
    31     1    29    1
    32     4    30    1
    33     6    31    1
    34     7    32    1
    35    10    33    1
    36    11    34    1
    37    14    35    1
    38    16    36    1
    39    17    37    1
    40    18    38    1
    41    21    39    1
    42    21    40    1
    43    23    41    1
    44    25    42    1
    45    26    43    1
