@<TRIPOS>MOLECULE
../data/bude_mols_rdkit_confs/molecule_30.pdb
 41 43 0 0 0
SMALL
GASTEIGER

@<TRIPOS>ATOM
      1  C1        -1.3520   -0.2110    2.5930 C.3     1  UNL1       -0.0189
      2  C2        -0.8720   -0.3870    1.1960 C.3     1  UNL1        0.1761
      3  O1         0.3380    0.2390    0.9160 O.3     1  UNL1       -0.4487
      4  C3         1.4660   -0.4660    0.4560 C.2     1  UNL1        0.3407
      5  O2         1.2700   -1.6800    0.3300 O.2     1  UNL1       -0.2449
      6  C4         2.6740    0.2750    0.1940 C.ar    1  UNL1        0.0732
      7  C5         2.6710    1.6550    0.4080 C.ar    1  UNL1        0.0173
      8  C6         3.7740    2.4510    0.1870 C.ar    1  UNL1        0.2500
      9  O3         3.7520    3.7010    0.3860 O.2     1  UNL1       -0.2679
     10  N1         4.8830    1.8350   -0.2540 N.ar    1  UNL1       -0.3221
     11  C7         4.9140    0.5130   -0.4680 C.ar    1  UNL1        0.0500
     12  C8         6.0730   -0.0570   -0.9160 C.ar    1  UNL1       -0.0377
     13  C9         6.2010   -1.4080   -1.1640 C.ar    1  UNL1       -0.0598
     14  C10        5.1160   -2.2200   -0.9520 C.ar    1  UNL1       -0.0611
     15  C11        3.9140   -1.6720   -0.4930 C.ar    1  UNL1       -0.0518
     16  C12        3.8170   -0.3240   -0.2550 C.ar    1  UNL1        0.0125
     17  C13       -1.9670    0.0890    0.2730 C.2     1  UNL1        0.2579
     18  O4        -1.6590    0.9480   -0.5660 O.2     1  UNL1       -0.2714
     19  N2        -3.2570   -0.4330    0.3820 N.am    1  UNL1       -0.2801
     20  C14       -4.3810   -0.0860   -0.4080 C.ar    1  UNL1        0.0691
     21  C15       -4.3360    0.8400   -1.4140 C.ar    1  UNL1       -0.0377
     22  C16       -5.4980    1.1240   -2.1480 C.ar    1  UNL1       -0.0598
     23  C17       -6.6870    0.4820   -1.8700 C.ar    1  UNL1       -0.0589
     24  C18       -6.7290   -0.4450   -0.8610 C.ar    1  UNL1       -0.0246
     25  C19       -5.6070   -0.7310   -0.1400 C.ar    1  UNL1        0.1445
     26  F1        -5.6410   -1.6570    0.8710 F       1  UNL1       -0.2035
     27 H          -0.5956   -0.5406    3.2742 H       1  UNL1        0.0270
     28 H          -2.2407   -0.7884    2.7402 H       1  UNL1        0.0270
     29 H          -1.5650    0.8226    2.7694 H       1  UNL1        0.0270
     30 H          -0.6625   -1.4258    1.0477 H       1  UNL1        0.0830
     31 H           1.8033    2.0989    0.7471 H       1  UNL1        0.0680
     32 H           5.6930    2.3681   -0.4242 H       1  UNL1        0.1689
     33 H           6.8906    0.5520   -1.0762 H       1  UNL1        0.0638
     34 H           7.0941   -1.7994   -1.5019 H       1  UNL1        0.0618
     35 H           5.1866   -3.2339   -1.1310 H       1  UNL1        0.0618
     36 H           3.0978   -2.2829   -0.3329 H       1  UNL1        0.0624
     37 H          -3.4007   -1.1124    1.0798 H       1  UNL1        0.1550
     38 H          -3.4526    1.3270   -1.6319 H       1  UNL1        0.0637
     39 H          -5.4625    1.8230   -2.9064 H       1  UNL1        0.0618
     40 H          -7.5359    0.6973   -2.4159 H       1  UNL1        0.0618
     41 H          -7.6145   -0.9292   -0.6457 H       1  UNL1        0.0647
@<TRIPOS>BOND
     1     1     2    1
     2     2     3    1
     3     2    17    1
     4     3     4    1
     5     4     5    2
     6     4     6    1
     7     6     7   ar
     8     6    16   ar
     9     7     8   ar
    10     8     9    2
    11     8    10   ar
    12    10    11   ar
    13    11    12   ar
    14    11    16   ar
    15    12    13   ar
    16    13    14   ar
    17    14    15   ar
    18    15    16   ar
    19    17    18    2
    20    17    19   am
    21    19    20    1
    22    20    21   ar
    23    20    25   ar
    24    21    22   ar
    25    22    23   ar
    26    23    24   ar
    27    24    25   ar
    28    25    26    1
    29     1    27    1
    30     1    28    1
    31     1    29    1
    32     2    30    1
    33     7    31    1
    34    10    32    1
    35    12    33    1
    36    13    34    1
    37    14    35    1
    38    15    36    1
    39    19    37    1
    40    21    38    1
    41    22    39    1
    42    23    40    1
    43    24    41    1
@<TRIPOS>MOLECULE
../data/bude_mols_rdkit_confs/molecule_30.pdb
 41 43 0 0 0
SMALL
GASTEIGER

@<TRIPOS>ATOM
      1  C1         1.4480   -2.4660    0.2880 C.3     1  UNL1       -0.0189
      2  C2         0.9420   -1.1490    0.7950 C.3     1  UNL1        0.1761
      3  O1        -0.4090   -0.9280    0.5980 O.3     1  UNL1       -0.4487
      4  C3        -1.3660   -0.7010    1.5300 C.2     1  UNL1        0.3407
      5  O2        -0.9070   -0.7010    2.7370 O.2     1  UNL1       -0.2449
      6  C4        -2.7780   -0.4660    1.3930 C.ar    1  UNL1        0.0732
      7  C5        -3.5690   -0.2540    2.5320 C.ar    1  UNL1        0.0173
      8  C6        -4.9070   -0.0250    2.5020 C.ar    1  UNL1        0.2500
      9  O3        -5.5760    0.1600    3.5510 O.2     1  UNL1       -0.2679
     10  N1        -5.5390    0.0080    1.3320 N.ar    1  UNL1       -0.3221
     11  C7        -4.8410   -0.1870    0.2020 C.ar    1  UNL1        0.0500
     12  C8        -5.5020   -0.1510   -0.9830 C.ar    1  UNL1       -0.0377
     13  C9        -4.8600   -0.3400   -2.1670 C.ar    1  UNL1       -0.0598
     14  C10       -3.5100   -0.5740   -2.1670 C.ar    1  UNL1       -0.0611
     15  C11       -2.7790   -0.6220   -0.9730 C.ar    1  UNL1       -0.0518
     16  C12       -3.4600   -0.4270    0.1990 C.ar    1  UNL1        0.0125
     17  C13        1.7900   -0.0480    0.2000 C.2     1  UNL1        0.2579
     18  O4         1.2400    0.9080   -0.3820 O.2     1  UNL1       -0.2714
     19  N2         3.1920   -0.0980    0.3000 N.am    1  UNL1       -0.2801
     20  C14        4.1350    0.8230   -0.1850 C.ar    1  UNL1        0.0691
     21  C15        3.7970    1.9500   -0.8550 C.ar    1  UNL1       -0.0377
     22  C16        4.7550    2.8620   -1.3350 C.ar    1  UNL1       -0.0598
     23  C17        6.0890    2.6380   -1.1370 C.ar    1  UNL1       -0.0589
     24  C18        6.4510    1.4790   -0.4480 C.ar    1  UNL1       -0.0246
     25  C19        5.5070    0.6010    0.0130 C.ar    1  UNL1        0.1445
     26  F1         5.9060   -0.5010    0.6720 F       1  UNL1       -0.2035
     27 H           0.8577   -3.2575    0.7003 H       1  UNL1        0.0270
     28 H           2.4692   -2.5926    0.5814 H       1  UNL1        0.0270
     29 H           1.3783   -2.4878   -0.7795 H       1  UNL1        0.0270
     30 H           1.0375   -1.1607    1.8607 H       1  UNL1        0.0830
     31 H          -3.1035   -0.2734    3.4529 H       1  UNL1        0.0680
     32 H          -6.5087    0.1737    1.2951 H       1  UNL1        0.1689
     33 H          -6.5190    0.0245   -0.9856 H       1  UNL1        0.0638
     34 H          -5.3839   -0.3075   -3.0556 H       1  UNL1        0.0618
     35 H          -3.0218   -0.7178   -3.0648 H       1  UNL1        0.0618
     36 H          -1.7622   -0.7983   -0.9765 H       1  UNL1        0.0624
     37 H           3.5602   -0.8801    0.7711 H       1  UNL1        0.1550
     38 H           2.7977    2.1478   -1.0201 H       1  UNL1        0.0637
     39 H           4.4479    3.7074   -1.8410 H       1  UNL1        0.0618
     40 H           6.8009    3.3000   -1.4834 H       1  UNL1        0.0618
     41 H           7.4501    1.2801   -0.2829 H       1  UNL1        0.0647
@<TRIPOS>BOND
     1     1     2    1
     2     2     3    1
     3     2    17    1
     4     3     4    1
     5     4     5    2
     6     4     6    1
     7     6     7   ar
     8     6    16   ar
     9     7     8   ar
    10     8     9    2
    11     8    10   ar
    12    10    11   ar
    13    11    12   ar
    14    11    16   ar
    15    12    13   ar
    16    13    14   ar
    17    14    15   ar
    18    15    16   ar
    19    17    18    2
    20    17    19   am
    21    19    20    1
    22    20    21   ar
    23    20    25   ar
    24    21    22   ar
    25    22    23   ar
    26    23    24   ar
    27    24    25   ar
    28    25    26    1
    29     1    27    1
    30     1    28    1
    31     1    29    1
    32     2    30    1
    33     7    31    1
    34    10    32    1
    35    12    33    1
    36    13    34    1
    37    14    35    1
    38    15    36    1
    39    19    37    1
    40    21    38    1
    41    22    39    1
    42    23    40    1
    43    24    41    1
@<TRIPOS>MOLECULE
../data/bude_mols_rdkit_confs/molecule_30.pdb
 41 43 0 0 0
SMALL
GASTEIGER

@<TRIPOS>ATOM
      1  C1         1.2470   -2.3660    2.9100 C.3     1  UNL1       -0.0189
      2  C2         1.0530   -1.0600    2.2220 C.3     1  UNL1        0.1761
      3  O1         0.0210   -1.1080    1.2700 O.3     1  UNL1       -0.4487
      4  C3        -1.0830   -0.2310    1.3460 C.2     1  UNL1        0.3407
      5  O2        -1.0590    0.5520    2.2900 O.2     1  UNL1       -0.2449
      6  C4        -2.1120   -0.3300    0.3360 C.ar    1  UNL1        0.0732
      7  C5        -1.9770   -1.2950   -0.6860 C.ar    1  UNL1        0.0173
      8  C6        -2.9180   -1.4190   -1.6480 C.ar    1  UNL1        0.2500
      9  O3        -2.7370   -2.3110   -2.5440 O.2     1  UNL1       -0.2679
     10  N1        -4.0010   -0.6400   -1.6690 N.ar    1  UNL1       -0.3221
     11  C7        -4.2050    0.3020   -0.7360 C.ar    1  UNL1        0.0500
     12  C8        -5.3430    1.0720   -0.8150 C.ar    1  UNL1       -0.0377
     13  C9        -5.5370    2.0290    0.1460 C.ar    1  UNL1       -0.0598
     14  C10       -4.6110    2.1940    1.1440 C.ar    1  UNL1       -0.0611
     15  C11       -3.4560    1.4110    1.2230 C.ar    1  UNL1       -0.0518
     16  C12       -3.2480    0.4480    0.2670 C.ar    1  UNL1        0.0125
     17  C13        2.2940   -0.5900    1.5160 C.2     1  UNL1        0.2579
     18  O4         3.2940   -0.5020    2.2510 O.2     1  UNL1       -0.2714
     19  N2         2.3370   -0.2790    0.1730 N.am    1  UNL1       -0.2801
     20  C14        3.4740    0.1630   -0.5270 C.ar    1  UNL1        0.0691
     21  C15        4.7200    0.3550    0.0250 C.ar    1  UNL1       -0.0377
     22  C16        5.7880    0.7980   -0.7560 C.ar    1  UNL1       -0.0598
     23  C17        5.6390    1.0590   -2.0930 C.ar    1  UNL1       -0.0589
     24  C18        4.3800    0.8630   -2.6390 C.ar    1  UNL1       -0.0246
     25  C19        3.3360    0.4350   -1.9010 C.ar    1  UNL1        0.1445
     26  F1         2.1120    0.2560   -2.4800 F       1  UNL1       -0.2035
     27 H           0.3369   -2.6527    3.3942 H       1  UNL1        0.0270
     28 H           2.0248   -2.2731    3.6389 H       1  UNL1        0.0270
     29 H           1.5187   -3.1108    2.1914 H       1  UNL1        0.0270
     30 H           0.8001   -0.3759    3.0049 H       1  UNL1        0.0830
     31 H          -1.1503   -1.9126   -0.6984 H       1  UNL1        0.0680
     32 H          -4.6655   -0.7593   -2.3855 H       1  UNL1        0.1689
     33 H          -6.0283    0.9329   -1.5739 H       1  UNL1        0.0638
     34 H          -6.3790    2.6250    0.1189 H       1  UNL1        0.0618
     35 H          -4.7722    2.9197    1.8598 H       1  UNL1        0.0618
     36 H          -2.7738    1.5538    1.9841 H       1  UNL1        0.0624
     37 H           1.5014   -0.3744   -0.3388 H       1  UNL1        0.1550
     38 H           4.8663    0.1689    1.0295 H       1  UNL1        0.0637
     39 H           6.7120    0.9323   -0.3164 H       1  UNL1        0.0618
     40 H           6.4301    1.3874   -2.6687 H       1  UNL1        0.0618
     41 H           4.2371    1.0509   -3.6436 H       1  UNL1        0.0647
@<TRIPOS>BOND
     1     1     2    1
     2     2     3    1
     3     2    17    1
     4     3     4    1
     5     4     5    2
     6     4     6    1
     7     6     7   ar
     8     6    16   ar
     9     7     8   ar
    10     8     9    2
    11     8    10   ar
    12    10    11   ar
    13    11    12   ar
    14    11    16   ar
    15    12    13   ar
    16    13    14   ar
    17    14    15   ar
    18    15    16   ar
    19    17    18    2
    20    17    19   am
    21    19    20    1
    22    20    21   ar
    23    20    25   ar
    24    21    22   ar
    25    22    23   ar
    26    23    24   ar
    27    24    25   ar
    28    25    26    1
    29     1    27    1
    30     1    28    1
    31     1    29    1
    32     2    30    1
    33     7    31    1
    34    10    32    1
    35    12    33    1
    36    13    34    1
    37    14    35    1
    38    15    36    1
    39    19    37    1
    40    21    38    1
    41    22    39    1
    42    23    40    1
    43    24    41    1
@<TRIPOS>MOLECULE
../data/bude_mols_rdkit_confs/molecule_30.pdb
 41 43 0 0 0
SMALL
GASTEIGER

@<TRIPOS>ATOM
      1  C1         0.0960   -3.1680   -1.8550 C.3     1  UNL1       -0.0189
      2  C2        -0.3720   -1.7400   -1.9840 C.3     1  UNL1        0.1761
      3  O1         0.5900   -0.9040   -1.4250 O.3     1  UNL1       -0.4487
      4  C3         1.3520    0.0240   -2.0010 C.2     1  UNL1        0.3407
      5  O2         1.1720    0.1720   -3.2720 O.2     1  UNL1       -0.2449
      6  C4         2.3380    0.8610   -1.3560 C.ar    1  UNL1        0.0732
      7  C5         3.0000    1.8350   -2.1380 C.ar    1  UNL1        0.0173
      8  C6         3.9330    2.6580   -1.5820 C.ar    1  UNL1        0.2500
      9  O3         4.5320    3.5400   -2.2960 O.2     1  UNL1       -0.2679
     10  N1         4.2420    2.5620   -0.2840 N.ar    1  UNL1       -0.3221
     11  C7         3.6220    1.6430    0.4740 C.ar    1  UNL1        0.0500
     12  C8         3.9430    1.5380    1.8300 C.ar    1  UNL1       -0.0377
     13  C9         3.3360    0.6090    2.6460 C.ar    1  UNL1       -0.0598
     14  C10        2.3860   -0.2500    2.1430 C.ar    1  UNL1       -0.0611
     15  C11        2.0500   -0.1630    0.7900 C.ar    1  UNL1       -0.0518
     16  C12        2.6570    0.7630   -0.0180 C.ar    1  UNL1        0.0125
     17  C13       -1.7280   -1.5380   -1.3950 C.2     1  UNL1        0.2579
     18  O4        -2.6530   -2.2470   -1.8380 O.2     1  UNL1       -0.2714
     19  N2        -1.9850   -0.5980   -0.3820 N.am    1  UNL1       -0.2801
     20  C14       -3.2250   -0.3200    0.2500 C.ar    1  UNL1        0.0691
     21  C15       -4.3900   -0.9560   -0.0520 C.ar    1  UNL1       -0.0377
     22  C16       -5.6030   -0.6700    0.5810 C.ar    1  UNL1       -0.0598
     23  C17       -5.6060    0.3040    1.5540 C.ar    1  UNL1       -0.0589
     24  C18       -4.4470    0.9730    1.8910 C.ar    1  UNL1       -0.0246
     25  C19       -3.2900    0.6550    1.2420 C.ar    1  UNL1        0.1445
     26  F1        -2.1120    1.2910    1.5410 F       1  UNL1       -0.2035
     27 H           1.0690   -3.2651   -2.2894 H       1  UNL1        0.0270
     28 H          -0.5879   -3.8148   -2.3638 H       1  UNL1        0.0270
     29 H           0.1388   -3.4372   -0.8203 H       1  UNL1        0.0270
     30 H          -0.4809   -1.4927   -3.0193 H       1  UNL1        0.0830
     31 H           2.7742    1.9237   -3.1411 H       1  UNL1        0.0680
     32 H           4.9173    3.1592    0.1117 H       1  UNL1        0.1689
     33 H           4.6523    2.1721    2.2299 H       1  UNL1        0.0638
     34 H           3.5960    0.5568    3.6433 H       1  UNL1        0.0618
     35 H           1.9302   -0.9456    2.7541 H       1  UNL1        0.0618
     36 H           1.3401   -0.8001    0.3961 H       1  UNL1        0.0624
     37 H          -1.2133   -0.0698   -0.0744 H       1  UNL1        0.1550
     38 H          -4.3771   -1.6841   -0.7832 H       1  UNL1        0.0637
     39 H          -6.4680   -1.1725    0.3273 H       1  UNL1        0.0618
     40 H          -6.4872    0.5370    2.0380 H       1  UNL1        0.0618
     41 H          -4.4554    1.7017    2.6218 H       1  UNL1        0.0647
@<TRIPOS>BOND
     1     1     2    1
     2     2     3    1
     3     2    17    1
     4     3     4    1
     5     4     5    2
     6     4     6    1
     7     6     7   ar
     8     6    16   ar
     9     7     8   ar
    10     8     9    2
    11     8    10   ar
    12    10    11   ar
    13    11    12   ar
    14    11    16   ar
    15    12    13   ar
    16    13    14   ar
    17    14    15   ar
    18    15    16   ar
    19    17    18    2
    20    17    19   am
    21    19    20    1
    22    20    21   ar
    23    20    25   ar
    24    21    22   ar
    25    22    23   ar
    26    23    24   ar
    27    24    25   ar
    28    25    26    1
    29     1    27    1
    30     1    28    1
    31     1    29    1
    32     2    30    1
    33     7    31    1
    34    10    32    1
    35    12    33    1
    36    13    34    1
    37    14    35    1
    38    15    36    1
    39    19    37    1
    40    21    38    1
    41    22    39    1
    42    23    40    1
    43    24    41    1
