@<TRIPOS>MOLECULE
../data/bude_mols_rdkit_confs/molecule_41.pdb
 31 32 0 0 0
SMALL
GASTEIGER

@<TRIPOS>ATOM
      1 C           5.2260    0.6850   -0.4240 C.3     1  UNL1       -0.0397
      2 C           3.8630    0.2500   -0.0120 C.ar    1  UNL1       -0.0504
      3 C           3.6310   -0.2890    1.2540 C.ar    1  UNL1       -0.0582
      4 C           2.3360   -0.6780    1.5710 C.ar    1  UNL1       -0.0507
      5 C           1.2910   -0.5520    0.6950 C.ar    1  UNL1        0.0223
      6 C          -0.0240   -0.9990    1.0630 C.2     1  UNL1        0.1935
      7 O          -0.1260   -1.9420    1.9250 O.2     1  UNL1       -0.2866
      8 C          -1.2650   -0.4570    0.5260 C.ar    1  UNL1        0.0324
      9 C          -1.3960    0.8090    0.0090 C.ar    1  UNL1       -0.0053
     10 C          -2.5810    1.2730   -0.5310 C.ar    1  UNL1        0.1659
     11 O          -2.7270    2.5490   -1.0550 O.3     1  UNL1       -0.5031
     12 C          -3.6910    0.4260   -0.5560 C.ar    1  UNL1        0.2370
     13 O          -4.8970    0.8590   -1.0910 O.3     1  UNL1       -0.4989
     14 C          -3.5840   -0.8600   -0.0390 C.ar    1  UNL1        0.3184
     15 N          -4.7180   -1.7440   -0.0780 N.pl3   1  UNL1        0.0836
     16 O          -5.5510   -1.6700   -0.9840 O.2     1  UNL1        0.0416
     17 O          -4.8750   -2.6910    0.9150 O.co2   1  UNL1       -0.5759
     18 C          -2.3950   -1.2710    0.4830 C.ar    1  UNL1        0.0304
     19 C           1.5350   -0.0220   -0.5430 C.ar    1  UNL1       -0.0507
     20 C           2.8220    0.3840   -0.9060 C.ar    1  UNL1       -0.0582
     21 H           5.9127    0.5145    0.3787 H       1  UNL1        0.0278
     22 H           5.2102    1.7275   -0.6644 H       1  UNL1        0.0278
     23 H           5.5347    0.1257   -1.2823 H       1  UNL1        0.0278
     24 H           4.3992   -0.3955    1.9348 H       1  UNL1        0.0620
     25 H           2.1538   -1.0783    2.5046 H       1  UNL1        0.0625
     26 H          -0.5781    1.4381    0.0243 H       1  UNL1        0.0662
     27 H          -2.0015    3.1420   -1.0534 H       1  UNL1        0.2923
     28 H          -4.9706    1.7255   -1.4398 H       1  UNL1        0.2925
     29 H          -2.3281   -2.2279    0.8636 H       1  UNL1        0.0694
     30 H           0.7595    0.0790   -1.2163 H       1  UNL1        0.0625
     31 H           2.9930    0.7836   -1.8420 H       1  UNL1        0.0620
@<TRIPOS>UNITY_ATOM_ATTR
15 1
charge 1
17 1
charge -1
@<TRIPOS>BOND
     1     1     2    1
     2     2     3   ar
     3     2    20   ar
     4     3     4   ar
     5     4     5   ar
     6     5     6    1
     7     5    19   ar
     8     6     7    2
     9     6     8    1
    10     8     9   ar
    11     8    18   ar
    12     9    10   ar
    13    10    11    1
    14    10    12   ar
    15    12    13    1
    16    12    14   ar
    17    14    15    1
    18    14    18   ar
    19    15    16    2
    20    15    17    1
    21    19    20   ar
    22     1    21    1
    23     1    22    1
    24     1    23    1
    25     3    24    1
    26     4    25    1
    27     9    26    1
    28    11    27    1
    29    13    28    1
    30    18    29    1
    31    19    30    1
    32    20    31    1
@<TRIPOS>MOLECULE
../data/bude_mols_rdkit_confs/molecule_41.pdb
 31 32 0 0 0
SMALL
GASTEIGER

@<TRIPOS>ATOM
      1 C           5.3850    0.6260    0.0500 C.3     1  UNL1       -0.0397
      2 C           3.9730    0.1690    0.0790 C.ar    1  UNL1       -0.0504
      3 C           2.9480    0.9960    0.4090 C.ar    1  UNL1       -0.0582
      4 C           1.6130    0.5740    0.4400 C.ar    1  UNL1       -0.0507
      5 C           1.2840   -0.7130    0.1320 C.ar    1  UNL1        0.0223
      6 C          -0.0370   -1.2760    0.1000 C.2     1  UNL1        0.1935
      7 O          -0.1530   -2.5440    0.2680 O.2     1  UNL1       -0.2866
      8 C          -1.2860   -0.5700   -0.1030 C.ar    1  UNL1        0.0324
      9 C          -1.3530    0.6350   -0.7680 C.ar    1  UNL1       -0.0053
     10 C          -2.5610    1.2720   -0.9160 C.ar    1  UNL1        0.1659
     11 O          -2.6220    2.4890   -1.5880 O.3     1  UNL1       -0.5031
     12 C          -3.7660    0.7480   -0.4140 C.ar    1  UNL1        0.2370
     13 O          -4.9280    1.4700   -0.6160 O.3     1  UNL1       -0.4989
     14 C          -3.7060   -0.4530    0.2480 C.ar    1  UNL1        0.3184
     15 N          -4.8530   -1.0690    0.7940 N.pl3   1  UNL1        0.0836
     16 O          -5.9780   -1.0000    0.2980 O.2     1  UNL1        0.0416
     17 O          -4.7300   -1.8260    1.9580 O.co2   1  UNL1       -0.5759
     18 C          -2.4610   -1.0830    0.3870 C.ar    1  UNL1        0.0304
     19 C           2.3490   -1.5490   -0.2040 C.ar    1  UNL1       -0.0507
     20 C           3.6590   -1.1410   -0.2360 C.ar    1  UNL1       -0.0582
     21 H           5.4307    1.6603    0.3203 H       1  UNL1        0.0278
     22 H           5.7815    0.4970   -0.9354 H       1  UNL1        0.0278
     23 H           5.9606    0.0501    0.7443 H       1  UNL1        0.0278
     24 H           3.1617    1.9772    0.6471 H       1  UNL1        0.0620
     25 H           0.8712    1.2434    0.6984 H       1  UNL1        0.0625
     26 H          -0.4954    1.0590   -1.1550 H       1  UNL1        0.0662
     27 H          -1.8409    2.8710   -1.9372 H       1  UNL1        0.2923
     28 H          -4.8989    2.2850   -1.0774 H       1  UNL1        0.2925
     29 H          -2.4261   -1.9851    0.8870 H       1  UNL1        0.0694
     30 H           2.1397   -2.5311   -0.4423 H       1  UNL1        0.0625
     31 H           4.4045   -1.8067   -0.4932 H       1  UNL1        0.0620
@<TRIPOS>UNITY_ATOM_ATTR
15 1
charge 1
17 1
charge -1
@<TRIPOS>BOND
     1     1     2    1
     2     2     3   ar
     3     2    20   ar
     4     3     4   ar
     5     4     5   ar
     6     5     6    1
     7     5    19   ar
     8     6     7    2
     9     6     8    1
    10     8     9   ar
    11     8    18   ar
    12     9    10   ar
    13    10    11    1
    14    10    12   ar
    15    12    13    1
    16    12    14   ar
    17    14    15    1
    18    14    18   ar
    19    15    16    2
    20    15    17    1
    21    19    20   ar
    22     1    21    1
    23     1    22    1
    24     1    23    1
    25     3    24    1
    26     4    25    1
    27     9    26    1
    28    11    27    1
    29    13    28    1
    30    18    29    1
    31    19    30    1
    32    20    31    1
@<TRIPOS>MOLECULE
../data/bude_mols_rdkit_confs/molecule_41.pdb
 31 32 0 0 0
SMALL
GASTEIGER

@<TRIPOS>ATOM
      1 C          -5.0770    1.3090    0.4980 C.3     1  UNL1       -0.0397
      2 C          -3.7930    0.6650    0.0690 C.ar    1  UNL1       -0.0504
      3 C          -3.6800    0.0340   -1.1510 C.ar    1  UNL1       -0.0582
      4 C          -2.4980   -0.5550   -1.5450 C.ar    1  UNL1       -0.0507
      5 C          -1.3650   -0.5410   -0.7310 C.ar    1  UNL1        0.0223
      6 C          -0.1300   -1.1810   -1.1770 C.2     1  UNL1        0.1935
      7 O          -0.2400   -2.1590   -1.9970 O.2     1  UNL1       -0.2866
      8 C           1.1950   -0.7880   -0.7600 C.ar    1  UNL1        0.0324
      9 C           2.2080   -1.7440   -0.7560 C.ar    1  UNL1       -0.0053
     10 C           3.5000   -1.4490   -0.3800 C.ar    1  UNL1        0.1659
     11 O           4.5200   -2.4050   -0.3740 O.3     1  UNL1       -0.5031
     12 C           3.8340   -0.1770    0.0100 C.ar    1  UNL1        0.2370
     13 O           5.1380    0.1230    0.3900 O.3     1  UNL1       -0.4989
     14 C           2.8420    0.7910    0.0140 C.ar    1  UNL1        0.3184
     15 N           3.1900    2.1150    0.4190 N.pl3   1  UNL1        0.0836
     16 O           4.3380    2.5730    0.2030 O.2     1  UNL1        0.0416
     17 O           2.3040    2.9510    1.0580 O.co2   1  UNL1       -0.5759
     18 C           1.5670    0.4730   -0.3630 C.ar    1  UNL1        0.0304
     19 C          -1.4980    0.0940    0.4840 C.ar    1  UNL1       -0.0507
     20 C          -2.6830    0.6880    0.8840 C.ar    1  UNL1       -0.0582
     21 H          -5.8127    1.1831   -0.2686 H       1  UNL1        0.0278
     22 H          -4.9134    2.3528    0.6673 H       1  UNL1        0.0278
     23 H          -5.4214    0.8508    1.4015 H       1  UNL1        0.0278
     24 H          -4.4962    0.0019   -1.7817 H       1  UNL1        0.0620
     25 H          -2.4497   -1.0184   -2.4659 H       1  UNL1        0.0625
     26 H           1.9824   -2.7086   -1.0453 H       1  UNL1        0.0662
     27 H           4.3372   -3.2868   -0.6329 H       1  UNL1        0.2923
     28 H           5.7944   -0.5456    0.3805 H       1  UNL1        0.2925
     29 H           0.8503    1.2154   -0.3486 H       1  UNL1        0.0694
     30 H          -0.6852    0.1283    1.1190 H       1  UNL1        0.0625
     31 H          -2.7351    1.1534    1.8036 H       1  UNL1        0.0620
@<TRIPOS>UNITY_ATOM_ATTR
15 1
charge 1
17 1
charge -1
@<TRIPOS>BOND
     1     1     2    1
     2     2     3   ar
     3     2    20   ar
     4     3     4   ar
     5     4     5   ar
     6     5     6    1
     7     5    19   ar
     8     6     7    2
     9     6     8    1
    10     8     9   ar
    11     8    18   ar
    12     9    10   ar
    13    10    11    1
    14    10    12   ar
    15    12    13    1
    16    12    14   ar
    17    14    15    1
    18    14    18   ar
    19    15    16    2
    20    15    17    1
    21    19    20   ar
    22     1    21    1
    23     1    22    1
    24     1    23    1
    25     3    24    1
    26     4    25    1
    27     9    26    1
    28    11    27    1
    29    13    28    1
    30    18    29    1
    31    19    30    1
    32    20    31    1
@<TRIPOS>MOLECULE
../data/bude_mols_rdkit_confs/molecule_41.pdb
 31 32 0 0 0
SMALL
GASTEIGER

@<TRIPOS>ATOM
      1 C           4.9700    1.3620    0.3670 C.3     1  UNL1       -0.0397
      2 C           3.7110    0.6060    0.0510 C.ar    1  UNL1       -0.0504
      3 C           2.5980    0.6950    0.8670 C.ar    1  UNL1       -0.0582
      4 C           1.4270    0.0270    0.6030 C.ar    1  UNL1       -0.0507
      5 C           1.3270   -0.7650   -0.5080 C.ar    1  UNL1        0.0223
      6 C           0.1040   -1.4450   -0.8650 C.2     1  UNL1        0.1935
      7 O           0.1670   -2.4860   -1.5690 O.2     1  UNL1       -0.2866
      8 C          -1.2050   -0.9490   -0.4290 C.ar    1  UNL1        0.0324
      9 C          -2.2930   -1.7980   -0.2600 C.ar    1  UNL1       -0.0053
     10 C          -3.5400   -1.3340    0.1460 C.ar    1  UNL1        0.1659
     11 O          -4.6270   -2.2120    0.3070 O.3     1  UNL1       -0.5031
     12 C          -3.7260   -0.0070    0.3960 C.ar    1  UNL1        0.2370
     13 O          -4.9560    0.5010    0.8060 O.3     1  UNL1       -0.4989
     14 C          -2.6610    0.8880    0.2410 C.ar    1  UNL1        0.3184
     15 N          -2.8510    2.2620    0.5160 N.pl3   1  UNL1        0.0836
     16 O          -3.6560    2.6630    1.3690 O.2     1  UNL1        0.0416
     17 O          -2.1240    3.1970   -0.1810 O.co2   1  UNL1       -0.5759
     18 C          -1.4280    0.3840   -0.1700 C.ar    1  UNL1        0.0304
     19 C           2.4370   -0.8620   -1.3300 C.ar    1  UNL1       -0.0507
     20 C           3.6120   -0.1930   -1.0640 C.ar    1  UNL1       -0.0582
     21 H           4.8350    1.9175    1.2715 H       1  UNL1        0.0278
     22 H           5.1929    2.0346   -0.4348 H       1  UNL1        0.0278
     23 H           5.7789    0.6724    0.4894 H       1  UNL1        0.0278
     24 H           2.6493    1.2883    1.7098 H       1  UNL1        0.0620
     25 H           0.6228    0.1226    1.2427 H       1  UNL1        0.0625
     26 H          -2.1714   -2.8065   -0.4419 H       1  UNL1        0.0662
     27 H          -4.5185   -3.1276    0.1399 H       1  UNL1        0.2923
     28 H          -5.6868   -0.0746    0.9181 H       1  UNL1        0.2925
     29 H          -0.6429    1.0437   -0.2859 H       1  UNL1        0.0694
     30 H           2.3824   -1.4565   -2.1718 H       1  UNL1        0.0625
     31 H           4.4176   -0.2915   -1.7014 H       1  UNL1        0.0620
@<TRIPOS>UNITY_ATOM_ATTR
15 1
charge 1
17 1
charge -1
@<TRIPOS>BOND
     1     1     2    1
     2     2     3   ar
     3     2    20   ar
     4     3     4   ar
     5     4     5   ar
     6     5     6    1
     7     5    19   ar
     8     6     7    2
     9     6     8    1
    10     8     9   ar
    11     8    18   ar
    12     9    10   ar
    13    10    11    1
    14    10    12   ar
    15    12    13    1
    16    12    14   ar
    17    14    15    1
    18    14    18   ar
    19    15    16    2
    20    15    17    1
    21    19    20   ar
    22     1    21    1
    23     1    22    1
    24     1    23    1
    25     3    24    1
    26     4    25    1
    27     9    26    1
    28    11    27    1
    29    13    28    1
    30    18    29    1
    31    19    30    1
    32    20    31    1
@<TRIPOS>MOLECULE
../data/bude_mols_rdkit_confs/molecule_41.pdb
 31 32 0 0 0
SMALL
GASTEIGER

@<TRIPOS>ATOM
      1 C           5.1450   -0.3030    0.9470 C.3     1  UNL1       -0.0397
      2 C           3.8010   -0.2140    0.3000 C.ar    1  UNL1       -0.0504
      3 C           2.7320    0.3790    0.9320 C.ar    1  UNL1       -0.0582
      4 C           1.4680    0.4670    0.3360 C.ar    1  UNL1       -0.0507
      5 C           1.2510   -0.0480   -0.9230 C.ar    1  UNL1        0.0223
      6 C          -0.0340   -0.0130   -1.5980 C.2     1  UNL1        0.1935
      7 O          -0.0740   -0.0640   -2.8490 O.2     1  UNL1       -0.2866
      8 C          -1.2870    0.0790   -0.8700 C.ar    1  UNL1        0.0324
      9 C          -2.3750    0.7270   -1.4710 C.ar    1  UNL1       -0.0053
     10 C          -3.5850    0.8170   -0.8200 C.ar    1  UNL1        0.1659
     11 O          -4.6600    1.4600   -1.4190 O.3     1  UNL1       -0.5031
     12 C          -3.7400    0.2710    0.4310 C.ar    1  UNL1        0.2370
     13 O          -4.9340    0.3460    1.1040 O.3     1  UNL1       -0.4989
     14 C          -2.6810   -0.3720    1.0410 C.ar    1  UNL1        0.3184
     15 N          -2.8710   -0.9290    2.3380 N.pl3   1  UNL1        0.0836
     16 O          -2.1440   -1.9130    2.6420 O.2     1  UNL1        0.0416
     17 O          -3.8030   -0.4030    3.1920 O.co2   1  UNL1       -0.5759
     18 C          -1.4710   -0.4590    0.3830 C.ar    1  UNL1        0.0304
     19 C           2.3400   -0.6440   -1.5480 C.ar    1  UNL1       -0.0507
     20 C           3.5800   -0.7280   -0.9620 C.ar    1  UNL1       -0.0582
     21 H           5.1056    0.1511    1.9151 H       1  UNL1        0.0278
     22 H           5.8661    0.2069    0.3429 H       1  UNL1        0.0278
     23 H           5.4257   -1.3307    1.0463 H       1  UNL1        0.0278
     24 H           2.8664    0.7720    1.8767 H       1  UNL1        0.0620
     25 H           0.6930    0.9212    0.8439 H       1  UNL1        0.0625
     26 H          -2.2681    1.1406   -2.4104 H       1  UNL1        0.0662
     27 H          -4.5650    1.8359   -2.2720 H       1  UNL1        0.2923
     28 H          -5.6671    0.7772    0.7109 H       1  UNL1        0.2925
     29 H          -0.6828   -0.9406    0.8432 H       1  UNL1        0.0694
     30 H           2.2118   -1.0403   -2.4922 H       1  UNL1        0.0625
     31 H           4.3551   -1.1806   -1.4713 H       1  UNL1        0.0620
@<TRIPOS>UNITY_ATOM_ATTR
15 1
charge 1
17 1
charge -1
@<TRIPOS>BOND
     1     1     2    1
     2     2     3   ar
     3     2    20   ar
     4     3     4   ar
     5     4     5   ar
     6     5     6    1
     7     5    19   ar
     8     6     7    2
     9     6     8    1
    10     8     9   ar
    11     8    18   ar
    12     9    10   ar
    13    10    11    1
    14    10    12   ar
    15    12    13    1
    16    12    14   ar
    17    14    15    1
    18    14    18   ar
    19    15    16    2
    20    15    17    1
    21    19    20   ar
    22     1    21    1
    23     1    22    1
    24     1    23    1
    25     3    24    1
    26     4    25    1
    27     9    26    1
    28    11    27    1
    29    13    28    1
    30    18    29    1
    31    19    30    1
    32    20    31    1
@<TRIPOS>MOLECULE
../data/bude_mols_rdkit_confs/molecule_41.pdb
 31 32 0 0 0
SMALL
GASTEIGER

@<TRIPOS>ATOM
      1 C           5.4080    0.7600    0.0560 C.3     1  UNL1       -0.0397
      2 C           4.0190    0.2020   -0.0340 C.ar    1  UNL1       -0.0504
      3 C           3.7500   -0.9680   -0.6820 C.ar    1  UNL1       -0.0582
      4 C           2.4560   -1.4040   -0.7130 C.ar    1  UNL1       -0.0507
      5 C           1.3750   -0.7160   -0.1140 C.ar    1  UNL1        0.0223
      6 C           0.0600   -1.2780   -0.2310 C.2     1  UNL1        0.1935
      7 O           0.0680   -2.5770   -0.4300 O.2     1  UNL1       -0.2866
      8 C          -1.2560   -0.7150   -0.1860 C.ar    1  UNL1        0.0324
      9 C          -2.2270   -1.2460   -1.0620 C.ar    1  UNL1       -0.0053
     10 C          -3.5240   -0.8290   -1.0870 C.ar    1  UNL1        0.1659
     11 O          -4.4680   -1.3520   -1.9470 O.3     1  UNL1       -0.5031
     12 C          -3.9560    0.1800   -0.2110 C.ar    1  UNL1        0.2370
     13 O          -5.2820    0.5760   -0.2650 O.3     1  UNL1       -0.4989
     14 C          -3.0380    0.7150    0.6520 C.ar    1  UNL1        0.3184
     15 N          -3.3590    1.7300    1.5830 N.pl3   1  UNL1        0.0836
     16 O          -2.7330    1.8070    2.6560 O.2     1  UNL1        0.0416
     17 O          -4.3350    2.6330    1.3450 O.co2   1  UNL1       -0.5759
     18 C          -1.6990    0.2510    0.6460 C.ar    1  UNL1        0.0304
     19 C           1.7040    0.4470    0.5200 C.ar    1  UNL1       -0.0507
     20 C           3.0150    0.9060    0.5620 C.ar    1  UNL1       -0.0582
     21 H           6.0878    0.1083   -0.4520 H       1  UNL1        0.0278
     22 H           5.6935    0.8421    1.0839 H       1  UNL1        0.0278
     23 H           5.4338    1.7278   -0.3997 H       1  UNL1        0.0278
     24 H           4.5030   -1.5084   -1.1359 H       1  UNL1        0.0620
     25 H           2.2547   -2.2894   -1.2034 H       1  UNL1        0.0625
     26 H          -1.9396   -1.9890   -1.7180 H       1  UNL1        0.0662
     27 H          -4.2287   -2.0274   -2.5507 H       1  UNL1        0.2923
     28 H          -5.8665    0.1739   -0.8771 H       1  UNL1        0.2925
     29 H          -1.0304    0.6720    1.3098 H       1  UNL1        0.0694
     30 H           0.9620    0.9983    0.9788 H       1  UNL1        0.0625
     31 H           3.2310    1.7895    1.0497 H       1  UNL1        0.0620
@<TRIPOS>UNITY_ATOM_ATTR
15 1
charge 1
17 1
charge -1
@<TRIPOS>BOND
     1     1     2    1
     2     2     3   ar
     3     2    20   ar
     4     3     4   ar
     5     4     5   ar
     6     5     6    1
     7     5    19   ar
     8     6     7    2
     9     6     8    1
    10     8     9   ar
    11     8    18   ar
    12     9    10   ar
    13    10    11    1
    14    10    12   ar
    15    12    13    1
    16    12    14   ar
    17    14    15    1
    18    14    18   ar
    19    15    16    2
    20    15    17    1
    21    19    20   ar
    22     1    21    1
    23     1    22    1
    24     1    23    1
    25     3    24    1
    26     4    25    1
    27     9    26    1
    28    11    27    1
    29    13    28    1
    30    18    29    1
    31    19    30    1
    32    20    31    1
@<TRIPOS>MOLECULE
../data/bude_mols_rdkit_confs/molecule_41.pdb
 31 32 0 0 0
SMALL
GASTEIGER

@<TRIPOS>ATOM
      1 C          -5.3560   -0.7930   -0.7160 C.3     1  UNL1       -0.0397
      2 C          -3.9470   -0.5410   -0.2440 C.ar    1  UNL1       -0.0504
      3 C          -3.5670    0.7470    0.0600 C.ar    1  UNL1       -0.0582
      4 C          -2.2300    0.9700    0.5160 C.ar    1  UNL1       -0.0507
      5 C          -1.3450   -0.0120    0.6580 C.ar    1  UNL1        0.0223
      6 C          -0.0050    0.1130    1.1580 C.2     1  UNL1        0.1935
      7 O           0.0950   -0.1850    2.4560 O.2     1  UNL1       -0.2866
      8 C           1.2750    0.4660    0.6170 C.ar    1  UNL1        0.0324
      9 C           1.7590    1.7000    0.2980 C.ar    1  UNL1       -0.0053
     10 C           3.0400    1.8710   -0.1990 C.ar    1  UNL1        0.1659
     11 O           3.5810    3.0950   -0.5360 O.3     1  UNL1       -0.5031
     12 C           3.8390    0.7130   -0.3770 C.ar    1  UNL1        0.2370
     13 O           5.0930    0.9280   -0.8750 O.3     1  UNL1       -0.4989
     14 C           3.3900   -0.5360   -0.0790 C.ar    1  UNL1        0.3184
     15 N           4.1740   -1.7120   -0.2800 N.pl3   1  UNL1        0.0836
     16 O           3.9450   -2.7020    0.4340 O.2     1  UNL1        0.0416
     17 O           5.1560   -1.8440   -1.2130 O.co2   1  UNL1       -0.5759
     18 C           2.1240   -0.6390    0.4080 C.ar    1  UNL1        0.0304
     19 C          -1.7990   -1.3100    0.3290 C.ar    1  UNL1       -0.0507
     20 C          -3.0600   -1.5880   -0.1150 C.ar    1  UNL1       -0.0582
     21 H          -5.8908    0.1330   -0.7527 H       1  UNL1        0.0278
     22 H          -5.8452   -1.4608   -0.0380 H       1  UNL1        0.0278
     23 H          -5.3323   -1.2301   -1.6924 H       1  UNL1        0.0278
     24 H          -4.2301    1.5316   -0.0387 H       1  UNL1        0.0620
     25 H          -1.9399    1.9337    0.7444 H       1  UNL1        0.0625
     26 H           1.1558    2.5269    0.4302 H       1  UNL1        0.0662
     27 H           3.0752    3.8764   -0.4285 H       1  UNL1        0.2923
     28 H           5.3760    1.7994   -1.0714 H       1  UNL1        0.2925
     29 H           1.7653   -1.5791    0.6372 H       1  UNL1        0.0694
     30 H          -1.1370   -2.0951    0.4306 H       1  UNL1        0.0625
     31 H          -3.3406   -2.5536   -0.3471 H       1  UNL1        0.0620
@<TRIPOS>UNITY_ATOM_ATTR
15 1
charge 1
17 1
charge -1
@<TRIPOS>BOND
     1     1     2    1
     2     2     3   ar
     3     2    20   ar
     4     3     4   ar
     5     4     5   ar
     6     5     6    1
     7     5    19   ar
     8     6     7    2
     9     6     8    1
    10     8     9   ar
    11     8    18   ar
    12     9    10   ar
    13    10    11    1
    14    10    12   ar
    15    12    13    1
    16    12    14   ar
    17    14    15    1
    18    14    18   ar
    19    15    16    2
    20    15    17    1
    21    19    20   ar
    22     1    21    1
    23     1    22    1
    24     1    23    1
    25     3    24    1
    26     4    25    1
    27     9    26    1
    28    11    27    1
    29    13    28    1
    30    18    29    1
    31    19    30    1
    32    20    31    1
@<TRIPOS>MOLECULE
../data/bude_mols_rdkit_confs/molecule_41.pdb
 31 32 0 0 0
SMALL
GASTEIGER

@<TRIPOS>ATOM
      1 C          -5.5160    0.6120   -0.2080 C.3     1  UNL1       -0.0397
      2 C          -4.0860    0.1900   -0.1690 C.ar    1  UNL1       -0.0504
      3 C          -3.1830    0.6860    0.7120 C.ar    1  UNL1       -0.0582
      4 C          -1.8370    0.2710    0.7030 C.ar    1  UNL1       -0.0507
      5 C          -1.3550   -0.6500   -0.1850 C.ar    1  UNL1        0.0223
      6 C          -0.0060   -1.1190   -0.3240 C.2     1  UNL1        0.1935
      7 O           0.0930   -2.2600   -0.9530 O.2     1  UNL1       -0.2866
      8 C           1.2610   -0.5810    0.0820 C.ar    1  UNL1        0.0324
      9 C           1.5290    0.1260    1.2090 C.ar    1  UNL1       -0.0053
     10 C           2.8090    0.6430    1.4050 C.ar    1  UNL1        0.1659
     11 O           3.0040    1.3590    2.5890 O.3     1  UNL1       -0.5031
     12 C           3.8500    0.4840    0.5210 C.ar    1  UNL1        0.2370
     13 O           5.1200    1.0000    0.7150 O.3     1  UNL1       -0.4989
     14 C           3.5810   -0.2380   -0.6230 C.ar    1  UNL1        0.3184
     15 N           4.6490   -0.4120   -1.5510 N.pl3   1  UNL1        0.0836
     16 O           5.5290    0.4540   -1.6940 O.2     1  UNL1        0.0416
     17 O           4.7270   -1.5430   -2.3140 O.co2   1  UNL1       -0.5759
     18 C           2.3350   -0.7530   -0.8370 C.ar    1  UNL1        0.0304
     19 C          -2.3390   -1.1380   -1.0830 C.ar    1  UNL1       -0.0507
     20 C          -3.6370   -0.7380   -1.0740 C.ar    1  UNL1       -0.0582
     21 H          -5.6955    1.3352    0.5599 H       1  UNL1        0.0278
     22 H          -6.1437   -0.2399   -0.0494 H       1  UNL1        0.0278
     23 H          -5.7347    1.0434   -1.1624 H       1  UNL1        0.0278
     24 H          -3.4893    1.3851    1.4066 H       1  UNL1        0.0620
     25 H          -1.1885    0.6786    1.3946 H       1  UNL1        0.0625
     26 H           0.7919    0.2796    1.9147 H       1  UNL1        0.0662
     27 H           2.2956    1.4683    3.1925 H       1  UNL1        0.2923
     28 H           5.3127    1.4919    1.4889 H       1  UNL1        0.2925
     29 H           2.1641   -1.2899   -1.7017 H       1  UNL1        0.0694
     30 H          -2.0516   -1.8382   -1.7845 H       1  UNL1        0.0625
     31 H          -4.2963   -1.1388   -1.7593 H       1  UNL1        0.0620
@<TRIPOS>UNITY_ATOM_ATTR
15 1
charge 1
17 1
charge -1
@<TRIPOS>BOND
     1     1     2    1
     2     2     3   ar
     3     2    20   ar
     4     3     4   ar
     5     4     5   ar
     6     5     6    1
     7     5    19   ar
     8     6     7    2
     9     6     8    1
    10     8     9   ar
    11     8    18   ar
    12     9    10   ar
    13    10    11    1
    14    10    12   ar
    15    12    13    1
    16    12    14   ar
    17    14    15    1
    18    14    18   ar
    19    15    16    2
    20    15    17    1
    21    19    20   ar
    22     1    21    1
    23     1    22    1
    24     1    23    1
    25     3    24    1
    26     4    25    1
    27     9    26    1
    28    11    27    1
    29    13    28    1
    30    18    29    1
    31    19    30    1
    32    20    31    1
@<TRIPOS>MOLECULE
../data/bude_mols_rdkit_confs/molecule_41.pdb
 31 32 0 0 0
SMALL
GASTEIGER

@<TRIPOS>ATOM
      1 C          -5.3400   -1.0650   -0.3850 C.3     1  UNL1       -0.0397
      2 C          -3.9900   -0.5160   -0.1670 C.ar    1  UNL1       -0.0504
      3 C          -2.8940   -1.1210   -0.7290 C.ar    1  UNL1       -0.0582
      4 C          -1.6040   -0.6140   -0.5330 C.ar    1  UNL1       -0.0507
      5 C          -1.4260    0.4900    0.2220 C.ar    1  UNL1        0.0223
      6 C          -0.1760    1.1210    0.5270 C.2     1  UNL1        0.1935
      7 O          -0.1900    2.3030    1.1250 O.2     1  UNL1       -0.2866
      8 C           1.1890    0.7040    0.3120 C.ar    1  UNL1        0.0324
      9 C           1.8300    1.0530   -0.8730 C.ar    1  UNL1       -0.0053
     10 C           3.1570    0.7410   -1.0910 C.ar    1  UNL1        0.1659
     11 O           3.7950    1.0990   -2.2740 O.3     1  UNL1       -0.5031
     12 C           3.8590    0.0730   -0.1250 C.ar    1  UNL1        0.2370
     13 O           5.1720   -0.2780   -0.2670 O.3     1  UNL1       -0.4989
     14 C           3.2550   -0.3080    1.1010 C.ar    1  UNL1        0.3184
     15 N           4.0250   -1.0080    2.0740 N.pl3   1  UNL1        0.0836
     16 O           5.2380   -0.7990    2.2300 O.2     1  UNL1        0.0416
     17 O           3.4110   -1.9230    2.8830 O.co2   1  UNL1       -0.5759
     18 C           1.9370    0.0300    1.2550 C.ar    1  UNL1        0.0304
     19 C          -2.5660    1.0900    0.7850 C.ar    1  UNL1       -0.0507
     20 C          -3.8300    0.6190    0.6100 C.ar    1  UNL1       -0.0582
     21 H          -5.2754   -1.9353   -1.0041 H       1  UNL1        0.0278
     22 H          -5.9507   -0.3297   -0.8660 H       1  UNL1        0.0278
     23 H          -5.7742   -1.3286    0.5568 H       1  UNL1        0.0278
     24 H          -3.0233   -1.9660   -1.3072 H       1  UNL1        0.0620
     25 H          -0.7922   -1.0829   -0.9644 H       1  UNL1        0.0625
     26 H           1.3024    1.5554   -1.6039 H       1  UNL1        0.0662
     27 H           3.3224    1.5566   -2.9412 H       1  UNL1        0.2923
     28 H           5.6336   -0.0578   -1.0521 H       1  UNL1        0.2925
     29 H           1.4717   -0.2377    2.1364 H       1  UNL1        0.0694
     30 H          -2.4366    1.9349    1.3633 H       1  UNL1        0.0625
     31 H          -4.6406    1.0906    1.0408 H       1  UNL1        0.0620
@<TRIPOS>UNITY_ATOM_ATTR
15 1
charge 1
17 1
charge -1
@<TRIPOS>BOND
     1     1     2    1
     2     2     3   ar
     3     2    20   ar
     4     3     4   ar
     5     4     5   ar
     6     5     6    1
     7     5    19   ar
     8     6     7    2
     9     6     8    1
    10     8     9   ar
    11     8    18   ar
    12     9    10   ar
    13    10    11    1
    14    10    12   ar
    15    12    13    1
    16    12    14   ar
    17    14    15    1
    18    14    18   ar
    19    15    16    2
    20    15    17    1
    21    19    20   ar
    22     1    21    1
    23     1    22    1
    24     1    23    1
    25     3    24    1
    26     4    25    1
    27     9    26    1
    28    11    27    1
    29    13    28    1
    30    18    29    1
    31    19    30    1
    32    20    31    1
@<TRIPOS>MOLECULE
../data/bude_mols_rdkit_confs/molecule_41.pdb
 31 32 0 0 0
SMALL
GASTEIGER

@<TRIPOS>ATOM
      1 C          -4.7730   -1.4650    0.6920 C.3     1  UNL1       -0.0397
      2 C          -3.5420   -0.7510    0.2770 C.ar    1  UNL1       -0.0504
      3 C          -2.3300   -1.3820    0.0980 C.ar    1  UNL1       -0.0582
      4 C          -1.2140   -0.6730   -0.2570 C.ar    1  UNL1       -0.0507
      5 C          -1.2910    0.6860   -0.4370 C.ar    1  UNL1        0.0223
      6 C          -0.1060    1.5010   -0.7270 C.2     1  UNL1        0.1935
      7 O          -0.1730    2.6220   -1.2360 O.2     1  UNL1       -0.2866
      8 C           1.2150    0.9420   -0.3770 C.ar    1  UNL1        0.0324
      9 C           2.0010    0.2090   -1.1930 C.ar    1  UNL1       -0.0053
     10 C           3.1750   -0.3250   -0.6840 C.ar    1  UNL1        0.1659
     11 O           4.0110   -1.0910   -1.5210 O.3     1  UNL1       -0.5031
     12 C           3.5700   -0.1400    0.6180 C.ar    1  UNL1        0.2370
     13 O           4.7610   -0.6860    1.1200 O.3     1  UNL1       -0.4989
     14 C           2.7410    0.6170    1.4400 C.ar    1  UNL1        0.3184
     15 N           3.1330    0.7920    2.7970 N.pl3   1  UNL1        0.0836
     16 O           2.7600    1.7890    3.4380 O.2     1  UNL1        0.0416
     17 O           3.9200   -0.1340    3.4020 O.co2   1  UNL1       -0.5759
     18 C           1.5690    1.1580    0.9560 C.ar    1  UNL1        0.0304
     19 C          -2.5180    1.3070   -0.2550 C.ar    1  UNL1       -0.0507
     20 C          -3.6640    0.6220    0.1010 C.ar    1  UNL1       -0.0582
     21 H          -4.5619   -2.5088    0.7962 H       1  UNL1        0.0278
     22 H          -5.5324   -1.3269   -0.0490 H       1  UNL1        0.0278
     23 H          -5.1132   -1.0747    1.6284 H       1  UNL1        0.0278
     24 H          -2.2627   -2.4029    0.2334 H       1  UNL1        0.0620
     25 H          -0.3141   -1.1604   -0.3894 H       1  UNL1        0.0625
     26 H           1.7335    0.0490   -2.1768 H       1  UNL1        0.0662
     27 H           3.7718   -1.2371   -2.4151 H       1  UNL1        0.2923
     28 H           5.3151   -1.1949    0.5614 H       1  UNL1        0.2925
     29 H           0.9594    1.7172    1.5730 H       1  UNL1        0.0694
     30 H          -2.5777    2.3281   -0.3919 H       1  UNL1        0.0625
     31 H          -4.5662    1.1063    0.2298 H       1  UNL1        0.0620
@<TRIPOS>UNITY_ATOM_ATTR
15 1
charge 1
17 1
charge -1
@<TRIPOS>BOND
     1     1     2    1
     2     2     3   ar
     3     2    20   ar
     4     3     4   ar
     5     4     5   ar
     6     5     6    1
     7     5    19   ar
     8     6     7    2
     9     6     8    1
    10     8     9   ar
    11     8    18   ar
    12     9    10   ar
    13    10    11    1
    14    10    12   ar
    15    12    13    1
    16    12    14   ar
    17    14    15    1
    18    14    18   ar
    19    15    16    2
    20    15    17    1
    21    19    20   ar
    22     1    21    1
    23     1    22    1
    24     1    23    1
    25     3    24    1
    26     4    25    1
    27     9    26    1
    28    11    27    1
    29    13    28    1
    30    18    29    1
    31    19    30    1
    32    20    31    1
@<TRIPOS>MOLECULE
../data/bude_mols_rdkit_confs/molecule_41.pdb
 31 32 0 0 0
SMALL
GASTEIGER

@<TRIPOS>ATOM
      1 C           5.4920    0.0980    0.3420 C.3     1  UNL1       -0.0397
      2 C           4.0540   -0.1160    0.0520 C.ar    1  UNL1       -0.0504
      3 C           3.5100   -1.3910    0.1140 C.ar    1  UNL1       -0.0582
      4 C           2.1900   -1.6230   -0.1430 C.ar    1  UNL1       -0.0507
      5 C           1.3000   -0.5760   -0.4880 C.ar    1  UNL1        0.0223
      6 C          -0.0720   -0.9350   -0.7660 C.2     1  UNL1        0.1935
      7 O          -0.1870   -2.0790   -1.3850 O.2     1  UNL1       -0.2866
      8 C          -1.3080   -0.2640   -0.4740 C.ar    1  UNL1        0.0324
      9 C          -1.5080    1.0550   -0.2050 C.ar    1  UNL1       -0.0053
     10 C          -2.7680    1.6060    0.0960 C.ar    1  UNL1        0.1659
     11 O          -2.9050    2.9430    0.3570 O.3     1  UNL1       -0.5031
     12 C          -3.8770    0.8010    0.1310 C.ar    1  UNL1        0.2370
     13 O          -5.1590    1.2450    0.4180 O.3     1  UNL1       -0.4989
     14 C          -3.7090   -0.5360   -0.1350 C.ar    1  UNL1        0.3184
     15 N          -4.8440   -1.4180   -0.1000 N.pl3   1  UNL1        0.0836
     16 O          -5.8010   -1.1990    0.6720 O.2     1  UNL1        0.0416
     17 O          -4.9370   -2.5360   -0.9020 O.co2   1  UNL1       -0.5759
     18 C          -2.4820   -1.0650   -0.4280 C.ar    1  UNL1        0.0304
     19 C           1.8530    0.6610   -0.5470 C.ar    1  UNL1       -0.0507
     20 C           3.2150    0.9000   -0.2810 C.ar    1  UNL1       -0.0582
     21 H           5.9513   -0.8389    0.5790 H       1  UNL1        0.0278
     22 H           5.5929    0.7649    1.1726 H       1  UNL1        0.0278
     23 H           5.9696    0.5224   -0.5163 H       1  UNL1        0.0278
     24 H           4.1204   -2.1856    0.3612 H       1  UNL1        0.0620
     25 H           1.8299   -2.5883   -0.0844 H       1  UNL1        0.0625
     26 H          -0.6914    1.6857   -0.2226 H       1  UNL1        0.0662
     27 H          -2.1546    3.5037    0.3362 H       1  UNL1        0.2923
     28 H          -5.3104    2.1507    0.6043 H       1  UNL1        0.2925
     29 H          -2.4061   -2.0759   -0.6215 H       1  UNL1        0.0694
     30 H           1.2504    1.4605   -0.7973 H       1  UNL1        0.0625
     31 H           3.5822    1.8627   -0.3399 H       1  UNL1        0.0620
@<TRIPOS>UNITY_ATOM_ATTR
15 1
charge 1
17 1
charge -1
@<TRIPOS>BOND
     1     1     2    1
     2     2     3   ar
     3     2    20   ar
     4     3     4   ar
     5     4     5   ar
     6     5     6    1
     7     5    19   ar
     8     6     7    2
     9     6     8    1
    10     8     9   ar
    11     8    18   ar
    12     9    10   ar
    13    10    11    1
    14    10    12   ar
    15    12    13    1
    16    12    14   ar
    17    14    15    1
    18    14    18   ar
    19    15    16    2
    20    15    17    1
    21    19    20   ar
    22     1    21    1
    23     1    22    1
    24     1    23    1
    25     3    24    1
    26     4    25    1
    27     9    26    1
    28    11    27    1
    29    13    28    1
    30    18    29    1
    31    19    30    1
    32    20    31    1
@<TRIPOS>MOLECULE
../data/bude_mols_rdkit_confs/molecule_41.pdb
 31 32 0 0 0
SMALL
GASTEIGER

@<TRIPOS>ATOM
      1 C           5.2530    0.5650    0.6950 C.3     1  UNL1       -0.0397
      2 C           3.8500    0.4980    0.1630 C.ar    1  UNL1       -0.0504
      3 C           2.8770   -0.2760    0.7790 C.ar    1  UNL1       -0.0582
      4 C           1.5940   -0.3360    0.2590 C.ar    1  UNL1       -0.0507
      5 C           1.2280    0.3540   -0.8700 C.ar    1  UNL1        0.0223
      6 C          -0.0760    0.3130   -1.4620 C.2     1  UNL1        0.1935
      7 O          -0.1970    0.5380   -2.7100 O.2     1  UNL1       -0.2866
      8 C          -1.3230    0.0220   -0.7590 C.ar    1  UNL1        0.0324
      9 C          -1.4780    0.3910    0.5560 C.ar    1  UNL1       -0.0053
     10 C          -2.6470    0.0910    1.2170 C.ar    1  UNL1        0.1659
     11 O          -2.8330    0.4550    2.5340 O.3     1  UNL1       -0.5031
     12 C          -3.6630   -0.5930    0.5370 C.ar    1  UNL1        0.2370
     13 O          -4.8230   -0.8950    1.1960 O.3     1  UNL1       -0.4989
     14 C          -3.5280   -0.9780   -0.7990 C.ar    1  UNL1        0.3184
     15 N          -4.5880   -1.6770   -1.4340 N.pl3   1  UNL1        0.0836
     16 O          -5.3390   -2.4540   -0.8070 O.2     1  UNL1        0.0416
     17 O          -4.7660   -1.4870   -2.7790 O.co2   1  UNL1       -0.5759
     18 C          -2.3410   -0.6580   -1.4340 C.ar    1  UNL1        0.0304
     19 C           2.2170    1.1360   -1.4890 C.ar    1  UNL1       -0.0507
     20 C           3.4830    1.1960   -0.9750 C.ar    1  UNL1       -0.0582
     21 H           5.3304   -0.0400    1.5741 H       1  UNL1        0.0278
     22 H           5.4945    1.5788    0.9374 H       1  UNL1        0.0278
     23 H           5.9336    0.2040   -0.0475 H       1  UNL1        0.0278
     24 H           3.1105   -0.8107    1.6303 H       1  UNL1        0.0620
     25 H           0.8894   -0.9194    0.7368 H       1  UNL1        0.0625
     26 H          -0.7201    0.8914    1.0460 H       1  UNL1        0.0662
     27 H          -2.1567    0.9126    2.9936 H       1  UNL1        0.2923
     28 H          -4.9314   -0.6447    2.0924 H       1  UNL1        0.2925
     29 H          -2.2051   -0.9255   -2.4214 H       1  UNL1        0.0694
     30 H           1.9859    1.6710   -2.3407 H       1  UNL1        0.0625
     31 H           4.1878    1.7807   -1.4509 H       1  UNL1        0.0620
@<TRIPOS>UNITY_ATOM_ATTR
15 1
charge 1
17 1
charge -1
@<TRIPOS>BOND
     1     1     2    1
     2     2     3   ar
     3     2    20   ar
     4     3     4   ar
     5     4     5   ar
     6     5     6    1
     7     5    19   ar
     8     6     7    2
     9     6     8    1
    10     8     9   ar
    11     8    18   ar
    12     9    10   ar
    13    10    11    1
    14    10    12   ar
    15    12    13    1
    16    12    14   ar
    17    14    15    1
    18    14    18   ar
    19    15    16    2
    20    15    17    1
    21    19    20   ar
    22     1    21    1
    23     1    22    1
    24     1    23    1
    25     3    24    1
    26     4    25    1
    27     9    26    1
    28    11    27    1
    29    13    28    1
    30    18    29    1
    31    19    30    1
    32    20    31    1
@<TRIPOS>MOLECULE
../data/bude_mols_rdkit_confs/molecule_41.pdb
 31 32 0 0 0
SMALL
GASTEIGER

@<TRIPOS>ATOM
      1 C           5.5290    0.5080   -0.6730 C.3     1  UNL1       -0.0397
      2 C           4.1020    0.3080   -0.2940 C.ar    1  UNL1       -0.0504
      3 C           3.7030   -0.8370    0.3830 C.ar    1  UNL1       -0.0582
      4 C           2.3890   -1.0250    0.7320 C.ar    1  UNL1       -0.0507
      5 C           1.3900   -0.0730    0.4220 C.ar    1  UNL1        0.0223
      6 C           0.0760   -0.3960    0.8710 C.2     1  UNL1        0.1935
      7 O           0.0470   -1.0720    2.0380 O.2     1  UNL1       -0.2866
      8 C          -1.2410   -0.1730    0.3520 C.ar    1  UNL1        0.0324
      9 C          -1.6140    0.8100   -0.5170 C.ar    1  UNL1       -0.0053
     10 C          -2.9400    0.9540   -0.9990 C.ar    1  UNL1        0.1659
     11 O          -3.2100    1.9810   -1.8750 O.3     1  UNL1       -0.5031
     12 C          -3.9040    0.0930   -0.5990 C.ar    1  UNL1        0.2370
     13 O          -5.2220    0.1570   -1.0190 O.3     1  UNL1       -0.4989
     14 C          -3.5670   -0.9230    0.2850 C.ar    1  UNL1        0.3184
     15 N          -4.5680   -1.8400    0.7150 N.pl3   1  UNL1        0.0836
     16 O          -5.7500   -1.5170    0.8410 O.2     1  UNL1        0.0416
     17 O          -4.2120   -3.1340    1.0020 O.co2   1  UNL1       -0.5759
     18 C          -2.2860   -1.0430    0.7370 C.ar    1  UNL1        0.0304
     19 C           1.8230    1.0250   -0.2340 C.ar    1  UNL1       -0.0507
     20 C           3.1520    1.2430   -0.6020 C.ar    1  UNL1       -0.0582
     21 H           6.1063   -0.3306   -0.3440 H       1  UNL1        0.0278
     22 H           5.8992    1.3992   -0.2109 H       1  UNL1        0.0278
     23 H           5.6062    0.5990   -1.7363 H       1  UNL1        0.0278
     24 H           4.4029   -1.5552    0.6266 H       1  UNL1        0.0620
     25 H           2.1223   -1.8857    1.2351 H       1  UNL1        0.0625
     26 H          -0.8981    1.4801   -0.8387 H       1  UNL1        0.0662
     27 H          -2.5258    2.5648   -2.1377 H       1  UNL1        0.2923
     28 H          -5.4916    0.8274   -1.6156 H       1  UNL1        0.2925
     29 H          -2.0685   -1.8085    1.3940 H       1  UNL1        0.0694
     30 H           1.1283    1.7480   -0.4785 H       1  UNL1        0.0625
     31 H           3.4164    2.1051   -1.1038 H       1  UNL1        0.0620
@<TRIPOS>UNITY_ATOM_ATTR
15 1
charge 1
17 1
charge -1
@<TRIPOS>BOND
     1     1     2    1
     2     2     3   ar
     3     2    20   ar
     4     3     4   ar
     5     4     5   ar
     6     5     6    1
     7     5    19   ar
     8     6     7    2
     9     6     8    1
    10     8     9   ar
    11     8    18   ar
    12     9    10   ar
    13    10    11    1
    14    10    12   ar
    15    12    13    1
    16    12    14   ar
    17    14    15    1
    18    14    18   ar
    19    15    16    2
    20    15    17    1
    21    19    20   ar
    22     1    21    1
    23     1    22    1
    24     1    23    1
    25     3    24    1
    26     4    25    1
    27     9    26    1
    28    11    27    1
    29    13    28    1
    30    18    29    1
    31    19    30    1
    32    20    31    1
@<TRIPOS>MOLECULE
../data/bude_mols_rdkit_confs/molecule_41.pdb
 31 32 0 0 0
SMALL
GASTEIGER

@<TRIPOS>ATOM
      1 C          -5.4090    0.0700   -0.2440 C.3     1  UNL1       -0.0397
      2 C          -3.9720    0.0170    0.1570 C.ar    1  UNL1       -0.0504
      3 C          -2.9930   -0.3310   -0.7460 C.ar    1  UNL1       -0.0582
      4 C          -1.6380   -0.3910   -0.4040 C.ar    1  UNL1       -0.0507
      5 C          -1.2190   -0.0990    0.8680 C.ar    1  UNL1        0.0223
      6 C           0.1720   -0.1160    1.3100 C.2     1  UNL1        0.1935
      7 O           0.3870   -0.3080    2.5690 O.2     1  UNL1       -0.2866
      8 C           1.3370    0.0550    0.5070 C.ar    1  UNL1        0.0324
      9 C           1.3020    0.7470   -0.6770 C.ar    1  UNL1       -0.0053
     10 C           2.4350    0.8900   -1.4570 C.ar    1  UNL1        0.1659
     11 O           2.4000    1.5850   -2.6490 O.3     1  UNL1       -0.5031
     12 C           3.6610    0.3310   -1.0620 C.ar    1  UNL1        0.2370
     13 O           4.7650    0.4870   -1.8490 O.3     1  UNL1       -0.4989
     14 C           3.7030   -0.3660    0.1280 C.ar    1  UNL1        0.3184
     15 N           4.8550   -0.9780    0.6560 N.pl3   1  UNL1        0.0836
     16 O           4.9960   -1.1190    1.9050 O.2     1  UNL1        0.0416
     17 O           5.8460   -1.4350   -0.1430 O.co2   1  UNL1       -0.5759
     18 C           2.5440   -0.4880    0.8840 C.ar    1  UNL1        0.0304
     19 C          -2.2220    0.2550    1.7810 C.ar    1  UNL1       -0.0507
     20 C          -3.5550    0.3110    1.4370 C.ar    1  UNL1       -0.0582
     21 H          -5.5011   -0.1943   -1.2767 H       1  UNL1        0.0278
     22 H          -5.7847    1.0607   -0.0945 H       1  UNL1        0.0278
     23 H          -5.9712   -0.6183    0.3519 H       1  UNL1        0.0278
     24 H          -3.2699   -0.5567   -1.7142 H       1  UNL1        0.0620
     25 H          -0.9441   -0.6589   -1.1194 H       1  UNL1        0.0625
     26 H           0.4140    1.1685   -0.9914 H       1  UNL1        0.0662
     27 H           1.5984    1.9710   -2.9429 H       1  UNL1        0.2923
     28 H           4.7041    0.9661   -2.6520 H       1  UNL1        0.2925
     29 H           2.5904   -1.0116    1.7721 H       1  UNL1        0.0694
     30 H          -1.9510    0.4830    2.7503 H       1  UNL1        0.0625
     31 H          -4.2524    0.5774    2.1495 H       1  UNL1        0.0620
@<TRIPOS>UNITY_ATOM_ATTR
15 1
charge 1
17 1
charge -1
@<TRIPOS>BOND
     1     1     2    1
     2     2     3   ar
     3     2    20   ar
     4     3     4   ar
     5     4     5   ar
     6     5     6    1
     7     5    19   ar
     8     6     7    2
     9     6     8    1
    10     8     9   ar
    11     8    18   ar
    12     9    10   ar
    13    10    11    1
    14    10    12   ar
    15    12    13    1
    16    12    14   ar
    17    14    15    1
    18    14    18   ar
    19    15    16    2
    20    15    17    1
    21    19    20   ar
    22     1    21    1
    23     1    22    1
    24     1    23    1
    25     3    24    1
    26     4    25    1
    27     9    26    1
    28    11    27    1
    29    13    28    1
    30    18    29    1
    31    19    30    1
    32    20    31    1
@<TRIPOS>MOLECULE
../data/bude_mols_rdkit_confs/molecule_41.pdb
 31 32 0 0 0
SMALL
GASTEIGER

@<TRIPOS>ATOM
      1 C          -5.0460    0.7880   -0.9420 C.3     1  UNL1       -0.0397
      2 C          -3.7370    0.3830   -0.3520 C.ar    1  UNL1       -0.0504
      3 C          -2.6590    0.1540   -1.1780 C.ar    1  UNL1       -0.0582
      4 C          -1.4540   -0.2190   -0.5930 C.ar    1  UNL1       -0.0507
      5 C          -1.3180   -0.3590    0.7700 C.ar    1  UNL1        0.0223
      6 C          -0.0540   -0.7270    1.3910 C.2     1  UNL1        0.1935
      7 O          -0.1090   -1.2820    2.5410 O.2     1  UNL1       -0.2866
      8 C           1.2450   -0.5080    0.7920 C.ar    1  UNL1        0.0324
      9 C           2.3100   -1.3680    1.0790 C.ar    1  UNL1       -0.0053
     10 C           3.5600   -1.1740    0.5330 C.ar    1  UNL1        0.1659
     11 O           4.5740   -2.0650    0.8580 O.3     1  UNL1       -0.5031
     12 C           3.7610   -0.1100   -0.3130 C.ar    1  UNL1        0.2370
     13 O           5.0190    0.0940   -0.8720 O.3     1  UNL1       -0.4989
     14 C           2.7230    0.7570   -0.6140 C.ar    1  UNL1        0.3184
     15 N           2.9800    1.8470   -1.4990 N.pl3   1  UNL1        0.0836
     16 O           4.1020    2.3780   -1.5350 O.2     1  UNL1        0.0416
     17 O           2.0070    2.3270   -2.3250 O.co2   1  UNL1       -0.5759
     18 C           1.4960    0.5420   -0.0600 C.ar    1  UNL1        0.0304
     19 C          -2.4360   -0.1140    1.5370 C.ar    1  UNL1       -0.0507
     20 C          -3.6580    0.2570    1.0180 C.ar    1  UNL1       -0.0582
     21 H          -4.9553    0.8441   -2.0067 H       1  UNL1        0.0278
     22 H          -5.3297    1.7453   -0.5573 H       1  UNL1        0.0278
     23 H          -5.7919    0.0651   -0.6852 H       1  UNL1        0.0278
     24 H          -2.7431    0.2563   -2.2015 H       1  UNL1        0.0620
     25 H          -0.6372   -0.3962   -1.1984 H       1  UNL1        0.0625
     26 H           2.1559   -2.1664    1.7145 H       1  UNL1        0.0662
     27 H           4.4013   -2.7799    1.4386 H       1  UNL1        0.2923
     28 H           5.7221   -0.4913   -0.6696 H       1  UNL1        0.2925
     29 H           0.7270    1.1912   -0.2884 H       1  UNL1        0.0694
     30 H          -2.3537   -0.2142    2.5608 H       1  UNL1        0.0625
     31 H          -4.4736    0.4318    1.6256 H       1  UNL1        0.0620
@<TRIPOS>UNITY_ATOM_ATTR
15 1
charge 1
17 1
charge -1
@<TRIPOS>BOND
     1     1     2    1
     2     2     3   ar
     3     2    20   ar
     4     3     4   ar
     5     4     5   ar
     6     5     6    1
     7     5    19   ar
     8     6     7    2
     9     6     8    1
    10     8     9   ar
    11     8    18   ar
    12     9    10   ar
    13    10    11    1
    14    10    12   ar
    15    12    13    1
    16    12    14   ar
    17    14    15    1
    18    14    18   ar
    19    15    16    2
    20    15    17    1
    21    19    20   ar
    22     1    21    1
    23     1    22    1
    24     1    23    1
    25     3    24    1
    26     4    25    1
    27     9    26    1
    28    11    27    1
    29    13    28    1
    30    18    29    1
    31    19    30    1
    32    20    31    1
@<TRIPOS>MOLECULE
../data/bude_mols_rdkit_confs/molecule_41.pdb
 31 32 0 0 0
SMALL
GASTEIGER

@<TRIPOS>ATOM
      1 C           5.2360    0.9460   -0.5880 C.3     1  UNL1       -0.0397
      2 C           3.8780    0.3800   -0.3740 C.ar    1  UNL1       -0.0504
      3 C           3.7130   -0.7550    0.3780 C.ar    1  UNL1       -0.0582
      4 C           2.4770   -1.2900    0.5760 C.ar    1  UNL1       -0.0507
      5 C           1.3410   -0.7200    0.0330 C.ar    1  UNL1        0.0223
      6 C           0.0580   -1.3620    0.2620 C.2     1  UNL1        0.1935
      7 O           0.0970   -2.6310    0.4830 O.2     1  UNL1       -0.2866
      8 C          -1.2340   -0.6880    0.2570 C.ar    1  UNL1        0.0324
      9 C          -1.3470    0.6420    0.5420 C.ar    1  UNL1       -0.0053
     10 C          -2.5640    1.3080    0.4920 C.ar    1  UNL1        0.1659
     11 O          -2.7310    2.6370    0.7620 O.3     1  UNL1       -0.5031
     12 C          -3.7430    0.6180    0.1430 C.ar    1  UNL1        0.2370
     13 O          -4.9340    1.3140    0.1050 O.3     1  UNL1       -0.4989
     14 C          -3.6250   -0.7120   -0.1400 C.ar    1  UNL1        0.3184
     15 N          -4.7500   -1.4840   -0.5030 N.pl3   1  UNL1        0.0836
     16 O          -5.8590   -1.2550   -0.0220 O.2     1  UNL1        0.0416
     17 O          -4.6540   -2.5420   -1.3850 O.co2   1  UNL1       -0.5759
     18 C          -2.3790   -1.3650   -0.0830 C.ar    1  UNL1        0.0304
     19 C           1.5260    0.4170   -0.7170 C.ar    1  UNL1       -0.0507
     20 C           2.7680    0.9830   -0.9350 C.ar    1  UNL1       -0.0582
     21 H           5.9581    0.3433   -0.0778 H       1  UNL1        0.0278
     22 H           5.2706    1.9446   -0.2053 H       1  UNL1        0.0278
     23 H           5.4568    0.9574   -1.6349 H       1  UNL1        0.0278
     24 H           4.5377   -1.2100    0.7998 H       1  UNL1        0.0620
     25 H           2.3857   -2.1446    1.1472 H       1  UNL1        0.0625
     26 H          -0.4997    1.1700    0.8033 H       1  UNL1        0.0662
     27 H          -1.9933    3.1627    1.0014 H       1  UNL1        0.2923
     28 H          -4.9492    2.2281    0.3104 H       1  UNL1        0.2925
     29 H          -2.3253   -2.3723   -0.3011 H       1  UNL1        0.0694
     30 H           0.6988    0.8692   -1.1370 H       1  UNL1        0.0625
     31 H           2.8645    1.8380   -1.5048 H       1  UNL1        0.0620
@<TRIPOS>UNITY_ATOM_ATTR
15 1
charge 1
17 1
charge -1
@<TRIPOS>BOND
     1     1     2    1
     2     2     3   ar
     3     2    20   ar
     4     3     4   ar
     5     4     5   ar
     6     5     6    1
     7     5    19   ar
     8     6     7    2
     9     6     8    1
    10     8     9   ar
    11     8    18   ar
    12     9    10   ar
    13    10    11    1
    14    10    12   ar
    15    12    13    1
    16    12    14   ar
    17    14    15    1
    18    14    18   ar
    19    15    16    2
    20    15    17    1
    21    19    20   ar
    22     1    21    1
    23     1    22    1
    24     1    23    1
    25     3    24    1
    26     4    25    1
    27     9    26    1
    28    11    27    1
    29    13    28    1
    30    18    29    1
    31    19    30    1
    32    20    31    1
@<TRIPOS>MOLECULE
../data/bude_mols_rdkit_confs/molecule_41.pdb
 31 32 0 0 0
SMALL
GASTEIGER

@<TRIPOS>ATOM
      1 C           5.4890   -0.1600   -0.1730 C.3     1  UNL1       -0.0397
      2 C           4.0630    0.0760    0.1220 C.ar    1  UNL1       -0.0504
      3 C           3.5220    1.3370    0.2530 C.ar    1  UNL1       -0.0582
      4 C           2.2020    1.5550    0.5100 C.ar    1  UNL1       -0.0507
      5 C           1.2770    0.4780    0.6640 C.ar    1  UNL1        0.0223
      6 C          -0.0820    0.8040    0.9530 C.2     1  UNL1        0.1935
      7 O          -0.1930    1.8570    1.7510 O.2     1  UNL1       -0.2866
      8 C          -1.2890    0.1870    0.5090 C.ar    1  UNL1        0.0324
      9 C          -1.4760   -1.0880    0.0390 C.ar    1  UNL1       -0.0053
     10 C          -2.7020   -1.5630   -0.3720 C.ar    1  UNL1        0.1659
     11 O          -2.8530   -2.8660   -0.8450 O.3     1  UNL1       -0.5031
     12 C          -3.8680   -0.7870   -0.3480 C.ar    1  UNL1        0.2370
     13 O          -5.0610   -1.3110   -0.7640 O.3     1  UNL1       -0.4989
     14 C          -3.6860    0.4920    0.1200 C.ar    1  UNL1        0.3184
     15 N          -4.8070    1.3880    0.1710 N.pl3   1  UNL1        0.0836
     16 O          -5.9410    1.0450    0.4200 O.2     1  UNL1        0.0416
     17 O          -4.5280    2.7330   -0.0630 O.co2   1  UNL1       -0.5759
     18 C          -2.4690    0.9590    0.5270 C.ar    1  UNL1        0.0304
     19 C           1.8140   -0.7560    0.5360 C.ar    1  UNL1       -0.0507
     20 C           3.1750   -0.9570    0.2700 C.ar    1  UNL1       -0.0582
     21 H           5.9979    0.7783   -0.2473 H       1  UNL1        0.0278
     22 H           5.5789   -0.6888   -1.0988 H       1  UNL1        0.0278
     23 H           5.9245   -0.7406    0.6132 H       1  UNL1        0.0278
     24 H           4.1453    2.1532    0.1518 H       1  UNL1        0.0620
     25 H           1.8611    2.5253    0.5958 H       1  UNL1        0.0625
     26 H          -0.6615   -1.7199   -0.0089 H       1  UNL1        0.0662
     27 H          -2.1120   -3.4380   -0.8870 H       1  UNL1        0.2923
     28 H          -5.1027   -2.1954   -1.0707 H       1  UNL1        0.2925
     29 H          -2.4095    1.9316    0.8669 H       1  UNL1        0.0694
     30 H           1.1999   -1.5791    0.6378 H       1  UNL1        0.0625
     31 H           3.5234   -1.9244    0.1818 H       1  UNL1        0.0620
@<TRIPOS>UNITY_ATOM_ATTR
15 1
charge 1
17 1
charge -1
@<TRIPOS>BOND
     1     1     2    1
     2     2     3   ar
     3     2    20   ar
     4     3     4   ar
     5     4     5   ar
     6     5     6    1
     7     5    19   ar
     8     6     7    2
     9     6     8    1
    10     8     9   ar
    11     8    18   ar
    12     9    10   ar
    13    10    11    1
    14    10    12   ar
    15    12    13    1
    16    12    14   ar
    17    14    15    1
    18    14    18   ar
    19    15    16    2
    20    15    17    1
    21    19    20   ar
    22     1    21    1
    23     1    22    1
    24     1    23    1
    25     3    24    1
    26     4    25    1
    27     9    26    1
    28    11    27    1
    29    13    28    1
    30    18    29    1
    31    19    30    1
    32    20    31    1
@<TRIPOS>MOLECULE
../data/bude_mols_rdkit_confs/molecule_41.pdb
 31 32 0 0 0
SMALL
GASTEIGER

@<TRIPOS>ATOM
      1 C           5.3100   -0.6290   -0.4250 C.3     1  UNL1       -0.0397
      2 C           3.9240   -0.2230   -0.0920 C.ar    1  UNL1       -0.0504
      3 C           2.8580   -1.0900   -0.1190 C.ar    1  UNL1       -0.0582
      4 C           1.5710   -0.6810    0.1930 C.ar    1  UNL1       -0.0507
      5 C           1.3330    0.6450    0.5450 C.ar    1  UNL1        0.0223
      6 C           0.0010    1.1520    0.8630 C.2     1  UNL1        0.1935
      7 O          -0.0700    2.1520    1.6210 O.2     1  UNL1       -0.2866
      8 C          -1.2430    0.5670    0.3560 C.ar    1  UNL1        0.0324
      9 C          -1.2910   -0.1260   -0.8290 C.ar    1  UNL1       -0.0053
     10 C          -2.5060   -0.6770   -1.2340 C.ar    1  UNL1        0.1659
     11 O          -2.4750   -1.3720   -2.4570 O.3     1  UNL1       -0.5031
     12 C          -3.6490   -0.5470   -0.4880 C.ar    1  UNL1        0.2370
     13 O          -4.8520   -1.0970   -0.9000 O.3     1  UNL1       -0.4989
     14 C          -3.5810    0.1660    0.7200 C.ar    1  UNL1        0.3184
     15 N          -4.7940    0.2830    1.4820 N.pl3   1  UNL1        0.0836
     16 O          -4.7870    0.4160    2.7180 O.2     1  UNL1        0.0416
     17 O          -5.9930    0.2450    0.8150 O.co2   1  UNL1       -0.5759
     18 C          -2.3940    0.7130    1.1330 C.ar    1  UNL1        0.0304
     19 C           2.4080    1.5070    0.5690 C.ar    1  UNL1       -0.0507
     20 C           3.6990    1.0920    0.2560 C.ar    1  UNL1       -0.0582
     21 H           5.3270   -1.6698   -0.6728 H       1  UNL1        0.0278
     22 H           5.9455   -0.4526    0.4175 H       1  UNL1        0.0278
     23 H           5.6581   -0.0578   -1.2601 H       1  UNL1        0.0278
     24 H           3.0207   -2.0753   -0.3794 H       1  UNL1        0.0620
     25 H           0.7917   -1.3570    0.1645 H       1  UNL1        0.0625
     26 H          -0.4441   -0.2367   -1.4083 H       1  UNL1        0.0662
     27 H          -1.6735   -1.4388   -2.9377 H       1  UNL1        0.2923
     28 H          -4.8980   -1.5728   -1.7059 H       1  UNL1        0.2925
     29 H          -2.3508    1.2351    2.0222 H       1  UNL1        0.0694
     30 H           2.2504    2.4935    0.8278 H       1  UNL1        0.0625
     31 H           4.4821    1.7636    0.2842 H       1  UNL1        0.0620
@<TRIPOS>UNITY_ATOM_ATTR
15 1
charge 1
17 1
charge -1
@<TRIPOS>BOND
     1     1     2    1
     2     2     3   ar
     3     2    20   ar
     4     3     4   ar
     5     4     5   ar
     6     5     6    1
     7     5    19   ar
     8     6     7    2
     9     6     8    1
    10     8     9   ar
    11     8    18   ar
    12     9    10   ar
    13    10    11    1
    14    10    12   ar
    15    12    13    1
    16    12    14   ar
    17    14    15    1
    18    14    18   ar
    19    15    16    2
    20    15    17    1
    21    19    20   ar
    22     1    21    1
    23     1    22    1
    24     1    23    1
    25     3    24    1
    26     4    25    1
    27     9    26    1
    28    11    27    1
    29    13    28    1
    30    18    29    1
    31    19    30    1
    32    20    31    1
@<TRIPOS>MOLECULE
../data/bude_mols_rdkit_confs/molecule_41.pdb
 31 32 0 0 0
SMALL
GASTEIGER

@<TRIPOS>ATOM
      1 C           5.4000    0.6340    0.2210 C.3     1  UNL1       -0.0397
      2 C           3.9730    0.2430   -0.0240 C.ar    1  UNL1       -0.0504
      3 C           3.3430    0.3780   -1.2100 C.ar    1  UNL1       -0.0582
      4 C           2.0250   -0.0650   -1.3900 C.ar    1  UNL1       -0.0507
      5 C           1.3350   -0.6500   -0.3640 C.ar    1  UNL1        0.0223
      6 C           0.0020   -1.1250   -0.4620 C.2     1  UNL1        0.1935
      7 O          -0.0600   -2.4260   -0.6830 O.2     1  UNL1       -0.2866
      8 C          -1.2870   -0.4650   -0.3460 C.ar    1  UNL1        0.0324
      9 C          -1.4810    0.8950   -0.2570 C.ar    1  UNL1       -0.0053
     10 C          -2.7440    1.4110   -0.0810 C.ar    1  UNL1        0.1659
     11 O          -2.9250    2.7930    0.0100 O.3     1  UNL1       -0.5031
     12 C          -3.8450    0.5720    0.0110 C.ar    1  UNL1        0.2370
     13 O          -5.1280    1.0710    0.2070 O.3     1  UNL1       -0.4989
     14 C          -3.7120   -0.7890   -0.0750 C.ar    1  UNL1        0.3184
     15 N          -4.8350   -1.7020    0.0260 N.pl3   1  UNL1        0.0836
     16 O          -5.8480   -1.4700    0.6900 O.2     1  UNL1        0.0416
     17 O          -4.7390   -2.8790   -0.6620 O.co2   1  UNL1       -0.5759
     18 C          -2.4410   -1.2680   -0.2490 C.ar    1  UNL1        0.0304
     19 C           1.9690   -0.7870    0.8600 C.ar    1  UNL1       -0.0507
     20 C           3.2880   -0.3410    1.0250 C.ar    1  UNL1       -0.0582
     21 H           5.8075    1.0710   -0.6666 H       1  UNL1        0.0278
     22 H           5.9675   -0.2341    0.4842 H       1  UNL1        0.0278
     23 H           5.4431    1.3441    1.0203 H       1  UNL1        0.0278
     24 H           3.8415    0.8161   -2.0003 H       1  UNL1        0.0620
     25 H           1.5695    0.0518   -2.3086 H       1  UNL1        0.0625
     26 H          -0.6723    1.5327   -0.3229 H       1  UNL1        0.0662
     27 H          -2.1871    3.3672   -0.0511 H       1  UNL1        0.2923
     28 H          -5.2663    1.9955    0.2718 H       1  UNL1        0.2925
     29 H          -2.3195   -2.2908   -0.3138 H       1  UNL1        0.0694
     30 H           1.4690   -1.2187    1.6529 H       1  UNL1        0.0625
     31 H           3.7527   -0.4500    1.9400 H       1  UNL1        0.0620
@<TRIPOS>UNITY_ATOM_ATTR
15 1
charge 1
17 1
charge -1
@<TRIPOS>BOND
     1     1     2    1
     2     2     3   ar
     3     2    20   ar
     4     3     4   ar
     5     4     5   ar
     6     5     6    1
     7     5    19   ar
     8     6     7    2
     9     6     8    1
    10     8     9   ar
    11     8    18   ar
    12     9    10   ar
    13    10    11    1
    14    10    12   ar
    15    12    13    1
    16    12    14   ar
    17    14    15    1
    18    14    18   ar
    19    15    16    2
    20    15    17    1
    21    19    20   ar
    22     1    21    1
    23     1    22    1
    24     1    23    1
    25     3    24    1
    26     4    25    1
    27     9    26    1
    28    11    27    1
    29    13    28    1
    30    18    29    1
    31    19    30    1
    32    20    31    1
@<TRIPOS>MOLECULE
../data/bude_mols_rdkit_confs/molecule_41.pdb
 31 32 0 0 0
SMALL
GASTEIGER

@<TRIPOS>ATOM
      1 C           5.4560    0.3790    0.1460 C.3     1  UNL1       -0.0397
      2 C           4.0080   -0.0050   -0.0360 C.ar    1  UNL1       -0.0504
      3 C           3.0420    0.9480    0.1310 C.ar    1  UNL1       -0.0582
      4 C           1.6870    0.6380   -0.0830 C.ar    1  UNL1       -0.0507
      5 C           1.3190   -0.6180   -0.4600 C.ar    1  UNL1        0.0223
      6 C          -0.0300   -0.9990   -0.7680 C.2     1  UNL1        0.1935
      7 O          -0.1450   -2.1650   -1.3580 O.2     1  UNL1       -0.2866
      8 C          -1.2930   -0.3600   -0.5530 C.ar    1  UNL1        0.0324
      9 C          -1.5160    0.9940   -0.5260 C.ar    1  UNL1       -0.0053
     10 C          -2.8000    1.4650   -0.2430 C.ar    1  UNL1        0.1659
     11 O          -2.9980    2.8230   -0.2190 O.3     1  UNL1       -0.5031
     12 C          -3.8700    0.6490    0.0100 C.ar    1  UNL1        0.2370
     13 O          -5.1290    1.1600    0.2890 O.3     1  UNL1       -0.4989
     14 C          -3.6320   -0.7060   -0.0250 C.ar    1  UNL1        0.3184
     15 N          -4.7510   -1.5620    0.1940 N.pl3   1  UNL1        0.0836
     16 O          -4.7720   -2.6840   -0.3900 O.2     1  UNL1        0.0416
     17 O          -5.8030   -1.2250    0.9880 O.co2   1  UNL1       -0.5759
     18 C          -2.3800   -1.1940   -0.2970 C.ar    1  UNL1        0.0304
     19 C           2.3450   -1.5820   -0.6180 C.ar    1  UNL1       -0.0507
     20 C           3.6520   -1.2750   -0.4100 C.ar    1  UNL1       -0.0582
     21 H           5.5186    1.4067    0.4371 H       1  UNL1        0.0278
     22 H           5.9813    0.2366   -0.7753 H       1  UNL1        0.0278
     23 H           5.8949   -0.2341    0.9052 H       1  UNL1        0.0278
     24 H           3.3094    1.9030    0.4165 H       1  UNL1        0.0620
     25 H           0.9674    1.3664    0.0464 H       1  UNL1        0.0625
     26 H          -0.7456    1.6549   -0.7122 H       1  UNL1        0.0662
     27 H          -2.2826    3.4038   -0.3887 H       1  UNL1        0.2923
     28 H          -5.2650    2.0869    0.3068 H       1  UNL1        0.2925
     29 H          -2.2372   -2.2160   -0.3128 H       1  UNL1        0.0694
     30 H           2.0930   -2.5427   -0.8985 H       1  UNL1        0.0625
     31 H           4.3775   -1.9985   -0.5336 H       1  UNL1        0.0620
@<TRIPOS>UNITY_ATOM_ATTR
15 1
charge 1
17 1
charge -1
@<TRIPOS>BOND
     1     1     2    1
     2     2     3   ar
     3     2    20   ar
     4     3     4   ar
     5     4     5   ar
     6     5     6    1
     7     5    19   ar
     8     6     7    2
     9     6     8    1
    10     8     9   ar
    11     8    18   ar
    12     9    10   ar
    13    10    11    1
    14    10    12   ar
    15    12    13    1
    16    12    14   ar
    17    14    15    1
    18    14    18   ar
    19    15    16    2
    20    15    17    1
    21    19    20   ar
    22     1    21    1
    23     1    22    1
    24     1    23    1
    25     3    24    1
    26     4    25    1
    27     9    26    1
    28    11    27    1
    29    13    28    1
    30    18    29    1
    31    19    30    1
    32    20    31    1
