@<TRIPOS>MOLECULE
../data/bude_mols_rdkit_confs/molecule_82.pdb
 50 53 0 0 0
SMALL
GASTEIGER

@<TRIPOS>ATOM
      1  O1         1.7490   -0.3680    0.6450 O.2     1  UNL1       -0.2751
      2  C1         2.7580    0.3950    0.5890 C.2     1  UNL1        0.2226
      3  C2         4.0520   -0.0990    0.0600 C.3     1  UNL1        0.0495
      4  C3         4.0050   -1.4960   -0.3620 C.ar    1  UNL1       -0.0386
      5  C4         4.2870   -2.5720    0.4430 C.ar    1  UNL1       -0.0581
      6  C5         4.2280   -3.8730   -0.0190 C.ar    1  UNL1       -0.0615
      7  C6         3.8740   -4.0910   -1.3260 C.ar    1  UNL1       -0.0617
      8  C7         3.5760   -3.0420   -2.1900 C.ar    1  UNL1       -0.0615
      9  C8         3.6490   -1.7630   -1.6850 C.ar    1  UNL1       -0.0581
     10  N1         2.5630    1.7180    1.0570 N.am    1  UNL1       -0.2701
     11  C9         1.3140    2.1610    1.5530 C.ar    1  UNL1        0.1252
     12  C10        1.1810    3.4600    1.9950 C.ar    1  UNL1       -0.0215
     13  C11       -0.0050    3.9660    2.4890 C.ar    1  UNL1       -0.0568
     14  C12       -1.1040    3.1360    2.5420 C.ar    1  UNL1       -0.0399
     15  C13       -0.9560    1.8300    2.0940 C.ar    1  UNL1        0.0492
     16  C14       -2.1830    0.9810    2.1770 C.3     1  UNL1        0.0340
     17  C15       -2.9900    1.0260    0.9370 C.ar    1  UNL1        0.0708
     18  N2        -4.1140    1.7740    0.9410 N.ar    1  UNL1       -0.1753
     19  N3        -4.9290    1.9220   -0.0600 N.ar    1  UNL1       -0.2427
     20  C16       -4.6980    1.3080   -1.2300 C.ar    1  UNL1        0.2682
     21  O2        -5.4960    1.4590   -2.1930 O.2     1  UNL1       -0.2661
     22  C17       -3.5700    0.5280   -1.3080 C.ar    1  UNL1        0.0232
     23  C18       -2.6900    0.3680   -0.2260 C.ar    1  UNL1       -0.0157
     24  C19       -1.4900   -0.4630   -0.3190 C.3     1  UNL1       -0.0255
     25  C20       -1.6450   -1.6400   -1.2590 C.3     1  UNL1       -0.0487
     26  C21       -2.8280   -1.5800   -2.1560 C.3     1  UNL1       -0.0486
     27  C22       -3.2390   -0.1860   -2.5620 C.3     1  UNL1       -0.0222
     28  N4         0.2200    1.3810    1.6200 N.ar    1  UNL1       -0.2364
     29 H           4.7926    0.0002    0.8258 H       1  UNL1        0.0407
     30 H           4.2867    0.4866   -0.8042 H       1  UNL1        0.0407
     31 H           4.5519   -2.4034    1.4261 H       1  UNL1        0.0620
     32 H           4.4458   -4.6643    0.6066 H       1  UNL1        0.0618
     33 H           3.8274   -5.0599   -1.6783 H       1  UNL1        0.0618
     34 H           3.3104   -3.2158   -3.1720 H       1  UNL1        0.0618
     35 H           3.4319   -0.9705   -2.3094 H       1  UNL1        0.0620
     36 H           3.3192    2.3480    1.0365 H       1  UNL1        0.1562
     37 H           2.0039    4.0815    1.9549 H       1  UNL1        0.0652
     38 H          -0.0671    4.9443    2.8115 H       1  UNL1        0.0619
     39 H          -2.0093    3.4748    2.9036 H       1  UNL1        0.0636
     40 H          -2.7852    1.3274    2.9908 H       1  UNL1        0.0392
     41 H          -1.8680   -0.0312    2.3227 H       1  UNL1        0.0392
     42 H          -5.7256    2.4916    0.0414 H       1  UNL1        0.1921
     43 H          -1.2595   -0.8364    0.6569 H       1  UNL1        0.0314
     44 H          -0.7084    0.1536   -0.7111 H       1  UNL1        0.0314
     45 H          -1.7224   -2.5283   -0.6676 H       1  UNL1        0.0268
     46 H          -0.7865   -1.6259   -1.8975 H       1  UNL1        0.0268
     47 H          -3.6531   -2.0374   -1.6511 H       1  UNL1        0.0269
     48 H          -2.5521   -2.0888   -3.0559 H       1  UNL1        0.0269
     49 H          -2.4343    0.3056   -3.0676 H       1  UNL1        0.0315
     50 H          -4.0729   -0.2047   -3.2321 H       1  UNL1        0.0315
@<TRIPOS>BOND
     1     1     2    2
     2     2     3    1
     3     2    10   am
     4     3     4    1
     5     4     5   ar
     6     4     9   ar
     7     5     6   ar
     8     6     7   ar
     9     7     8   ar
    10     8     9   ar
    11    10    11    1
    12    11    12   ar
    13    11    28   ar
    14    12    13   ar
    15    13    14   ar
    16    14    15   ar
    17    15    16    1
    18    15    28   ar
    19    16    17    1
    20    17    18   ar
    21    17    23   ar
    22    18    19   ar
    23    19    20   ar
    24    20    21    2
    25    20    22   ar
    26    22    23   ar
    27    22    27    1
    28    23    24    1
    29    24    25    1
    30    25    26    1
    31    26    27    1
    32     3    29    1
    33     3    30    1
    34     5    31    1
    35     6    32    1
    36     7    33    1
    37     8    34    1
    38     9    35    1
    39    10    36    1
    40    12    37    1
    41    13    38    1
    42    14    39    1
    43    16    40    1
    44    16    41    1
    45    19    42    1
    46    24    43    1
    47    24    44    1
    48    25    45    1
    49    25    46    1
    50    26    47    1
    51    26    48    1
    52    27    49    1
    53    27    50    1
@<TRIPOS>MOLECULE
../data/bude_mols_rdkit_confs/molecule_82.pdb
 50 53 0 0 0
SMALL
GASTEIGER

@<TRIPOS>ATOM
      1  O1         3.3500    0.3500    1.8490 O.2     1  UNL1       -0.2751
      2  C1         3.3910   -0.0850    0.6800 C.2     1  UNL1        0.2226
      3  C2         4.6770    0.0510   -0.0840 C.3     1  UNL1        0.0495
      4  C3         5.7080    0.7170    0.7480 C.ar    1  UNL1       -0.0386
      5  C4         6.5320    0.0060    1.5810 C.ar    1  UNL1       -0.0581
      6  C5         7.5040    0.6220    2.3660 C.ar    1  UNL1       -0.0615
      7  C6         7.6120    2.0070    2.2760 C.ar    1  UNL1       -0.0617
      8  C7         6.7970    2.7550    1.4460 C.ar    1  UNL1       -0.0615
      9  C8         5.8570    2.0820    0.6970 C.ar    1  UNL1       -0.0581
     10  N1         2.2890   -0.6940    0.0520 N.am    1  UNL1       -0.2701
     11  C9         1.0310   -0.8830    0.6690 C.ar    1  UNL1        0.1252
     12  C10        0.6710   -0.5210    1.9350 C.ar    1  UNL1       -0.0215
     13  C11       -0.5860   -0.7470    2.4730 C.ar    1  UNL1       -0.0568
     14  C12       -1.5120   -1.3810    1.6540 C.ar    1  UNL1       -0.0399
     15  C13       -1.1750   -1.7550    0.3780 C.ar    1  UNL1        0.0492
     16  C14       -2.1910   -2.4230   -0.4890 C.3     1  UNL1        0.0340
     17  C15       -2.7170   -1.4390   -1.4400 C.ar    1  UNL1        0.0708
     18  N2        -2.1760   -1.4240   -2.6800 N.ar    1  UNL1       -0.1753
     19  N3        -2.5270   -0.5690   -3.6070 N.ar    1  UNL1       -0.2427
     20  C16       -3.4770    0.3480   -3.3190 C.ar    1  UNL1        0.2682
     21  O2        -3.8310    1.1870   -4.2060 O.2     1  UNL1       -0.2661
     22  C17       -4.0710    0.3910   -2.0780 C.ar    1  UNL1        0.0232
     23  C18       -3.6810   -0.5210   -1.1270 C.ar    1  UNL1       -0.0157
     24  C19       -4.3440   -0.4840    0.1790 C.3     1  UNL1       -0.0255
     25  C20       -5.7900   -0.1030    0.1630 C.3     1  UNL1       -0.0487
     26  C21       -6.2140    0.8160   -0.9210 C.3     1  UNL1       -0.0486
     27  C22       -5.1010    1.3900   -1.7240 C.3     1  UNL1       -0.0222
     28  N4         0.0580   -1.4990   -0.0600 N.ar    1  UNL1       -0.2364
     29 H           4.5037    0.6347   -0.9639 H       1  UNL1        0.0407
     30 H           5.0255   -0.9248   -0.3511 H       1  UNL1        0.0407
     31 H           6.4289   -1.0198    1.6282 H       1  UNL1        0.0620
     32 H           8.1185    0.0744    2.9885 H       1  UNL1        0.0618
     33 H           8.3227    2.4909    2.8467 H       1  UNL1        0.0618
     34 H           6.8898    3.7813    1.3898 H       1  UNL1        0.0618
     35 H           5.2400    2.6247    0.0726 H       1  UNL1        0.0620
     36 H           2.4008   -1.0079   -0.8744 H       1  UNL1        0.1562
     37 H           1.3755   -0.0520    2.5255 H       1  UNL1        0.0652
     38 H          -0.8227   -0.4584    3.4351 H       1  UNL1        0.0619
     39 H          -2.4620   -1.5723    2.0088 H       1  UNL1        0.0636
     40 H          -2.9884   -2.8008    0.1163 H       1  UNL1        0.0392
     41 H          -1.7406   -3.2368   -1.0180 H       1  UNL1        0.0392
     42 H          -2.1069   -0.5935   -4.4970 H       1  UNL1        0.1921
     43 H          -3.8246    0.2234    0.7911 H       1  UNL1        0.0314
     44 H          -4.3113   -1.4869    0.5506 H       1  UNL1        0.0314
     45 H          -6.0134    0.3690    1.0969 H       1  UNL1        0.0268
     46 H          -6.3238   -1.0141   -0.0095 H       1  UNL1        0.0268
     47 H          -6.7565    1.6250   -0.4782 H       1  UNL1        0.0269
     48 H          -6.8031    0.2323   -1.5972 H       1  UNL1        0.0269
     49 H          -5.5062    1.7969   -2.6268 H       1  UNL1        0.0315
     50 H          -4.6277    2.1402   -1.1256 H       1  UNL1        0.0315
@<TRIPOS>BOND
     1     1     2    2
     2     2     3    1
     3     2    10   am
     4     3     4    1
     5     4     5   ar
     6     4     9   ar
     7     5     6   ar
     8     6     7   ar
     9     7     8   ar
    10     8     9   ar
    11    10    11    1
    12    11    12   ar
    13    11    28   ar
    14    12    13   ar
    15    13    14   ar
    16    14    15   ar
    17    15    16    1
    18    15    28   ar
    19    16    17    1
    20    17    18   ar
    21    17    23   ar
    22    18    19   ar
    23    19    20   ar
    24    20    21    2
    25    20    22   ar
    26    22    23   ar
    27    22    27    1
    28    23    24    1
    29    24    25    1
    30    25    26    1
    31    26    27    1
    32     3    29    1
    33     3    30    1
    34     5    31    1
    35     6    32    1
    36     7    33    1
    37     8    34    1
    38     9    35    1
    39    10    36    1
    40    12    37    1
    41    13    38    1
    42    14    39    1
    43    16    40    1
    44    16    41    1
    45    19    42    1
    46    24    43    1
    47    24    44    1
    48    25    45    1
    49    25    46    1
    50    26    47    1
    51    26    48    1
    52    27    49    1
    53    27    50    1
@<TRIPOS>MOLECULE
../data/bude_mols_rdkit_confs/molecule_82.pdb
 50 53 0 0 0
SMALL
GASTEIGER

@<TRIPOS>ATOM
      1  O1         3.6340    0.6090   -0.8330 O.2     1  UNL1       -0.2751
      2  C1         3.3300   -0.2100    0.0460 C.2     1  UNL1        0.2226
      3  C2         4.3110   -0.5500    1.1580 C.3     1  UNL1        0.0495
      4  C3         5.5700    0.1820    1.0300 C.ar    1  UNL1       -0.0386
      5  C4         6.6120   -0.3960    0.3260 C.ar    1  UNL1       -0.0581
      6  C5         7.8210    0.2620    0.1840 C.ar    1  UNL1       -0.0615
      7  C6         7.9480    1.5130    0.7650 C.ar    1  UNL1       -0.0617
      8  C7         6.9050    2.1070    1.4770 C.ar    1  UNL1       -0.0615
      9  C8         5.6990    1.4280    1.6080 C.ar    1  UNL1       -0.0581
     10  N1         2.0820   -0.8500    0.0540 N.am    1  UNL1       -0.2701
     11  C9         1.0620   -0.6410   -0.9060 C.ar    1  UNL1        0.1252
     12  C10        1.0950    0.1990   -1.9780 C.ar    1  UNL1       -0.0215
     13  C11        0.0410    0.3450   -2.8860 C.ar    1  UNL1       -0.0568
     14  C12       -1.0880   -0.4290   -2.6440 C.ar    1  UNL1       -0.0399
     15  C13       -1.1480   -1.2830   -1.5710 C.ar    1  UNL1        0.0492
     16  C14       -2.3670   -2.1020   -1.3160 C.3     1  UNL1        0.0340
     17  C15       -3.1470   -1.7130   -0.1560 C.ar    1  UNL1        0.0708
     18  N2        -2.9470   -2.3730    1.0260 N.ar    1  UNL1       -0.1753
     19  N3        -3.6030   -2.0340    2.1160 N.ar    1  UNL1       -0.2427
     20  C16       -4.5000   -1.0370    2.1560 C.ar    1  UNL1        0.2682
     21  O2        -5.1140   -0.7410    3.2370 O.2     1  UNL1       -0.2661
     22  C17       -4.7450   -0.3390    1.0090 C.ar    1  UNL1        0.0232
     23  C18       -4.0490   -0.6970   -0.1540 C.ar    1  UNL1       -0.0157
     24  C19       -4.4290    0.1080   -1.3450 C.3     1  UNL1       -0.0255
     25  C20       -4.2930    1.5630   -0.9100 C.3     1  UNL1       -0.0487
     26  C21       -5.4420    1.8500    0.0200 C.3     1  UNL1       -0.0486
     27  C22       -5.7210    0.7690    1.0110 C.3     1  UNL1       -0.0222
     28  N4        -0.0990   -1.3540   -0.7650 N.ar    1  UNL1       -0.2364
     29 H           4.5181   -1.5993    1.1253 H       1  UNL1        0.0407
     30 H           3.8621   -0.2692    2.0878 H       1  UNL1        0.0407
     31 H           6.4859   -1.3284   -0.0979 H       1  UNL1        0.0620
     32 H           8.6023   -0.1652   -0.3376 H       1  UNL1        0.0618
     33 H           8.8410    2.0212    0.6684 H       1  UNL1        0.0618
     34 H           7.0276    3.0397    1.9014 H       1  UNL1        0.0618
     35 H           4.9137    1.8488    2.1287 H       1  UNL1        0.0620
     36 H           1.9020   -1.4908    0.7794 H       1  UNL1        0.1562
     37 H           1.9476    0.7605   -2.1290 H       1  UNL1        0.0652
     38 H           0.0983    0.9902   -3.6894 H       1  UNL1        0.0619
     39 H          -1.8957   -0.3603   -3.2826 H       1  UNL1        0.0636
     40 H          -2.0598   -3.1181   -1.1815 H       1  UNL1        0.0392
     41 H          -3.0041   -1.9537   -2.1628 H       1  UNL1        0.0392
     42 H          -3.4265   -2.5374    2.9434 H       1  UNL1        0.1921
     43 H          -5.4373   -0.1038   -1.6339 H       1  UNL1        0.0314
     44 H          -3.8108   -0.1144   -2.1895 H       1  UNL1        0.0314
     45 H          -4.3396    2.2079   -1.7625 H       1  UNL1        0.0268
     46 H          -3.3549    1.7315   -0.4236 H       1  UNL1        0.0268
     47 H          -6.3218    1.9968   -0.5711 H       1  UNL1        0.0269
     48 H          -5.1677    2.7168    0.5842 H       1  UNL1        0.0269
     49 H          -5.7267    1.2060    1.9877 H       1  UNL1        0.0315
     50 H          -6.6623    0.3421    0.7344 H       1  UNL1        0.0315
@<TRIPOS>BOND
     1     1     2    2
     2     2     3    1
     3     2    10   am
     4     3     4    1
     5     4     5   ar
     6     4     9   ar
     7     5     6   ar
     8     6     7   ar
     9     7     8   ar
    10     8     9   ar
    11    10    11    1
    12    11    12   ar
    13    11    28   ar
    14    12    13   ar
    15    13    14   ar
    16    14    15   ar
    17    15    16    1
    18    15    28   ar
    19    16    17    1
    20    17    18   ar
    21    17    23   ar
    22    18    19   ar
    23    19    20   ar
    24    20    21    2
    25    20    22   ar
    26    22    23   ar
    27    22    27    1
    28    23    24    1
    29    24    25    1
    30    25    26    1
    31    26    27    1
    32     3    29    1
    33     3    30    1
    34     5    31    1
    35     6    32    1
    36     7    33    1
    37     8    34    1
    38     9    35    1
    39    10    36    1
    40    12    37    1
    41    13    38    1
    42    14    39    1
    43    16    40    1
    44    16    41    1
    45    19    42    1
    46    24    43    1
    47    24    44    1
    48    25    45    1
    49    25    46    1
    50    26    47    1
    51    26    48    1
    52    27    49    1
    53    27    50    1
@<TRIPOS>MOLECULE
../data/bude_mols_rdkit_confs/molecule_82.pdb
 50 53 0 0 0
SMALL
GASTEIGER

@<TRIPOS>ATOM
      1  O1         3.8810   -1.2930    1.5570 O.2     1  UNL1       -0.2751
      2  C1         3.8650   -1.3550    0.3090 C.2     1  UNL1        0.2226
      3  C2         5.1250   -1.6520   -0.4560 C.3     1  UNL1        0.0495
      4  C3         6.1250   -0.5670   -0.1620 C.ar    1  UNL1       -0.0386
      5  C4         6.0700    0.5670   -0.9480 C.ar    1  UNL1       -0.0581
      6  C5         6.9790    1.5670   -0.6990 C.ar    1  UNL1       -0.0615
      7  C6         7.9250    1.4350    0.3160 C.ar    1  UNL1       -0.0617
      8  C7         7.9440    0.2870    1.0770 C.ar    1  UNL1       -0.0615
      9  C8         7.0410   -0.7370    0.8500 C.ar    1  UNL1       -0.0581
     10  N1         2.6870   -1.1460   -0.3830 N.am    1  UNL1       -0.2701
     11  C9         1.4040   -0.8500    0.1460 C.ar    1  UNL1        0.1252
     12  C10        1.1520   -0.7380    1.4870 C.ar    1  UNL1       -0.0215
     13  C11       -0.1600   -0.4340    1.8530 C.ar    1  UNL1       -0.0568
     14  C12       -1.1530   -0.2550    0.9210 C.ar    1  UNL1       -0.0399
     15  C13       -0.8790   -0.3720   -0.4310 C.ar    1  UNL1        0.0492
     16  C14       -1.8590   -0.1650   -1.5310 C.3     1  UNL1        0.0340
     17  C15       -3.1930   -0.5670   -1.1290 C.ar    1  UNL1        0.0708
     18  N2        -3.5120   -1.8790   -1.3130 N.ar    1  UNL1       -0.1753
     19  N3        -4.6650   -2.3960   -0.9440 N.ar    1  UNL1       -0.2427
     20  C16       -5.6090   -1.6530   -0.3550 C.ar    1  UNL1        0.2682
     21  O2        -6.7290   -2.1030    0.0190 O.2     1  UNL1       -0.2661
     22  C17       -5.3270   -0.2940   -0.1460 C.ar    1  UNL1        0.0232
     23  C18       -4.1320    0.2540   -0.5280 C.ar    1  UNL1       -0.0157
     24  C19       -3.8410    1.6650   -0.3940 C.3     1  UNL1       -0.0255
     25  C20       -5.0220    2.5040    0.0220 C.3     1  UNL1       -0.0487
     26  C21       -5.9130    1.7770    0.9910 C.3     1  UNL1       -0.0486
     27  C22       -6.4220    0.4850    0.4970 C.3     1  UNL1       -0.0222
     28  N4         0.4010   -0.6660   -0.7230 N.ar    1  UNL1       -0.2364
     29 H           4.9143   -1.6749   -1.5048 H       1  UNL1        0.0407
     30 H           5.5176   -2.6034   -0.1633 H       1  UNL1        0.0407
     31 H           5.3682    0.6606   -1.6989 H       1  UNL1        0.0620
     32 H           6.9610    2.4261   -1.2705 H       1  UNL1        0.0618
     33 H           8.6049    2.1903    0.4957 H       1  UNL1        0.0618
     34 H           8.6436    0.1888    1.8293 H       1  UNL1        0.0618
     35 H           7.0544   -1.5974    1.4197 H       1  UNL1        0.0620
     36 H           2.7452   -1.2104   -1.3637 H       1  UNL1        0.1562
     37 H           1.8944   -0.8716    2.1913 H       1  UNL1        0.0652
     38 H          -0.3912   -0.3408    2.8545 H       1  UNL1        0.0619
     39 H          -2.1115   -0.0314    1.2312 H       1  UNL1        0.0636
     40 H          -1.5601   -0.7460   -2.3783 H       1  UNL1        0.0392
     41 H          -1.8787    0.8766   -1.7750 H       1  UNL1        0.0392
     42 H          -4.8367   -3.3519   -1.1052 H       1  UNL1        0.1921
     43 H          -3.4891    2.0259   -1.3378 H       1  UNL1        0.0314
     44 H          -3.1113    1.7554    0.3834 H       1  UNL1        0.0314
     45 H          -5.5908    2.7563   -0.8485 H       1  UNL1        0.0268
     46 H          -4.6503    3.3819    0.5079 H       1  UNL1        0.0268
     47 H          -6.7509    2.4049    1.2112 H       1  UNL1        0.0269
     48 H          -5.3162    1.5613    1.8525 H       1  UNL1        0.0269
     49 H          -6.8177   -0.0752    1.3183 H       1  UNL1        0.0315
     50 H          -7.1884    0.6682   -0.2268 H       1  UNL1        0.0315
@<TRIPOS>BOND
     1     1     2    2
     2     2     3    1
     3     2    10   am
     4     3     4    1
     5     4     5   ar
     6     4     9   ar
     7     5     6   ar
     8     6     7   ar
     9     7     8   ar
    10     8     9   ar
    11    10    11    1
    12    11    12   ar
    13    11    28   ar
    14    12    13   ar
    15    13    14   ar
    16    14    15   ar
    17    15    16    1
    18    15    28   ar
    19    16    17    1
    20    17    18   ar
    21    17    23   ar
    22    18    19   ar
    23    19    20   ar
    24    20    21    2
    25    20    22   ar
    26    22    23   ar
    27    22    27    1
    28    23    24    1
    29    24    25    1
    30    25    26    1
    31    26    27    1
    32     3    29    1
    33     3    30    1
    34     5    31    1
    35     6    32    1
    36     7    33    1
    37     8    34    1
    38     9    35    1
    39    10    36    1
    40    12    37    1
    41    13    38    1
    42    14    39    1
    43    16    40    1
    44    16    41    1
    45    19    42    1
    46    24    43    1
    47    24    44    1
    48    25    45    1
    49    25    46    1
    50    26    47    1
    51    26    48    1
    52    27    49    1
    53    27    50    1
@<TRIPOS>MOLECULE
../data/bude_mols_rdkit_confs/molecule_82.pdb
 50 53 0 0 0
SMALL
GASTEIGER

@<TRIPOS>ATOM
      1  O1         3.6670   -0.0670    0.9460 O.2     1  UNL1       -0.2751
      2  C1         3.2180    0.0740   -0.2080 C.2     1  UNL1        0.2226
      3  C2         4.0830    0.7870   -1.1920 C.3     1  UNL1        0.0495
      4  C3         5.3540    1.2100   -0.5670 C.ar    1  UNL1       -0.0386
      5  C4         6.4610    0.3760   -0.5720 C.ar    1  UNL1       -0.0581
      6  C5         7.6370    0.7830    0.0160 C.ar    1  UNL1       -0.0615
      7  C6         7.7180    2.0110    0.6070 C.ar    1  UNL1       -0.0617
      8  C7         6.6060    2.8270    0.6020 C.ar    1  UNL1       -0.0615
      9  C8         5.4110    2.4490    0.0200 C.ar    1  UNL1       -0.0581
     10  N1         1.9460   -0.4270   -0.5330 N.am    1  UNL1       -0.2701
     11  C9         1.0520   -1.1110    0.3260 C.ar    1  UNL1        0.1252
     12  C10        1.3010   -1.4100    1.6370 C.ar    1  UNL1       -0.0215
     13  C11        0.3440   -2.0870    2.4160 C.ar    1  UNL1       -0.0568
     14  C12       -0.8640   -2.4650    1.8870 C.ar    1  UNL1       -0.0399
     15  C13       -1.0900   -2.1430    0.5380 C.ar    1  UNL1        0.0492
     16  C14       -2.3900   -2.5860   -0.0100 C.3     1  UNL1        0.0340
     17  C15       -3.5080   -1.7730    0.4790 C.ar    1  UNL1        0.0708
     18  N2        -4.2610   -2.2420    1.5290 N.ar    1  UNL1       -0.1753
     19  N3        -5.2630   -1.5970    2.0480 N.ar    1  UNL1       -0.2427
     20  C16       -5.6000   -0.4010    1.5420 C.ar    1  UNL1        0.2682
     21  O2        -6.5850    0.2350    2.0500 O.2     1  UNL1       -0.2661
     22  C17       -4.8850    0.1190    0.4900 C.ar    1  UNL1        0.0232
     23  C18       -3.8210   -0.5510   -0.0690 C.ar    1  UNL1       -0.0157
     24  C19       -3.0710   -0.0040   -1.1830 C.3     1  UNL1       -0.0255
     25  C20       -3.6590    1.2100   -1.7940 C.3     1  UNL1       -0.0487
     26  C21       -5.1220    1.4050   -1.5540 C.3     1  UNL1       -0.0486
     27  C22       -5.3250    1.4270   -0.0430 C.3     1  UNL1       -0.0222
     28  N4        -0.1530   -1.5040   -0.1510 N.ar    1  UNL1       -0.2364
     29 H           3.5650    1.6512   -1.5523 H       1  UNL1        0.0407
     30 H           4.3040    0.1204   -1.9993 H       1  UNL1        0.0407
     31 H           6.4033   -0.5529   -1.0179 H       1  UNL1        0.0620
     32 H           8.4589    0.1589    0.0101 H       1  UNL1        0.0618
     33 H           8.5962    2.3234    1.0499 H       1  UNL1        0.0618
     34 H           6.6688    3.7547    1.0497 H       1  UNL1        0.0618
     35 H           4.5912    3.0758    0.0266 H       1  UNL1        0.0620
     36 H           1.6433   -0.2871   -1.4593 H       1  UNL1        0.1562
     37 H           2.2014   -1.1360    2.0603 H       1  UNL1        0.0652
     38 H           0.5548   -2.3029    3.4029 H       1  UNL1        0.0619
     39 H          -1.5713   -2.9610    2.4515 H       1  UNL1        0.0636
     40 H          -2.5545   -3.6040    0.2755 H       1  UNL1        0.0392
     41 H          -2.3494   -2.4793   -1.0739 H       1  UNL1        0.0392
     42 H          -5.7674   -1.9805    2.8015 H       1  UNL1        0.1921
     43 H          -3.0029   -0.7574   -1.9398 H       1  UNL1        0.0314
     44 H          -2.1198    0.2884   -0.7898 H       1  UNL1        0.0314
     45 H          -3.5022    1.1565   -2.8511 H       1  UNL1        0.0268
     46 H          -3.1707    2.0404   -1.3281 H       1  UNL1        0.0268
     47 H          -5.6765    0.5993   -1.9879 H       1  UNL1        0.0269
     48 H          -5.4647    2.3156   -1.9993 H       1  UNL1        0.0269
     49 H          -4.7421    2.2121    0.3914 H       1  UNL1        0.0315
     50 H          -6.3538    1.6009    0.1940 H       1  UNL1        0.0315
@<TRIPOS>BOND
     1     1     2    2
     2     2     3    1
     3     2    10   am
     4     3     4    1
     5     4     5   ar
     6     4     9   ar
     7     5     6   ar
     8     6     7   ar
     9     7     8   ar
    10     8     9   ar
    11    10    11    1
    12    11    12   ar
    13    11    28   ar
    14    12    13   ar
    15    13    14   ar
    16    14    15   ar
    17    15    16    1
    18    15    28   ar
    19    16    17    1
    20    17    18   ar
    21    17    23   ar
    22    18    19   ar
    23    19    20   ar
    24    20    21    2
    25    20    22   ar
    26    22    23   ar
    27    22    27    1
    28    23    24    1
    29    24    25    1
    30    25    26    1
    31    26    27    1
    32     3    29    1
    33     3    30    1
    34     5    31    1
    35     6    32    1
    36     7    33    1
    37     8    34    1
    38     9    35    1
    39    10    36    1
    40    12    37    1
    41    13    38    1
    42    14    39    1
    43    16    40    1
    44    16    41    1
    45    19    42    1
    46    24    43    1
    47    24    44    1
    48    25    45    1
    49    25    46    1
    50    26    47    1
    51    26    48    1
    52    27    49    1
    53    27    50    1
@<TRIPOS>MOLECULE
../data/bude_mols_rdkit_confs/molecule_82.pdb
 50 53 0 0 0
SMALL
GASTEIGER

@<TRIPOS>ATOM
      1  O1         3.6940    0.4450    0.4230 O.2     1  UNL1       -0.2751
      2  C1         3.0320   -0.3750   -0.2490 C.2     1  UNL1        0.2226
      3  C2         3.6470   -1.7130   -0.5720 C.3     1  UNL1        0.0495
      4  C3         5.0050   -1.7750    0.0210 C.ar    1  UNL1       -0.0386
      5  C4         5.2420   -2.2460    1.2930 C.ar    1  UNL1       -0.0581
      6  C5         6.5050   -2.3030    1.8450 C.ar    1  UNL1       -0.0615
      7  C6         7.6000   -1.8780    1.1240 C.ar    1  UNL1       -0.0617
      8  C7         7.3770   -1.4020   -0.1540 C.ar    1  UNL1       -0.0615
      9  C8         6.1100   -1.3460   -0.7060 C.ar    1  UNL1       -0.0581
     10  N1         1.7360   -0.1370   -0.7320 N.am    1  UNL1       -0.2701
     11  C9         1.0220    1.0580   -0.5200 C.ar    1  UNL1        0.1252
     12  C10        1.5050    2.1210    0.1760 C.ar    1  UNL1       -0.0215
     13  C11        0.7570    3.2990    0.3670 C.ar    1  UNL1       -0.0568
     14  C12       -0.5020    3.3230   -0.1900 C.ar    1  UNL1       -0.0399
     15  C13       -1.0080    2.2490   -0.9010 C.ar    1  UNL1        0.0492
     16  C14       -2.3750    2.3810   -1.4600 C.3     1  UNL1        0.0340
     17  C15       -3.4340    1.9310   -0.5230 C.ar    1  UNL1        0.0708
     18  N2        -4.1420    2.8630    0.1770 N.ar    1  UNL1       -0.1753
     19  N3        -5.0850    2.5310    1.0380 N.ar    1  UNL1       -0.2427
     20  C16       -5.3960    1.2470    1.2690 C.ar    1  UNL1        0.2682
     21  O2        -6.3030    0.9490    2.0990 O.2     1  UNL1       -0.2661
     22  C17       -4.7080    0.2450    0.5850 C.ar    1  UNL1        0.0232
     23  C18       -3.7330    0.6090   -0.3060 C.ar    1  UNL1       -0.0157
     24  C19       -3.0260   -0.4690   -1.0320 C.3     1  UNL1       -0.0255
     25  C20       -4.0870   -1.5080   -1.3890 C.3     1  UNL1       -0.0487
     26  C21       -4.5170   -2.1410   -0.0840 C.3     1  UNL1       -0.0486
     27  C22       -5.0880   -1.1580    0.8800 C.3     1  UNL1       -0.0222
     28  N4        -0.2420    1.1870   -1.0320 N.ar    1  UNL1       -0.2364
     29 H           3.7132   -1.8307   -1.6334 H       1  UNL1        0.0407
     30 H           3.0402   -2.4969   -0.1693 H       1  UNL1        0.0407
     31 H           4.4410   -2.5701    1.8572 H       1  UNL1        0.0620
     32 H           6.6306   -2.6658    2.8029 H       1  UNL1        0.0618
     33 H           8.5508   -1.9139    1.5236 H       1  UNL1        0.0618
     34 H           8.1810   -1.0782   -0.7141 H       1  UNL1        0.0618
     35 H           5.9839   -0.9834   -1.6639 H       1  UNL1        0.0620
     36 H           1.2988   -0.8500   -1.2514 H       1  UNL1        0.1562
     37 H           2.4534    2.0628    0.5787 H       1  UNL1        0.0652
     38 H           1.1325    4.1014    0.8962 H       1  UNL1        0.0619
     39 H          -1.0852    4.1664   -0.0739 H       1  UNL1        0.0636
     40 H          -2.4365    1.7922   -2.3513 H       1  UNL1        0.0392
     41 H          -2.5412    3.4202   -1.6534 H       1  UNL1        0.0392
     42 H          -5.5697    3.2394    1.5202 H       1  UNL1        0.1921
     43 H          -2.2743   -0.9055   -0.4080 H       1  UNL1        0.0314
     44 H          -2.5366   -0.0945   -1.9067 H       1  UNL1        0.0314
     45 H          -3.6752   -2.2487   -2.0422 H       1  UNL1        0.0268
     46 H          -4.9159   -1.0594   -1.8955 H       1  UNL1        0.0268
     47 H          -3.6648   -2.6051    0.3669 H       1  UNL1        0.0269
     48 H          -5.2853   -2.8505   -0.3104 H       1  UNL1        0.0269
     49 H          -6.1549   -1.2339    0.8499 H       1  UNL1        0.0315
     50 H          -4.6927   -1.3961    1.8454 H       1  UNL1        0.0315
@<TRIPOS>BOND
     1     1     2    2
     2     2     3    1
     3     2    10   am
     4     3     4    1
     5     4     5   ar
     6     4     9   ar
     7     5     6   ar
     8     6     7   ar
     9     7     8   ar
    10     8     9   ar
    11    10    11    1
    12    11    12   ar
    13    11    28   ar
    14    12    13   ar
    15    13    14   ar
    16    14    15   ar
    17    15    16    1
    18    15    28   ar
    19    16    17    1
    20    17    18   ar
    21    17    23   ar
    22    18    19   ar
    23    19    20   ar
    24    20    21    2
    25    20    22   ar
    26    22    23   ar
    27    22    27    1
    28    23    24    1
    29    24    25    1
    30    25    26    1
    31    26    27    1
    32     3    29    1
    33     3    30    1
    34     5    31    1
    35     6    32    1
    36     7    33    1
    37     8    34    1
    38     9    35    1
    39    10    36    1
    40    12    37    1
    41    13    38    1
    42    14    39    1
    43    16    40    1
    44    16    41    1
    45    19    42    1
    46    24    43    1
    47    24    44    1
    48    25    45    1
    49    25    46    1
    50    26    47    1
    51    26    48    1
    52    27    49    1
    53    27    50    1
@<TRIPOS>MOLECULE
../data/bude_mols_rdkit_confs/molecule_82.pdb
 50 53 0 0 0
SMALL
GASTEIGER

@<TRIPOS>ATOM
      1  O1         2.5660   -0.3350   -0.2740 O.2     1  UNL1       -0.2751
      2  C1         3.0800   -1.3250    0.3080 C.2     1  UNL1        0.2226
      3  C2         4.4970   -1.2230    0.7510 C.3     1  UNL1        0.0495
      4  C3         5.1120    0.0520    0.3630 C.ar    1  UNL1       -0.0386
      5  C4         5.0380    1.1400    1.2020 C.ar    1  UNL1       -0.0581
      6  C5         5.6160    2.3470    0.8450 C.ar    1  UNL1       -0.0615
      7  C6         6.2600    2.4470   -0.3520 C.ar    1  UNL1       -0.0617
      8  C7         6.3600    1.3850   -1.2260 C.ar    1  UNL1       -0.0615
      9  C8         5.7710    0.1970   -0.8340 C.ar    1  UNL1       -0.0581
     10  N1         2.2870   -2.4720    0.5050 N.am    1  UNL1       -0.2701
     11  C9         0.9350   -2.4960    0.0570 C.ar    1  UNL1        0.1252
     12  C10        0.1620   -3.6470    0.2110 C.ar    1  UNL1       -0.0215
     13  C11       -1.1320   -3.6130   -0.2390 C.ar    1  UNL1       -0.0568
     14  C12       -1.5990   -2.4250   -0.8250 C.ar    1  UNL1       -0.0399
     15  C13       -0.8390   -1.3190   -0.9660 C.ar    1  UNL1        0.0492
     16  C14       -1.2580   -0.0200   -1.5640 C.3     1  UNL1        0.0340
     17  C15       -1.7990    0.9020   -0.5120 C.ar    1  UNL1        0.0708
     18  N2        -0.9250    1.7010    0.1730 N.ar    1  UNL1       -0.1753
     19  N3        -1.3520    2.4490    1.1620 N.ar    1  UNL1       -0.2427
     20  C16       -2.6390    2.4590    1.5360 C.ar    1  UNL1        0.2682
     21  O2        -3.0110    3.1830    2.4860 O.2     1  UNL1       -0.2661
     22  C17       -3.5850    1.6790    0.8920 C.ar    1  UNL1        0.0232
     23  C18       -3.1000    0.8940   -0.1620 C.ar    1  UNL1       -0.0157
     24  C19       -4.1230    0.1160   -0.9200 C.3     1  UNL1       -0.0255
     25  C20       -5.0210   -0.4890    0.1450 C.3     1  UNL1       -0.0487
     26  C21       -5.8230    0.6220    0.7490 C.3     1  UNL1       -0.0486
     27  C22       -4.9910    1.7050    1.3330 C.3     1  UNL1       -0.0222
     28  N4         0.4490   -1.3900   -0.5060 N.ar    1  UNL1       -0.2364
     29 H           5.0541   -2.0223    0.3087 H       1  UNL1        0.0407
     30 H           4.5108   -1.2811    1.8193 H       1  UNL1        0.0407
     31 H           4.5472    1.0559    2.1059 H       1  UNL1        0.0620
     32 H           5.5597    3.1605    1.4775 H       1  UNL1        0.0618
     33 H           6.6878    3.3490   -0.6135 H       1  UNL1        0.0618
     34 H           6.8510    1.4727   -2.1295 H       1  UNL1        0.0618
     35 H           5.8288   -0.6156   -1.4676 H       1  UNL1        0.0620
     36 H           2.6686   -3.2605    0.9542 H       1  UNL1        0.1562
     37 H           0.5517   -4.4961    0.6493 H       1  UNL1        0.0652
     38 H          -1.7463   -4.4374   -0.1498 H       1  UNL1        0.0619
     39 H          -2.5730   -2.3966   -1.1650 H       1  UNL1        0.0636
     40 H          -2.0169   -0.1998   -2.2965 H       1  UNL1        0.0392
     41 H          -0.4044    0.4400   -2.0165 H       1  UNL1        0.0392
     42 H          -0.7094    3.0190    1.6430 H       1  UNL1        0.1921
     43 H          -3.6574   -0.6525   -1.5009 H       1  UNL1        0.0314
     44 H          -4.6686    0.7292   -1.6065 H       1  UNL1        0.0314
     45 H          -4.4257   -0.9603    0.8989 H       1  UNL1        0.0268
     46 H          -5.6664   -1.2269   -0.2839 H       1  UNL1        0.0268
     47 H          -6.4384    0.2132    1.5230 H       1  UNL1        0.0269
     48 H          -6.3989    1.0588   -0.0400 H       1  UNL1        0.0269
     49 H          -5.4156    2.6458    1.0510 H       1  UNL1        0.0315
     50 H          -4.9877    1.5581    2.3929 H       1  UNL1        0.0315
@<TRIPOS>BOND
     1     1     2    2
     2     2     3    1
     3     2    10   am
     4     3     4    1
     5     4     5   ar
     6     4     9   ar
     7     5     6   ar
     8     6     7   ar
     9     7     8   ar
    10     8     9   ar
    11    10    11    1
    12    11    12   ar
    13    11    28   ar
    14    12    13   ar
    15    13    14   ar
    16    14    15   ar
    17    15    16    1
    18    15    28   ar
    19    16    17    1
    20    17    18   ar
    21    17    23   ar
    22    18    19   ar
    23    19    20   ar
    24    20    21    2
    25    20    22   ar
    26    22    23   ar
    27    22    27    1
    28    23    24    1
    29    24    25    1
    30    25    26    1
    31    26    27    1
    32     3    29    1
    33     3    30    1
    34     5    31    1
    35     6    32    1
    36     7    33    1
    37     8    34    1
    38     9    35    1
    39    10    36    1
    40    12    37    1
    41    13    38    1
    42    14    39    1
    43    16    40    1
    44    16    41    1
    45    19    42    1
    46    24    43    1
    47    24    44    1
    48    25    45    1
    49    25    46    1
    50    26    47    1
    51    26    48    1
    52    27    49    1
    53    27    50    1
@<TRIPOS>MOLECULE
../data/bude_mols_rdkit_confs/molecule_82.pdb
 50 53 0 0 0
SMALL
GASTEIGER

@<TRIPOS>ATOM
      1  O1         3.6400   -0.9800    1.5930 O.2     1  UNL1       -0.2751
      2  C1         3.3850    0.1260    1.1130 C.2     1  UNL1        0.2226
      3  C2         4.3550    1.2530    1.3410 C.3     1  UNL1        0.0495
      4  C3         5.6580    1.0000    0.7040 C.ar    1  UNL1       -0.0386
      5  C4         5.8730    1.4750   -0.5970 C.ar    1  UNL1       -0.0581
      6  C5         7.0600    1.2770   -1.2320 C.ar    1  UNL1       -0.0615
      7  C6         8.0680    0.6010   -0.5960 C.ar    1  UNL1       -0.0617
      8  C7         7.8690    0.1320    0.6770 C.ar    1  UNL1       -0.0615
      9  C8         6.6780    0.3250    1.3290 C.ar    1  UNL1       -0.0581
     10  N1         2.2350    0.3440    0.3780 N.am    1  UNL1       -0.2701
     11  C9         1.2180   -0.5980    0.0990 C.ar    1  UNL1        0.1252
     12  C10        1.1790   -1.8940    0.5440 C.ar    1  UNL1       -0.0215
     13  C11        0.1400   -2.7610    0.2240 C.ar    1  UNL1       -0.0568
     14  C12       -0.8680   -2.2780   -0.5670 C.ar    1  UNL1       -0.0399
     15  C13       -0.8650   -0.9750   -1.0370 C.ar    1  UNL1        0.0492
     16  C14       -1.9690   -0.5010   -1.8800 C.3     1  UNL1        0.0340
     17  C15       -2.9070    0.4370   -1.2440 C.ar    1  UNL1        0.0708
     18  N2        -2.7900    1.7690   -1.5330 N.ar    1  UNL1       -0.1753
     19  N3        -3.5820    2.6830   -1.0180 N.ar    1  UNL1       -0.2427
     20  C16       -4.5650    2.3890   -0.1730 C.ar    1  UNL1        0.2682
     21  O2        -5.3040    3.3210    0.2950 O.2     1  UNL1       -0.2661
     22  C17       -4.7500    1.0790    0.1670 C.ar    1  UNL1        0.0232
     23  C18       -3.9120    0.0930   -0.3730 C.ar    1  UNL1       -0.0157
     24  C19       -4.0760   -1.3270   -0.0140 C.3     1  UNL1       -0.0255
     25  C20       -5.3410   -1.6130    0.7320 C.3     1  UNL1       -0.0487
     26  C21       -6.4180   -0.5940    0.4820 C.3     1  UNL1       -0.0486
     27  C22       -5.8640    0.7160    1.0900 C.3     1  UNL1       -0.0222
     28  N4         0.1620   -0.2080   -0.6870 N.ar    1  UNL1       -0.2364
     29 H           4.5032    1.3729    2.3939 H       1  UNL1        0.0407
     30 H           3.9409    2.1375    0.9039 H       1  UNL1        0.0407
     31 H           5.1175    1.9840   -1.0820 H       1  UNL1        0.0620
     32 H           7.2007    1.6349   -2.1897 H       1  UNL1        0.0618
     33 H           8.9706    0.4460   -1.0717 H       1  UNL1        0.0618
     34 H           8.6303   -0.3761    1.1538 H       1  UNL1        0.0618
     35 H           6.5484   -0.0361    2.2870 H       1  UNL1        0.0620
     36 H           2.1111    1.2489    0.0106 H       1  UNL1        0.1562
     37 H           1.9490   -2.2389    1.1383 H       1  UNL1        0.0652
     38 H           0.1290   -3.7332    0.5701 H       1  UNL1        0.0619
     39 H          -1.6507   -2.9013   -0.8197 H       1  UNL1        0.0636
     40 H          -2.5271   -1.3559   -2.2003 H       1  UNL1        0.0392
     41 H          -1.5101    0.0451   -2.6776 H       1  UNL1        0.0392
     42 H          -3.4412    3.6246   -1.2686 H       1  UNL1        0.1921
     43 H          -3.2486   -1.6190    0.5983 H       1  UNL1        0.0314
     44 H          -4.1192   -1.8795   -0.9293 H       1  UNL1        0.0314
     45 H          -5.1226   -1.6273    1.7794 H       1  UNL1        0.0268
     46 H          -5.7086   -2.5564    0.3858 H       1  UNL1        0.0268
     47 H          -7.3283   -0.8799    0.9663 H       1  UNL1        0.0269
     48 H          -6.6479   -0.4933   -0.5581 H       1  UNL1        0.0269
     49 H          -6.6140    1.4791    1.1042 H       1  UNL1        0.0315
     50 H          -5.5465    0.6045    2.1057 H       1  UNL1        0.0315
@<TRIPOS>BOND
     1     1     2    2
     2     2     3    1
     3     2    10   am
     4     3     4    1
     5     4     5   ar
     6     4     9   ar
     7     5     6   ar
     8     6     7   ar
     9     7     8   ar
    10     8     9   ar
    11    10    11    1
    12    11    12   ar
    13    11    28   ar
    14    12    13   ar
    15    13    14   ar
    16    14    15   ar
    17    15    16    1
    18    15    28   ar
    19    16    17    1
    20    17    18   ar
    21    17    23   ar
    22    18    19   ar
    23    19    20   ar
    24    20    21    2
    25    20    22   ar
    26    22    23   ar
    27    22    27    1
    28    23    24    1
    29    24    25    1
    30    25    26    1
    31    26    27    1
    32     3    29    1
    33     3    30    1
    34     5    31    1
    35     6    32    1
    36     7    33    1
    37     8    34    1
    38     9    35    1
    39    10    36    1
    40    12    37    1
    41    13    38    1
    42    14    39    1
    43    16    40    1
    44    16    41    1
    45    19    42    1
    46    24    43    1
    47    24    44    1
    48    25    45    1
    49    25    46    1
    50    26    47    1
    51    26    48    1
    52    27    49    1
    53    27    50    1
@<TRIPOS>MOLECULE
../data/bude_mols_rdkit_confs/molecule_82.pdb
 50 53 0 0 0
SMALL
GASTEIGER

@<TRIPOS>ATOM
      1  O1         4.2060    0.7930    0.5090 O.2     1  UNL1       -0.2751
      2  C1         3.7200   -0.0040   -0.3120 C.2     1  UNL1        0.2226
      3  C2         4.6510   -0.9720   -0.9780 C.3     1  UNL1        0.0495
      4  C3         6.0130   -0.7230   -0.4580 C.ar    1  UNL1       -0.0386
      5  C4         6.8470    0.1770   -1.0840 C.ar    1  UNL1       -0.0581
      6  C5         8.1320    0.4300   -0.6160 C.ar    1  UNL1       -0.0615
      7  C6         8.5930   -0.2340    0.5050 C.ar    1  UNL1       -0.0617
      8  C7         7.7710   -1.1440    1.1520 C.ar    1  UNL1       -0.0615
      9  C8         6.5020   -1.3770    0.6690 C.ar    1  UNL1       -0.0581
     10  N1         2.3440    0.0170   -0.5930 N.am    1  UNL1       -0.2701
     11  C9         1.3740    0.8790   -0.0300 C.ar    1  UNL1        0.1252
     12  C10        1.6350    1.8460    0.8930 C.ar    1  UNL1       -0.0215
     13  C11        0.6370    2.6860    1.4290 C.ar    1  UNL1       -0.0568
     14  C12       -0.6380    2.4880    0.9750 C.ar    1  UNL1       -0.0399
     15  C13       -0.9140    1.5210    0.0480 C.ar    1  UNL1        0.0492
     16  C14       -2.2740    1.2680   -0.4750 C.3     1  UNL1        0.0340
     17  C15       -3.0260    0.2810    0.3090 C.ar    1  UNL1        0.0708
     18  N2        -2.5370   -0.3240    1.3850 N.ar    1  UNL1       -0.1753
     19  N3        -3.2340   -1.1950    2.0550 N.ar    1  UNL1       -0.2427
     20  C16       -4.4770   -1.5150    1.6830 C.ar    1  UNL1        0.2682
     21  O2        -5.1450   -2.3720    2.3540 O.2     1  UNL1       -0.2661
     22  C17       -5.0740   -0.9480    0.5900 C.ar    1  UNL1        0.0232
     23  C18       -4.3040   -0.0250   -0.1020 C.ar    1  UNL1       -0.0157
     24  C19       -4.8800    0.6410   -1.3100 C.3     1  UNL1       -0.0255
     25  C20       -6.3870    0.5870   -1.2800 C.3     1  UNL1       -0.0487
     26  C21       -6.7820   -0.8740   -1.1910 C.3     1  UNL1       -0.0486
     27  C22       -6.4390   -1.3280    0.2180 C.3     1  UNL1       -0.0222
     28  N4         0.0730    0.7560   -0.4230 N.ar    1  UNL1       -0.2364
     29 H           4.6334   -0.8232   -2.0375 H       1  UNL1        0.0407
     30 H           4.3517   -1.9786   -0.7728 H       1  UNL1        0.0407
     31 H           6.5097    0.6764   -1.9218 H       1  UNL1        0.0620
     32 H           8.7375    1.1093   -1.1028 H       1  UNL1        0.0618
     33 H           9.5453   -0.0532    0.8591 H       1  UNL1        0.0618
     34 H           8.1076   -1.6436    1.9900 H       1  UNL1        0.0618
     35 H           5.8968   -2.0558    1.1568 H       1  UNL1        0.0620
     36 H           2.0199   -0.6383   -1.2524 H       1  UNL1        0.1562
     37 H           2.6077    1.9697    1.2149 H       1  UNL1        0.0652
     38 H           0.8573    3.4127    2.1278 H       1  UNL1        0.0619
     39 H          -1.4036    3.0774    1.3376 H       1  UNL1        0.0636
     40 H          -2.1898    0.9100   -1.4798 H       1  UNL1        0.0392
     41 H          -2.8110    2.1917   -0.4183 H       1  UNL1        0.0392
     42 H          -2.8396   -1.6248    2.8481 H       1  UNL1        0.1921
     43 H          -4.5279    0.1413   -2.1882 H       1  UNL1        0.0314
     44 H          -4.5723    1.6658   -1.3178 H       1  UNL1        0.0314
     45 H          -6.7871    1.0212   -2.1723 H       1  UNL1        0.0268
     46 H          -6.7700    1.1354   -0.4448 H       1  UNL1        0.0268
     47 H          -6.2349   -1.4493   -1.9083 H       1  UNL1        0.0269
     48 H          -7.8234   -1.0068   -1.3978 H       1  UNL1        0.0269
     49 H          -7.1244   -0.8767    0.9047 H       1  UNL1        0.0315
     50 H          -6.5104   -2.3951    0.2524 H       1  UNL1        0.0315
@<TRIPOS>BOND
     1     1     2    2
     2     2     3    1
     3     2    10   am
     4     3     4    1
     5     4     5   ar
     6     4     9   ar
     7     5     6   ar
     8     6     7   ar
     9     7     8   ar
    10     8     9   ar
    11    10    11    1
    12    11    12   ar
    13    11    28   ar
    14    12    13   ar
    15    13    14   ar
    16    14    15   ar
    17    15    16    1
    18    15    28   ar
    19    16    17    1
    20    17    18   ar
    21    17    23   ar
    22    18    19   ar
    23    19    20   ar
    24    20    21    2
    25    20    22   ar
    26    22    23   ar
    27    22    27    1
    28    23    24    1
    29    24    25    1
    30    25    26    1
    31    26    27    1
    32     3    29    1
    33     3    30    1
    34     5    31    1
    35     6    32    1
    36     7    33    1
    37     8    34    1
    38     9    35    1
    39    10    36    1
    40    12    37    1
    41    13    38    1
    42    14    39    1
    43    16    40    1
    44    16    41    1
    45    19    42    1
    46    24    43    1
    47    24    44    1
    48    25    45    1
    49    25    46    1
    50    26    47    1
    51    26    48    1
    52    27    49    1
    53    27    50    1
@<TRIPOS>MOLECULE
../data/bude_mols_rdkit_confs/molecule_82.pdb
 50 53 0 0 0
SMALL
GASTEIGER

@<TRIPOS>ATOM
      1  O1         3.8470    1.9640   -0.8960 O.2     1  UNL1       -0.2751
      2  C1         3.7550    1.3910    0.1960 C.2     1  UNL1        0.2226
      3  C2         4.9920    0.9500    0.8960 C.3     1  UNL1        0.0495
      4  C3         5.7960   -0.0380    0.1840 C.ar    1  UNL1       -0.0386
      5  C4         5.6120   -1.3930    0.4930 C.ar    1  UNL1       -0.0581
      6  C5         6.3530   -2.3700   -0.1420 C.ar    1  UNL1       -0.0615
      7  C6         7.2850   -2.0470   -1.0900 C.ar    1  UNL1       -0.0617
      8  C7         7.4870   -0.7130   -1.4150 C.ar    1  UNL1       -0.0615
      9  C8         6.7410    0.2480   -0.7730 C.ar    1  UNL1       -0.0581
     10  N1         2.4950    1.1620    0.7660 N.am    1  UNL1       -0.2701
     11  C9         1.2360    1.5570    0.2680 C.ar    1  UNL1        0.1252
     12  C10        1.0440    2.2810   -0.8580 C.ar    1  UNL1       -0.0215
     13  C11       -0.2390    2.6260   -1.2350 C.ar    1  UNL1       -0.0568
     14  C12       -1.3360    2.2290   -0.4580 C.ar    1  UNL1       -0.0399
     15  C13       -1.1250    1.5010    0.6680 C.ar    1  UNL1        0.0492
     16  C14       -2.1720    1.0010    1.6080 C.3     1  UNL1        0.0340
     17  C15       -2.7190   -0.2450    1.1390 C.ar    1  UNL1        0.0708
     18  N2        -2.1230   -1.4150    1.5280 N.ar    1  UNL1       -0.1753
     19  N3        -2.5240   -2.5940    1.0840 N.ar    1  UNL1       -0.2427
     20  C16       -3.5570   -2.7250    0.2070 C.ar    1  UNL1        0.2682
     21  O2        -3.9510   -3.8440   -0.2260 O.2     1  UNL1       -0.2661
     22  C17       -4.2020   -1.5870   -0.2240 C.ar    1  UNL1        0.0232
     23  C18       -3.7580   -0.3640    0.2630 C.ar    1  UNL1       -0.0157
     24  C19       -4.5200    0.8090   -0.1590 C.3     1  UNL1       -0.0255
     25  C20       -5.9890    0.5030    0.1150 C.3     1  UNL1       -0.0487
     26  C21       -6.4350   -0.7510   -0.5400 C.3     1  UNL1       -0.0486
     27  C22       -5.3330   -1.5660   -1.1840 C.3     1  UNL1       -0.0222
     28  N4         0.1490    1.2030    0.9730 N.ar    1  UNL1       -0.2364
     29 H           4.7062    0.5272    1.8364 H       1  UNL1        0.0407
     30 H           5.6067    1.8213    0.9851 H       1  UNL1        0.0407
     31 H           4.9143   -1.6636    1.2037 H       1  UNL1        0.0620
     32 H           6.2011   -3.3610    0.1028 H       1  UNL1        0.0618
     33 H           7.8315   -2.7868   -1.5580 H       1  UNL1        0.0618
     34 H           8.1853   -0.4464   -2.1265 H       1  UNL1        0.0618
     35 H           6.8991    1.2367   -1.0230 H       1  UNL1        0.0620
     36 H           2.4881    0.6657    1.6162 H       1  UNL1        0.1562
     37 H           1.8505    2.5736   -1.4315 H       1  UNL1        0.0652
     38 H          -0.3908    3.1789   -2.0931 H       1  UNL1        0.0619
     39 H          -2.2946    2.4877   -0.7393 H       1  UNL1        0.0636
     40 H          -2.9564    1.7253    1.6785 H       1  UNL1        0.0392
     41 H          -1.7272    0.8433    2.5683 H       1  UNL1        0.0392
     42 H          -2.0604   -3.4038    1.3979 H       1  UNL1        0.1921
     43 H          -4.3700    0.9896   -1.2029 H       1  UNL1        0.0314
     44 H          -4.2046    1.6828    0.3719 H       1  UNL1        0.0314
     45 H          -6.5835    1.3133   -0.2524 H       1  UNL1        0.0268
     46 H          -6.1060    0.3798    1.1714 H       1  UNL1        0.0268
     47 H          -7.1444   -0.4945   -1.2989 H       1  UNL1        0.0269
     48 H          -6.8442   -1.3635    0.2361 H       1  UNL1        0.0269
     49 H          -5.6740   -2.5622   -1.3740 H       1  UNL1        0.0315
     50 H          -5.0359   -1.1403   -2.1197 H       1  UNL1        0.0315
@<TRIPOS>BOND
     1     1     2    2
     2     2     3    1
     3     2    10   am
     4     3     4    1
     5     4     5   ar
     6     4     9   ar
     7     5     6   ar
     8     6     7   ar
     9     7     8   ar
    10     8     9   ar
    11    10    11    1
    12    11    12   ar
    13    11    28   ar
    14    12    13   ar
    15    13    14   ar
    16    14    15   ar
    17    15    16    1
    18    15    28   ar
    19    16    17    1
    20    17    18   ar
    21    17    23   ar
    22    18    19   ar
    23    19    20   ar
    24    20    21    2
    25    20    22   ar
    26    22    23   ar
    27    22    27    1
    28    23    24    1
    29    24    25    1
    30    25    26    1
    31    26    27    1
    32     3    29    1
    33     3    30    1
    34     5    31    1
    35     6    32    1
    36     7    33    1
    37     8    34    1
    38     9    35    1
    39    10    36    1
    40    12    37    1
    41    13    38    1
    42    14    39    1
    43    16    40    1
    44    16    41    1
    45    19    42    1
    46    24    43    1
    47    24    44    1
    48    25    45    1
    49    25    46    1
    50    26    47    1
    51    26    48    1
    52    27    49    1
    53    27    50    1
@<TRIPOS>MOLECULE
../data/bude_mols_rdkit_confs/molecule_82.pdb
 50 53 0 0 0
SMALL
GASTEIGER

@<TRIPOS>ATOM
      1  O1        -4.0210   -0.2470   -1.9140 O.2     1  UNL1       -0.2751
      2  C1        -4.0220   -0.9520   -0.8910 C.2     1  UNL1        0.2226
      3  C2        -5.3470   -1.4620   -0.4320 C.3     1  UNL1        0.0495
      4  C3        -6.1410   -0.3550    0.1380 C.ar    1  UNL1       -0.0386
      5  C4        -6.9560    0.4520   -0.6080 C.ar    1  UNL1       -0.0581
      6  C5        -7.6850    1.4690   -0.0020 C.ar    1  UNL1       -0.0615
      7  C6        -7.5920    1.6720    1.3560 C.ar    1  UNL1       -0.0617
      8  C7        -6.7770    0.8710    2.1270 C.ar    1  UNL1       -0.0615
      9  C8        -6.0510   -0.1420    1.5180 C.ar    1  UNL1       -0.0581
     10  N1        -2.8270   -1.2340   -0.2210 N.am    1  UNL1       -0.2701
     11  C9        -1.5110   -0.8470   -0.5890 C.ar    1  UNL1        0.1252
     12  C10       -1.2120   -0.2160   -1.7590 C.ar    1  UNL1       -0.0215
     13  C11        0.1000    0.1720   -2.0570 C.ar    1  UNL1       -0.0568
     14  C12        1.0760   -0.1180   -1.1030 C.ar    1  UNL1       -0.0399
     15  C13        0.7890   -0.7460    0.0620 C.ar    1  UNL1        0.0492
     16  C14        1.8380   -1.0470    1.0580 C.3     1  UNL1        0.0340
     17  C15        2.8770   -0.0180    1.2160 C.ar    1  UNL1        0.0708
     18  N2         2.6060    1.0070    2.0670 N.ar    1  UNL1       -0.1753
     19  N3         3.4080    2.0360    2.2610 N.ar    1  UNL1       -0.2427
     20  C16        4.5840    2.0900    1.5760 C.ar    1  UNL1        0.2682
     21  O2         5.3480    3.0530    1.7470 O.2     1  UNL1       -0.2661
     22  C17        4.9300    1.1150    0.7140 C.ar    1  UNL1        0.0232
     23  C18        4.0770    0.0320    0.5160 C.ar    1  UNL1       -0.0157
     24  C19        4.4730   -1.0720   -0.3860 C.3     1  UNL1       -0.0255
     25  C20        5.9430   -1.1730   -0.6180 C.3     1  UNL1       -0.0487
     26  C21        6.7940   -0.2630    0.2230 C.3     1  UNL1       -0.0486
     27  C22        6.2440    1.1630   -0.0120 C.3     1  UNL1       -0.0222
     28  N4        -0.4950   -1.1010    0.3030 N.ar    1  UNL1       -0.2364
     29 H          -5.1986   -2.2136    0.3150 H       1  UNL1        0.0407
     30 H          -5.8720   -1.8796   -1.2656 H       1  UNL1        0.0407
     31 H          -7.0301    0.3049   -1.6268 H       1  UNL1        0.0620
     32 H          -8.2974    2.0732   -0.5720 H       1  UNL1        0.0618
     33 H          -8.1357    2.4285    1.7999 H       1  UNL1        0.0618
     34 H          -6.7078    1.0232    3.1454 H       1  UNL1        0.0618
     35 H          -5.4380   -0.7449    2.0888 H       1  UNL1        0.0620
     36 H          -2.9078   -1.7643    0.6045 H       1  UNL1        0.1562
     37 H          -1.9652   -0.0207   -2.4370 H       1  UNL1        0.0652
     38 H           0.3342    0.6502   -2.9410 H       1  UNL1        0.0619
     39 H           2.0527    0.1562   -1.2922 H       1  UNL1        0.0636
     40 H           2.3180   -1.9576    0.7659 H       1  UNL1        0.0392
     41 H           1.3377   -1.1058    2.0020 H       1  UNL1        0.0392
     42 H           3.1610    2.7522    2.8897 H       1  UNL1        0.1921
     43 H           3.9935   -0.9222   -1.3307 H       1  UNL1        0.0314
     44 H           4.1732   -1.9818    0.0907 H       1  UNL1        0.0314
     45 H           6.1312   -0.9437   -1.6461 H       1  UNL1        0.0268
     46 H           6.2166   -2.1699   -0.3419 H       1  UNL1        0.0268
     47 H           7.8178   -0.3226   -0.0822 H       1  UNL1        0.0269
     48 H           6.7576   -0.5340    1.2575 H       1  UNL1        0.0269
     49 H           6.8927    1.9037    0.4069 H       1  UNL1        0.0315
     50 H           6.1564    1.4265   -1.0453 H       1  UNL1        0.0315
@<TRIPOS>BOND
     1     1     2    2
     2     2     3    1
     3     2    10   am
     4     3     4    1
     5     4     5   ar
     6     4     9   ar
     7     5     6   ar
     8     6     7   ar
     9     7     8   ar
    10     8     9   ar
    11    10    11    1
    12    11    12   ar
    13    11    28   ar
    14    12    13   ar
    15    13    14   ar
    16    14    15   ar
    17    15    16    1
    18    15    28   ar
    19    16    17    1
    20    17    18   ar
    21    17    23   ar
    22    18    19   ar
    23    19    20   ar
    24    20    21    2
    25    20    22   ar
    26    22    23   ar
    27    22    27    1
    28    23    24    1
    29    24    25    1
    30    25    26    1
    31    26    27    1
    32     3    29    1
    33     3    30    1
    34     5    31    1
    35     6    32    1
    36     7    33    1
    37     8    34    1
    38     9    35    1
    39    10    36    1
    40    12    37    1
    41    13    38    1
    42    14    39    1
    43    16    40    1
    44    16    41    1
    45    19    42    1
    46    24    43    1
    47    24    44    1
    48    25    45    1
    49    25    46    1
    50    26    47    1
    51    26    48    1
    52    27    49    1
    53    27    50    1
@<TRIPOS>MOLECULE
../data/bude_mols_rdkit_confs/molecule_82.pdb
 50 53 0 0 0
SMALL
GASTEIGER

@<TRIPOS>ATOM
      1  O1         3.6360   -1.6610   -0.6770 O.2     1  UNL1       -0.2751
      2  C1         3.5100   -1.0190    0.3700 C.2     1  UNL1        0.2226
      3  C2         4.6460   -1.0690    1.3710 C.3     1  UNL1        0.0495
      4  C3         5.8950   -0.6400    0.7220 C.ar    1  UNL1       -0.0386
      5  C4         6.7470   -1.5140    0.0900 C.ar    1  UNL1       -0.0581
      6  C5         7.9240   -1.0720   -0.5230 C.ar    1  UNL1       -0.0615
      7  C6         8.2290    0.2570   -0.4900 C.ar    1  UNL1       -0.0617
      8  C7         7.3920    1.1520    0.1370 C.ar    1  UNL1       -0.0615
      9  C8         6.2300    0.7020    0.7400 C.ar    1  UNL1       -0.0581
     10  N1         2.3540   -0.2740    0.6050 N.am    1  UNL1       -0.2701
     11  C9         1.2210   -0.1320   -0.2400 C.ar    1  UNL1        0.1252
     12  C10        1.0700   -0.7490   -1.4550 C.ar    1  UNL1       -0.0215
     13  C11       -0.0580   -0.5400   -2.2320 C.ar    1  UNL1       -0.0568
     14  C12       -1.0270    0.3180   -1.7330 C.ar    1  UNL1       -0.0399
     15  C13       -0.9010    0.9410   -0.5310 C.ar    1  UNL1        0.0492
     16  C14       -1.9570    1.8570   -0.0370 C.3     1  UNL1        0.0340
     17  C15       -2.9050    1.2730    0.9050 C.ar    1  UNL1        0.0708
     18  N2        -2.7030    1.4710    2.2490 N.ar    1  UNL1       -0.1753
     19  N3        -3.4840    0.9600    3.1760 N.ar    1  UNL1       -0.2427
     20  C16       -4.5490    0.1960    2.8780 C.ar    1  UNL1        0.2682
     21  O2        -5.3190   -0.3110    3.7350 O.2     1  UNL1       -0.2661
     22  C17       -4.7750   -0.0200    1.5250 C.ar    1  UNL1        0.0232
     23  C18       -3.9750    0.5040    0.5380 C.ar    1  UNL1       -0.0157
     24  C19       -4.3000    0.2580   -0.8570 C.3     1  UNL1       -0.0255
     25  C20       -5.7420    0.0120   -1.1580 C.3     1  UNL1       -0.0487
     26  C21       -6.6420   -0.0870    0.0280 C.3     1  UNL1       -0.0486
     27  C22       -5.9420   -0.8680    1.1390 C.3     1  UNL1       -0.0222
     28  N4         0.2120    0.6960    0.1710 N.ar    1  UNL1       -0.2364
     29 H           4.7581   -2.0698    1.7327 H       1  UNL1        0.0407
     30 H           4.4278   -0.4148    2.1891 H       1  UNL1        0.0407
     31 H           6.5131   -2.5189    0.0672 H       1  UNL1        0.0620
     32 H           8.5526   -1.7418   -0.9935 H       1  UNL1        0.0618
     33 H           9.0948    0.5945   -0.9390 H       1  UNL1        0.0618
     34 H           7.6301    2.1559    0.1575 H       1  UNL1        0.0618
     35 H           5.6055    1.3765    1.2091 H       1  UNL1        0.0620
     36 H           2.3193    0.2123    1.4603 H       1  UNL1        0.1562
     37 H           1.8105   -1.3811   -1.7973 H       1  UNL1        0.0652
     38 H          -0.1728   -1.0046   -3.1463 H       1  UNL1        0.0619
     39 H          -1.8753    0.4899   -2.2951 H       1  UNL1        0.0636
     40 H          -2.5085    2.2109   -0.8829 H       1  UNL1        0.0392
     41 H          -1.4477    2.6297    0.5001 H       1  UNL1        0.0392
     42 H          -3.2812    1.1437    4.1217 H       1  UNL1        0.1921
     43 H          -3.7475   -0.6012   -1.1756 H       1  UNL1        0.0314
     44 H          -4.0456    1.1583   -1.3763 H       1  UNL1        0.0314
     45 H          -5.8124   -0.9068   -1.7019 H       1  UNL1        0.0268
     46 H          -6.0757    0.8675   -1.7072 H       1  UNL1        0.0268
     47 H          -7.5428   -0.5931   -0.2499 H       1  UNL1        0.0269
     48 H          -6.8771    0.8962    0.3787 H       1  UNL1        0.0269
     49 H          -6.5983   -1.0078    1.9724 H       1  UNL1        0.0315
     50 H          -5.6433   -1.8446    0.8195 H       1  UNL1        0.0315
@<TRIPOS>BOND
     1     1     2    2
     2     2     3    1
     3     2    10   am
     4     3     4    1
     5     4     5   ar
     6     4     9   ar
     7     5     6   ar
     8     6     7   ar
     9     7     8   ar
    10     8     9   ar
    11    10    11    1
    12    11    12   ar
    13    11    28   ar
    14    12    13   ar
    15    13    14   ar
    16    14    15   ar
    17    15    16    1
    18    15    28   ar
    19    16    17    1
    20    17    18   ar
    21    17    23   ar
    22    18    19   ar
    23    19    20   ar
    24    20    21    2
    25    20    22   ar
    26    22    23   ar
    27    22    27    1
    28    23    24    1
    29    24    25    1
    30    25    26    1
    31    26    27    1
    32     3    29    1
    33     3    30    1
    34     5    31    1
    35     6    32    1
    36     7    33    1
    37     8    34    1
    38     9    35    1
    39    10    36    1
    40    12    37    1
    41    13    38    1
    42    14    39    1
    43    16    40    1
    44    16    41    1
    45    19    42    1
    46    24    43    1
    47    24    44    1
    48    25    45    1
    49    25    46    1
    50    26    47    1
    51    26    48    1
    52    27    49    1
    53    27    50    1
@<TRIPOS>MOLECULE
../data/bude_mols_rdkit_confs/molecule_82.pdb
 50 53 0 0 0
SMALL
GASTEIGER

@<TRIPOS>ATOM
      1  O1         3.1020   -0.3440    0.1610 O.2     1  UNL1       -0.2751
      2  C1         3.4620   -1.2770   -0.6180 C.2     1  UNL1        0.2226
      3  C2         4.9010   -1.5940   -0.7130 C.3     1  UNL1        0.0495
      4  C3         5.7230   -0.7220    0.1510 C.ar    1  UNL1       -0.0386
      5  C4         6.1880    0.4620   -0.3940 C.ar    1  UNL1       -0.0581
      6  C5         6.9590    1.3450    0.3290 C.ar    1  UNL1       -0.0615
      7  C6         7.2890    1.0630    1.6330 C.ar    1  UNL1       -0.0617
      8  C7         6.8370   -0.1080    2.1920 C.ar    1  UNL1       -0.0615
      9  C8         6.0540   -1.0050    1.4580 C.ar    1  UNL1       -0.0581
     10  N1         2.4430   -1.9390   -1.3360 N.am    1  UNL1       -0.2701
     11  C9         1.0540   -1.5800   -1.1960 C.ar    1  UNL1        0.1252
     12  C10        0.1490   -2.2900   -1.9550 C.ar    1  UNL1       -0.0215
     13  C11       -1.1940   -1.9980   -1.8670 C.ar    1  UNL1       -0.0568
     14  C12       -1.5470   -0.9710   -0.9860 C.ar    1  UNL1       -0.0399
     15  C13       -0.6480   -0.2700   -0.2330 C.ar    1  UNL1        0.0492
     16  C14       -1.0260    0.7990    0.7250 C.3     1  UNL1        0.0340
     17  C15       -2.2420    1.4670    0.3000 C.ar    1  UNL1        0.0708
     18  N2        -2.1030    2.5740   -0.4960 N.ar    1  UNL1       -0.1753
     19  N3        -3.1360    3.2390   -0.9680 N.ar    1  UNL1       -0.2427
     20  C16       -4.4060    2.8890   -0.7110 C.ar    1  UNL1        0.2682
     21  O2        -5.4000    3.5010   -1.1460 O.2     1  UNL1       -0.2661
     22  C17       -4.5860    1.7840    0.0860 C.ar    1  UNL1        0.0232
     23  C18       -3.5280    1.0720    0.5920 C.ar    1  UNL1       -0.0157
     24  C19       -3.7960   -0.0530    1.4690 C.3     1  UNL1       -0.0255
     25  C20       -4.8690   -0.9310    0.9320 C.3     1  UNL1       -0.0487
     26  C21       -6.0630   -0.1790    0.4440 C.3     1  UNL1       -0.0486
     27  C22       -5.9550    1.3040    0.4600 C.3     1  UNL1       -0.0222
     28  N4         0.6700   -0.6130   -0.3720 N.ar    1  UNL1       -0.2364
     29 H           5.2152   -1.4682   -1.7281 H       1  UNL1        0.0407
     30 H           5.0372   -2.6034   -0.3853 H       1  UNL1        0.0407
     31 H           5.9498    0.6902   -1.3719 H       1  UNL1        0.0620
     32 H           7.2892    2.2192   -0.1088 H       1  UNL1        0.0618
     33 H           7.8659    1.7190    2.1825 H       1  UNL1        0.0618
     34 H           7.0794   -0.3295    3.1704 H       1  UNL1        0.0618
     35 H           5.7240   -1.8793    1.8958 H       1  UNL1        0.0620
     36 H           2.6882   -2.6678   -1.9508 H       1  UNL1        0.1562
     37 H           0.4764   -3.0375   -2.5868 H       1  UNL1        0.0652
     38 H          -1.9001   -2.5084   -2.4201 H       1  UNL1        0.0619
     39 H          -2.5463   -0.7281   -0.8994 H       1  UNL1        0.0636
     40 H          -0.2335    1.5158    0.7811 H       1  UNL1        0.0392
     41 H          -1.1962    0.3552    1.6837 H       1  UNL1        0.0392
     42 H          -2.9700    4.0272   -1.5340 H       1  UNL1        0.1921
     43 H          -4.0993    0.3185    2.4255 H       1  UNL1        0.0314
     44 H          -2.9005   -0.6334    1.5471 H       1  UNL1        0.0314
     45 H          -5.1821   -1.5973    1.7085 H       1  UNL1        0.0268
     46 H          -4.4594   -1.4521    0.0920 H       1  UNL1        0.0268
     47 H          -6.8950   -0.4526    1.0586 H       1  UNL1        0.0269
     48 H          -6.1700   -0.4478   -0.5862 H       1  UNL1        0.0269
     49 H          -6.6616    1.7070   -0.2351 H       1  UNL1        0.0315
     50 H          -6.1533    1.6335    1.4585 H       1  UNL1        0.0315
@<TRIPOS>BOND
     1     1     2    2
     2     2     3    1
     3     2    10   am
     4     3     4    1
     5     4     5   ar
     6     4     9   ar
     7     5     6   ar
     8     6     7   ar
     9     7     8   ar
    10     8     9   ar
    11    10    11    1
    12    11    12   ar
    13    11    28   ar
    14    12    13   ar
    15    13    14   ar
    16    14    15   ar
    17    15    16    1
    18    15    28   ar
    19    16    17    1
    20    17    18   ar
    21    17    23   ar
    22    18    19   ar
    23    19    20   ar
    24    20    21    2
    25    20    22   ar
    26    22    23   ar
    27    22    27    1
    28    23    24    1
    29    24    25    1
    30    25    26    1
    31    26    27    1
    32     3    29    1
    33     3    30    1
    34     5    31    1
    35     6    32    1
    36     7    33    1
    37     8    34    1
    38     9    35    1
    39    10    36    1
    40    12    37    1
    41    13    38    1
    42    14    39    1
    43    16    40    1
    44    16    41    1
    45    19    42    1
    46    24    43    1
    47    24    44    1
    48    25    45    1
    49    25    46    1
    50    26    47    1
    51    26    48    1
    52    27    49    1
    53    27    50    1
@<TRIPOS>MOLECULE
../data/bude_mols_rdkit_confs/molecule_82.pdb
 50 53 0 0 0
SMALL
GASTEIGER

@<TRIPOS>ATOM
      1  O1         3.4120   -0.9080    0.6060 O.2     1  UNL1       -0.2751
      2  C1         3.2520    0.1060   -0.0960 C.2     1  UNL1        0.2226
      3  C2         4.3350    1.1670   -0.1380 C.3     1  UNL1        0.0495
      4  C3         5.4400    0.7590    0.7370 C.ar    1  UNL1       -0.0386
      5  C4         6.4710    0.0210    0.2270 C.ar    1  UNL1       -0.0581
      6  C5         7.5130   -0.3630    1.0650 C.ar    1  UNL1       -0.0615
      7  C6         7.4530    0.0220    2.3780 C.ar    1  UNL1       -0.0617
      8  C7         6.4290    0.7600    2.9050 C.ar    1  UNL1       -0.0615
      9  C8         5.3930    1.1440    2.0780 C.ar    1  UNL1       -0.0581
     10  N1         2.0780    0.2910   -0.8550 N.am    1  UNL1       -0.2701
     11  C9         0.9910   -0.6040   -0.9180 C.ar    1  UNL1        0.1252
     12  C10        0.8920   -1.7880   -0.2790 C.ar    1  UNL1       -0.0215
     13  C11       -0.2060   -2.6310   -0.3690 C.ar    1  UNL1       -0.0568
     14  C12       -1.2560   -2.2160   -1.1710 C.ar    1  UNL1       -0.0399
     15  C13       -1.1830   -1.0180   -1.8320 C.ar    1  UNL1        0.0492
     16  C14       -2.3150   -0.5660   -2.6710 C.3     1  UNL1        0.0340
     17  C15       -2.9950    0.5570   -1.9630 C.ar    1  UNL1        0.0708
     18  N2        -2.6660    1.8460   -2.2740 N.ar    1  UNL1       -0.1753
     19  N3        -3.1820    2.8900   -1.6650 N.ar    1  UNL1       -0.2427
     20  C16       -4.0970    2.7540   -0.6660 C.ar    1  UNL1        0.2682
     21  O2        -4.5990    3.7570   -0.0750 O.2     1  UNL1       -0.2661
     22  C17       -4.4790    1.4950   -0.2990 C.ar    1  UNL1        0.0232
     23  C18       -3.9080    0.4050   -0.9700 C.ar    1  UNL1       -0.0157
     24  C19       -4.4380   -0.9070   -0.5120 C.3     1  UNL1       -0.0255
     25  C20       -4.2920   -1.0530    0.9930 C.3     1  UNL1       -0.0487
     26  C21       -4.9620    0.1000    1.7120 C.3     1  UNL1       -0.0486
     27  C22       -5.4510    1.1830    0.7710 C.3     1  UNL1       -0.0222
     28  N4        -0.0690   -0.2390   -1.6950 N.ar    1  UNL1       -0.2364
     29 H           3.9358    2.1003    0.2003 H       1  UNL1        0.0407
     30 H           4.6913    1.2794   -1.1407 H       1  UNL1        0.0407
     31 H           6.4765   -0.2486   -0.7692 H       1  UNL1        0.0620
     32 H           8.3055   -0.9199    0.7088 H       1  UNL1        0.0618
     33 H           8.2230   -0.2603    3.0044 H       1  UNL1        0.0618
     34 H           6.4311    1.0247    3.9025 H       1  UNL1        0.0618
     35 H           4.6041    1.7013    2.4415 H       1  UNL1        0.0620
     36 H           2.0119    1.1168   -1.3869 H       1  UNL1        0.1562
     37 H           1.6827   -2.0852    0.3139 H       1  UNL1        0.0652
     38 H          -0.2390   -3.5284    0.1396 H       1  UNL1        0.0619
     39 H          -2.0942   -2.8096   -1.2709 H       1  UNL1        0.0636
     40 H          -3.0029   -1.3724   -2.8174 H       1  UNL1        0.0392
     41 H          -1.9620   -0.2423   -3.6278 H       1  UNL1        0.0392
     42 H          -2.8999    3.7929   -1.9379 H       1  UNL1        0.1921
     43 H          -3.8949   -1.6924   -0.9948 H       1  UNL1        0.0314
     44 H          -5.4767   -0.9633   -0.7625 H       1  UNL1        0.0314
     45 H          -3.2522   -1.0671    1.2450 H       1  UNL1        0.0268
     46 H          -4.7607   -1.9657    1.2965 H       1  UNL1        0.0268
     47 H          -4.2584    0.5322    2.3925 H       1  UNL1        0.0269
     48 H          -5.8185   -0.2938    2.2183 H       1  UNL1        0.0269
     49 H          -6.3640    0.8561    0.3187 H       1  UNL1        0.0315
     50 H          -5.5903    2.0727    1.3488 H       1  UNL1        0.0315
@<TRIPOS>BOND
     1     1     2    2
     2     2     3    1
     3     2    10   am
     4     3     4    1
     5     4     5   ar
     6     4     9   ar
     7     5     6   ar
     8     6     7   ar
     9     7     8   ar
    10     8     9   ar
    11    10    11    1
    12    11    12   ar
    13    11    28   ar
    14    12    13   ar
    15    13    14   ar
    16    14    15   ar
    17    15    16    1
    18    15    28   ar
    19    16    17    1
    20    17    18   ar
    21    17    23   ar
    22    18    19   ar
    23    19    20   ar
    24    20    21    2
    25    20    22   ar
    26    22    23   ar
    27    22    27    1
    28    23    24    1
    29    24    25    1
    30    25    26    1
    31    26    27    1
    32     3    29    1
    33     3    30    1
    34     5    31    1
    35     6    32    1
    36     7    33    1
    37     8    34    1
    38     9    35    1
    39    10    36    1
    40    12    37    1
    41    13    38    1
    42    14    39    1
    43    16    40    1
    44    16    41    1
    45    19    42    1
    46    24    43    1
    47    24    44    1
    48    25    45    1
    49    25    46    1
    50    26    47    1
    51    26    48    1
    52    27    49    1
    53    27    50    1
@<TRIPOS>MOLECULE
../data/bude_mols_rdkit_confs/molecule_82.pdb
 50 53 0 0 0
SMALL
GASTEIGER

@<TRIPOS>ATOM
      1  O1        -3.1310   -0.0670    1.8450 O.2     1  UNL1       -0.2751
      2  C1        -2.9650    0.1200    0.6230 C.2     1  UNL1        0.2226
      3  C2        -4.0010    0.9160   -0.1430 C.3     1  UNL1        0.0495
      4  C3        -5.0820    1.3540    0.7480 C.ar    1  UNL1       -0.0386
      5  C4        -4.9800    2.5730    1.3920 C.ar    1  UNL1       -0.0581
      6  C5        -5.9620    3.0340    2.2380 C.ar    1  UNL1       -0.0615
      7  C6        -7.0700    2.2230    2.4230 C.ar    1  UNL1       -0.0617
      8  C7        -7.2020    0.9920    1.7900 C.ar    1  UNL1       -0.0615
      9  C8        -6.1910    0.5630    0.9450 C.ar    1  UNL1       -0.0581
     10  N1        -1.8380   -0.4030   -0.0170 N.am    1  UNL1       -0.2701
     11  C9        -0.7880   -1.1660    0.5690 C.ar    1  UNL1        0.1252
     12  C10       -0.7130   -1.5140    1.8770 C.ar    1  UNL1       -0.0215
     13  C11        0.3410   -2.2580    2.3630 C.ar    1  UNL1       -0.0568
     14  C12        1.3350   -2.6540    1.5150 C.ar    1  UNL1       -0.0399
     15  C13        1.2610   -2.2950    0.1620 C.ar    1  UNL1        0.0492
     16  C14        2.3760   -2.7710   -0.7140 C.3     1  UNL1        0.0340
     17  C15        3.5510   -1.9280   -0.6880 C.ar    1  UNL1        0.0708
     18  N2         4.5880   -2.2520    0.1290 N.ar    1  UNL1       -0.1753
     19  N3         5.6780   -1.5140    0.2410 N.ar    1  UNL1       -0.2427
     20  C16        5.8300   -0.3600   -0.4700 C.ar    1  UNL1        0.2682
     21  O2         6.8740    0.3320   -0.3530 O.2     1  UNL1       -0.2661
     22  C17        4.8200    0.0250   -1.3140 C.ar    1  UNL1        0.0232
     23  C18        3.6750   -0.7860   -1.4080 C.ar    1  UNL1       -0.0157
     24  C19        2.6440   -0.3520   -2.3520 C.3     1  UNL1       -0.0255
     25  C20        2.2960    1.1300   -2.1500 C.3     1  UNL1       -0.0487
     26  C21        3.5160    1.9590   -1.8760 C.3     1  UNL1       -0.0486
     27  C22        4.8220    1.2470   -2.1460 C.3     1  UNL1       -0.0222
     28  N4         0.2330   -1.5880   -0.2360 N.ar    1  UNL1       -0.2364
     29 H          -4.4115    0.3037   -0.9185 H       1  UNL1        0.0407
     30 H          -3.5296    1.7802   -0.5625 H       1  UNL1        0.0407
     31 H          -4.1423    3.1545    1.2334 H       1  UNL1        0.0620
     32 H          -5.8770    3.9454    2.7147 H       1  UNL1        0.0618
     33 H          -7.8229    2.5434    3.0519 H       1  UNL1        0.0618
     34 H          -8.0383    0.4080    1.9468 H       1  UNL1        0.0618
     35 H          -6.2694   -0.3471    0.4647 H       1  UNL1        0.0620
     36 H          -1.7613   -0.2237   -0.9820 H       1  UNL1        0.1562
     37 H          -1.4608   -1.2157    2.5227 H       1  UNL1        0.0652
     38 H           0.3784   -2.5141    3.3620 H       1  UNL1        0.0619
     39 H           2.1304   -3.2103    1.8655 H       1  UNL1        0.0636
     40 H           2.0165   -2.8148   -1.7209 H       1  UNL1        0.0392
     41 H           2.6751   -3.7274   -0.3389 H       1  UNL1        0.0392
     42 H           6.3954   -1.8029    0.8502 H       1  UNL1        0.1921
     43 H           1.7633   -0.9410   -2.2024 H       1  UNL1        0.0314
     44 H           3.0186   -0.4801   -3.3461 H       1  UNL1        0.0314
     45 H           1.6248    1.2179   -1.3213 H       1  UNL1        0.0268
     46 H           1.8457    1.4906   -3.0511 H       1  UNL1        0.0268
     47 H           3.4993    2.2507   -0.8467 H       1  UNL1        0.0269
     48 H           3.4770    2.7940   -2.5440 H       1  UNL1        0.0269
     49 H           4.8934    0.9878   -3.1817 H       1  UNL1        0.0315
     50 H           5.6573    1.8724   -1.9091 H       1  UNL1        0.0315
@<TRIPOS>BOND
     1     1     2    2
     2     2     3    1
     3     2    10   am
     4     3     4    1
     5     4     5   ar
     6     4     9   ar
     7     5     6   ar
     8     6     7   ar
     9     7     8   ar
    10     8     9   ar
    11    10    11    1
    12    11    12   ar
    13    11    28   ar
    14    12    13   ar
    15    13    14   ar
    16    14    15   ar
    17    15    16    1
    18    15    28   ar
    19    16    17    1
    20    17    18   ar
    21    17    23   ar
    22    18    19   ar
    23    19    20   ar
    24    20    21    2
    25    20    22   ar
    26    22    23   ar
    27    22    27    1
    28    23    24    1
    29    24    25    1
    30    25    26    1
    31    26    27    1
    32     3    29    1
    33     3    30    1
    34     5    31    1
    35     6    32    1
    36     7    33    1
    37     8    34    1
    38     9    35    1
    39    10    36    1
    40    12    37    1
    41    13    38    1
    42    14    39    1
    43    16    40    1
    44    16    41    1
    45    19    42    1
    46    24    43    1
    47    24    44    1
    48    25    45    1
    49    25    46    1
    50    26    47    1
    51    26    48    1
    52    27    49    1
    53    27    50    1
@<TRIPOS>MOLECULE
../data/bude_mols_rdkit_confs/molecule_82.pdb
 50 53 0 0 0
SMALL
GASTEIGER

@<TRIPOS>ATOM
      1  O1         1.8900    0.2080   -0.2560 O.2     1  UNL1       -0.2751
      2  C1         2.2630    0.6970   -1.3520 C.2     1  UNL1        0.2226
      3  C2         3.3130    0.0560   -2.1840 C.3     1  UNL1        0.0495
      4  C3         3.8390   -1.1770   -1.5770 C.ar    1  UNL1       -0.0386
      5  C4         3.2820   -2.4100   -1.8420 C.ar    1  UNL1       -0.0581
      6  C5         3.7720   -3.5890   -1.2780 C.ar    1  UNL1       -0.0615
      7  C6         4.8550   -3.5250   -0.4220 C.ar    1  UNL1       -0.0617
      8  C7         5.4010   -2.3010   -0.1640 C.ar    1  UNL1       -0.0615
      9  C8         4.9330   -1.1200   -0.7100 C.ar    1  UNL1       -0.0581
     10  N1         1.6340    1.9010   -1.7690 N.am    1  UNL1       -0.2701
     11  C9         0.6210    2.5240   -0.9600 C.ar    1  UNL1        0.1252
     12  C10        0.0090    3.6870   -1.3570 C.ar    1  UNL1       -0.0215
     13  C11       -0.9530    4.2700   -0.5680 C.ar    1  UNL1       -0.0568
     14  C12       -1.3010    3.6800    0.6240 C.ar    1  UNL1       -0.0399
     15  C13       -0.6750    2.4900    1.0290 C.ar    1  UNL1        0.0492
     16  C14       -1.0980    1.9270    2.3350 C.3     1  UNL1        0.0340
     17  C15       -2.3810    1.2100    2.1360 C.ar    1  UNL1        0.0708
     18  N2        -3.5590    1.8420    2.4450 N.ar    1  UNL1       -0.1753
     19  N3        -4.7190    1.2550    2.2500 N.ar    1  UNL1       -0.2427
     20  C16       -4.7870   -0.0050    1.7330 C.ar    1  UNL1        0.2682
     21  O2        -5.9070   -0.5360    1.5590 O.2     1  UNL1       -0.2661
     22  C17       -3.6600   -0.6980    1.4010 C.ar    1  UNL1        0.0232
     23  C18       -2.4330   -0.0540    1.6180 C.ar    1  UNL1       -0.0157
     24  C19       -1.2420   -0.8610    1.2840 C.3     1  UNL1       -0.0255
     25  C20       -1.3370   -1.5080   -0.0590 C.3     1  UNL1       -0.0487
     26  C21       -2.7210   -1.9010   -0.4380 C.3     1  UNL1       -0.0486
     27  C22       -3.5860   -2.0470    0.8210 C.3     1  UNL1       -0.0222
     28  N4         0.2360    1.9990    0.2130 N.ar    1  UNL1       -0.2364
     29 H           4.1199    0.7473   -2.3107 H       1  UNL1        0.0407
     30 H           2.8692   -0.2071   -3.1214 H       1  UNL1        0.0407
     31 H           2.4732   -2.4632   -2.4807 H       1  UNL1        0.0620
     32 H           3.3315   -4.4962   -1.4973 H       1  UNL1        0.0618
     33 H           5.2403   -4.3792    0.0103 H       1  UNL1        0.0618
     34 H           6.2097   -2.2543    0.4754 H       1  UNL1        0.0618
     35 H           5.3809   -0.2185   -0.4826 H       1  UNL1        0.0620
     36 H           1.8952    2.3145   -2.6234 H       1  UNL1        0.1562
     37 H           0.2730    4.1258   -2.2530 H       1  UNL1        0.0652
     38 H          -1.4111    5.1447   -0.8681 H       1  UNL1        0.0619
     39 H          -2.0229    4.1120    1.2217 H       1  UNL1        0.0636
     40 H          -1.2307    2.7171    3.0443 H       1  UNL1        0.0392
     41 H          -0.3528    1.2554    2.7071 H       1  UNL1        0.0392
     42 H          -5.5493    1.7312    2.4802 H       1  UNL1        0.1921
     43 H          -1.1289   -1.6254    2.0241 H       1  UNL1        0.0314
     44 H          -0.4011   -0.1996    1.2633 H       1  UNL1        0.0314
     45 H          -0.7258   -2.3863   -0.0546 H       1  UNL1        0.0268
     46 H          -1.0096   -0.7858   -0.7774 H       1  UNL1        0.0268
     47 H          -2.6943   -2.8345   -0.9602 H       1  UNL1        0.0269
     48 H          -3.1414   -1.1456   -1.0685 H       1  UNL1        0.0269
     49 H          -4.5636   -2.3988    0.5651 H       1  UNL1        0.0315
     50 H          -3.1721   -2.7543    1.5090 H       1  UNL1        0.0315
@<TRIPOS>BOND
     1     1     2    2
     2     2     3    1
     3     2    10   am
     4     3     4    1
     5     4     5   ar
     6     4     9   ar
     7     5     6   ar
     8     6     7   ar
     9     7     8   ar
    10     8     9   ar
    11    10    11    1
    12    11    12   ar
    13    11    28   ar
    14    12    13   ar
    15    13    14   ar
    16    14    15   ar
    17    15    16    1
    18    15    28   ar
    19    16    17    1
    20    17    18   ar
    21    17    23   ar
    22    18    19   ar
    23    19    20   ar
    24    20    21    2
    25    20    22   ar
    26    22    23   ar
    27    22    27    1
    28    23    24    1
    29    24    25    1
    30    25    26    1
    31    26    27    1
    32     3    29    1
    33     3    30    1
    34     5    31    1
    35     6    32    1
    36     7    33    1
    37     8    34    1
    38     9    35    1
    39    10    36    1
    40    12    37    1
    41    13    38    1
    42    14    39    1
    43    16    40    1
    44    16    41    1
    45    19    42    1
    46    24    43    1
    47    24    44    1
    48    25    45    1
    49    25    46    1
    50    26    47    1
    51    26    48    1
    52    27    49    1
    53    27    50    1
@<TRIPOS>MOLECULE
../data/bude_mols_rdkit_confs/molecule_82.pdb
 50 53 0 0 0
SMALL
GASTEIGER

@<TRIPOS>ATOM
      1  O1        -2.2580   -1.8180    0.9250 O.2     1  UNL1       -0.2751
      2  C1        -3.1220   -1.1750    0.1930 C.2     1  UNL1        0.2226
      3  C2        -4.3460   -1.8850   -0.1620 C.3     1  UNL1        0.0495
      4  C3        -5.5370   -1.0190   -0.3200 C.ar    1  UNL1       -0.0386
      5  C4        -6.4440   -0.8340    0.7040 C.ar    1  UNL1       -0.0581
      6  C5        -7.5820   -0.0320    0.5130 C.ar    1  UNL1       -0.0615
      7  C6        -7.7300    0.5430   -0.7270 C.ar    1  UNL1       -0.0617
      8  C7        -6.8550    0.3860   -1.7700 C.ar    1  UNL1       -0.0615
      9  C8        -5.7540   -0.4050   -1.5440 C.ar    1  UNL1       -0.0581
     10  N1        -2.7690    0.1300   -0.1710 N.am    1  UNL1       -0.2701
     11  C9        -1.5170    0.7360    0.1840 C.ar    1  UNL1        0.1252
     12  C10       -1.3370    2.0590   -0.1980 C.ar    1  UNL1       -0.0215
     13  C11       -0.1510    2.6730    0.1050 C.ar    1  UNL1       -0.0568
     14  C12        0.8620    1.9750    0.7880 C.ar    1  UNL1       -0.0399
     15  C13        0.6610    0.6780    1.1520 C.ar    1  UNL1        0.0492
     16  C14        1.6760   -0.1080    1.8700 C.3     1  UNL1        0.0340
     17  C15        2.6600   -0.7990    1.0210 C.ar    1  UNL1        0.0708
     18  N2         2.4190   -2.0990    0.6670 N.ar    1  UNL1       -0.1753
     19  N3         3.2250   -2.7820   -0.1190 N.ar    1  UNL1       -0.2427
     20  C16        4.3530   -2.2710   -0.6440 C.ar    1  UNL1        0.2682
     21  O2         5.0910   -2.9890   -1.4080 O.2     1  UNL1       -0.2661
     22  C17        4.6810   -0.9640   -0.3400 C.ar    1  UNL1        0.0232
     23  C18        3.8150   -0.2720    0.4880 C.ar    1  UNL1       -0.0157
     24  C19        4.1920    1.1000    0.8500 C.3     1  UNL1       -0.0255
     25  C20        5.7040    1.1350    1.0500 C.3     1  UNL1       -0.0487
     26  C21        6.3890    0.8270   -0.2380 C.3     1  UNL1       -0.0486
     27  C22        5.9090   -0.4180   -0.9150 C.3     1  UNL1       -0.0222
     28  N4        -0.5370    0.1050    0.8310 N.ar    1  UNL1       -0.2364
     29 H          -4.5525   -2.5995    0.6073 H       1  UNL1        0.0407
     30 H          -4.1696   -2.3353   -1.1165 H       1  UNL1        0.0407
     31 H          -6.2851   -1.2882    1.6169 H       1  UNL1        0.0620
     32 H          -8.2720    0.1178    1.2657 H       1  UNL1        0.0618
     33 H          -8.5601    1.1358   -0.8837 H       1  UNL1        0.0618
     34 H          -7.0153    0.8405   -2.6825 H       1  UNL1        0.0618
     35 H          -5.0712   -0.5455   -2.3050 H       1  UNL1        0.0620
     36 H          -3.4118    0.6587   -0.6969 H       1  UNL1        0.1562
     37 H          -2.0812    2.5686   -0.6995 H       1  UNL1        0.0652
     38 H           0.0011    3.6560   -0.1699 H       1  UNL1        0.0619
     39 H           1.7536    2.4439    1.0122 H       1  UNL1        0.0636
     40 H           1.1683   -0.8467    2.4543 H       1  UNL1        0.0392
     41 H           2.2334    0.5949    2.4531 H       1  UNL1        0.0392
     42 H           2.9901   -3.7138   -0.3332 H       1  UNL1        0.1921
     43 H           3.6990    1.3853    1.7558 H       1  UNL1        0.0314
     44 H           3.9029    1.7815    0.0775 H       1  UNL1        0.0314
     45 H           5.9826    0.4077    1.7837 H       1  UNL1        0.0268
     46 H           5.9949    2.1099    1.3816 H       1  UNL1        0.0268
     47 H           7.4353    0.7185   -0.0422 H       1  UNL1        0.0269
     48 H           6.1686    1.6376   -0.9008 H       1  UNL1        0.0269
     49 H           5.7288   -0.1939   -1.9456 H       1  UNL1        0.0315
     50 H           6.6709   -1.1580   -0.7850 H       1  UNL1        0.0315
@<TRIPOS>BOND
     1     1     2    2
     2     2     3    1
     3     2    10   am
     4     3     4    1
     5     4     5   ar
     6     4     9   ar
     7     5     6   ar
     8     6     7   ar
     9     7     8   ar
    10     8     9   ar
    11    10    11    1
    12    11    12   ar
    13    11    28   ar
    14    12    13   ar
    15    13    14   ar
    16    14    15   ar
    17    15    16    1
    18    15    28   ar
    19    16    17    1
    20    17    18   ar
    21    17    23   ar
    22    18    19   ar
    23    19    20   ar
    24    20    21    2
    25    20    22   ar
    26    22    23   ar
    27    22    27    1
    28    23    24    1
    29    24    25    1
    30    25    26    1
    31    26    27    1
    32     3    29    1
    33     3    30    1
    34     5    31    1
    35     6    32    1
    36     7    33    1
    37     8    34    1
    38     9    35    1
    39    10    36    1
    40    12    37    1
    41    13    38    1
    42    14    39    1
    43    16    40    1
    44    16    41    1
    45    19    42    1
    46    24    43    1
    47    24    44    1
    48    25    45    1
    49    25    46    1
    50    26    47    1
    51    26    48    1
    52    27    49    1
    53    27    50    1
@<TRIPOS>MOLECULE
../data/bude_mols_rdkit_confs/molecule_82.pdb
 50 53 0 0 0
SMALL
GASTEIGER

@<TRIPOS>ATOM
      1  O1         4.0470   -2.9370   -1.1140 O.2     1  UNL1       -0.2751
      2  C1         4.2210   -1.8520   -0.3950 C.2     1  UNL1        0.2226
      3  C2         5.6120   -1.5670   -0.0950 C.3     1  UNL1        0.0495
      4  C3         5.9630   -0.1520    0.0640 C.ar    1  UNL1       -0.0386
      5  C4         5.9920    0.6760   -1.0240 C.ar    1  UNL1       -0.0581
      6  C5         6.3390    2.0180   -0.8390 C.ar    1  UNL1       -0.0615
      7  C6         6.6500    2.5190    0.4210 C.ar    1  UNL1       -0.0617
      8  C7         6.6170    1.6810    1.4970 C.ar    1  UNL1       -0.0615
      9  C8         6.2770    0.3570    1.3260 C.ar    1  UNL1       -0.0581
     10  N1         3.0920   -1.1500   -0.0430 N.am    1  UNL1       -0.2701
     11  C9         1.7230   -1.4750   -0.3130 C.ar    1  UNL1        0.1252
     12  C10        1.2820   -2.6460   -0.8630 C.ar    1  UNL1       -0.0215
     13  C11       -0.0630   -2.8730   -1.1930 C.ar    1  UNL1       -0.0568
     14  C12       -1.0030   -1.9000   -0.9690 C.ar    1  UNL1       -0.0399
     15  C13       -0.5230   -0.7070   -0.4010 C.ar    1  UNL1        0.0492
     16  C14       -1.5650    0.3520   -0.2420 C.3     1  UNL1        0.0340
     17  C15       -2.7650   -0.1780    0.4350 C.ar    1  UNL1        0.0708
     18  N2        -2.7900   -1.3540    1.0740 N.ar    1  UNL1       -0.1753
     19  N3        -3.8520   -1.8760    1.6520 N.ar    1  UNL1       -0.2427
     20  C16       -5.0140   -1.2160    1.6200 C.ar    1  UNL1        0.2682
     21  O2        -6.0750   -1.6170    2.1300 O.2     1  UNL1       -0.2661
     22  C17       -5.0810    0.0310    0.9670 C.ar    1  UNL1        0.0232
     23  C18       -3.9390    0.5390    0.3780 C.ar    1  UNL1       -0.0157
     24  C19       -3.8860    1.8550   -0.3210 C.3     1  UNL1       -0.0255
     25  C20       -5.2090    2.5780   -0.2520 C.3     1  UNL1       -0.0487
     26  C21       -6.3700    1.6050   -0.3570 C.3     1  UNL1       -0.0486
     27  C22       -6.3610    0.7670    0.9050 C.3     1  UNL1       -0.0222
     28  N4         0.7630   -0.5210   -0.0970 N.ar    1  UNL1       -0.2364
     29 H           6.2057   -1.9631   -0.8922 H       1  UNL1        0.0407
     30 H           5.7976   -2.0170    0.8579 H       1  UNL1        0.0407
     31 H           5.7621    0.3172   -1.9639 H       1  UNL1        0.0620
     32 H           6.3649    2.6500   -1.6544 H       1  UNL1        0.0618
     33 H           6.9026    3.5125    0.5403 H       1  UNL1        0.0618
     34 H           6.8464    2.0384    2.4376 H       1  UNL1        0.0618
     35 H           6.2539   -0.2701    2.1453 H       1  UNL1        0.0620
     36 H           3.2441   -0.3169    0.4591 H       1  UNL1        0.1562
     37 H           1.9678   -3.3957   -1.0434 H       1  UNL1        0.0652
     38 H          -0.3457   -3.7756   -1.6058 H       1  UNL1        0.0619
     39 H          -1.9991   -2.0349   -1.2025 H       1  UNL1        0.0636
     40 H          -1.8422    0.7170   -1.2089 H       1  UNL1        0.0392
     41 H          -1.1586    1.1405    0.3563 H       1  UNL1        0.0392
     42 H          -3.7904   -2.7478    2.1053 H       1  UNL1        0.1921
     43 H          -3.6331    1.6922   -1.3478 H       1  UNL1        0.0314
     44 H          -3.1494    2.4607    0.1642 H       1  UNL1        0.0314
     45 H          -5.2666    3.2790   -1.0583 H       1  UNL1        0.0268
     46 H          -5.2721    3.0819    0.6898 H       1  UNL1        0.0268
     47 H          -6.2475    0.9780   -1.2153 H       1  UNL1        0.0269
     48 H          -7.2979    2.1275   -0.4618 H       1  UNL1        0.0269
     49 H          -6.4546    1.4020    1.7611 H       1  UNL1        0.0315
     50 H          -7.1805    0.0791    0.8954 H       1  UNL1        0.0315
@<TRIPOS>BOND
     1     1     2    2
     2     2     3    1
     3     2    10   am
     4     3     4    1
     5     4     5   ar
     6     4     9   ar
     7     5     6   ar
     8     6     7   ar
     9     7     8   ar
    10     8     9   ar
    11    10    11    1
    12    11    12   ar
    13    11    28   ar
    14    12    13   ar
    15    13    14   ar
    16    14    15   ar
    17    15    16    1
    18    15    28   ar
    19    16    17    1
    20    17    18   ar
    21    17    23   ar
    22    18    19   ar
    23    19    20   ar
    24    20    21    2
    25    20    22   ar
    26    22    23   ar
    27    22    27    1
    28    23    24    1
    29    24    25    1
    30    25    26    1
    31    26    27    1
    32     3    29    1
    33     3    30    1
    34     5    31    1
    35     6    32    1
    36     7    33    1
    37     8    34    1
    38     9    35    1
    39    10    36    1
    40    12    37    1
    41    13    38    1
    42    14    39    1
    43    16    40    1
    44    16    41    1
    45    19    42    1
    46    24    43    1
    47    24    44    1
    48    25    45    1
    49    25    46    1
    50    26    47    1
    51    26    48    1
    52    27    49    1
    53    27    50    1
@<TRIPOS>MOLECULE
../data/bude_mols_rdkit_confs/molecule_82.pdb
 50 53 0 0 0
SMALL
GASTEIGER

@<TRIPOS>ATOM
      1  O1         3.9750   -0.1520    0.7190 O.2     1  UNL1       -0.2751
      2  C1         3.8380    0.0350   -0.5040 C.2     1  UNL1        0.2226
      3  C2         5.1040    0.0740   -1.3130 C.3     1  UNL1        0.0495
      4  C3         6.2380   -0.1380   -0.3990 C.ar    1  UNL1       -0.0386
      5  C4         6.8810    0.8870    0.2430 C.ar    1  UNL1       -0.0581
      6  C5         7.9460    0.6590    1.1040 C.ar    1  UNL1       -0.0615
      7  C6         8.3940   -0.6450    1.3420 C.ar    1  UNL1       -0.0617
      8  C7         7.7340   -1.6730    0.6860 C.ar    1  UNL1       -0.0615
      9  C8         6.6700   -1.4260   -0.1730 C.ar    1  UNL1       -0.0581
     10  N1         2.5890    0.2030   -1.1210 N.am    1  UNL1       -0.2701
     11  C9         1.3580    0.1840   -0.4320 C.ar    1  UNL1        0.1252
     12  C10        1.1780    0.0160    0.9080 C.ar    1  UNL1       -0.0215
     13  C11       -0.0910    0.0110    1.5060 C.ar    1  UNL1       -0.0568
     14  C12       -1.2020    0.1800    0.7160 C.ar    1  UNL1       -0.0399
     15  C13       -1.0240    0.3470   -0.6220 C.ar    1  UNL1        0.0492
     16  C14       -2.1580    0.5250   -1.5970 C.3     1  UNL1        0.0340
     17  C15       -3.3710    1.0600   -1.0010 C.ar    1  UNL1        0.0708
     18  N2        -3.5280    2.4000   -0.9710 N.ar    1  UNL1       -0.1753
     19  N3        -4.5500    2.9850   -0.4050 N.ar    1  UNL1       -0.2427
     20  C16       -5.4860    2.2310    0.1720 C.ar    1  UNL1        0.2682
     21  O2        -6.5060    2.7450    0.7410 O.2     1  UNL1       -0.2661
     22  C17       -5.3830    0.8170    0.1760 C.ar    1  UNL1        0.0232
     23  C18       -4.3010    0.2220   -0.4250 C.ar    1  UNL1       -0.0157
     24  C19       -4.1290   -1.2160   -0.5250 C.3     1  UNL1       -0.0255
     25  C20       -5.4240   -1.9460   -0.1100 C.3     1  UNL1       -0.0487
     26  C21       -5.9460   -1.3290    1.1730 C.3     1  UNL1       -0.0486
     27  C22       -6.4610    0.0340    0.8190 C.3     1  UNL1       -0.0222
     28  N4         0.2020    0.3460   -1.1530 N.ar    1  UNL1       -0.2364
     29 H           5.1983    1.0255   -1.7932 H       1  UNL1        0.0407
     30 H           5.0868   -0.6871   -2.0648 H       1  UNL1        0.0407
     31 H           6.5649    1.8561    0.0821 H       1  UNL1        0.0620
     32 H           8.4091    1.4546    1.5704 H       1  UNL1        0.0618
     33 H           9.1832   -0.8339    1.9796 H       1  UNL1        0.0618
     34 H           8.0408   -2.6463    0.8396 H       1  UNL1        0.0618
     35 H           6.1998   -2.2140   -0.6453 H       1  UNL1        0.0620
     36 H           2.5705    0.3428   -2.0953 H       1  UNL1        0.1562
     37 H           2.0084   -0.1127    1.5071 H       1  UNL1        0.0652
     38 H          -0.1885   -0.1179    2.5253 H       1  UNL1        0.0619
     39 H          -2.1484    0.1802    1.1276 H       1  UNL1        0.0636
     40 H          -2.3859   -0.4284   -2.0258 H       1  UNL1        0.0392
     41 H          -1.8310    1.2368   -2.3259 H       1  UNL1        0.0392
     42 H          -4.6276    3.9664   -0.4046 H       1  UNL1        0.1921
     43 H          -3.3311   -1.5208    0.1195 H       1  UNL1        0.0314
     44 H          -3.9004   -1.4672   -1.5397 H       1  UNL1        0.0314
     45 H          -5.2163   -2.9835    0.0490 H       1  UNL1        0.0268
     46 H          -6.1577   -1.8504   -0.8830 H       1  UNL1        0.0268
     47 H          -5.1570   -1.2497    1.8914 H       1  UNL1        0.0269
     48 H          -6.7184   -1.9319    1.6029 H       1  UNL1        0.0269
     49 H          -7.2850   -0.0606    0.1430 H       1  UNL1        0.0315
     50 H          -6.7842    0.5349    1.7075 H       1  UNL1        0.0315
@<TRIPOS>BOND
     1     1     2    2
     2     2     3    1
     3     2    10   am
     4     3     4    1
     5     4     5   ar
     6     4     9   ar
     7     5     6   ar
     8     6     7   ar
     9     7     8   ar
    10     8     9   ar
    11    10    11    1
    12    11    12   ar
    13    11    28   ar
    14    12    13   ar
    15    13    14   ar
    16    14    15   ar
    17    15    16    1
    18    15    28   ar
    19    16    17    1
    20    17    18   ar
    21    17    23   ar
    22    18    19   ar
    23    19    20   ar
    24    20    21    2
    25    20    22   ar
    26    22    23   ar
    27    22    27    1
    28    23    24    1
    29    24    25    1
    30    25    26    1
    31    26    27    1
    32     3    29    1
    33     3    30    1
    34     5    31    1
    35     6    32    1
    36     7    33    1
    37     8    34    1
    38     9    35    1
    39    10    36    1
    40    12    37    1
    41    13    38    1
    42    14    39    1
    43    16    40    1
    44    16    41    1
    45    19    42    1
    46    24    43    1
    47    24    44    1
    48    25    45    1
    49    25    46    1
    50    26    47    1
    51    26    48    1
    52    27    49    1
    53    27    50    1
@<TRIPOS>MOLECULE
../data/bude_mols_rdkit_confs/molecule_82.pdb
 50 53 0 0 0
SMALL
GASTEIGER

@<TRIPOS>ATOM
      1  O1         3.9430   -1.4730    1.4920 O.2     1  UNL1       -0.2751
      2  C1         3.9040   -1.4500    0.2520 C.2     1  UNL1        0.2226
      3  C2         5.2220   -1.6010   -0.4500 C.3     1  UNL1        0.0495
      4  C3         6.0060   -0.3730   -0.2050 C.ar    1  UNL1       -0.0386
      5  C4         5.9740    0.6950   -1.1000 C.ar    1  UNL1       -0.0581
      6  C5         6.7040    1.8340   -0.8860 C.ar    1  UNL1       -0.0615
      7  C6         7.5020    1.9570    0.2360 C.ar    1  UNL1       -0.0617
      8  C7         7.5360    0.9010    1.1230 C.ar    1  UNL1       -0.0615
      9  C8         6.7900   -0.2640    0.9080 C.ar    1  UNL1       -0.0581
     10  N1         2.7130   -1.2920   -0.4420 N.am    1  UNL1       -0.2701
     11  C9         1.4310   -1.1980    0.1370 C.ar    1  UNL1        0.1252
     12  C10        1.1300   -1.3240    1.4550 C.ar    1  UNL1       -0.0215
     13  C11       -0.1700   -1.2070    1.9530 C.ar    1  UNL1       -0.0568
     14  C12       -1.1660   -0.9490    1.0050 C.ar    1  UNL1       -0.0399
     15  C13       -0.8960   -0.8210   -0.3060 C.ar    1  UNL1        0.0492
     16  C14       -1.8930   -0.5620   -1.3600 C.3     1  UNL1        0.0340
     17  C15       -2.8180    0.5130   -0.9830 C.ar    1  UNL1        0.0708
     18  N2        -2.3690    1.7940   -1.1710 N.ar    1  UNL1       -0.1753
     19  N3        -3.0670    2.8420   -0.7870 N.ar    1  UNL1       -0.2427
     20  C16       -4.2570    2.6590   -0.1920 C.ar    1  UNL1        0.2682
     21  O2        -4.9300    3.6580    0.1800 O.2     1  UNL1       -0.2661
     22  C17       -4.7590    1.3960    0.0220 C.ar    1  UNL1        0.0232
     23  C18       -4.0300    0.3080   -0.3810 C.ar    1  UNL1       -0.0157
     24  C19       -4.5570   -1.0820   -0.2490 C.3     1  UNL1       -0.0255
     25  C20       -6.0610   -1.0420    0.0130 C.3     1  UNL1       -0.0487
     26  C21       -6.2700   -0.0990    1.2080 C.3     1  UNL1       -0.0486
     27  C22       -6.0730    1.2910    0.6710 C.3     1  UNL1       -0.0222
     28  N4         0.3740   -0.9460   -0.7030 N.ar    1  UNL1       -0.2364
     29 H           5.0627   -1.7279   -1.5004 H       1  UNL1        0.0407
     30 H           5.7456   -2.4588   -0.0827 H       1  UNL1        0.0407
     31 H           5.3856    0.6259   -1.9450 H       1  UNL1        0.0620
     32 H           6.6579    2.6070   -1.5682 H       1  UNL1        0.0618
     33 H           8.0549    2.8119    0.4048 H       1  UNL1        0.0618
     34 H           8.1264    0.9716    1.9665 H       1  UNL1        0.0618
     35 H           6.8324   -1.0384    1.5888 H       1  UNL1        0.0620
     36 H           2.7679   -1.2411   -1.4237 H       1  UNL1        0.1562
     37 H           1.8965   -1.5149    2.1191 H       1  UNL1        0.0652
     38 H          -0.3825   -1.3048    2.9581 H       1  UNL1        0.0619
     39 H          -2.1430   -0.8535    1.3233 H       1  UNL1        0.0636
     40 H          -2.4539   -1.4565   -1.5335 H       1  UNL1        0.0392
     41 H          -1.3716   -0.2575   -2.2434 H       1  UNL1        0.0392
     42 H          -2.7199    3.7514   -0.9346 H       1  UNL1        0.1921
     43 H          -4.0672   -1.5717    0.5666 H       1  UNL1        0.0314
     44 H          -4.3704   -1.6183   -1.1559 H       1  UNL1        0.0314
     45 H          -6.4217   -2.0217    0.2476 H       1  UNL1        0.0268
     46 H          -6.5952   -0.6995   -0.8486 H       1  UNL1        0.0268
     47 H          -5.5547   -0.3067    1.9762 H       1  UNL1        0.0269
     48 H          -7.2410   -0.2204    1.6408 H       1  UNL1        0.0269
     49 H          -6.8396    1.5071   -0.0435 H       1  UNL1        0.0315
     50 H          -6.1232    1.9907    1.4790 H       1  UNL1        0.0315
@<TRIPOS>BOND
     1     1     2    2
     2     2     3    1
     3     2    10   am
     4     3     4    1
     5     4     5   ar
     6     4     9   ar
     7     5     6   ar
     8     6     7   ar
     9     7     8   ar
    10     8     9   ar
    11    10    11    1
    12    11    12   ar
    13    11    28   ar
    14    12    13   ar
    15    13    14   ar
    16    14    15   ar
    17    15    16    1
    18    15    28   ar
    19    16    17    1
    20    17    18   ar
    21    17    23   ar
    22    18    19   ar
    23    19    20   ar
    24    20    21    2
    25    20    22   ar
    26    22    23   ar
    27    22    27    1
    28    23    24    1
    29    24    25    1
    30    25    26    1
    31    26    27    1
    32     3    29    1
    33     3    30    1
    34     5    31    1
    35     6    32    1
    36     7    33    1
    37     8    34    1
    38     9    35    1
    39    10    36    1
    40    12    37    1
    41    13    38    1
    42    14    39    1
    43    16    40    1
    44    16    41    1
    45    19    42    1
    46    24    43    1
    47    24    44    1
    48    25    45    1
    49    25    46    1
    50    26    47    1
    51    26    48    1
    52    27    49    1
    53    27    50    1
@<TRIPOS>MOLECULE
../data/bude_mols_rdkit_confs/molecule_82.pdb
 50 53 0 0 0
SMALL
GASTEIGER

@<TRIPOS>ATOM
      1  O1         2.5720   -0.2570    0.2940 O.2     1  UNL1       -0.2751
      2  C1         2.9650   -0.3450    1.5070 C.2     1  UNL1        0.2226
      3  C2         4.2660    0.2350    1.9260 C.3     1  UNL1        0.0495
      4  C3         4.9010    0.8510    0.7480 C.ar    1  UNL1       -0.0386
      5  C4         5.7760    0.1650   -0.0860 C.ar    1  UNL1       -0.0581
      6  C5         6.3410    0.7920   -1.1810 C.ar    1  UNL1       -0.0615
      7  C6         6.0440    2.1100   -1.4620 C.ar    1  UNL1       -0.0617
      8  C7         5.1670    2.7980   -0.6250 C.ar    1  UNL1       -0.0615
      9  C8         4.6100    2.1700    0.4590 C.ar    1  UNL1       -0.0581
     10  N1         2.1740   -0.9950    2.4880 N.am    1  UNL1       -0.2701
     11  C9         0.9350   -1.5460    2.0930 C.ar    1  UNL1        0.1252
     12  C10        0.1660   -2.1790    3.0440 C.ar    1  UNL1       -0.0215
     13  C11       -1.0310   -2.7110    2.6650 C.ar    1  UNL1       -0.0568
     14  C12       -1.4520   -2.6060    1.3340 C.ar    1  UNL1       -0.0399
     15  C13       -0.6780   -1.9730    0.3950 C.ar    1  UNL1        0.0492
     16  C14       -1.1020   -1.8420   -1.0190 C.3     1  UNL1        0.0340
     17  C15       -1.6650   -0.5030   -1.3440 C.ar    1  UNL1        0.0708
     18  N2        -0.8660    0.3950   -1.9870 N.ar    1  UNL1       -0.1753
     19  N3        -1.2310    1.6070   -2.3230 N.ar    1  UNL1       -0.2427
     20  C16       -2.4700    2.0160   -2.0250 C.ar    1  UNL1        0.2682
     21  O2        -2.8390    3.1900   -2.3450 O.2     1  UNL1       -0.2661
     22  C17       -3.3390    1.1720   -1.3790 C.ar    1  UNL1        0.0232
     23  C18       -2.9390   -0.1030   -1.0310 C.ar    1  UNL1       -0.0157
     24  C19       -3.8730   -1.0320   -0.3410 C.3     1  UNL1       -0.0255
     25  C20       -5.3020   -0.7110   -0.7480 C.3     1  UNL1       -0.0487
     26  C21       -5.6370    0.7310   -0.5100 C.3     1  UNL1       -0.0486
     27  C22       -4.6890    1.7100   -1.0940 C.3     1  UNL1       -0.0222
     28  N4         0.4970   -1.4640    0.8210 N.ar    1  UNL1       -0.2364
     29 H           4.8972   -0.5365    2.3148 H       1  UNL1        0.0407
     30 H           4.1125    0.9705    2.6878 H       1  UNL1        0.0407
     31 H           6.0060   -0.8210    0.1139 H       1  UNL1        0.0620
     32 H           6.9891    0.2710   -1.7922 H       1  UNL1        0.0618
     33 H           6.4647    2.5791   -2.2793 H       1  UNL1        0.0618
     34 H           4.9360    3.7843   -0.8221 H       1  UNL1        0.0618
     35 H           3.9621    2.6918    1.0696 H       1  UNL1        0.0620
     36 H           2.4808   -1.0606    3.4212 H       1  UNL1        0.1562
     37 H           0.4885   -2.2492    4.0218 H       1  UNL1        0.0652
     38 H          -1.6259   -3.1905    3.3586 H       1  UNL1        0.0619
     39 H          -2.3591   -3.0113    1.0549 H       1  UNL1        0.0636
     40 H          -1.8485   -2.5819   -1.2195 H       1  UNL1        0.0392
     41 H          -0.2298   -1.9742   -1.6246 H       1  UNL1        0.0392
     42 H          -0.6041    2.2076   -2.7873 H       1  UNL1        0.1921
     43 H          -3.7702   -0.9193    0.7181 H       1  UNL1        0.0314
     44 H          -3.6419   -2.0396   -0.6172 H       1  UNL1        0.0314
     45 H          -5.9703   -1.3209   -0.1768 H       1  UNL1        0.0268
     46 H          -5.4023   -0.9078   -1.7949 H       1  UNL1        0.0268
     47 H          -5.6682    0.8923    0.5473 H       1  UNL1        0.0269
     48 H          -6.5735    0.9002   -0.9992 H       1  UNL1        0.0269
     49 H          -5.1049    2.0694   -2.0120 H       1  UNL1        0.0315
     50 H          -4.5589    2.4782   -0.3606 H       1  UNL1        0.0315
@<TRIPOS>BOND
     1     1     2    2
     2     2     3    1
     3     2    10   am
     4     3     4    1
     5     4     5   ar
     6     4     9   ar
     7     5     6   ar
     8     6     7   ar
     9     7     8   ar
    10     8     9   ar
    11    10    11    1
    12    11    12   ar
    13    11    28   ar
    14    12    13   ar
    15    13    14   ar
    16    14    15   ar
    17    15    16    1
    18    15    28   ar
    19    16    17    1
    20    17    18   ar
    21    17    23   ar
    22    18    19   ar
    23    19    20   ar
    24    20    21    2
    25    20    22   ar
    26    22    23   ar
    27    22    27    1
    28    23    24    1
    29    24    25    1
    30    25    26    1
    31    26    27    1
    32     3    29    1
    33     3    30    1
    34     5    31    1
    35     6    32    1
    36     7    33    1
    37     8    34    1
    38     9    35    1
    39    10    36    1
    40    12    37    1
    41    13    38    1
    42    14    39    1
    43    16    40    1
    44    16    41    1
    45    19    42    1
    46    24    43    1
    47    24    44    1
    48    25    45    1
    49    25    46    1
    50    26    47    1
    51    26    48    1
    52    27    49    1
    53    27    50    1
@<TRIPOS>MOLECULE
../data/bude_mols_rdkit_confs/molecule_82.pdb
 50 53 0 0 0
SMALL
GASTEIGER

@<TRIPOS>ATOM
      1  O1         3.7340    1.0740    0.2230 O.2     1  UNL1       -0.2751
      2  C1         3.5210   -0.0430   -0.2800 C.2     1  UNL1        0.2226
      3  C2         4.6650   -1.0160   -0.3160 C.3     1  UNL1        0.0495
      4  C3         5.8790   -0.4270    0.2820 C.ar    1  UNL1       -0.0386
      5  C4         6.7780    0.2710   -0.4910 C.ar    1  UNL1       -0.0581
      6  C5         7.8960    0.8130    0.0660 C.ar    1  UNL1       -0.0615
      7  C6         8.1800    0.6910    1.4150 C.ar    1  UNL1       -0.0617
      8  C7         7.2570   -0.0160    2.1650 C.ar    1  UNL1       -0.0615
      9  C8         6.1340   -0.5650    1.6270 C.ar    1  UNL1       -0.0581
     10  N1         2.2520   -0.3590   -0.7870 N.am    1  UNL1       -0.2701
     11  C9         1.1100    0.4790   -0.8030 C.ar    1  UNL1        0.1252
     12  C10        1.0610    1.7530   -0.3180 C.ar    1  UNL1       -0.0215
     13  C11       -0.0900    2.5560   -0.3510 C.ar    1  UNL1       -0.0568
     14  C12       -1.2120    1.9700   -0.9190 C.ar    1  UNL1       -0.0399
     15  C13       -1.1860    0.6910   -1.4120 C.ar    1  UNL1        0.0492
     16  C14       -2.3860    0.0740   -2.0100 C.3     1  UNL1        0.0340
     17  C15       -3.1210   -0.8310   -1.1040 C.ar    1  UNL1        0.0708
     18  N2        -2.9150   -2.1690   -1.2830 N.ar    1  UNL1       -0.1753
     19  N3        -3.4920   -3.0970   -0.5420 N.ar    1  UNL1       -0.2427
     20  C16       -4.3390   -2.8040    0.4610 C.ar    1  UNL1        0.2682
     21  O2        -4.8980   -3.6690    1.1780 O.2     1  UNL1       -0.2661
     22  C17       -4.5780   -1.4640    0.6800 C.ar    1  UNL1        0.0232
     23  C18       -3.9740   -0.4680   -0.0980 C.ar    1  UNL1       -0.0157
     24  C19       -4.2450    0.9470    0.1380 C.3     1  UNL1       -0.0255
     25  C20       -5.5290    1.2430    0.8650 C.3     1  UNL1       -0.0487
     26  C21       -6.3480    0.0550    1.2230 C.3     1  UNL1       -0.0486
     27  C22       -5.5100   -1.0880    1.7790 C.3     1  UNL1       -0.0222
     28  N4        -0.0550    0.0000   -1.3420 N.ar    1  UNL1       -0.2364
     29 H           4.8683   -1.2796   -1.3329 H       1  UNL1        0.0407
     30 H           4.3930   -1.8832    0.2487 H       1  UNL1        0.0407
     31 H           6.6034    0.3847   -1.5018 H       1  UNL1        0.0620
     32 H           8.5531    1.3317   -0.5375 H       1  UNL1        0.0618
     33 H           9.0280    1.1021    1.8356 H       1  UNL1        0.0618
     34 H           7.4275   -0.1320    3.1762 H       1  UNL1        0.0618
     35 H           5.4744   -1.0843    2.2272 H       1  UNL1        0.0620
     36 H           2.1435   -1.2583   -1.1725 H       1  UNL1        0.1562
     37 H           1.9189    2.1491    0.0968 H       1  UNL1        0.0652
     38 H          -0.1008    3.5180    0.0223 H       1  UNL1        0.0619
     39 H          -2.0892    2.5111   -0.9718 H       1  UNL1        0.0636
     40 H          -2.0815   -0.4868   -2.8689 H       1  UNL1        0.0392
     41 H          -3.0539    0.8746   -2.2506 H       1  UNL1        0.0392
     42 H          -3.2941   -4.0426   -0.7314 H       1  UNL1        0.1921
     43 H          -4.2814    1.4395   -0.8112 H       1  UNL1        0.0314
     44 H          -3.4580    1.2973    0.7726 H       1  UNL1        0.0314
     45 H          -6.1230    1.8774    0.2408 H       1  UNL1        0.0268
     46 H          -5.2451    1.6954    1.7922 H       1  UNL1        0.0268
     47 H          -6.8562   -0.2878    0.3460 H       1  UNL1        0.0269
     48 H          -7.0357    0.3537    1.9863 H       1  UNL1        0.0269
     49 H          -4.9630   -0.7668    2.6407 H       1  UNL1        0.0315
     50 H          -6.1167   -1.9138    2.0871 H       1  UNL1        0.0315
@<TRIPOS>BOND
     1     1     2    2
     2     2     3    1
     3     2    10   am
     4     3     4    1
     5     4     5   ar
     6     4     9   ar
     7     5     6   ar
     8     6     7   ar
     9     7     8   ar
    10     8     9   ar
    11    10    11    1
    12    11    12   ar
    13    11    28   ar
    14    12    13   ar
    15    13    14   ar
    16    14    15   ar
    17    15    16    1
    18    15    28   ar
    19    16    17    1
    20    17    18   ar
    21    17    23   ar
    22    18    19   ar
    23    19    20   ar
    24    20    21    2
    25    20    22   ar
    26    22    23   ar
    27    22    27    1
    28    23    24    1
    29    24    25    1
    30    25    26    1
    31    26    27    1
    32     3    29    1
    33     3    30    1
    34     5    31    1
    35     6    32    1
    36     7    33    1
    37     8    34    1
    38     9    35    1
    39    10    36    1
    40    12    37    1
    41    13    38    1
    42    14    39    1
    43    16    40    1
    44    16    41    1
    45    19    42    1
    46    24    43    1
    47    24    44    1
    48    25    45    1
    49    25    46    1
    50    26    47    1
    51    26    48    1
    52    27    49    1
    53    27    50    1
@<TRIPOS>MOLECULE
../data/bude_mols_rdkit_confs/molecule_82.pdb
 50 53 0 0 0
SMALL
GASTEIGER

@<TRIPOS>ATOM
      1  O1         2.1610   -1.8420    0.6230 O.2     1  UNL1       -0.2751
      2  C1         3.1480   -1.4410   -0.0370 C.2     1  UNL1        0.2226
      3  C2         4.3560   -2.3110   -0.1100 C.3     1  UNL1        0.0495
      4  C3         5.5950   -1.5460    0.1100 C.ar    1  UNL1       -0.0386
      5  C4         5.5800   -0.3490    0.7710 C.ar    1  UNL1       -0.0581
      6  C5         6.7740    0.3220    0.9210 C.ar    1  UNL1       -0.0615
      7  C6         7.9500   -0.2090    0.4130 C.ar    1  UNL1       -0.0617
      8  C7         7.9730   -1.4310   -0.2600 C.ar    1  UNL1       -0.0615
      9  C8         6.7660   -2.0700   -0.3890 C.ar    1  UNL1       -0.0581
     10  N1         3.0420   -0.1810   -0.6590 N.am    1  UNL1       -0.2701
     11  C9         1.8580    0.6270   -0.6320 C.ar    1  UNL1        0.1252
     12  C10        1.9400    1.9180   -1.1040 C.ar    1  UNL1       -0.0215
     13  C11        0.8340    2.7440   -1.1380 C.ar    1  UNL1       -0.0568
     14  C12       -0.4060    2.2470   -0.6790 C.ar    1  UNL1       -0.0399
     15  C13       -0.4570    0.9650   -0.2200 C.ar    1  UNL1        0.0492
     16  C14       -1.6880    0.3410    0.2620 C.3     1  UNL1        0.0340
     17  C15       -2.9590    1.0080    0.0400 C.ar    1  UNL1        0.0708
     18  N2        -3.1800    2.1870   -0.5400 N.ar    1  UNL1       -0.1753
     19  N3        -4.3220    2.7870   -0.7060 N.ar    1  UNL1       -0.2427
     20  C16       -5.4440    2.1590   -0.2420 C.ar    1  UNL1        0.2682
     21  O2        -6.5440    2.7100   -0.3880 O.2     1  UNL1       -0.2661
     22  C17       -5.3320    0.9460    0.3710 C.ar    1  UNL1        0.0232
     23  C18       -4.0970    0.3580    0.5180 C.ar    1  UNL1       -0.0157
     24  C19       -4.0810   -0.9670    1.1760 C.3     1  UNL1       -0.0255
     25  C20       -5.1630   -1.8450    0.5590 C.3     1  UNL1       -0.0487
     26  C21       -6.5040   -1.2060    0.4760 C.3     1  UNL1       -0.0486
     27  C22       -6.5390    0.2190    0.9060 C.3     1  UNL1       -0.0222
     28  N4         0.6900    0.1850   -0.2070 N.ar    1  UNL1       -0.2364
     29 H           4.3971   -2.7661   -1.0775 H       1  UNL1        0.0407
     30 H           4.2805   -3.0503    0.6598 H       1  UNL1        0.0407
     31 H           4.7009    0.0400    1.1462 H       1  UNL1        0.0620
     32 H           6.7933    1.2275    1.4156 H       1  UNL1        0.0618
     33 H           8.8314    0.3135    0.5360 H       1  UNL1        0.0618
     34 H           8.8462   -1.8304   -0.6383 H       1  UNL1        0.0618
     35 H           6.7347   -2.9779   -0.8787 H       1  UNL1        0.0620
     36 H           3.8277    0.1650   -1.1408 H       1  UNL1        0.1562
     37 H           2.8479    2.2760   -1.4396 H       1  UNL1        0.0652
     38 H           0.9121    3.7097   -1.4933 H       1  UNL1        0.0619
     39 H          -1.2511    2.8392   -0.6910 H       1  UNL1        0.0636
     40 H          -1.5814    0.2170    1.3194 H       1  UNL1        0.0392
     41 H          -1.7652   -0.5511   -0.3237 H       1  UNL1        0.0392
     42 H          -4.3765    3.6636   -1.1507 H       1  UNL1        0.1921
     43 H          -4.2692   -0.8492    2.2227 H       1  UNL1        0.0314
     44 H          -3.1240   -1.4254    1.0387 H       1  UNL1        0.0314
     45 H          -5.2516   -2.7318    1.1511 H       1  UNL1        0.0268
     46 H          -4.8574   -2.0422   -0.4473 H       1  UNL1        0.0268
     47 H          -7.1763   -1.7590    1.0982 H       1  UNL1        0.0269
     48 H          -6.7823   -1.2180   -0.5571 H       1  UNL1        0.0269
     49 H          -7.4274    0.6815    0.5296 H       1  UNL1        0.0315
     50 H          -6.5326    0.2647    1.9750 H       1  UNL1        0.0315
@<TRIPOS>BOND
     1     1     2    2
     2     2     3    1
     3     2    10   am
     4     3     4    1
     5     4     5   ar
     6     4     9   ar
     7     5     6   ar
     8     6     7   ar
     9     7     8   ar
    10     8     9   ar
    11    10    11    1
    12    11    12   ar
    13    11    28   ar
    14    12    13   ar
    15    13    14   ar
    16    14    15   ar
    17    15    16    1
    18    15    28   ar
    19    16    17    1
    20    17    18   ar
    21    17    23   ar
    22    18    19   ar
    23    19    20   ar
    24    20    21    2
    25    20    22   ar
    26    22    23   ar
    27    22    27    1
    28    23    24    1
    29    24    25    1
    30    25    26    1
    31    26    27    1
    32     3    29    1
    33     3    30    1
    34     5    31    1
    35     6    32    1
    36     7    33    1
    37     8    34    1
    38     9    35    1
    39    10    36    1
    40    12    37    1
    41    13    38    1
    42    14    39    1
    43    16    40    1
    44    16    41    1
    45    19    42    1
    46    24    43    1
    47    24    44    1
    48    25    45    1
    49    25    46    1
    50    26    47    1
    51    26    48    1
    52    27    49    1
    53    27    50    1
@<TRIPOS>MOLECULE
../data/bude_mols_rdkit_confs/molecule_82.pdb
 50 53 0 0 0
SMALL
GASTEIGER

@<TRIPOS>ATOM
      1  O1         3.7160    0.6260   -0.3560 O.2     1  UNL1       -0.2751
      2  C1         3.4000   -0.5390   -0.0500 C.2     1  UNL1        0.2226
      3  C2         4.4550   -1.3660    0.6530 C.3     1  UNL1        0.0495
      4  C3         5.6810   -0.5540    0.8250 C.ar    1  UNL1       -0.0386
      5  C4         6.6900   -0.5120   -0.1130 C.ar    1  UNL1       -0.0581
      6  C5         7.7930    0.2760    0.1430 C.ar    1  UNL1       -0.0615
      7  C6         7.9230    1.0200    1.2970 C.ar    1  UNL1       -0.0617
      8  C7         6.9210    0.9870    2.2430 C.ar    1  UNL1       -0.0615
      9  C8         5.8200    0.2000    1.9870 C.ar    1  UNL1       -0.0581
     10  N1         2.1400   -1.0610   -0.3360 N.am    1  UNL1       -0.2701
     11  C9         1.1060   -0.3720   -0.9830 C.ar    1  UNL1        0.1252
     12  C10        1.1630    0.9150   -1.4430 C.ar    1  UNL1       -0.0215
     13  C11        0.0630    1.5090   -2.0780 C.ar    1  UNL1       -0.0568
     14  C12       -1.0760    0.7450   -2.2200 C.ar    1  UNL1       -0.0399
     15  C13       -1.1570   -0.5430   -1.7680 C.ar    1  UNL1        0.0492
     16  C14       -2.4020   -1.3960   -1.9010 C.3     1  UNL1        0.0340
     17  C15       -3.0930   -1.4130   -0.6170 C.ar    1  UNL1        0.0708
     18  N2        -2.8700   -2.4720    0.2020 N.ar    1  UNL1       -0.1753
     19  N3        -3.4160   -2.5400    1.3860 N.ar    1  UNL1       -0.2427
     20  C16       -4.2240   -1.5810    1.8680 C.ar    1  UNL1        0.2682
     21  O2        -4.7610   -1.6110    2.9890 O.2     1  UNL1       -0.2661
     22  C17       -4.4840   -0.4710    1.0600 C.ar    1  UNL1        0.0232
     23  C18       -3.9040   -0.4130   -0.1840 C.ar    1  UNL1       -0.0157
     24  C19       -4.2170    0.7420   -1.0520 C.3     1  UNL1       -0.0255
     25  C20       -5.7200    1.0140   -0.8230 C.3     1  UNL1       -0.0487
     26  C21       -5.7920    1.6150    0.5590 C.3     1  UNL1       -0.0486
     27  C22       -5.3500    0.6120    1.5600 C.3     1  UNL1       -0.0222
     28  N4        -0.0740   -1.0510   -1.1720 N.ar    1  UNL1       -0.2364
     29 H           4.6796   -2.2321    0.0661 H       1  UNL1        0.0407
     30 H           4.0905   -1.6711    1.6116 H       1  UNL1        0.0407
     31 H           6.6219   -1.0573   -0.9865 H       1  UNL1        0.0620
     32 H           8.5508    0.3101   -0.5567 H       1  UNL1        0.0618
     33 H           8.7644    1.5973    1.4511 H       1  UNL1        0.0618
     34 H           6.9934    1.5343    3.1149 H       1  UNL1        0.0618
     35 H           5.0637    0.1678    2.6885 H       1  UNL1        0.0620
     36 H           1.9620   -1.9894   -0.0610 H       1  UNL1        0.1562
     37 H           2.0315    1.4587   -1.3204 H       1  UNL1        0.0652
     38 H           0.1043    2.4799   -2.4254 H       1  UNL1        0.0619
     39 H          -1.8982    1.1608   -2.6848 H       1  UNL1        0.0636
     40 H          -2.1282   -2.3931   -2.1764 H       1  UNL1        0.0392
     41 H          -3.0433   -0.9919   -2.6562 H       1  UNL1        0.0392
     42 H          -3.2280   -3.3259    1.9484 H       1  UNL1        0.1921
     43 H          -4.0294    0.5037   -2.0781 H       1  UNL1        0.0314
     44 H          -3.6132    1.5948   -0.8217 H       1  UNL1        0.0314
     45 H          -6.2799    0.1033   -0.8685 H       1  UNL1        0.0268
     46 H          -6.1335    1.6605   -1.5686 H       1  UNL1        0.0268
     47 H          -6.7997    1.9074    0.7684 H       1  UNL1        0.0269
     48 H          -5.1536    2.4723    0.6081 H       1  UNL1        0.0269
     49 H          -4.8135    1.1309    2.3267 H       1  UNL1        0.0315
     50 H          -6.2445    0.1304    1.8959 H       1  UNL1        0.0315
@<TRIPOS>BOND
     1     1     2    2
     2     2     3    1
     3     2    10   am
     4     3     4    1
     5     4     5   ar
     6     4     9   ar
     7     5     6   ar
     8     6     7   ar
     9     7     8   ar
    10     8     9   ar
    11    10    11    1
    12    11    12   ar
    13    11    28   ar
    14    12    13   ar
    15    13    14   ar
    16    14    15   ar
    17    15    16    1
    18    15    28   ar
    19    16    17    1
    20    17    18   ar
    21    17    23   ar
    22    18    19   ar
    23    19    20   ar
    24    20    21    2
    25    20    22   ar
    26    22    23   ar
    27    22    27    1
    28    23    24    1
    29    24    25    1
    30    25    26    1
    31    26    27    1
    32     3    29    1
    33     3    30    1
    34     5    31    1
    35     6    32    1
    36     7    33    1
    37     8    34    1
    38     9    35    1
    39    10    36    1
    40    12    37    1
    41    13    38    1
    42    14    39    1
    43    16    40    1
    44    16    41    1
    45    19    42    1
    46    24    43    1
    47    24    44    1
    48    25    45    1
    49    25    46    1
    50    26    47    1
    51    26    48    1
    52    27    49    1
    53    27    50    1
