@<TRIPOS>MOLECULE
../data/bude_mols_rdkit_confs/molecule_90.pdb
 48 52 0 0 0
SMALL
GASTEIGER

@<TRIPOS>ATOM
      1  O1         3.4470   -3.3460    1.7210 O.2     1  UNL1       -0.2698
      2  C1         3.3350   -2.2370    1.1280 C.2     1  UNL1        0.2511
      3  C2         4.4400   -1.3660    0.7500 C.2     1  UNL1        0.0138
      4  C3         3.9850   -0.2760    0.1420 C.2     1  UNL1        0.0497
      5  C4         4.8540    0.7850   -0.3530 C.ar    1  UNL1       -0.0127
      6  C5         4.3410    1.9020   -0.9790 C.ar    1  UNL1       -0.0539
      7  C6         5.1420    2.9090   -1.4500 C.ar    1  UNL1       -0.0612
      8  C7         6.4980    2.8260   -1.3050 C.ar    1  UNL1       -0.0617
      9  C8         7.0490    1.7370   -0.6900 C.ar    1  UNL1       -0.0612
     10  C9         6.2220    0.7380   -0.2260 C.ar    1  UNL1       -0.0539
     11  C10        2.5360   -0.3670    0.0830 C.2     1  UNL1        0.2582
     12  O2         1.7540    0.4620   -0.4120 O.2     1  UNL1       -0.2692
     13  N1         2.1470   -1.5920    0.7000 N.am    1  UNL1       -0.2028
     14  C11        0.8200   -2.1070    0.8750 C.ar    1  UNL1        0.0448
     15  C12        0.6080   -3.4700    0.9770 C.ar    1  UNL1       -0.0398
     16  C13       -0.6780   -3.9660    1.1470 C.ar    1  UNL1       -0.0597
     17  C14       -1.7360   -3.0760    1.2120 C.ar    1  UNL1       -0.0581
     18  C15       -1.5670   -1.7160    1.1150 C.ar    1  UNL1       -0.0397
     19  C16       -2.6200   -0.7410    1.1730 C.3     1  UNL1        0.0172
     20  C17       -3.2740   -0.3310   -0.0480 C.ar    1  UNL1        0.0736
     21  N2        -3.0590   -0.7970   -1.2850 N.ar    1  UNL1       -0.1750
     22  N3        -3.6740   -0.3990   -2.3680 N.ar    1  UNL1       -0.2425
     23  C18       -4.5990    0.5460   -2.2800 C.ar    1  UNL1        0.2725
     24  O3        -5.1940    0.9350   -3.3060 O.2     1  UNL1       -0.2658
     25  C19       -4.9130    1.1070   -1.0700 C.ar    1  UNL1        0.0496
     26  C20       -5.8790    2.0910   -1.0050 C.ar    1  UNL1       -0.0487
     27  C21       -6.1950    2.6580    0.2190 C.ar    1  UNL1       -0.0610
     28  C22       -5.5420    2.2330    1.3540 C.ar    1  UNL1       -0.0611
     29  C23       -4.5840    1.2510    1.2610 C.ar    1  UNL1       -0.0521
     30  C24       -4.2360    0.6570    0.0600 C.ar    1  UNL1        0.0106
     31  C25       -0.2610   -1.2620    0.9460 C.ar    1  UNL1       -0.0363
     32 H           5.4361   -1.5675    0.9293 H       1  UNL1        0.0677
     33 H           3.3189    1.9820   -1.0966 H       1  UNL1        0.0624
     34 H           4.7214    3.7294   -1.9138 H       1  UNL1        0.0618
     35 H           7.1040    3.5829   -1.6586 H       1  UNL1        0.0618
     36 H           8.0719    1.6641   -0.5747 H       1  UNL1        0.0618
     37 H           6.6474   -0.0805    0.2366 H       1  UNL1        0.0624
     38 H           1.4078   -4.1203    0.9266 H       1  UNL1        0.0636
     39 H          -0.8421   -4.9820    1.2236 H       1  UNL1        0.0618
     40 H          -2.6899   -3.4489    1.3384 H       1  UNL1        0.0620
     41 H          -2.2049    0.1403    1.6155 H       1  UNL1        0.0377
     42 H          -3.3942   -1.2375    1.7198 H       1  UNL1        0.0377
     43 H          -3.4521   -0.7975   -3.2405 H       1  UNL1        0.1921
     44 H          -6.3624    2.4021   -1.8621 H       1  UNL1        0.0625
     45 H          -6.9155    3.3944    0.2795 H       1  UNL1        0.0618
     46 H          -5.7704    2.6494    2.2702 H       1  UNL1        0.0618
     47 H          -4.1047    0.9442    2.1219 H       1  UNL1        0.0624
     48 H          -0.0982   -0.2457    0.8708 H       1  UNL1        0.0639
@<TRIPOS>BOND
     1     1     2    2
     2     2     3    1
     3     2    13   am
     4     3     4    2
     5     4     5    1
     6     4    11    1
     7     5     6   ar
     8     5    10   ar
     9     6     7   ar
    10     7     8   ar
    11     8     9   ar
    12     9    10   ar
    13    11    12    2
    14    11    13   am
    15    13    14    1
    16    14    15   ar
    17    14    31   ar
    18    15    16   ar
    19    16    17   ar
    20    17    18   ar
    21    18    19    1
    22    18    31   ar
    23    19    20    1
    24    20    21   ar
    25    20    30   ar
    26    21    22   ar
    27    22    23   ar
    28    23    24    2
    29    23    25   ar
    30    25    26   ar
    31    25    30   ar
    32    26    27   ar
    33    27    28   ar
    34    28    29   ar
    35    29    30   ar
    36     3    32    1
    37     6    33    1
    38     7    34    1
    39     8    35    1
    40     9    36    1
    41    10    37    1
    42    15    38    1
    43    16    39    1
    44    17    40    1
    45    19    41    1
    46    19    42    1
    47    22    43    1
    48    26    44    1
    49    27    45    1
    50    28    46    1
    51    29    47    1
    52    31    48    1
@<TRIPOS>MOLECULE
../data/bude_mols_rdkit_confs/molecule_90.pdb
 48 52 0 0 0
SMALL
GASTEIGER

@<TRIPOS>ATOM
      1  O1        -1.9520   -1.9090    2.2570 O.2     1  UNL1       -0.2698
      2  C1        -2.5730   -1.2660    1.3570 C.2     1  UNL1        0.2511
      3  C2        -3.9480   -0.8000    1.3740 C.2     1  UNL1        0.0138
      4  C3        -4.2510   -0.1580    0.2400 C.2     1  UNL1        0.0497
      5  C4        -5.5580    0.4480   -0.0810 C.ar    1  UNL1       -0.0127
      6  C5        -6.5580    0.4160    0.8990 C.ar    1  UNL1       -0.0539
      7  C6        -7.8030    0.9540    0.6730 C.ar    1  UNL1       -0.0612
      8  C7        -8.0700    1.5350   -0.5450 C.ar    1  UNL1       -0.0617
      9  C8        -7.0780    1.5640   -1.5130 C.ar    1  UNL1       -0.0612
     10  C9        -5.8210    1.0190   -1.2780 C.ar    1  UNL1       -0.0539
     11  C10       -3.0400   -0.1880   -0.5740 C.2     1  UNL1        0.2582
     12  O2        -2.9320    0.3230   -1.7280 O.2     1  UNL1       -0.2692
     13  N1        -1.9940   -0.8640    0.0950 N.am    1  UNL1       -0.2028
     14  C11       -0.6440   -1.1370   -0.2960 C.ar    1  UNL1        0.0448
     15  C12       -0.2710   -1.6740   -1.4930 C.ar    1  UNL1       -0.0398
     16  C13        1.0550   -1.9160   -1.7450 C.ar    1  UNL1       -0.0597
     17  C14        2.0220   -1.6160   -0.7830 C.ar    1  UNL1       -0.0581
     18  C15        1.6870   -1.0770    0.4290 C.ar    1  UNL1       -0.0397
     19  C16        2.6560   -0.7870    1.4900 C.3     1  UNL1        0.0172
     20  C17        4.0530   -0.6980    1.0450 C.ar    1  UNL1        0.0736
     21  N2         4.9200   -1.7300    1.3120 N.ar    1  UNL1       -0.1750
     22  N3         6.1860   -1.7010    0.9710 N.ar    1  UNL1       -0.2425
     23  C18        6.7190   -0.6500    0.3290 C.ar    1  UNL1        0.2725
     24  O3         7.9520   -0.6290    0.0000 O.2     1  UNL1       -0.2658
     25  C19        5.9280    0.4380    0.0140 C.ar    1  UNL1        0.0496
     26  C20        6.4700    1.5370   -0.6500 C.ar    1  UNL1       -0.0487
     27  C21        5.6750    2.6150   -0.9570 C.ar    1  UNL1       -0.0610
     28  C22        4.3440    2.5370   -0.5740 C.ar    1  UNL1       -0.0611
     29  C23        3.7980    1.4550    0.0830 C.ar    1  UNL1       -0.0521
     30  C24        4.5970    0.3810    0.3870 C.ar    1  UNL1        0.0106
     31  C25        0.3380   -0.8440    0.6520 C.ar    1  UNL1       -0.0363
     32 H          -4.6045   -0.9448    2.1570 H       1  UNL1        0.0677
     33 H          -6.3558   -0.0214    1.8116 H       1  UNL1        0.0624
     34 H          -8.5275    0.9224    1.4073 H       1  UNL1        0.0618
     35 H          -8.9979    1.9445   -0.7359 H       1  UNL1        0.0618
     36 H          -7.2769    1.9994   -2.4273 H       1  UNL1        0.0618
     37 H          -5.0949    1.0500   -2.0107 H       1  UNL1        0.0624
     38 H          -0.9833   -1.8971   -2.2056 H       1  UNL1        0.0636
     39 H           1.3398   -2.3219   -2.6501 H       1  UNL1        0.0618
     40 H           3.0147   -1.8058   -0.9918 H       1  UNL1        0.0620
     41 H           2.5894   -1.5643    2.2223 H       1  UNL1        0.0377
     42 H           2.4012    0.1791    1.8729 H       1  UNL1        0.0377
     43 H           6.7600   -2.4698    1.1916 H       1  UNL1        0.1921
     44 H           7.4684    1.5412   -0.9111 H       1  UNL1        0.0625
     45 H           6.0496    3.4417   -1.4482 H       1  UNL1        0.0618
     46 H           3.7272    3.3347   -0.7935 H       1  UNL1        0.0618
     47 H           2.7994    1.4525    0.3435 H       1  UNL1        0.0624
     48 H           0.0485   -0.4376    1.5553 H       1  UNL1        0.0639
@<TRIPOS>BOND
     1     1     2    2
     2     2     3    1
     3     2    13   am
     4     3     4    2
     5     4     5    1
     6     4    11    1
     7     5     6   ar
     8     5    10   ar
     9     6     7   ar
    10     7     8   ar
    11     8     9   ar
    12     9    10   ar
    13    11    12    2
    14    11    13   am
    15    13    14    1
    16    14    15   ar
    17    14    31   ar
    18    15    16   ar
    19    16    17   ar
    20    17    18   ar
    21    18    19    1
    22    18    31   ar
    23    19    20    1
    24    20    21   ar
    25    20    30   ar
    26    21    22   ar
    27    22    23   ar
    28    23    24    2
    29    23    25   ar
    30    25    26   ar
    31    25    30   ar
    32    26    27   ar
    33    27    28   ar
    34    28    29   ar
    35    29    30   ar
    36     3    32    1
    37     6    33    1
    38     7    34    1
    39     8    35    1
    40     9    36    1
    41    10    37    1
    42    15    38    1
    43    16    39    1
    44    17    40    1
    45    19    41    1
    46    19    42    1
    47    22    43    1
    48    26    44    1
    49    27    45    1
    50    28    46    1
    51    29    47    1
    52    31    48    1
@<TRIPOS>MOLECULE
../data/bude_mols_rdkit_confs/molecule_90.pdb
 48 52 0 0 0
SMALL
GASTEIGER

@<TRIPOS>ATOM
      1  O1         1.9450   -2.2590    2.6250 O.2     1  UNL1       -0.2698
      2  C1         2.3280   -1.5070    1.6680 C.2     1  UNL1        0.2511
      3  C2         3.5540   -0.7380    1.6770 C.2     1  UNL1        0.0138
      4  C3         3.6610   -0.0590    0.5300 C.2     1  UNL1        0.0497
      5  C4         4.8010    0.8140    0.2440 C.ar    1  UNL1       -0.0127
      6  C5         5.8390    1.0040    1.1280 C.ar    1  UNL1       -0.0539
      7  C6         6.9120    1.8420    0.8240 C.ar    1  UNL1       -0.0612
      8  C7         6.9430    2.5000   -0.3880 C.ar    1  UNL1       -0.0617
      9  C8         5.9200    2.3220   -1.2770 C.ar    1  UNL1       -0.0612
     10  C9         4.8560    1.4790   -0.9520 C.ar    1  UNL1       -0.0539
     11  C10        2.5080   -0.3630   -0.2640 C.2     1  UNL1        0.2582
     12  O2         2.2430    0.0770   -1.4020 O.2     1  UNL1       -0.2692
     13  N1         1.6510   -1.2820    0.4440 N.am    1  UNL1       -0.2028
     14  C11        0.4270   -1.8170    0.0020 C.ar    1  UNL1        0.0448
     15  C12        0.0660   -3.1080    0.2650 C.ar    1  UNL1       -0.0398
     16  C13       -1.1520   -3.6380   -0.1750 C.ar    1  UNL1       -0.0597
     17  C14       -1.9820   -2.8350   -0.8800 C.ar    1  UNL1       -0.0581
     18  C15       -1.6430   -1.5060   -1.1670 C.ar    1  UNL1       -0.0397
     19  C16       -2.6680   -0.7790   -1.9660 C.3     1  UNL1        0.0172
     20  C17       -3.7940   -0.4690   -1.1000 C.ar    1  UNL1        0.0736
     21  N2        -4.8380   -1.3250   -1.1220 N.ar    1  UNL1       -0.1750
     22  N3        -5.8930   -1.2010   -0.3710 N.ar    1  UNL1       -0.2425
     23  C18       -6.0160   -0.1850    0.4970 C.ar    1  UNL1        0.2725
     24  O3        -7.0450   -0.0690    1.2270 O.2     1  UNL1       -0.2658
     25  C19       -5.0020    0.7320    0.5850 C.ar    1  UNL1        0.0496
     26  C20       -5.0950    1.8080    1.4660 C.ar    1  UNL1       -0.0487
     27  C21       -4.0650    2.7200    1.5220 C.ar    1  UNL1       -0.0610
     28  C22       -2.9610    2.5660    0.7140 C.ar    1  UNL1       -0.0611
     29  C23       -2.8830    1.4940   -0.1540 C.ar    1  UNL1       -0.0521
     30  C24       -3.8970    0.5780   -0.2200 C.ar    1  UNL1        0.0106
     31  C25       -0.4630   -1.0330   -0.7260 C.ar    1  UNL1       -0.0363
     32 H           4.2390   -0.7169    2.4486 H       1  UNL1        0.0677
     33 H           5.8230    0.5151    2.0367 H       1  UNL1        0.0624
     34 H           7.6790    1.9691    1.5027 H       1  UNL1        0.0618
     35 H           7.7326    3.1220   -0.6218 H       1  UNL1        0.0618
     36 H           5.9343    2.8098   -2.1864 H       1  UNL1        0.0618
     37 H           4.0897    1.3534   -1.6317 H       1  UNL1        0.0624
     38 H           0.7095   -3.7091    0.8032 H       1  UNL1        0.0636
     39 H          -1.4104   -4.6153    0.0327 H       1  UNL1        0.0618
     40 H          -2.8840   -3.2093   -1.2135 H       1  UNL1        0.0620
     41 H          -2.9958   -1.3942   -2.7778 H       1  UNL1        0.0377
     42 H          -2.2514    0.1233   -2.3625 H       1  UNL1        0.0377
     43 H          -6.6157   -1.8659   -0.4409 H       1  UNL1        0.1921
     44 H          -5.9253    1.9197    2.0687 H       1  UNL1        0.0625
     45 H          -4.1207    3.5205    2.1709 H       1  UNL1        0.0618
     46 H          -2.1911    3.2519    0.7567 H       1  UNL1        0.0618
     47 H          -2.0532    1.3833   -0.7574 H       1  UNL1        0.0624
     48 H          -0.2091   -0.0548   -0.9349 H       1  UNL1        0.0639
@<TRIPOS>BOND
     1     1     2    2
     2     2     3    1
     3     2    13   am
     4     3     4    2
     5     4     5    1
     6     4    11    1
     7     5     6   ar
     8     5    10   ar
     9     6     7   ar
    10     7     8   ar
    11     8     9   ar
    12     9    10   ar
    13    11    12    2
    14    11    13   am
    15    13    14    1
    16    14    15   ar
    17    14    31   ar
    18    15    16   ar
    19    16    17   ar
    20    17    18   ar
    21    18    19    1
    22    18    31   ar
    23    19    20    1
    24    20    21   ar
    25    20    30   ar
    26    21    22   ar
    27    22    23   ar
    28    23    24    2
    29    23    25   ar
    30    25    26   ar
    31    25    30   ar
    32    26    27   ar
    33    27    28   ar
    34    28    29   ar
    35    29    30   ar
    36     3    32    1
    37     6    33    1
    38     7    34    1
    39     8    35    1
    40     9    36    1
    41    10    37    1
    42    15    38    1
    43    16    39    1
    44    17    40    1
    45    19    41    1
    46    19    42    1
    47    22    43    1
    48    26    44    1
    49    27    45    1
    50    28    46    1
    51    29    47    1
    52    31    48    1
@<TRIPOS>MOLECULE
../data/bude_mols_rdkit_confs/molecule_90.pdb
 48 52 0 0 0
SMALL
GASTEIGER

@<TRIPOS>ATOM
      1  O1        -2.1420   -3.4930    0.1220 O.2     1  UNL1       -0.2698
      2  C1        -2.6880   -2.3630    0.1110 C.2     1  UNL1        0.2511
      3  C2        -4.0950   -2.0830   -0.1250 C.2     1  UNL1        0.0138
      4  C3        -4.3340   -0.7720   -0.0650 C.2     1  UNL1        0.0497
      5  C4        -5.6340   -0.1540   -0.2560 C.ar    1  UNL1       -0.0127
      6  C5        -6.7640   -0.9090   -0.5660 C.ar    1  UNL1       -0.0539
      7  C6        -8.0060   -0.3320   -0.7430 C.ar    1  UNL1       -0.0612
      8  C7        -8.1650    1.0310   -0.6160 C.ar    1  UNL1       -0.0617
      9  C8        -7.0780    1.7980   -0.3130 C.ar    1  UNL1       -0.0612
     10  C9        -5.8300    1.2010   -0.1380 C.ar    1  UNL1       -0.0539
     11  C10       -3.0620   -0.1420    0.2160 C.2     1  UNL1        0.2582
     12  O2        -2.8280    1.0810    0.3550 O.2     1  UNL1       -0.2692
     13  N1        -2.0370   -1.1210    0.3270 N.am    1  UNL1       -0.2028
     14  C11       -0.6460   -0.8780    0.5960 C.ar    1  UNL1        0.0448
     15  C12       -0.1640   -1.2360    1.8250 C.ar    1  UNL1       -0.0398
     16  C13        1.1610   -1.0030    2.0840 C.ar    1  UNL1       -0.0597
     17  C14        2.0170   -0.4170    1.1340 C.ar    1  UNL1       -0.0581
     18  C15        1.5410   -0.0610   -0.0890 C.ar    1  UNL1       -0.0397
     19  C16        2.3600    0.5300   -1.1470 C.3     1  UNL1        0.0172
     20  C17        3.5890    1.1890   -0.6720 C.ar    1  UNL1        0.0736
     21  N2         3.5800    2.5240   -0.4520 N.ar    1  UNL1       -0.1750
     22  N3         4.6320    3.1760    0.0010 N.ar    1  UNL1       -0.2425
     23  C18        5.7860    2.5460    0.2730 C.ar    1  UNL1        0.2725
     24  O3         6.8150    3.1090    0.7040 O.2     1  UNL1       -0.2658
     25  C19        5.8340    1.1690    0.0580 C.ar    1  UNL1        0.0496
     26  C20        7.0090    0.4740    0.3100 C.ar    1  UNL1       -0.0487
     27  C21        7.0600   -0.8840    0.0830 C.ar    1  UNL1       -0.0610
     28  C22        5.9430   -1.5490   -0.3950 C.ar    1  UNL1       -0.0611
     29  C23        4.7720   -0.8810   -0.6500 C.ar    1  UNL1       -0.0521
     30  C24        4.7470    0.4880   -0.4120 C.ar    1  UNL1        0.0106
     31  C25        0.1820   -0.3090   -0.3290 C.ar    1  UNL1       -0.0363
     32 H          -4.8117   -2.8012   -0.3134 H       1  UNL1        0.0677
     33 H          -6.6694   -1.9317   -0.6664 H       1  UNL1        0.0624
     34 H          -8.8194   -0.9246   -0.9716 H       1  UNL1        0.0618
     35 H          -9.0920    1.4649   -0.7480 H       1  UNL1        0.0618
     36 H          -7.1795    2.8202   -0.2133 H       1  UNL1        0.0618
     37 H          -5.0214    1.8007    0.0892 H       1  UNL1        0.0624
     38 H          -0.7780   -1.6673    2.5336 H       1  UNL1        0.0636
     39 H           1.5434   -1.2659    3.0058 H       1  UNL1        0.0618
     40 H           3.0097   -0.2567    1.3660 H       1  UNL1        0.0620
     41 H           1.7677    1.2580   -1.6609 H       1  UNL1        0.0377
     42 H           2.6713   -0.2766   -1.7773 H       1  UNL1        0.0377
     43 H           4.5702    4.1482    0.1433 H       1  UNL1        0.1921
     44 H           7.8400    0.9720    0.6655 H       1  UNL1        0.0625
     45 H           7.9307   -1.4058    0.2692 H       1  UNL1        0.0618
     46 H           5.9924   -2.5661   -0.5625 H       1  UNL1        0.0618
     47 H           3.9399   -1.3772   -1.0057 H       1  UNL1        0.0624
     48 H          -0.2108   -0.0495   -1.2474 H       1  UNL1        0.0639
@<TRIPOS>BOND
     1     1     2    2
     2     2     3    1
     3     2    13   am
     4     3     4    2
     5     4     5    1
     6     4    11    1
     7     5     6   ar
     8     5    10   ar
     9     6     7   ar
    10     7     8   ar
    11     8     9   ar
    12     9    10   ar
    13    11    12    2
    14    11    13   am
    15    13    14    1
    16    14    15   ar
    17    14    31   ar
    18    15    16   ar
    19    16    17   ar
    20    17    18   ar
    21    18    19    1
    22    18    31   ar
    23    19    20    1
    24    20    21   ar
    25    20    30   ar
    26    21    22   ar
    27    22    23   ar
    28    23    24    2
    29    23    25   ar
    30    25    26   ar
    31    25    30   ar
    32    26    27   ar
    33    27    28   ar
    34    28    29   ar
    35    29    30   ar
    36     3    32    1
    37     6    33    1
    38     7    34    1
    39     8    35    1
    40     9    36    1
    41    10    37    1
    42    15    38    1
    43    16    39    1
    44    17    40    1
    45    19    41    1
    46    19    42    1
    47    22    43    1
    48    26    44    1
    49    27    45    1
    50    28    46    1
    51    29    47    1
    52    31    48    1
@<TRIPOS>MOLECULE
../data/bude_mols_rdkit_confs/molecule_90.pdb
 48 52 0 0 0
SMALL
GASTEIGER

@<TRIPOS>ATOM
      1  O1        -0.8170    1.0900   -1.8430 O.2     1  UNL1       -0.2698
      2  C1        -1.8110    0.6280   -1.2260 C.2     1  UNL1        0.2511
      3  C2        -3.2300    0.6720   -1.5770 C.2     1  UNL1        0.0138
      4  C3        -3.9610    0.0610   -0.6480 C.2     1  UNL1        0.0497
      5  C4        -5.4110   -0.0660   -0.7040 C.ar    1  UNL1       -0.0127
      6  C5        -6.1300    0.4720   -1.7780 C.ar    1  UNL1       -0.0539
      7  C6        -7.5070    0.3580   -1.8480 C.ar    1  UNL1       -0.0612
      8  C7        -8.2210   -0.2910   -0.8590 C.ar    1  UNL1       -0.0617
      9  C8        -7.5150   -0.8170    0.1920 C.ar    1  UNL1       -0.0612
     10  C9        -6.1430   -0.7070    0.2670 C.ar    1  UNL1       -0.0539
     11  C10       -3.0270   -0.4130    0.3630 C.2     1  UNL1        0.2582
     12  O2        -3.3440   -1.0410    1.4020 O.2     1  UNL1       -0.2692
     13  N1        -1.6840   -0.0610    0.0060 N.am    1  UNL1       -0.2028
     14  C11       -0.5430   -0.3770    0.7850 C.ar    1  UNL1        0.0448
     15  C12       -0.4180   -1.5420    1.5040 C.ar    1  UNL1       -0.0398
     16  C13        0.6860   -1.8420    2.2620 C.ar    1  UNL1       -0.0597
     17  C14        1.7560   -0.9330    2.3260 C.ar    1  UNL1       -0.0581
     18  C15        1.6670    0.2320    1.6260 C.ar    1  UNL1       -0.0397
     19  C16        2.7460    1.2420    1.6270 C.3     1  UNL1        0.0172
     20  C17        3.5600    1.2560    0.3850 C.ar    1  UNL1        0.0736
     21  N2         3.1940    2.1040   -0.6350 N.ar    1  UNL1       -0.1750
     22  N3         3.8130    2.1460   -1.7920 N.ar    1  UNL1       -0.2425
     23  C18        4.8560    1.3480   -2.0480 C.ar    1  UNL1        0.2725
     24  O3         5.4650    1.3750   -3.1620 O.2     1  UNL1       -0.2658
     25  C19        5.3020    0.4640   -1.0930 C.ar    1  UNL1        0.0496
     26  C20        6.3900   -0.3620   -1.3210 C.ar    1  UNL1       -0.0487
     27  C21        6.8220   -1.2200   -0.3390 C.ar    1  UNL1       -0.0610
     28  C22        6.1500   -1.2430    0.8800 C.ar    1  UNL1       -0.0611
     29  C23        5.0670   -0.4280    1.1200 C.ar    1  UNL1       -0.0521
     30  C24        4.6300    0.4360    0.1300 C.ar    1  UNL1        0.0106
     31  C25        0.5150    0.4970    0.8620 C.ar    1  UNL1       -0.0363
     32 H          -3.6115    1.1154   -2.4272 H       1  UNL1        0.0677
     33 H          -5.6235    0.9627   -2.5314 H       1  UNL1        0.0624
     34 H          -8.0094    0.7646   -2.6525 H       1  UNL1        0.0618
     35 H          -9.2482   -0.3767   -0.9096 H       1  UNL1        0.0618
     36 H          -8.0229   -1.3070    0.9450 H       1  UNL1        0.0618
     37 H          -5.6510   -1.1179    1.0758 H       1  UNL1        0.0624
     38 H          -1.1919   -2.2240    1.4722 H       1  UNL1        0.0636
     39 H           0.7303   -2.7317    2.7830 H       1  UNL1        0.0618
     40 H           2.5926   -1.1441    2.8922 H       1  UNL1        0.0620
     41 H           3.3955    1.0399    2.4529 H       1  UNL1        0.0377
     42 H           2.2742    2.1996    1.6993 H       1  UNL1        0.0377
     43 H           3.5044    2.7755   -2.4832 H       1  UNL1        0.1921
     44 H           6.8771   -0.3329   -2.2303 H       1  UNL1        0.0625
     45 H           7.6322   -1.8380   -0.5024 H       1  UNL1        0.0618
     46 H           6.4712   -1.8858    1.6207 H       1  UNL1        0.0618
     47 H           4.5841   -0.4606    2.0314 H       1  UNL1        0.0624
     48 H           0.4625    1.3844    0.3378 H       1  UNL1        0.0639
@<TRIPOS>BOND
     1     1     2    2
     2     2     3    1
     3     2    13   am
     4     3     4    2
     5     4     5    1
     6     4    11    1
     7     5     6   ar
     8     5    10   ar
     9     6     7   ar
    10     7     8   ar
    11     8     9   ar
    12     9    10   ar
    13    11    12    2
    14    11    13   am
    15    13    14    1
    16    14    15   ar
    17    14    31   ar
    18    15    16   ar
    19    16    17   ar
    20    17    18   ar
    21    18    19    1
    22    18    31   ar
    23    19    20    1
    24    20    21   ar
    25    20    30   ar
    26    21    22   ar
    27    22    23   ar
    28    23    24    2
    29    23    25   ar
    30    25    26   ar
    31    25    30   ar
    32    26    27   ar
    33    27    28   ar
    34    28    29   ar
    35    29    30   ar
    36     3    32    1
    37     6    33    1
    38     7    34    1
    39     8    35    1
    40     9    36    1
    41    10    37    1
    42    15    38    1
    43    16    39    1
    44    17    40    1
    45    19    41    1
    46    19    42    1
    47    22    43    1
    48    26    44    1
    49    27    45    1
    50    28    46    1
    51    29    47    1
    52    31    48    1
@<TRIPOS>MOLECULE
../data/bude_mols_rdkit_confs/molecule_90.pdb
 48 52 0 0 0
SMALL
GASTEIGER

@<TRIPOS>ATOM
      1  O1         0.5150    1.6600    1.2280 O.2     1  UNL1       -0.2698
      2  C1         1.5950    1.1400    0.8050 C.2     1  UNL1        0.2511
      3  C2         2.9630    1.4650    1.1100 C.2     1  UNL1        0.0138
      4  C3         3.8190    0.6900    0.4650 C.2     1  UNL1        0.0497
      5  C4         5.2900    0.7390    0.5360 C.ar    1  UNL1       -0.0127
      6  C5         5.9050    1.6760    1.3470 C.ar    1  UNL1       -0.0539
      7  C6         7.2760    1.7570    1.4430 C.ar    1  UNL1       -0.0612
      8  C7         8.0830    0.8930    0.7210 C.ar    1  UNL1       -0.0617
      9  C8         7.4430   -0.0250   -0.0740 C.ar    1  UNL1       -0.0612
     10  C9         6.0700   -0.1210   -0.1830 C.ar    1  UNL1       -0.0539
     11  C10        3.0180   -0.2150   -0.3250 C.2     1  UNL1        0.2582
     12  O2         3.3940   -1.1280   -1.0980 O.2     1  UNL1       -0.2692
     13  N1         1.6190    0.0620   -0.1170 N.am    1  UNL1       -0.2028
     14  C11        0.5260   -0.6180   -0.7230 C.ar    1  UNL1        0.0448
     15  C12        0.4820   -0.8630   -2.0890 C.ar    1  UNL1       -0.0398
     16  C13       -0.5680   -1.5120   -2.6840 C.ar    1  UNL1       -0.0597
     17  C14       -1.6310   -1.9480   -1.9240 C.ar    1  UNL1       -0.0581
     18  C15       -1.6300   -1.7300   -0.5800 C.ar    1  UNL1       -0.0397
     19  C16       -2.7650   -2.1630    0.2600 C.3     1  UNL1        0.0172
     20  C17       -3.5430   -1.1050    0.8780 C.ar    1  UNL1        0.0736
     21  N2        -3.2530   -0.7850    2.1670 N.ar    1  UNL1       -0.1750
     22  N3        -3.8650    0.1840    2.8140 N.ar    1  UNL1       -0.2425
     23  C18       -4.8290    0.9440    2.2640 C.ar    1  UNL1        0.2725
     24  O3        -5.4120    1.8730    2.8890 O.2     1  UNL1       -0.2658
     25  C19       -5.1740    0.6670    0.9460 C.ar    1  UNL1        0.0496
     26  C20       -6.1630    1.4210    0.3590 C.ar    1  UNL1       -0.0487
     27  C21       -6.4930    1.1190   -0.9440 C.ar    1  UNL1       -0.0610
     28  C22       -5.8640    0.1020   -1.6430 C.ar    1  UNL1       -0.0611
     29  C23       -4.8740   -0.6440   -1.0400 C.ar    1  UNL1       -0.0521
     30  C24       -4.5160   -0.3710    0.2620 C.ar    1  UNL1        0.0106
     31  C25       -0.5590   -1.0740   -0.0110 C.ar    1  UNL1       -0.0363
     32 H           3.2443    2.2171    1.7582 H       1  UNL1        0.0677
     33 H           5.3223    2.3297    1.8930 H       1  UNL1        0.0624
     34 H           7.7056    2.4664    2.0572 H       1  UNL1        0.0618
     35 H           9.1125    0.9372    0.7779 H       1  UNL1        0.0618
     36 H           8.0214   -0.6811   -0.6217 H       1  UNL1        0.0618
     37 H           5.6406   -0.8304   -0.7972 H       1  UNL1        0.0624
     38 H           1.2681   -0.5450   -2.6772 H       1  UNL1        0.0636
     39 H          -0.5624   -1.6744   -3.7031 H       1  UNL1        0.0618
     40 H          -2.4229   -2.4366   -2.3704 H       1  UNL1        0.0620
     41 H          -2.3758   -2.7816    1.0415 H       1  UNL1        0.0377
     42 H          -3.4383   -2.6644   -0.4034 H       1  UNL1        0.0377
     43 H          -3.6044    0.3614    3.7467 H       1  UNL1        0.1921
     44 H          -6.6374    2.1802    0.8724 H       1  UNL1        0.0625
     45 H          -7.2309    1.6669   -1.4133 H       1  UNL1        0.0618
     46 H          -6.1373   -0.0978   -2.6179 H       1  UNL1        0.0618
     47 H          -4.4044   -1.4016   -1.5602 H       1  UNL1        0.0624
     48 H          -0.5722   -0.9159    1.0087 H       1  UNL1        0.0639
@<TRIPOS>BOND
     1     1     2    2
     2     2     3    1
     3     2    13   am
     4     3     4    2
     5     4     5    1
     6     4    11    1
     7     5     6   ar
     8     5    10   ar
     9     6     7   ar
    10     7     8   ar
    11     8     9   ar
    12     9    10   ar
    13    11    12    2
    14    11    13   am
    15    13    14    1
    16    14    15   ar
    17    14    31   ar
    18    15    16   ar
    19    16    17   ar
    20    17    18   ar
    21    18    19    1
    22    18    31   ar
    23    19    20    1
    24    20    21   ar
    25    20    30   ar
    26    21    22   ar
    27    22    23   ar
    28    23    24    2
    29    23    25   ar
    30    25    26   ar
    31    25    30   ar
    32    26    27   ar
    33    27    28   ar
    34    28    29   ar
    35    29    30   ar
    36     3    32    1
    37     6    33    1
    38     7    34    1
    39     8    35    1
    40     9    36    1
    41    10    37    1
    42    15    38    1
    43    16    39    1
    44    17    40    1
    45    19    41    1
    46    19    42    1
    47    22    43    1
    48    26    44    1
    49    27    45    1
    50    28    46    1
    51    29    47    1
    52    31    48    1
@<TRIPOS>MOLECULE
../data/bude_mols_rdkit_confs/molecule_90.pdb
 48 52 0 0 0
SMALL
GASTEIGER

@<TRIPOS>ATOM
      1  O1         1.1120   -1.5650   -1.7960 O.2     1  UNL1       -0.2698
      2  C1         2.0290   -0.9600   -1.1910 C.2     1  UNL1        0.2511
      3  C2         3.4340   -1.3840   -1.3050 C.2     1  UNL1        0.0138
      4  C3         4.1540   -0.5510   -0.5560 C.2     1  UNL1        0.0497
      5  C4         5.6090   -0.6720   -0.4290 C.ar    1  UNL1       -0.0127
      6  C5         6.3430    0.1920    0.3520 C.ar    1  UNL1       -0.0539
      7  C6         7.7200    0.0590    0.4500 C.ar    1  UNL1       -0.0612
      8  C7         8.4020   -0.9270   -0.2200 C.ar    1  UNL1       -0.0617
      9  C8         7.6990   -1.7880   -0.9960 C.ar    1  UNL1       -0.0612
     10  C9         6.3160   -1.6570   -1.0960 C.ar    1  UNL1       -0.0539
     11  C10        3.2920    0.4370    0.0740 C.2     1  UNL1        0.2582
     12  O2         3.6510    1.3660    0.8430 O.2     1  UNL1       -0.2692
     13  N1         1.9490    0.1520   -0.3490 N.am    1  UNL1       -0.2028
     14  C11        0.8150    0.9080    0.0470 C.ar    1  UNL1        0.0448
     15  C12        0.8710    2.3100   -0.0780 C.ar    1  UNL1       -0.0398
     16  C13       -0.2050    3.0840    0.2900 C.ar    1  UNL1       -0.0597
     17  C14       -1.3700    2.4900    0.7940 C.ar    1  UNL1       -0.0581
     18  C15       -1.4450    1.1190    0.9240 C.ar    1  UNL1       -0.0397
     19  C16       -2.6820    0.4930    1.4610 C.3     1  UNL1        0.0172
     20  C17       -3.7260    0.3490    0.4710 C.ar    1  UNL1        0.0736
     21  N2        -3.5230    0.8050   -0.7770 N.ar    1  UNL1       -0.1750
     22  N3        -4.4580    0.7070   -1.7220 N.ar    1  UNL1       -0.2425
     23  C18       -5.6630    0.1520   -1.5030 C.ar    1  UNL1        0.2725
     24  O3        -6.5560    0.0500   -2.3760 O.2     1  UNL1       -0.2658
     25  C19       -5.9360   -0.3380   -0.2360 C.ar    1  UNL1        0.0496
     26  C20       -7.1490   -0.9210    0.0630 C.ar    1  UNL1       -0.0487
     27  C21       -7.3860   -1.3980    1.3340 C.ar    1  UNL1       -0.0610
     28  C22       -6.4160   -1.2990    2.3220 C.ar    1  UNL1       -0.0611
     29  C23       -5.2160   -0.7120    1.9890 C.ar    1  UNL1       -0.0521
     30  C24       -4.9510   -0.2260    0.7270 C.ar    1  UNL1        0.0106
     31  C25       -0.3400    0.4010    0.5400 C.ar    1  UNL1       -0.0363
     32 H           3.7930   -2.1765   -1.8601 H       1  UNL1        0.0677
     33 H           5.8641    0.9457    0.8694 H       1  UNL1        0.0624
     34 H           8.2468    0.7193    1.0429 H       1  UNL1        0.0618
     35 H           9.4271   -1.0106   -0.1346 H       1  UNL1        0.0618
     36 H           8.1868   -2.5378   -1.5108 H       1  UNL1        0.0618
     37 H           5.7975   -2.3214   -1.6916 H       1  UNL1        0.0624
     38 H           1.7237    2.7588   -0.4476 H       1  UNL1        0.0636
     39 H          -0.1539    4.1103    0.1942 H       1  UNL1        0.0618
     40 H          -2.1721    3.0787    1.0680 H       1  UNL1        0.0620
     41 H          -3.0522    1.1023    2.2589 H       1  UNL1        0.0377
     42 H          -2.4215   -0.4905    1.7924 H       1  UNL1        0.0377
     43 H          -4.2574    1.0565   -2.6202 H       1  UNL1        0.1921
     44 H          -7.8779   -1.0000   -0.6633 H       1  UNL1        0.0625
     45 H          -8.2952   -1.8339    1.5538 H       1  UNL1        0.0618
     46 H          -6.5888   -1.6540    3.2755 H       1  UNL1        0.0618
     47 H          -4.4855   -0.6328    2.7137 H       1  UNL1        0.0624
     48 H          -0.3946   -0.6250    0.6363 H       1  UNL1        0.0639
@<TRIPOS>BOND
     1     1     2    2
     2     2     3    1
     3     2    13   am
     4     3     4    2
     5     4     5    1
     6     4    11    1
     7     5     6   ar
     8     5    10   ar
     9     6     7   ar
    10     7     8   ar
    11     8     9   ar
    12     9    10   ar
    13    11    12    2
    14    11    13   am
    15    13    14    1
    16    14    15   ar
    17    14    31   ar
    18    15    16   ar
    19    16    17   ar
    20    17    18   ar
    21    18    19    1
    22    18    31   ar
    23    19    20    1
    24    20    21   ar
    25    20    30   ar
    26    21    22   ar
    27    22    23   ar
    28    23    24    2
    29    23    25   ar
    30    25    26   ar
    31    25    30   ar
    32    26    27   ar
    33    27    28   ar
    34    28    29   ar
    35    29    30   ar
    36     3    32    1
    37     6    33    1
    38     7    34    1
    39     8    35    1
    40     9    36    1
    41    10    37    1
    42    15    38    1
    43    16    39    1
    44    17    40    1
    45    19    41    1
    46    19    42    1
    47    22    43    1
    48    26    44    1
    49    27    45    1
    50    28    46    1
    51    29    47    1
    52    31    48    1
@<TRIPOS>MOLECULE
../data/bude_mols_rdkit_confs/molecule_90.pdb
 48 52 0 0 0
SMALL
GASTEIGER

@<TRIPOS>ATOM
      1  O1         2.2010   -1.2950    2.7900 O.2     1  UNL1       -0.2698
      2  C1         2.7410   -0.7010    1.8070 C.2     1  UNL1        0.2511
      3  C2         4.1650   -0.7040    1.4790 C.2     1  UNL1        0.0138
      4  C3         4.4010    0.0130    0.3880 C.2     1  UNL1        0.0497
      5  C4         5.7240    0.2090   -0.2040 C.ar    1  UNL1       -0.0127
      6  C5         5.9260    0.9540   -1.3420 C.ar    1  UNL1       -0.0539
      7  C6         7.1730    1.1520   -1.9180 C.ar    1  UNL1       -0.0612
      8  C7         8.2720    0.5570   -1.2990 C.ar    1  UNL1       -0.0617
      9  C8         8.1130   -0.1950   -0.1600 C.ar    1  UNL1       -0.0612
     10  C9         6.8570   -0.3570    0.3660 C.ar    1  UNL1       -0.0539
     11  C10        3.1230    0.5300   -0.0600 C.2     1  UNL1        0.2582
     12  O2         2.9130    1.2580   -1.0620 O.2     1  UNL1       -0.2692
     13  N1         2.0800    0.0830    0.8280 N.am    1  UNL1       -0.2028
     14  C11        0.6950    0.3790    0.7130 C.ar    1  UNL1        0.0448
     15  C12        0.2490    1.6540    0.9310 C.ar    1  UNL1       -0.0398
     16  C13       -1.0870    1.9610    0.8130 C.ar    1  UNL1       -0.0597
     17  C14       -1.9880    0.9580    0.4670 C.ar    1  UNL1       -0.0581
     18  C15       -1.5910   -0.3230    0.2410 C.ar    1  UNL1       -0.0397
     19  C16       -2.4520   -1.4570   -0.1630 C.3     1  UNL1        0.0172
     20  C17       -3.8230   -1.3840    0.3450 C.ar    1  UNL1        0.0736
     21  N2        -4.2040   -1.9920    1.4870 N.ar    1  UNL1       -0.1750
     22  N3        -5.4240   -1.9070    1.9610 N.ar    1  UNL1       -0.2425
     23  C18       -6.3710   -1.1970    1.3190 C.ar    1  UNL1        0.2725
     24  O3        -7.5560   -1.1010    1.7620 O.2     1  UNL1       -0.2658
     25  C19       -6.0750   -0.5400    0.1420 C.ar    1  UNL1        0.0496
     26  C20       -7.0160    0.1800   -0.5550 C.ar    1  UNL1       -0.0487
     27  C21       -6.7070    0.8180   -1.7500 C.ar    1  UNL1       -0.0610
     28  C22       -5.4420    0.7350   -2.2510 C.ar    1  UNL1       -0.0611
     29  C23       -4.5070    0.0090   -1.5400 C.ar    1  UNL1       -0.0521
     30  C24       -4.7750   -0.6430   -0.3430 C.ar    1  UNL1        0.0106
     31  C25       -0.2250   -0.5900    0.3730 C.ar    1  UNL1       -0.0363
     32 H           4.8898   -1.1976    2.0230 H       1  UNL1        0.0677
     33 H           5.1058    1.3895   -1.7922 H       1  UNL1        0.0624
     34 H           7.2831    1.7189   -2.7733 H       1  UNL1        0.0618
     35 H           9.2143    0.6828   -1.7005 H       1  UNL1        0.0618
     36 H           8.9296   -0.6329    0.2944 H       1  UNL1        0.0618
     37 H           6.7491   -0.9236    1.2218 H       1  UNL1        0.0624
     38 H           0.9220    2.3934    1.1867 H       1  UNL1        0.0636
     39 H          -1.4175    2.9244    0.9792 H       1  UNL1        0.0618
     40 H          -2.9888    1.1939    0.3792 H       1  UNL1        0.0620
     41 H          -2.0080   -2.3605    0.1996 H       1  UNL1        0.0377
     42 H          -2.5189   -1.4255   -1.2304 H       1  UNL1        0.0377
     43 H          -5.6510   -2.3698    2.7998 H       1  UNL1        0.1921
     44 H          -7.9756    0.2483   -0.1815 H       1  UNL1        0.0625
     45 H          -7.4312    1.3518   -2.2555 H       1  UNL1        0.0618
     46 H          -5.1902    1.2015   -3.1365 H       1  UNL1        0.0618
     47 H          -3.5501   -0.0530   -1.9214 H       1  UNL1        0.0624
     48 H           0.1087   -1.5527    0.2091 H       1  UNL1        0.0639
@<TRIPOS>BOND
     1     1     2    2
     2     2     3    1
     3     2    13   am
     4     3     4    2
     5     4     5    1
     6     4    11    1
     7     5     6   ar
     8     5    10   ar
     9     6     7   ar
    10     7     8   ar
    11     8     9   ar
    12     9    10   ar
    13    11    12    2
    14    11    13   am
    15    13    14    1
    16    14    15   ar
    17    14    31   ar
    18    15    16   ar
    19    16    17   ar
    20    17    18   ar
    21    18    19    1
    22    18    31   ar
    23    19    20    1
    24    20    21   ar
    25    20    30   ar
    26    21    22   ar
    27    22    23   ar
    28    23    24    2
    29    23    25   ar
    30    25    26   ar
    31    25    30   ar
    32    26    27   ar
    33    27    28   ar
    34    28    29   ar
    35    29    30   ar
    36     3    32    1
    37     6    33    1
    38     7    34    1
    39     8    35    1
    40     9    36    1
    41    10    37    1
    42    15    38    1
    43    16    39    1
    44    17    40    1
    45    19    41    1
    46    19    42    1
    47    22    43    1
    48    26    44    1
    49    27    45    1
    50    28    46    1
    51    29    47    1
    52    31    48    1
@<TRIPOS>MOLECULE
../data/bude_mols_rdkit_confs/molecule_90.pdb
 48 52 0 0 0
SMALL
GASTEIGER

@<TRIPOS>ATOM
      1  O1         1.4460   -2.1470    1.6710 O.2     1  UNL1       -0.2698
      2  C1         2.2210   -1.3800    1.0470 C.2     1  UNL1        0.2511
      3  C2         3.5670   -1.0310    1.4900 C.2     1  UNL1        0.0138
      4  C3         4.0850   -0.2100    0.5910 C.2     1  UNL1        0.0497
      5  C4         5.4100    0.3620    0.6730 C.ar    1  UNL1       -0.0127
      6  C5         5.9170    1.2130   -0.2800 C.ar    1  UNL1       -0.0539
      7  C6         7.1950    1.7640   -0.2010 C.ar    1  UNL1       -0.0612
      8  C7         7.9810    1.4300    0.8950 C.ar    1  UNL1       -0.0617
      9  C8         7.5040    0.5790    1.8700 C.ar    1  UNL1       -0.0612
     10  C9         6.2320    0.0580    1.7480 C.ar    1  UNL1       -0.0539
     11  C10        3.1270    0.0260   -0.4780 C.2     1  UNL1        0.2582
     12  O2         3.2250    0.7360   -1.5100 O.2     1  UNL1       -0.2692
     13  N1         1.9390   -0.7260   -0.1780 N.am    1  UNL1       -0.2028
     14  C11        0.7400   -0.8110   -0.9240 C.ar    1  UNL1        0.0448
     15  C12        0.7470   -0.6720   -2.2960 C.ar    1  UNL1       -0.0398
     16  C13       -0.4360   -0.7550   -3.0390 C.ar    1  UNL1       -0.0597
     17  C14       -1.6430   -0.9790   -2.4070 C.ar    1  UNL1       -0.0581
     18  C15       -1.6610   -1.1200   -1.0290 C.ar    1  UNL1       -0.0397
     19  C16       -2.9520   -1.3590   -0.3530 C.3     1  UNL1        0.0172
     20  C17       -3.5480   -0.0460    0.0020 C.ar    1  UNL1        0.0736
     21  N2        -2.9450    1.1260   -0.2810 N.ar    1  UNL1       -0.1750
     22  N3        -3.4890    2.2920    0.0420 N.ar    1  UNL1       -0.2425
     23  C18       -4.6790    2.2940    0.6700 C.ar    1  UNL1        0.2725
     24  O3        -5.2150    3.3880    0.9870 O.2     1  UNL1       -0.2658
     25  C19       -5.3490    1.1260    0.9890 C.ar    1  UNL1        0.0496
     26  C20       -6.5580    1.1090    1.6270 C.ar    1  UNL1       -0.0487
     27  C21       -7.1760   -0.0890    1.9180 C.ar    1  UNL1       -0.0610
     28  C22       -6.6130   -1.3170    1.5830 C.ar    1  UNL1       -0.0611
     29  C23       -5.3940   -1.2740    0.9400 C.ar    1  UNL1       -0.0521
     30  C24       -4.7820   -0.0860    0.6530 C.ar    1  UNL1        0.0106
     31  C25       -0.4780   -1.0340   -0.3160 C.ar    1  UNL1       -0.0363
     32 H           4.0310   -1.3644    2.3494 H       1  UNL1        0.0677
     33 H           5.3251    1.4548   -1.0901 H       1  UNL1        0.0624
     34 H           7.5464    2.4002   -0.9337 H       1  UNL1        0.0618
     35 H           8.9315    1.8227    0.9804 H       1  UNL1        0.0618
     36 H           8.0921    0.3345    2.6821 H       1  UNL1        0.0618
     37 H           5.8809   -0.5786    2.4805 H       1  UNL1        0.0624
     38 H           1.6408   -0.5037   -2.7836 H       1  UNL1        0.0636
     39 H          -0.4061   -0.6482   -4.0650 H       1  UNL1        0.0618
     40 H          -2.5171   -1.0404   -2.9521 H       1  UNL1        0.0620
     41 H          -2.7935   -1.9352    0.5345 H       1  UNL1        0.0377
     42 H          -3.6112   -1.8976   -1.0013 H       1  UNL1        0.0377
     43 H          -3.0321    3.1372   -0.1730 H       1  UNL1        0.1921
     44 H          -7.0107    1.9976    1.8923 H       1  UNL1        0.0625
     45 H          -8.0878   -0.0745    2.4011 H       1  UNL1        0.0618
     46 H          -7.0816   -2.2096    1.8035 H       1  UNL1        0.0618
     47 H          -4.9340   -2.1574    0.6697 H       1  UNL1        0.0624
     48 H          -0.5082   -1.1408    0.7100 H       1  UNL1        0.0639
@<TRIPOS>BOND
     1     1     2    2
     2     2     3    1
     3     2    13   am
     4     3     4    2
     5     4     5    1
     6     4    11    1
     7     5     6   ar
     8     5    10   ar
     9     6     7   ar
    10     7     8   ar
    11     8     9   ar
    12     9    10   ar
    13    11    12    2
    14    11    13   am
    15    13    14    1
    16    14    15   ar
    17    14    31   ar
    18    15    16   ar
    19    16    17   ar
    20    17    18   ar
    21    18    19    1
    22    18    31   ar
    23    19    20    1
    24    20    21   ar
    25    20    30   ar
    26    21    22   ar
    27    22    23   ar
    28    23    24    2
    29    23    25   ar
    30    25    26   ar
    31    25    30   ar
    32    26    27   ar
    33    27    28   ar
    34    28    29   ar
    35    29    30   ar
    36     3    32    1
    37     6    33    1
    38     7    34    1
    39     8    35    1
    40     9    36    1
    41    10    37    1
    42    15    38    1
    43    16    39    1
    44    17    40    1
    45    19    41    1
    46    19    42    1
    47    22    43    1
    48    26    44    1
    49    27    45    1
    50    28    46    1
    51    29    47    1
    52    31    48    1
@<TRIPOS>MOLECULE
../data/bude_mols_rdkit_confs/molecule_90.pdb
 48 52 0 0 0
SMALL
GASTEIGER

@<TRIPOS>ATOM
      1  O1         1.8490    1.6520    2.2280 O.2     1  UNL1       -0.2698
      2  C1         2.5630    1.0010    1.4130 C.2     1  UNL1        0.2511
      3  C2         4.0100    1.2320    1.2450 C.2     1  UNL1        0.0138
      4  C3         4.4930    0.4020    0.3210 C.2     1  UNL1        0.0497
      5  C4         5.8860    0.3410   -0.1110 C.ar    1  UNL1       -0.0127
      6  C5         6.3080   -0.5510   -1.0730 C.ar    1  UNL1       -0.0539
      7  C6         7.6350   -0.6010   -1.4750 C.ar    1  UNL1       -0.0612
      8  C7         8.5630    0.2580   -0.9040 C.ar    1  UNL1       -0.0617
      9  C8         8.1730    1.1580    0.0580 C.ar    1  UNL1       -0.0612
     10  C9         6.8210    1.1710    0.4300 C.ar    1  UNL1       -0.0539
     11  C10        3.3870   -0.4120   -0.1590 C.2     1  UNL1        0.2582
     12  O2         3.3970   -1.3080   -1.0190 O.2     1  UNL1       -0.2692
     13  N1         2.1820   -0.0290    0.5330 N.am    1  UNL1       -0.2028
     14  C11        0.9010   -0.6300    0.3740 C.ar    1  UNL1        0.0448
     15  C12        0.8600   -2.0330    0.2940 C.ar    1  UNL1       -0.0398
     16  C13       -0.3110   -2.6990    0.1510 C.ar    1  UNL1       -0.0597
     17  C14       -1.5290   -2.0290    0.0750 C.ar    1  UNL1       -0.0581
     18  C15       -1.5200   -0.6570    0.1480 C.ar    1  UNL1       -0.0397
     19  C16       -2.6930    0.2110    0.0830 C.3     1  UNL1        0.0172
     20  C17       -4.0000   -0.4100   -0.0310 C.ar    1  UNL1        0.0736
     21  N2        -4.3020   -1.7080    0.0000 N.ar    1  UNL1       -0.1750
     22  N3        -5.5080   -2.1920   -0.1170 N.ar    1  UNL1       -0.2425
     23  C18       -6.5930   -1.4140   -0.2860 C.ar    1  UNL1        0.2725
     24  O3        -7.7520   -1.8690   -0.4000 O.2     1  UNL1       -0.2658
     25  C19       -6.3770   -0.0450   -0.3310 C.ar    1  UNL1        0.0496
     26  C20       -7.4590    0.8000   -0.5030 C.ar    1  UNL1       -0.0487
     27  C21       -7.2920    2.1500   -0.5530 C.ar    1  UNL1       -0.0610
     28  C22       -6.0310    2.6850   -0.4310 C.ar    1  UNL1       -0.0611
     29  C23       -4.9450    1.8220   -0.2570 C.ar    1  UNL1       -0.0521
     30  C24       -5.1090    0.4350   -0.2060 C.ar    1  UNL1        0.0106
     31  C25       -0.2910    0.0290    0.2990 C.ar    1  UNL1       -0.0363
     32 H           4.5644    1.9305    1.7643 H       1  UNL1        0.0677
     33 H           5.6242   -1.1938   -1.5024 H       1  UNL1        0.0624
     34 H           7.9312   -1.2759   -2.1974 H       1  UNL1        0.0618
     35 H           9.5500    0.2207   -1.2031 H       1  UNL1        0.0618
     36 H           8.8520    1.8026    0.4921 H       1  UNL1        0.0618
     37 H           6.5186    1.8444    1.1512 H       1  UNL1        0.0624
     38 H           1.7414   -2.5673    0.3453 H       1  UNL1        0.0636
     39 H          -0.2999   -3.7295    0.0970 H       1  UNL1        0.0618
     40 H          -2.4141   -2.5485   -0.0332 H       1  UNL1        0.0620
     41 H          -2.5693    0.8484   -0.7675 H       1  UNL1        0.0377
     42 H          -2.7139    0.7003    1.0343 H       1  UNL1        0.0377
     43 H          -5.6295   -3.1683   -0.0801 H       1  UNL1        0.1921
     44 H          -8.4063    0.4010   -0.5947 H       1  UNL1        0.0625
     45 H          -8.1077    2.7690   -0.6818 H       1  UNL1        0.0618
     46 H          -5.8888    3.7065   -0.4673 H       1  UNL1        0.0618
     47 H          -3.9972    2.2196   -0.1638 H       1  UNL1        0.0624
     48 H          -0.2970    1.0595    0.3540 H       1  UNL1        0.0639
@<TRIPOS>BOND
     1     1     2    2
     2     2     3    1
     3     2    13   am
     4     3     4    2
     5     4     5    1
     6     4    11    1
     7     5     6   ar
     8     5    10   ar
     9     6     7   ar
    10     7     8   ar
    11     8     9   ar
    12     9    10   ar
    13    11    12    2
    14    11    13   am
    15    13    14    1
    16    14    15   ar
    17    14    31   ar
    18    15    16   ar
    19    16    17   ar
    20    17    18   ar
    21    18    19    1
    22    18    31   ar
    23    19    20    1
    24    20    21   ar
    25    20    30   ar
    26    21    22   ar
    27    22    23   ar
    28    23    24    2
    29    23    25   ar
    30    25    26   ar
    31    25    30   ar
    32    26    27   ar
    33    27    28   ar
    34    28    29   ar
    35    29    30   ar
    36     3    32    1
    37     6    33    1
    38     7    34    1
    39     8    35    1
    40     9    36    1
    41    10    37    1
    42    15    38    1
    43    16    39    1
    44    17    40    1
    45    19    41    1
    46    19    42    1
    47    22    43    1
    48    26    44    1
    49    27    45    1
    50    28    46    1
    51    29    47    1
    52    31    48    1
@<TRIPOS>MOLECULE
../data/bude_mols_rdkit_confs/molecule_90.pdb
 48 52 0 0 0
SMALL
GASTEIGER

@<TRIPOS>ATOM
      1  O1        -0.6360   -1.8310   -0.4560 O.2     1  UNL1       -0.2698
      2  C1        -1.6680   -1.1290   -0.3180 C.2     1  UNL1        0.2511
      3  C2        -3.0590   -1.5390   -0.2130 C.2     1  UNL1        0.0138
      4  C3        -3.8620   -0.4680   -0.0730 C.2     1  UNL1        0.0497
      5  C4        -5.3160   -0.5270    0.0590 C.ar    1  UNL1       -0.0127
      6  C5        -6.0680    0.6160    0.1970 C.ar    1  UNL1       -0.0539
      7  C6        -7.4420    0.5770    0.3240 C.ar    1  UNL1       -0.0612
      8  C7        -8.0830   -0.6290    0.3140 C.ar    1  UNL1       -0.0617
      9  C8        -7.3380   -1.7820    0.1760 C.ar    1  UNL1       -0.0612
     10  C9        -5.9610   -1.7440    0.0490 C.ar    1  UNL1       -0.0539
     11  C10       -2.9800    0.6940   -0.0850 C.2     1  UNL1        0.2582
     12  O2        -3.3390    1.8950    0.0210 O.2     1  UNL1       -0.2692
     13  N1        -1.6140    0.2900   -0.2370 N.am    1  UNL1       -0.2028
     14  C11       -0.4520    1.1260   -0.2930 C.ar    1  UNL1        0.0448
     15  C12       -0.3240    2.1390   -1.2190 C.ar    1  UNL1       -0.0398
     16  C13        0.8010    2.9130   -1.2400 C.ar    1  UNL1       -0.0597
     17  C14        1.8140    2.6870   -0.3390 C.ar    1  UNL1       -0.0581
     18  C15        1.7200    1.6710    0.6130 C.ar    1  UNL1       -0.0397
     19  C16        2.7910    1.4700    1.5700 C.3     1  UNL1        0.0172
     20  C17        4.0580    0.9540    1.0560 C.ar    1  UNL1        0.0736
     21  N2         5.0660    1.8280    0.7780 N.ar    1  UNL1       -0.1750
     22  N3         6.2270    1.4900    0.2850 N.ar    1  UNL1       -0.2425
     23  C18        6.5190    0.2100    0.0070 C.ar    1  UNL1        0.2725
     24  O3         7.6510   -0.1240   -0.4750 O.2     1  UNL1       -0.2658
     25  C19        5.5460   -0.7400    0.2620 C.ar    1  UNL1        0.0496
     26  C20        5.8610   -2.0700   -0.0210 C.ar    1  UNL1       -0.0487
     27  C21        4.9150   -3.0400    0.2330 C.ar    1  UNL1       -0.0610
     28  C22        3.6980   -2.6450    0.7580 C.ar    1  UNL1       -0.0611
     29  C23        3.3770   -1.3370    1.0400 C.ar    1  UNL1       -0.0521
     30  C24        4.3260   -0.3610    0.7840 C.ar    1  UNL1        0.0106
     31  C25        0.5850    0.9220    0.6040 C.ar    1  UNL1       -0.0363
     32 H          -3.3859   -2.5174   -0.2419 H       1  UNL1        0.0677
     33 H          -5.5906    1.5309    0.2059 H       1  UNL1        0.0624
     34 H          -7.9803    1.4516    0.4256 H       1  UNL1        0.0618
     35 H          -9.1096   -0.6771    0.4083 H       1  UNL1        0.0618
     36 H          -7.8196   -2.6947    0.1673 H       1  UNL1        0.0618
     37 H          -5.4225   -2.6185   -0.0522 H       1  UNL1        0.0624
     38 H          -1.0808    2.3131   -1.8987 H       1  UNL1        0.0636
     39 H           0.8908    3.6705   -1.9351 H       1  UNL1        0.0618
     40 H           2.6589    3.2790   -0.3670 H       1  UNL1        0.0620
     41 H           2.4381    0.7801    2.3078 H       1  UNL1        0.0377
     42 H           3.0203    2.4487    1.9368 H       1  UNL1        0.0377
     43 H           6.9007    2.1872    0.1141 H       1  UNL1        0.1921
     44 H           6.7823   -2.3218   -0.4120 H       1  UNL1        0.0625
     45 H           5.1097   -4.0343    0.0367 H       1  UNL1        0.0618
     46 H           2.9909   -3.3721    0.9490 H       1  UNL1        0.0618
     47 H           2.4546   -1.0900    1.4314 H       1  UNL1        0.0624
     48 H           0.4911    0.1648    1.2989 H       1  UNL1        0.0639
@<TRIPOS>BOND
     1     1     2    2
     2     2     3    1
     3     2    13   am
     4     3     4    2
     5     4     5    1
     6     4    11    1
     7     5     6   ar
     8     5    10   ar
     9     6     7   ar
    10     7     8   ar
    11     8     9   ar
    12     9    10   ar
    13    11    12    2
    14    11    13   am
    15    13    14    1
    16    14    15   ar
    17    14    31   ar
    18    15    16   ar
    19    16    17   ar
    20    17    18   ar
    21    18    19    1
    22    18    31   ar
    23    19    20    1
    24    20    21   ar
    25    20    30   ar
    26    21    22   ar
    27    22    23   ar
    28    23    24    2
    29    23    25   ar
    30    25    26   ar
    31    25    30   ar
    32    26    27   ar
    33    27    28   ar
    34    28    29   ar
    35    29    30   ar
    36     3    32    1
    37     6    33    1
    38     7    34    1
    39     8    35    1
    40     9    36    1
    41    10    37    1
    42    15    38    1
    43    16    39    1
    44    17    40    1
    45    19    41    1
    46    19    42    1
    47    22    43    1
    48    26    44    1
    49    27    45    1
    50    28    46    1
    51    29    47    1
    52    31    48    1
@<TRIPOS>MOLECULE
../data/bude_mols_rdkit_confs/molecule_90.pdb
 48 52 0 0 0
SMALL
GASTEIGER

@<TRIPOS>ATOM
      1  O1         2.5360   -2.7300    1.5540 O.2     1  UNL1       -0.2698
      2  C1         2.9100   -1.6630    1.0150 C.2     1  UNL1        0.2511
      3  C2         4.2800   -1.4050    0.5930 C.2     1  UNL1        0.0138
      4  C3         4.3820   -0.1730    0.0450 C.2     1  UNL1        0.0497
      5  C4         5.6060    0.4010   -0.4780 C.ar    1  UNL1       -0.0127
      6  C5         6.7740   -0.3190   -0.4330 C.ar    1  UNL1       -0.0539
      7  C6         7.9560    0.2200   -0.9340 C.ar    1  UNL1       -0.0612
      8  C7         7.9750    1.4800   -1.4820 C.ar    1  UNL1       -0.0617
      9  C8         6.8070    2.2160   -1.5330 C.ar    1  UNL1       -0.0612
     10  C9         5.6370    1.6510   -1.0240 C.ar    1  UNL1       -0.0539
     11  C10        3.0490    0.3990    0.1060 C.2     1  UNL1        0.2582
     12  O2         2.7210    1.5460   -0.3060 O.2     1  UNL1       -0.2692
     13  N1         2.1390   -0.5120    0.7010 N.am    1  UNL1       -0.2028
     14  C11        0.7720   -0.3020    0.9230 C.ar    1  UNL1        0.0448
     15  C12        0.3760    0.6200    1.8840 C.ar    1  UNL1       -0.0398
     16  C13       -0.9590    0.8640    2.1410 C.ar    1  UNL1       -0.0597
     17  C14       -1.9310    0.1850    1.4360 C.ar    1  UNL1       -0.0581
     18  C15       -1.5900   -0.7270    0.4840 C.ar    1  UNL1       -0.0397
     19  C16       -2.5450   -1.4970   -0.3450 C.3     1  UNL1        0.0172
     20  C17       -3.9270   -1.4460    0.1020 C.ar    1  UNL1        0.0736
     21  N2        -4.5090   -2.4310    0.8010 N.ar    1  UNL1       -0.1750
     22  N3        -5.7510   -2.3980    1.2280 N.ar    1  UNL1       -0.2425
     23  C18       -6.5390   -1.3360    0.9790 C.ar    1  UNL1        0.2725
     24  O3        -7.7430   -1.2850    1.3840 O.2     1  UNL1       -0.2658
     25  C19       -5.9870   -0.2900    0.2600 C.ar    1  UNL1        0.0496
     26  C20       -6.7920    0.8150   -0.0110 C.ar    1  UNL1       -0.0487
     27  C21       -6.2980    1.8710   -0.7230 C.ar    1  UNL1       -0.0610
     28  C22       -4.9900    1.8140   -1.1620 C.ar    1  UNL1       -0.0611
     29  C23       -4.1710    0.7370   -0.9100 C.ar    1  UNL1       -0.0521
     30  C24       -4.6950   -0.3320   -0.1810 C.ar    1  UNL1        0.0106
     31  C25       -0.2370   -0.9530    0.2460 C.ar    1  UNL1       -0.0363
     32 H           5.0629   -2.0692    0.6975 H       1  UNL1        0.0677
     33 H           6.7760   -1.2668   -0.0248 H       1  UNL1        0.0624
     34 H           8.8267   -0.3324   -0.8934 H       1  UNL1        0.0618
     35 H           8.8544    1.8732   -1.8523 H       1  UNL1        0.0618
     36 H           6.7999    3.1646   -1.9394 H       1  UNL1        0.0618
     37 H           4.7631    2.1987   -1.0619 H       1  UNL1        0.0624
     38 H           1.0949    1.1336    2.4173 H       1  UNL1        0.0636
     39 H          -1.2290    1.5536    2.8597 H       1  UNL1        0.0618
     40 H          -2.9271    0.3701    1.6321 H       1  UNL1        0.0620
     41 H          -2.2339   -2.5208   -0.3452 H       1  UNL1        0.0377
     42 H          -2.5281   -1.0474   -1.3158 H       1  UNL1        0.0377
     43 H          -6.1100   -3.1604    1.7370 H       1  UNL1        0.1921
     44 H          -7.7665    0.8356    0.3280 H       1  UNL1        0.0625
     45 H          -6.8885    2.6921   -0.9280 H       1  UNL1        0.0618
     46 H          -4.6120    2.6096   -1.6997 H       1  UNL1        0.0618
     47 H          -3.1969    0.7202   -1.2504 H       1  UNL1        0.0624
     48 H           0.0241   -1.6439   -0.4748 H       1  UNL1        0.0639
@<TRIPOS>BOND
     1     1     2    2
     2     2     3    1
     3     2    13   am
     4     3     4    2
     5     4     5    1
     6     4    11    1
     7     5     6   ar
     8     5    10   ar
     9     6     7   ar
    10     7     8   ar
    11     8     9   ar
    12     9    10   ar
    13    11    12    2
    14    11    13   am
    15    13    14    1
    16    14    15   ar
    17    14    31   ar
    18    15    16   ar
    19    16    17   ar
    20    17    18   ar
    21    18    19    1
    22    18    31   ar
    23    19    20    1
    24    20    21   ar
    25    20    30   ar
    26    21    22   ar
    27    22    23   ar
    28    23    24    2
    29    23    25   ar
    30    25    26   ar
    31    25    30   ar
    32    26    27   ar
    33    27    28   ar
    34    28    29   ar
    35    29    30   ar
    36     3    32    1
    37     6    33    1
    38     7    34    1
    39     8    35    1
    40     9    36    1
    41    10    37    1
    42    15    38    1
    43    16    39    1
    44    17    40    1
    45    19    41    1
    46    19    42    1
    47    22    43    1
    48    26    44    1
    49    27    45    1
    50    28    46    1
    51    29    47    1
    52    31    48    1
@<TRIPOS>MOLECULE
../data/bude_mols_rdkit_confs/molecule_90.pdb
 48 52 0 0 0
SMALL
GASTEIGER

@<TRIPOS>ATOM
      1  O1        -0.5390    1.7700    0.6750 O.2     1  UNL1       -0.2698
      2  C1        -1.6030    1.0640    0.5490 C.2     1  UNL1        0.2511
      3  C2        -2.9270    1.4840    0.9610 C.2     1  UNL1        0.0138
      4  C3        -3.7580    0.4690    0.6600 C.2     1  UNL1        0.0497
      5  C4        -5.1890    0.5400    0.9380 C.ar    1  UNL1       -0.0127
      6  C5        -6.0010   -0.5130    0.6180 C.ar    1  UNL1       -0.0539
      7  C6        -7.3800   -0.4750    0.8720 C.ar    1  UNL1       -0.0612
      8  C7        -7.9340    0.6310    1.4500 C.ar    1  UNL1       -0.0617
      9  C8        -7.1530    1.7000    1.7830 C.ar    1  UNL1       -0.0612
     10  C9        -5.7840    1.6340    1.5180 C.ar    1  UNL1       -0.0539
     11  C10       -3.0060   -0.6180    0.0550 C.2     1  UNL1        0.2582
     12  O2        -3.4180   -1.7270   -0.3590 O.2     1  UNL1       -0.2692
     13  N1        -1.6250   -0.2360   -0.0160 N.am    1  UNL1       -0.2028
     14  C11       -0.5440   -1.0000   -0.5360 C.ar    1  UNL1        0.0448
     15  C12       -0.5480   -2.3760   -0.4880 C.ar    1  UNL1       -0.0398
     16  C13        0.5250   -3.0820   -1.0070 C.ar    1  UNL1       -0.0597
     17  C14        1.5890   -2.4060   -1.5650 C.ar    1  UNL1       -0.0581
     18  C15        1.6160   -1.0100   -1.6230 C.ar    1  UNL1       -0.0397
     19  C16        2.7790   -0.3610   -2.2570 C.3     1  UNL1        0.0172
     20  C17        4.0190   -0.3980   -1.4940 C.ar    1  UNL1        0.0736
     21  N2         4.9070   -1.3890   -1.8120 N.ar    1  UNL1       -0.1750
     22  N3         6.0450   -1.5700   -1.1870 N.ar    1  UNL1       -0.2425
     23  C18        6.3480   -0.7420   -0.1890 C.ar    1  UNL1        0.2725
     24  O3         7.4410   -0.9170    0.4120 O.2     1  UNL1       -0.2658
     25  C19        5.5340    0.2760    0.2060 C.ar    1  UNL1        0.0496
     26  C20        5.8650    1.1370    1.2390 C.ar    1  UNL1       -0.0487
     27  C21        5.0400    2.1740    1.6260 C.ar    1  UNL1       -0.0610
     28  C22        3.8580    2.3140    0.9290 C.ar    1  UNL1       -0.0611
     29  C23        3.4920    1.4800   -0.1030 C.ar    1  UNL1       -0.0521
     30  C24        4.3300    0.4530   -0.4710 C.ar    1  UNL1        0.0106
     31  C25        0.5400   -0.3560   -1.1030 C.ar    1  UNL1       -0.0363
     32 H          -3.1823    2.3831    1.3985 H       1  UNL1        0.0677
     33 H          -5.5907   -1.3529    0.1806 H       1  UNL1        0.0624
     34 H          -7.9743   -1.2810    0.6226 H       1  UNL1        0.0618
     35 H          -8.9487    0.6590    1.6362 H       1  UNL1        0.0618
     36 H          -7.5656    2.5384    2.2210 H       1  UNL1        0.0618
     37 H          -5.1932    2.4422    1.7687 H       1  UNL1        0.0624
     38 H          -1.3456   -2.8784   -0.0679 H       1  UNL1        0.0636
     39 H           0.5278   -4.1135   -0.9759 H       1  UNL1        0.0618
     40 H           2.3829   -2.9426   -1.9482 H       1  UNL1        0.0620
     41 H           2.5294    0.6653   -2.4283 H       1  UNL1        0.0377
     42 H           2.9709   -0.9171   -3.1508 H       1  UNL1        0.0377
     43 H           6.6570   -2.2959   -1.4475 H       1  UNL1        0.1921
     44 H           6.7586    0.9987    1.7363 H       1  UNL1        0.0625
     45 H           5.2944    2.8114    2.3968 H       1  UNL1        0.0618
     46 H           3.2184    3.0795    1.1935 H       1  UNL1        0.0618
     47 H           2.5970    1.6238   -0.5962 H       1  UNL1        0.0624
     48 H           0.5337    0.6755   -1.1340 H       1  UNL1        0.0639
@<TRIPOS>BOND
     1     1     2    2
     2     2     3    1
     3     2    13   am
     4     3     4    2
     5     4     5    1
     6     4    11    1
     7     5     6   ar
     8     5    10   ar
     9     6     7   ar
    10     7     8   ar
    11     8     9   ar
    12     9    10   ar
    13    11    12    2
    14    11    13   am
    15    13    14    1
    16    14    15   ar
    17    14    31   ar
    18    15    16   ar
    19    16    17   ar
    20    17    18   ar
    21    18    19    1
    22    18    31   ar
    23    19    20    1
    24    20    21   ar
    25    20    30   ar
    26    21    22   ar
    27    22    23   ar
    28    23    24    2
    29    23    25   ar
    30    25    26   ar
    31    25    30   ar
    32    26    27   ar
    33    27    28   ar
    34    28    29   ar
    35    29    30   ar
    36     3    32    1
    37     6    33    1
    38     7    34    1
    39     8    35    1
    40     9    36    1
    41    10    37    1
    42    15    38    1
    43    16    39    1
    44    17    40    1
    45    19    41    1
    46    19    42    1
    47    22    43    1
    48    26    44    1
    49    27    45    1
    50    28    46    1
    51    29    47    1
    52    31    48    1
@<TRIPOS>MOLECULE
../data/bude_mols_rdkit_confs/molecule_90.pdb
 48 52 0 0 0
SMALL
GASTEIGER

@<TRIPOS>ATOM
      1  O1        -1.5930   -0.2030   -2.5880 O.2     1  UNL1       -0.2698
      2  C1        -2.3610   -0.0830   -1.6280 C.2     1  UNL1        0.2511
      3  C2        -3.7460   -0.4090   -1.6260 C.2     1  UNL1        0.0138
      4  C3        -4.2560   -0.1520   -0.4370 C.2     1  UNL1        0.0497
      5  C4        -5.6660   -0.3650   -0.0560 C.ar    1  UNL1       -0.0127
      6  C5        -6.1520   -0.0270    1.1690 C.ar    1  UNL1       -0.0539
      7  C6        -7.4940   -0.2220    1.5250 C.ar    1  UNL1       -0.0612
      8  C7        -8.3500   -0.7830    0.5880 C.ar    1  UNL1       -0.0617
      9  C8        -7.8890   -1.1320   -0.6480 C.ar    1  UNL1       -0.0612
     10  C9        -6.5440   -0.9180   -0.9620 C.ar    1  UNL1       -0.0539
     11  C10       -3.1980    0.3680    0.4200 C.2     1  UNL1        0.2582
     12  O2        -3.2890    0.7260    1.6240 O.2     1  UNL1       -0.2692
     13  N1        -2.0210    0.4090   -0.3270 N.am    1  UNL1       -0.2028
     14  C11       -0.6870    0.8650   -0.0040 C.ar    1  UNL1        0.0448
     15  C12       -0.4320    1.9350    0.8030 C.ar    1  UNL1       -0.0398
     16  C13        0.8750    2.3810    1.0310 C.ar    1  UNL1       -0.0597
     17  C14        1.9240    1.7040    0.4090 C.ar    1  UNL1       -0.0581
     18  C15        1.6930    0.6290   -0.4050 C.ar    1  UNL1       -0.0397
     19  C16        2.7300   -0.0970   -1.1640 C.3     1  UNL1        0.0172
     20  C17        4.1150    0.1480   -0.8250 C.ar    1  UNL1        0.0736
     21  N2         4.8370    0.9740   -1.6090 N.ar    1  UNL1       -0.1750
     22  N3         6.0950    1.2550   -1.4190 N.ar    1  UNL1       -0.2425
     23  C18        6.7300    0.7050   -0.3930 C.ar    1  UNL1        0.2725
     24  O3         7.9350    0.9590   -0.1910 O.2     1  UNL1       -0.2658
     25  C19        6.0730   -0.1460    0.4540 C.ar    1  UNL1        0.0496
     26  C20        6.6950   -0.7490    1.5320 C.ar    1  UNL1       -0.0487
     27  C21        6.0190   -1.6070    2.3650 C.ar    1  UNL1       -0.0610
     28  C22        4.6750   -1.9040    2.1590 C.ar    1  UNL1       -0.0611
     29  C23        4.0500   -1.3070    1.0890 C.ar    1  UNL1       -0.0521
     30  C24        4.7310   -0.4380    0.2430 C.ar    1  UNL1        0.0106
     31  C25        0.3750    0.2160   -0.6020 C.ar    1  UNL1       -0.0363
     32 H          -4.2703   -0.7878   -2.4302 H       1  UNL1        0.0677
     33 H          -5.5093    0.3881    1.8615 H       1  UNL1        0.0624
     34 H          -7.8368    0.0452    2.4610 H       1  UNL1        0.0618
     35 H          -9.3419   -0.9373    0.8275 H       1  UNL1        0.0618
     36 H          -8.5268   -1.5496   -1.3436 H       1  UNL1        0.0618
     37 H          -6.1992   -1.1815   -1.8983 H       1  UNL1        0.0624
     38 H          -1.2193    2.4259    1.2549 H       1  UNL1        0.0636
     39 H           1.0580    3.1907    1.6441 H       1  UNL1        0.0618
     40 H           2.8937    2.0203    0.5660 H       1  UNL1        0.0620
     41 H           2.6052    0.1564   -2.1960 H       1  UNL1        0.0377
     42 H           2.5718   -1.1259   -0.9166 H       1  UNL1        0.0377
     43 H           6.5674    1.8670   -2.0285 H       1  UNL1        0.1921
     44 H           7.6909   -0.5496    1.7150 H       1  UNL1        0.0625
     45 H           6.5172   -2.0395    3.1586 H       1  UNL1        0.0618
     46 H           4.1666   -2.5477    2.7853 H       1  UNL1        0.0618
     47 H           3.0538   -1.5083    0.9099 H       1  UNL1        0.0624
     48 H           0.1888   -0.5962   -1.2109 H       1  UNL1        0.0639
@<TRIPOS>BOND
     1     1     2    2
     2     2     3    1
     3     2    13   am
     4     3     4    2
     5     4     5    1
     6     4    11    1
     7     5     6   ar
     8     5    10   ar
     9     6     7   ar
    10     7     8   ar
    11     8     9   ar
    12     9    10   ar
    13    11    12    2
    14    11    13   am
    15    13    14    1
    16    14    15   ar
    17    14    31   ar
    18    15    16   ar
    19    16    17   ar
    20    17    18   ar
    21    18    19    1
    22    18    31   ar
    23    19    20    1
    24    20    21   ar
    25    20    30   ar
    26    21    22   ar
    27    22    23   ar
    28    23    24    2
    29    23    25   ar
    30    25    26   ar
    31    25    30   ar
    32    26    27   ar
    33    27    28   ar
    34    28    29   ar
    35    29    30   ar
    36     3    32    1
    37     6    33    1
    38     7    34    1
    39     8    35    1
    40     9    36    1
    41    10    37    1
    42    15    38    1
    43    16    39    1
    44    17    40    1
    45    19    41    1
    46    19    42    1
    47    22    43    1
    48    26    44    1
    49    27    45    1
    50    28    46    1
    51    29    47    1
    52    31    48    1
@<TRIPOS>MOLECULE
../data/bude_mols_rdkit_confs/molecule_90.pdb
 48 52 0 0 0
SMALL
GASTEIGER

@<TRIPOS>ATOM
      1  O1         2.1220   -2.9720   -1.7300 O.2     1  UNL1       -0.2698
      2  C1         2.4760   -1.8670   -1.2470 C.2     1  UNL1        0.2511
      3  C2         3.7850   -1.5950   -0.6330 C.2     1  UNL1        0.0138
      4  C3         3.8110   -0.3190   -0.2300 C.2     1  UNL1        0.0497
      5  C4         4.9320    0.3410    0.4280 C.ar    1  UNL1       -0.0127
      6  C5         4.9320    1.6570    0.8230 C.ar    1  UNL1       -0.0539
      7  C6         5.9890    2.2830    1.4500 C.ar    1  UNL1       -0.0612
      8  C7         7.1400    1.5610    1.7130 C.ar    1  UNL1       -0.0617
      9  C8         7.1610    0.2390    1.3240 C.ar    1  UNL1       -0.0612
     10  C9         6.0880   -0.3700    0.6950 C.ar    1  UNL1       -0.0539
     11  C10        2.5290    0.2790   -0.5660 C.2     1  UNL1        0.2582
     12  O2         2.1490    1.4600   -0.3570 O.2     1  UNL1       -0.2692
     13  N1         1.6900   -0.6930   -1.2050 N.am    1  UNL1       -0.2028
     14  C11        0.3630   -0.4800   -1.6710 C.ar    1  UNL1        0.0448
     15  C12        0.0370    0.4560   -2.6490 C.ar    1  UNL1       -0.0398
     16  C13       -1.2320    0.6670   -3.1090 C.ar    1  UNL1       -0.0597
     17  C14       -2.2600   -0.1110   -2.5570 C.ar    1  UNL1       -0.0581
     18  C15       -1.9920   -1.0420   -1.5950 C.ar    1  UNL1       -0.0397
     19  C16       -3.0880   -1.8600   -1.0030 C.3     1  UNL1        0.0172
     20  C17       -3.3490   -1.3210    0.3490 C.ar    1  UNL1        0.0736
     21  N2        -2.6670   -1.8350    1.4180 N.ar    1  UNL1       -0.1750
     22  N3        -2.7960   -1.3530    2.6350 N.ar    1  UNL1       -0.2425
     23  C18       -3.5980   -0.3260    2.9390 C.ar    1  UNL1        0.2725
     24  O3        -3.7250    0.1420    4.1060 O.2     1  UNL1       -0.2658
     25  C19       -4.3260    0.2470    1.8970 C.ar    1  UNL1        0.0496
     26  C20       -5.1660    1.2860    2.2070 C.ar    1  UNL1       -0.0487
     27  C21       -5.8980    1.8250    1.1590 C.ar    1  UNL1       -0.0610
     28  C22       -5.7820    1.3370   -0.1160 C.ar    1  UNL1       -0.0611
     29  C23       -4.9300    0.2900   -0.4070 C.ar    1  UNL1       -0.0521
     30  C24       -4.1880   -0.2690    0.5970 C.ar    1  UNL1        0.0106
     31  C25       -0.6810   -1.2150   -1.1630 C.ar    1  UNL1       -0.0363
     32 H           4.5547   -2.2747   -0.5302 H       1  UNL1        0.0677
     33 H           4.0837    2.2148    0.6380 H       1  UNL1        0.0624
     34 H           5.9225    3.2770    1.7195 H       1  UNL1        0.0618
     35 H           7.9504    1.9953    2.1818 H       1  UNL1        0.0618
     36 H           8.0094   -0.3188    1.5086 H       1  UNL1        0.0618
     37 H           6.1515   -1.3635    0.4230 H       1  UNL1        0.0624
     38 H           0.7994    1.0242   -3.0503 H       1  UNL1        0.0636
     39 H          -1.4270    1.3730   -3.8360 H       1  UNL1        0.0618
     40 H          -3.2305    0.0218   -2.8818 H       1  UNL1        0.0620
     41 H          -2.7875   -2.8849   -0.9381 H       1  UNL1        0.0377
     42 H          -3.9687   -1.8134   -1.6088 H       1  UNL1        0.0377
     43 H          -2.2756   -1.7694    3.3596 H       1  UNL1        0.1921
     44 H          -5.2492    1.6480    3.1698 H       1  UNL1        0.0625
     45 H          -6.5429    2.6093    1.3435 H       1  UNL1        0.0618
     46 H          -6.3418    1.7598   -0.8729 H       1  UNL1        0.0618
     47 H          -4.8538   -0.0671   -1.3722 H       1  UNL1        0.0624
     48 H          -0.4856   -1.9202   -0.4353 H       1  UNL1        0.0639
@<TRIPOS>BOND
     1     1     2    2
     2     2     3    1
     3     2    13   am
     4     3     4    2
     5     4     5    1
     6     4    11    1
     7     5     6   ar
     8     5    10   ar
     9     6     7   ar
    10     7     8   ar
    11     8     9   ar
    12     9    10   ar
    13    11    12    2
    14    11    13   am
    15    13    14    1
    16    14    15   ar
    17    14    31   ar
    18    15    16   ar
    19    16    17   ar
    20    17    18   ar
    21    18    19    1
    22    18    31   ar
    23    19    20    1
    24    20    21   ar
    25    20    30   ar
    26    21    22   ar
    27    22    23   ar
    28    23    24    2
    29    23    25   ar
    30    25    26   ar
    31    25    30   ar
    32    26    27   ar
    33    27    28   ar
    34    28    29   ar
    35    29    30   ar
    36     3    32    1
    37     6    33    1
    38     7    34    1
    39     8    35    1
    40     9    36    1
    41    10    37    1
    42    15    38    1
    43    16    39    1
    44    17    40    1
    45    19    41    1
    46    19    42    1
    47    22    43    1
    48    26    44    1
    49    27    45    1
    50    28    46    1
    51    29    47    1
    52    31    48    1
@<TRIPOS>MOLECULE
../data/bude_mols_rdkit_confs/molecule_90.pdb
 48 52 0 0 0
SMALL
GASTEIGER

@<TRIPOS>ATOM
      1  O1         2.1370    1.8590   -2.4300 O.2     1  UNL1       -0.2698
      2  C1         2.6710    1.1270   -1.5610 C.2     1  UNL1        0.2511
      3  C2         4.1140    1.1170   -1.2660 C.2     1  UNL1        0.0138
      4  C3         4.3330    0.2340   -0.2980 C.2     1  UNL1        0.0497
      5  C4         5.6530   -0.0700    0.2760 C.ar    1  UNL1       -0.0127
      6  C5         6.7910    0.5230   -0.2370 C.ar    1  UNL1       -0.0539
      7  C6         8.0640    0.2900    0.2770 C.ar    1  UNL1       -0.0612
      8  C7         8.2130   -0.5660    1.3430 C.ar    1  UNL1       -0.0617
      9  C8         7.0840   -1.1530    1.8480 C.ar    1  UNL1       -0.0612
     10  C9         5.8170   -0.9260    1.3420 C.ar    1  UNL1       -0.0539
     11  C10        3.0510   -0.3750    0.0840 C.2     1  UNL1        0.2582
     12  O2         2.8550   -1.2380    0.9470 O.2     1  UNL1       -0.2692
     13  N1         2.0150    0.2000   -0.7250 N.am    1  UNL1       -0.2028
     14  C11        0.6230   -0.1120   -0.7040 C.ar    1  UNL1        0.0448
     15  C12        0.0690   -0.8080   -1.7880 C.ar    1  UNL1       -0.0398
     16  C13       -1.2540   -1.1350   -1.8080 C.ar    1  UNL1       -0.0597
     17  C14       -2.0530   -0.7580   -0.7130 C.ar    1  UNL1       -0.0581
     18  C15       -1.5080   -0.0840    0.3340 C.ar    1  UNL1       -0.0397
     19  C16       -2.4030    0.3150    1.4870 C.3     1  UNL1        0.0172
     20  C17       -3.6140    0.8360    0.8520 C.ar    1  UNL1        0.0736
     21  N2        -3.5710    2.1120    0.3540 N.ar    1  UNL1       -0.1750
     22  N3        -4.5360    2.6460   -0.3460 N.ar    1  UNL1       -0.2425
     23  C18       -5.6410    1.9530   -0.6140 C.ar    1  UNL1        0.2725
     24  O3        -6.5700    2.4530   -1.2850 O.2     1  UNL1       -0.2658
     25  C19       -5.8020    0.6520   -0.1590 C.ar    1  UNL1        0.0496
     26  C20       -6.9540   -0.0620   -0.3990 C.ar    1  UNL1       -0.0487
     27  C21       -7.0450   -1.3300    0.1230 C.ar    1  UNL1       -0.0610
     28  C22       -6.0390   -1.8940    0.8630 C.ar    1  UNL1       -0.0611
     29  C23       -4.8760   -1.1580    1.0950 C.ar    1  UNL1       -0.0521
     30  C24       -4.7460    0.1200    0.5860 C.ar    1  UNL1        0.0106
     31  C25       -0.1650    0.2540    0.3650 C.ar    1  UNL1       -0.0363
     32 H           4.8309    1.6958   -1.7309 H       1  UNL1        0.0677
     33 H           6.6929    1.1675   -1.0370 H       1  UNL1        0.0624
     34 H           8.8869    0.7547   -0.1376 H       1  UNL1        0.0618
     35 H           9.1425   -0.7589    1.7477 H       1  UNL1        0.0618
     36 H           7.1835   -1.7981    2.6474 H       1  UNL1        0.0618
     37 H           4.9991   -1.3955    1.7610 H       1  UNL1        0.0624
     38 H           0.6715   -1.0764   -2.5817 H       1  UNL1        0.0636
     39 H          -1.6599   -1.6468   -2.6070 H       1  UNL1        0.0618
     40 H          -3.0575   -0.9943   -0.7047 H       1  UNL1        0.0620
     41 H          -1.9354    1.0695    2.0844 H       1  UNL1        0.0377
     42 H          -2.6096   -0.5050    2.1426 H       1  UNL1        0.0377
     43 H          -4.4456    3.5684   -0.6781 H       1  UNL1        0.1921
     44 H          -7.7250    0.3421   -0.9534 H       1  UNL1        0.0625
     45 H          -7.9027   -1.8777   -0.0487 H       1  UNL1        0.0618
     46 H          -6.1397   -2.8482    1.2429 H       1  UNL1        0.0618
     47 H          -4.1094   -1.5703    1.6494 H       1  UNL1        0.0624
     48 H           0.2343    0.7661    1.1671 H       1  UNL1        0.0639
@<TRIPOS>BOND
     1     1     2    2
     2     2     3    1
     3     2    13   am
     4     3     4    2
     5     4     5    1
     6     4    11    1
     7     5     6   ar
     8     5    10   ar
     9     6     7   ar
    10     7     8   ar
    11     8     9   ar
    12     9    10   ar
    13    11    12    2
    14    11    13   am
    15    13    14    1
    16    14    15   ar
    17    14    31   ar
    18    15    16   ar
    19    16    17   ar
    20    17    18   ar
    21    18    19    1
    22    18    31   ar
    23    19    20    1
    24    20    21   ar
    25    20    30   ar
    26    21    22   ar
    27    22    23   ar
    28    23    24    2
    29    23    25   ar
    30    25    26   ar
    31    25    30   ar
    32    26    27   ar
    33    27    28   ar
    34    28    29   ar
    35    29    30   ar
    36     3    32    1
    37     6    33    1
    38     7    34    1
    39     8    35    1
    40     9    36    1
    41    10    37    1
    42    15    38    1
    43    16    39    1
    44    17    40    1
    45    19    41    1
    46    19    42    1
    47    22    43    1
    48    26    44    1
    49    27    45    1
    50    28    46    1
    51    29    47    1
    52    31    48    1
@<TRIPOS>MOLECULE
../data/bude_mols_rdkit_confs/molecule_90.pdb
 48 52 0 0 0
SMALL
GASTEIGER

@<TRIPOS>ATOM
      1  O1         1.1100    2.4560   -0.5460 O.2     1  UNL1       -0.2698
      2  C1         1.9990    1.5580   -0.4200 C.2     1  UNL1        0.2511
      3  C2         3.4250    1.7760   -0.1960 C.2     1  UNL1        0.0138
      4  C3         4.0820    0.6310   -0.1090 C.2     1  UNL1        0.0497
      5  C4         5.5320    0.4710    0.1130 C.ar    1  UNL1       -0.0127
      6  C5         6.3090    1.6000    0.2260 C.ar    1  UNL1       -0.0539
      7  C6         7.6890    1.4860    0.4370 C.ar    1  UNL1       -0.0612
      8  C7         8.2540    0.2360    0.5290 C.ar    1  UNL1       -0.0617
      9  C8         7.4910   -0.9150    0.4190 C.ar    1  UNL1       -0.0612
     10  C9         6.1370   -0.7520    0.2120 C.ar    1  UNL1       -0.0539
     11  C10        3.0890   -0.4130   -0.2790 C.2     1  UNL1        0.2582
     12  O2         3.2820   -1.6480   -0.2680 O.2     1  UNL1       -0.2692
     13  N1         1.7780    0.1660   -0.4750 N.am    1  UNL1       -0.2028
     14  C11        0.5670   -0.5420   -0.6800 C.ar    1  UNL1        0.0448
     15  C12        0.3610   -1.2230   -1.8620 C.ar    1  UNL1       -0.0398
     16  C13       -0.7730   -1.9430   -2.1300 C.ar    1  UNL1       -0.0597
     17  C14       -1.7830   -1.9970   -1.1530 C.ar    1  UNL1       -0.0581
     18  C15       -1.6250   -1.3390    0.0340 C.ar    1  UNL1       -0.0397
     19  C16       -2.6370   -1.3490    1.1280 C.3     1  UNL1        0.0172
     20  C17       -3.5400   -0.1880    1.1010 C.ar    1  UNL1        0.0736
     21  N2        -3.2170    0.9460    1.8080 N.ar    1  UNL1       -0.1750
     22  N3        -3.9570    2.0150    1.7650 N.ar    1  UNL1       -0.2425
     23  C18       -5.0790    2.1180    1.0490 C.ar    1  UNL1        0.2725
     24  O3        -5.8020    3.1390    0.9950 O.2     1  UNL1       -0.2658
     25  C19       -5.4700    1.0170    0.3130 C.ar    1  UNL1        0.0496
     26  C20       -6.6330    1.0580   -0.4310 C.ar    1  UNL1       -0.0487
     27  C21       -7.0330   -0.0480   -1.1480 C.ar    1  UNL1       -0.0610
     28  C22       -6.2730   -1.2070   -1.1250 C.ar    1  UNL1       -0.0611
     29  C23       -5.1180   -1.2300   -0.3790 C.ar    1  UNL1       -0.0521
     30  C24       -4.6790   -0.1380    0.3540 C.ar    1  UNL1        0.0106
     31  C25       -0.4330   -0.6120    0.2510 C.ar    1  UNL1       -0.0363
     32 H           3.8651    2.7060   -0.1156 H       1  UNL1        0.0677
     33 H           5.8744    2.5333    0.1552 H       1  UNL1        0.0624
     34 H           8.2752    2.3310    0.5225 H       1  UNL1        0.0618
     35 H           9.2710    0.1532    0.6837 H       1  UNL1        0.0618
     36 H           7.9166   -1.8526    0.4888 H       1  UNL1        0.0618
     37 H           5.5499   -1.5965    0.1274 H       1  UNL1        0.0624
     38 H           1.0998   -1.1881   -2.5817 H       1  UNL1        0.0636
     39 H          -0.8839   -2.4355   -3.0301 H       1  UNL1        0.0618
     40 H          -2.6453   -2.5347   -1.3329 H       1  UNL1        0.0620
     41 H          -2.1221   -1.3561    2.0659 H       1  UNL1        0.0377
     42 H          -3.2410   -2.2215    0.9908 H       1  UNL1        0.0377
     43 H          -3.6722    2.7958    2.2927 H       1  UNL1        0.1921
     44 H          -7.2029    1.9182   -0.4497 H       1  UNL1        0.0625
     45 H          -7.9016   -0.0136   -1.7043 H       1  UNL1        0.0618
     46 H          -6.5691   -2.0390   -1.6590 H       1  UNL1        0.0618
     47 H          -4.5553   -2.0949   -0.3641 H       1  UNL1        0.0624
     48 H          -0.3120   -0.1143    1.1469 H       1  UNL1        0.0639
@<TRIPOS>BOND
     1     1     2    2
     2     2     3    1
     3     2    13   am
     4     3     4    2
     5     4     5    1
     6     4    11    1
     7     5     6   ar
     8     5    10   ar
     9     6     7   ar
    10     7     8   ar
    11     8     9   ar
    12     9    10   ar
    13    11    12    2
    14    11    13   am
    15    13    14    1
    16    14    15   ar
    17    14    31   ar
    18    15    16   ar
    19    16    17   ar
    20    17    18   ar
    21    18    19    1
    22    18    31   ar
    23    19    20    1
    24    20    21   ar
    25    20    30   ar
    26    21    22   ar
    27    22    23   ar
    28    23    24    2
    29    23    25   ar
    30    25    26   ar
    31    25    30   ar
    32    26    27   ar
    33    27    28   ar
    34    28    29   ar
    35    29    30   ar
    36     3    32    1
    37     6    33    1
    38     7    34    1
    39     8    35    1
    40     9    36    1
    41    10    37    1
    42    15    38    1
    43    16    39    1
    44    17    40    1
    45    19    41    1
    46    19    42    1
    47    22    43    1
    48    26    44    1
    49    27    45    1
    50    28    46    1
    51    29    47    1
    52    31    48    1
@<TRIPOS>MOLECULE
../data/bude_mols_rdkit_confs/molecule_90.pdb
 48 52 0 0 0
SMALL
GASTEIGER

@<TRIPOS>ATOM
      1  O1         1.3730   -2.1320    1.3240 O.2     1  UNL1       -0.2698
      2  C1         2.2010   -1.2720    0.9530 C.2     1  UNL1        0.2511
      3  C2         3.6740   -1.3780    0.9250 C.2     1  UNL1        0.0138
      4  C3         4.2040   -0.2590    0.4680 C.2     1  UNL1        0.0497
      5  C4         5.6300   -0.0060    0.3030 C.ar    1  UNL1       -0.0127
      6  C5         6.1510    1.1760   -0.1640 C.ar    1  UNL1       -0.0539
      7  C6         7.5060    1.4160   -0.3320 C.ar    1  UNL1       -0.0612
      8  C7         8.4090    0.4240   -0.0180 C.ar    1  UNL1       -0.0617
      9  C8         7.9240   -0.7710    0.4510 C.ar    1  UNL1       -0.0612
     10  C9         6.5660   -1.0000    0.6140 C.ar    1  UNL1       -0.0539
     11  C10        3.1100    0.6470    0.1700 C.2     1  UNL1        0.2582
     12  O2         3.1900    1.8110   -0.2830 O.2     1  UNL1       -0.2692
     13  N1         1.8430    0.0170    0.4720 N.am    1  UNL1       -0.2028
     14  C11        0.5780    0.6370    0.2850 C.ar    1  UNL1        0.0448
     15  C12        0.2900    1.8660    0.8760 C.ar    1  UNL1       -0.0398
     16  C13       -0.9230    2.4790    0.6730 C.ar    1  UNL1       -0.0597
     17  C14       -1.9180    1.9020   -0.1290 C.ar    1  UNL1       -0.0581
     18  C15       -1.6570    0.6980   -0.7180 C.ar    1  UNL1       -0.0397
     19  C16       -2.6360    0.0040   -1.5940 C.3     1  UNL1        0.0172
     20  C17       -3.5960   -0.8540   -0.8640 C.ar    1  UNL1        0.0736
     21  N2        -3.2560   -2.1560   -0.5980 N.ar    1  UNL1       -0.1750
     22  N3        -4.0090   -2.9680    0.1130 N.ar    1  UNL1       -0.2425
     23  C18       -5.1850   -2.5990    0.6490 C.ar    1  UNL1        0.2725
     24  O3        -5.8690   -3.4100    1.3240 O.2     1  UNL1       -0.2658
     25  C19       -5.6000   -1.3030    0.4260 C.ar    1  UNL1        0.0496
     26  C20       -6.8080   -0.8770    0.9300 C.ar    1  UNL1       -0.0487
     27  C21       -7.2180    0.4250    0.6700 C.ar    1  UNL1       -0.0610
     28  C22       -6.4260    1.2700   -0.0810 C.ar    1  UNL1       -0.0611
     29  C23       -5.2220    0.8530   -0.5850 C.ar    1  UNL1       -0.0521
     30  C24       -4.7980   -0.4410   -0.3320 C.ar    1  UNL1        0.0106
     31  C25       -0.4030    0.1020   -0.4860 C.ar    1  UNL1       -0.0363
     32 H           4.2116   -2.2079    1.2204 H       1  UNL1        0.0677
     33 H           5.4923    1.9330   -0.4050 H       1  UNL1        0.0624
     34 H           7.8345    2.3272   -0.6882 H       1  UNL1        0.0618
     35 H           9.4234    0.5756   -0.1325 H       1  UNL1        0.0618
     36 H           8.5902   -1.5222    0.6897 H       1  UNL1        0.0618
     37 H           6.2416   -1.9133    0.9685 H       1  UNL1        0.0624
     38 H           0.9970    2.3216    1.4739 H       1  UNL1        0.0636
     39 H          -1.1067    3.3892    1.1233 H       1  UNL1        0.0618
     40 H          -2.8242    2.3751   -0.2705 H       1  UNL1        0.0620
     41 H          -2.0945   -0.6088   -2.2840 H       1  UNL1        0.0377
     42 H          -3.2095    0.7652   -2.0804 H       1  UNL1        0.0377
     43 H          -3.6959   -3.8899    0.2593 H       1  UNL1        0.1921
     44 H          -7.3977   -1.5123    1.4901 H       1  UNL1        0.0625
     45 H          -8.1202    0.7623    1.0407 H       1  UNL1        0.0618
     46 H          -6.7465    2.2333   -0.2663 H       1  UNL1        0.0618
     47 H          -4.6392    1.4943   -1.1454 H       1  UNL1        0.0624
     48 H          -0.2157   -0.8082   -0.9348 H       1  UNL1        0.0639
@<TRIPOS>BOND
     1     1     2    2
     2     2     3    1
     3     2    13   am
     4     3     4    2
     5     4     5    1
     6     4    11    1
     7     5     6   ar
     8     5    10   ar
     9     6     7   ar
    10     7     8   ar
    11     8     9   ar
    12     9    10   ar
    13    11    12    2
    14    11    13   am
    15    13    14    1
    16    14    15   ar
    17    14    31   ar
    18    15    16   ar
    19    16    17   ar
    20    17    18   ar
    21    18    19    1
    22    18    31   ar
    23    19    20    1
    24    20    21   ar
    25    20    30   ar
    26    21    22   ar
    27    22    23   ar
    28    23    24    2
    29    23    25   ar
    30    25    26   ar
    31    25    30   ar
    32    26    27   ar
    33    27    28   ar
    34    28    29   ar
    35    29    30   ar
    36     3    32    1
    37     6    33    1
    38     7    34    1
    39     8    35    1
    40     9    36    1
    41    10    37    1
    42    15    38    1
    43    16    39    1
    44    17    40    1
    45    19    41    1
    46    19    42    1
    47    22    43    1
    48    26    44    1
    49    27    45    1
    50    28    46    1
    51    29    47    1
    52    31    48    1
@<TRIPOS>MOLECULE
../data/bude_mols_rdkit_confs/molecule_90.pdb
 48 52 0 0 0
SMALL
GASTEIGER

@<TRIPOS>ATOM
      1  O1        -1.0760    1.0910    1.4960 O.2     1  UNL1       -0.2698
      2  C1        -2.0460    0.5920    0.8630 C.2     1  UNL1        0.2511
      3  C2        -3.4580    0.8100    1.1110 C.2     1  UNL1        0.0138
      4  C3        -4.1940    0.1120    0.2400 C.2     1  UNL1        0.0497
      5  C4        -5.6530    0.1080    0.2130 C.ar    1  UNL1       -0.0127
      6  C5        -6.3470    0.8800    1.1290 C.ar    1  UNL1       -0.0539
      7  C6        -7.7200    0.9230    1.1680 C.ar    1  UNL1       -0.0612
      8  C7        -8.4210    0.1580    0.2500 C.ar    1  UNL1       -0.0617
      9  C8        -7.7510   -0.6100   -0.6600 C.ar    1  UNL1       -0.0612
     10  C9        -6.3760   -0.6430   -0.6870 C.ar    1  UNL1       -0.0539
     11  C10       -3.3020   -0.6170   -0.6480 C.2     1  UNL1        0.2582
     12  O2        -3.5660   -1.3880   -1.6050 O.2     1  UNL1       -0.2692
     13  N1        -1.9790   -0.3130   -0.2530 N.am    1  UNL1       -0.2028
     14  C11       -0.7200   -0.7500   -0.7640 C.ar    1  UNL1        0.0448
     15  C12       -0.5510   -2.0690   -1.1720 C.ar    1  UNL1       -0.0398
     16  C13        0.6490   -2.5470   -1.6660 C.ar    1  UNL1       -0.0597
     17  C14        1.7060   -1.6750   -1.7510 C.ar    1  UNL1       -0.0581
     18  C15        1.5830   -0.3380   -1.3510 C.ar    1  UNL1       -0.0397
     19  C16        2.8010    0.5510   -1.4650 C.3     1  UNL1        0.0172
     20  C17        3.7450   -0.0040   -0.4340 C.ar    1  UNL1        0.0736
     21  N2         3.5470   -1.2240    0.0730 N.ar    1  UNL1       -0.1750
     22  N3         4.3410   -1.7730    0.9600 N.ar    1  UNL1       -0.2425
     23  C18        5.4230   -1.1340    1.4230 C.ar    1  UNL1        0.2725
     24  O3         6.1910   -1.6520    2.2730 O.2     1  UNL1       -0.2658
     25  C19        5.6730    0.1240    0.9320 C.ar    1  UNL1        0.0496
     26  C20        6.7850    0.7820    1.4070 C.ar    1  UNL1       -0.0487
     27  C21        7.0550    2.0290    0.9350 C.ar    1  UNL1       -0.0610
     28  C22        6.2390    2.6290    0.0050 C.ar    1  UNL1       -0.0611
     29  C23        5.1230    1.9910   -0.4830 C.ar    1  UNL1       -0.0521
     30  C24        4.8280    0.7180   -0.0170 C.ar    1  UNL1        0.0106
     31  C25        0.3810    0.0790   -0.8730 C.ar    1  UNL1       -0.0363
     32 H          -3.8399    1.4168    1.8532 H       1  UNL1        0.0677
     33 H          -5.8131    1.4445    1.8082 H       1  UNL1        0.0624
     34 H          -8.2140    1.5076    1.8603 H       1  UNL1        0.0618
     35 H          -9.4529    0.1683    0.2535 H       1  UNL1        0.0618
     36 H          -8.2854   -1.1748   -1.3385 H       1  UNL1        0.0618
     37 H          -5.8868   -1.2298   -1.3808 H       1  UNL1        0.0624
     38 H          -1.3521   -2.7159   -1.1034 H       1  UNL1        0.0636
     39 H           0.7471   -3.5307   -1.9622 H       1  UNL1        0.0618
     40 H           2.6102   -2.0115   -2.1173 H       1  UNL1        0.0620
     41 H           2.5525    1.5685   -1.2464 H       1  UNL1        0.0377
     42 H           3.2193    0.5570   -2.4498 H       1  UNL1        0.0377
     43 H           4.1370   -2.6765    1.2937 H       1  UNL1        0.1921
     44 H           7.4008    0.3386    2.1064 H       1  UNL1        0.0625
     45 H           7.8864    2.5332    1.2808 H       1  UNL1        0.0618
     46 H           6.4686    3.5766   -0.3333 H       1  UNL1        0.0618
     47 H           4.5173    2.4496   -1.1815 H       1  UNL1        0.0624
     48 H           0.2855    1.0630   -0.5768 H       1  UNL1        0.0639
@<TRIPOS>BOND
     1     1     2    2
     2     2     3    1
     3     2    13   am
     4     3     4    2
     5     4     5    1
     6     4    11    1
     7     5     6   ar
     8     5    10   ar
     9     6     7   ar
    10     7     8   ar
    11     8     9   ar
    12     9    10   ar
    13    11    12    2
    14    11    13   am
    15    13    14    1
    16    14    15   ar
    17    14    31   ar
    18    15    16   ar
    19    16    17   ar
    20    17    18   ar
    21    18    19    1
    22    18    31   ar
    23    19    20    1
    24    20    21   ar
    25    20    30   ar
    26    21    22   ar
    27    22    23   ar
    28    23    24    2
    29    23    25   ar
    30    25    26   ar
    31    25    30   ar
    32    26    27   ar
    33    27    28   ar
    34    28    29   ar
    35    29    30   ar
    36     3    32    1
    37     6    33    1
    38     7    34    1
    39     8    35    1
    40     9    36    1
    41    10    37    1
    42    15    38    1
    43    16    39    1
    44    17    40    1
    45    19    41    1
    46    19    42    1
    47    22    43    1
    48    26    44    1
    49    27    45    1
    50    28    46    1
    51    29    47    1
    52    31    48    1
@<TRIPOS>MOLECULE
../data/bude_mols_rdkit_confs/molecule_90.pdb
 48 52 0 0 0
SMALL
GASTEIGER

@<TRIPOS>ATOM
      1  O1        -0.8640   -1.9480   -1.3080 O.2     1  UNL1       -0.2698
      2  C1        -1.8080   -1.2000   -0.9230 C.2     1  UNL1        0.2511
      3  C2        -3.2240   -1.5350   -0.8900 C.2     1  UNL1        0.0138
      4  C3        -3.9380   -0.4980   -0.4240 C.2     1  UNL1        0.0497
      5  C4        -5.3890   -0.4650   -0.2490 C.ar    1  UNL1       -0.0127
      6  C5        -6.0470    0.6550    0.2040 C.ar    1  UNL1       -0.0539
      7  C6        -7.4170    0.6960    0.3860 C.ar    1  UNL1       -0.0612
      8  C7        -8.1380   -0.4390    0.0960 C.ar    1  UNL1       -0.0617
      9  C8        -7.5070   -1.5770   -0.3600 C.ar    1  UNL1       -0.0612
     10  C9        -6.1290   -1.5990   -0.5360 C.ar    1  UNL1       -0.0539
     11  C10       -2.9880    0.5590   -0.1350 C.2     1  UNL1        0.2582
     12  O2        -3.2090    1.7100    0.3180 O.2     1  UNL1       -0.2692
     13  N1        -1.6440    0.1290   -0.4450 N.am    1  UNL1       -0.2028
     14  C11       -0.4700    0.9080   -0.2770 C.ar    1  UNL1        0.0448
     15  C12       -0.3330    2.1160   -0.9220 C.ar    1  UNL1       -0.0398
     16  C13        0.7970    2.8810   -0.7570 C.ar    1  UNL1       -0.0597
     17  C14        1.8060    2.4020    0.0840 C.ar    1  UNL1       -0.0581
     18  C15        1.7240    1.2100    0.7480 C.ar    1  UNL1       -0.0397
     19  C16        2.7750    0.6680    1.6390 C.3     1  UNL1        0.0172
     20  C17        3.5330   -0.3750    0.9230 C.ar    1  UNL1        0.0736
     21  N2         3.0750   -1.6570    1.0870 N.ar    1  UNL1       -0.1750
     22  N3         3.6380   -2.6580    0.4450 N.ar    1  UNL1       -0.2425
     23  C18        4.6700   -2.4740   -0.3860 C.ar    1  UNL1        0.2725
     24  O3         5.1910   -3.4420   -0.9890 O.2     1  UNL1       -0.2658
     25  C19        5.1950   -1.2080   -0.6070 C.ar    1  UNL1        0.0496
     26  C20        6.2680   -1.0140   -1.4420 C.ar    1  UNL1       -0.0487
     27  C21        6.7600    0.2620   -1.6030 C.ar    1  UNL1       -0.0610
     28  C22        6.1470    1.3010   -0.9100 C.ar    1  UNL1       -0.0611
     29  C23        5.0750    1.1210   -0.0730 C.ar    1  UNL1       -0.0521
     30  C24        4.5780   -0.1620    0.0880 C.ar    1  UNL1        0.0106
     31  C25        0.5450    0.4780    0.5370 C.ar    1  UNL1       -0.0363
     32 H          -3.6224   -2.4407   -1.1831 H       1  UNL1        0.0677
     33 H          -5.4947    1.5003    0.4170 H       1  UNL1        0.0624
     34 H          -7.8836    1.5505    0.7283 H       1  UNL1        0.0618
     35 H          -9.1624   -0.4388    0.2211 H       1  UNL1        0.0618
     36 H          -8.0632   -2.4199   -0.5725 H       1  UNL1        0.0618
     37 H          -5.6614   -2.4532   -0.8776 H       1  UNL1        0.0624
     38 H          -1.0894    2.4522   -1.5383 H       1  UNL1        0.0636
     39 H           0.8981    3.7864   -1.2418 H       1  UNL1        0.0618
     40 H           2.6541    2.9764    0.2096 H       1  UNL1        0.0620
     41 H           2.3210    0.2447    2.5106 H       1  UNL1        0.0377
     42 H           3.4380    1.4556    1.9306 H       1  UNL1        0.0377
     43 H           3.2896   -3.5688    0.5801 H       1  UNL1        0.1921
     44 H           6.6975   -1.8096   -1.9395 H       1  UNL1        0.0625
     45 H           7.5646    0.4433   -2.2232 H       1  UNL1        0.0618
     46 H           6.5178    2.2564   -1.0318 H       1  UNL1        0.0618
     47 H           4.6503    1.9199    0.4233 H       1  UNL1        0.0624
     48 H           0.4373   -0.4284    1.0185 H       1  UNL1        0.0639
@<TRIPOS>BOND
     1     1     2    2
     2     2     3    1
     3     2    13   am
     4     3     4    2
     5     4     5    1
     6     4    11    1
     7     5     6   ar
     8     5    10   ar
     9     6     7   ar
    10     7     8   ar
    11     8     9   ar
    12     9    10   ar
    13    11    12    2
    14    11    13   am
    15    13    14    1
    16    14    15   ar
    17    14    31   ar
    18    15    16   ar
    19    16    17   ar
    20    17    18   ar
    21    18    19    1
    22    18    31   ar
    23    19    20    1
    24    20    21   ar
    25    20    30   ar
    26    21    22   ar
    27    22    23   ar
    28    23    24    2
    29    23    25   ar
    30    25    26   ar
    31    25    30   ar
    32    26    27   ar
    33    27    28   ar
    34    28    29   ar
    35    29    30   ar
    36     3    32    1
    37     6    33    1
    38     7    34    1
    39     8    35    1
    40     9    36    1
    41    10    37    1
    42    15    38    1
    43    16    39    1
    44    17    40    1
    45    19    41    1
    46    19    42    1
    47    22    43    1
    48    26    44    1
    49    27    45    1
    50    28    46    1
    51    29    47    1
    52    31    48    1
@<TRIPOS>MOLECULE
../data/bude_mols_rdkit_confs/molecule_90.pdb
 48 52 0 0 0
SMALL
GASTEIGER

@<TRIPOS>ATOM
      1  O1         1.4330    2.1150    0.9250 O.2     1  UNL1       -0.2698
      2  C1         2.2850    1.2540    0.6320 C.2     1  UNL1        0.2511
      3  C2         3.7250    1.4030    0.6430 C.2     1  UNL1        0.0138
      4  C3         4.3320    0.2810    0.2730 C.2     1  UNL1        0.0497
      5  C4         5.7900    0.0840    0.1740 C.ar    1  UNL1       -0.0127
      6  C5         6.3700   -1.1030   -0.1870 C.ar    1  UNL1       -0.0539
      7  C6         7.7590   -1.2410   -0.2770 C.ar    1  UNL1       -0.0612
      8  C7         8.6020   -0.1860   -0.0050 C.ar    1  UNL1       -0.0617
      9  C8         8.0090    1.0000    0.3550 C.ar    1  UNL1       -0.0612
     10  C9         6.6340    1.1490    0.4470 C.ar    1  UNL1       -0.0539
     11  C10        3.2820   -0.6840   -0.0060 C.2     1  UNL1        0.2582
     12  O2         3.4520   -1.8990   -0.3910 O.2     1  UNL1       -0.2692
     13  N1         2.0220   -0.0850    0.2130 N.am    1  UNL1       -0.2028
     14  C11        0.7130   -0.6330    0.0630 C.ar    1  UNL1        0.0448
     15  C12        0.3940   -1.9070    0.4580 C.ar    1  UNL1       -0.0398
     16  C13       -0.8930   -2.4020    0.2950 C.ar    1  UNL1       -0.0597
     17  C14       -1.8860   -1.5950   -0.2800 C.ar    1  UNL1       -0.0581
     18  C15       -1.6030   -0.3270   -0.6830 C.ar    1  UNL1       -0.0397
     19  C16       -2.5890    0.5610   -1.3190 C.3     1  UNL1        0.0172
     20  C17       -3.6950    1.0290   -0.4840 C.ar    1  UNL1        0.0736
     21  N2        -3.5590    2.1410    0.3000 N.ar    1  UNL1       -0.1750
     22  N3        -4.5030    2.5650    1.1130 N.ar    1  UNL1       -0.2425
     23  C18       -5.6860    1.9460    1.2450 C.ar    1  UNL1        0.2725
     24  O3        -6.5950    2.3330    2.0110 O.2     1  UNL1       -0.2658
     25  C19       -5.9220    0.7950    0.4790 C.ar    1  UNL1        0.0496
     26  C20       -7.1470    0.1630    0.5770 C.ar    1  UNL1       -0.0487
     27  C21       -7.3850   -0.9440   -0.2060 C.ar    1  UNL1       -0.0610
     28  C22       -6.3960   -1.3800   -1.0550 C.ar    1  UNL1       -0.0611
     29  C23       -5.1940   -0.7390   -1.1320 C.ar    1  UNL1       -0.0521
     30  C24       -4.9070    0.3880   -0.3550 C.ar    1  UNL1        0.0106
     31  C25       -0.2770    0.1170   -0.4900 C.ar    1  UNL1       -0.0363
     32 H           4.2176    2.2711    0.9052 H       1  UNL1        0.0677
     33 H           5.7682   -1.9145   -0.3975 H       1  UNL1        0.0624
     34 H           8.1602   -2.1510   -0.5526 H       1  UNL1        0.0618
     35 H           9.6276   -0.2817   -0.0684 H       1  UNL1        0.0618
     36 H           8.6108    1.8116    0.5651 H       1  UNL1        0.0618
     37 H           6.2353    2.0606    0.7211 H       1  UNL1        0.0624
     38 H           1.1200   -2.5056    0.8819 H       1  UNL1        0.0636
     39 H          -1.1189   -3.3628    0.5966 H       1  UNL1        0.0618
     40 H          -2.8412   -1.9672   -0.3985 H       1  UNL1        0.0620
     41 H          -3.0113    0.0333   -2.1485 H       1  UNL1        0.0377
     42 H          -2.0426    1.4438   -1.5779 H       1  UNL1        0.0377
     43 H          -4.3334    3.3733    1.6488 H       1  UNL1        0.1921
     44 H          -7.8696    0.5142    1.2248 H       1  UNL1        0.0625
     45 H          -8.2899   -1.4377   -0.1564 H       1  UNL1        0.0618
     46 H          -6.5659   -2.2087   -1.6460 H       1  UNL1        0.0618
     47 H          -4.4762   -1.0959   -1.7820 H       1  UNL1        0.0624
     48 H          -0.0431    1.0766   -0.7891 H       1  UNL1        0.0639
@<TRIPOS>BOND
     1     1     2    2
     2     2     3    1
     3     2    13   am
     4     3     4    2
     5     4     5    1
     6     4    11    1
     7     5     6   ar
     8     5    10   ar
     9     6     7   ar
    10     7     8   ar
    11     8     9   ar
    12     9    10   ar
    13    11    12    2
    14    11    13   am
    15    13    14    1
    16    14    15   ar
    17    14    31   ar
    18    15    16   ar
    19    16    17   ar
    20    17    18   ar
    21    18    19    1
    22    18    31   ar
    23    19    20    1
    24    20    21   ar
    25    20    30   ar
    26    21    22   ar
    27    22    23   ar
    28    23    24    2
    29    23    25   ar
    30    25    26   ar
    31    25    30   ar
    32    26    27   ar
    33    27    28   ar
    34    28    29   ar
    35    29    30   ar
    36     3    32    1
    37     6    33    1
    38     7    34    1
    39     8    35    1
    40     9    36    1
    41    10    37    1
    42    15    38    1
    43    16    39    1
    44    17    40    1
    45    19    41    1
    46    19    42    1
    47    22    43    1
    48    26    44    1
    49    27    45    1
    50    28    46    1
    51    29    47    1
    52    31    48    1
@<TRIPOS>MOLECULE
../data/bude_mols_rdkit_confs/molecule_90.pdb
 48 52 0 0 0
SMALL
GASTEIGER

@<TRIPOS>ATOM
      1  O1        -2.0000   -2.3850    1.5620 O.2     1  UNL1       -0.2698
      2  C1        -2.6120   -1.4040    1.0340 C.2     1  UNL1        0.2511
      3  C2        -4.0300   -1.3160    0.7050 C.2     1  UNL1        0.0138
      4  C3        -4.3290   -0.1510    0.1650 C.2     1  UNL1        0.0497
      5  C4        -5.6750    0.2220   -0.2660 C.ar    1  UNL1       -0.0127
      6  C5        -5.9580    1.4480   -0.8290 C.ar    1  UNL1       -0.0539
      7  C6        -7.2480    1.7980   -1.2390 C.ar    1  UNL1       -0.0612
      8  C7        -8.2970    0.9170   -1.0920 C.ar    1  UNL1       -0.0617
      9  C8        -8.0190   -0.3110   -0.5280 C.ar    1  UNL1       -0.0612
     10  C9        -6.7440   -0.6460   -0.1280 C.ar    1  UNL1       -0.0539
     11  C10       -3.0880    0.5930    0.1170 C.2     1  UNL1        0.2582
     12  O2        -2.9640    1.7540   -0.3340 O.2     1  UNL1       -0.2692
     13  N1        -2.0170   -0.1710    0.6510 N.am    1  UNL1       -0.2028
     14  C11       -0.6550    0.2080    0.7780 C.ar    1  UNL1        0.0448
     15  C12       -0.2690    1.5330    0.9580 C.ar    1  UNL1       -0.0398
     16  C13        1.0700    1.8320    1.0750 C.ar    1  UNL1       -0.0597
     17  C14        2.0360    0.8370    1.0160 C.ar    1  UNL1       -0.0581
     18  C15        1.6740   -0.4800    0.8380 C.ar    1  UNL1       -0.0397
     19  C16        2.6400   -1.6040    0.7660 C.3     1  UNL1        0.0172
     20  C17        4.0290   -1.1790    0.9150 C.ar    1  UNL1        0.0736
     21  N2         4.6670   -1.3790    2.0860 N.ar    1  UNL1       -0.1750
     22  N3         5.9310   -1.0070    2.2640 N.ar    1  UNL1       -0.2425
     23  C18        6.6020   -0.4210    1.2780 C.ar    1  UNL1        0.2725
     24  O3         7.8100   -0.0760    1.4800 O.2     1  UNL1       -0.2658
     25  C19        6.0350   -0.1690    0.0330 C.ar    1  UNL1        0.0496
     26  C20        6.7310    0.4360   -0.9840 C.ar    1  UNL1       -0.0487
     27  C21        6.1270    0.6680   -2.2150 C.ar    1  UNL1       -0.0610
     28  C22        4.8200    0.2680   -2.3580 C.ar    1  UNL1       -0.0611
     29  C23        4.1160   -0.3380   -1.3460 C.ar    1  UNL1       -0.0521
     30  C24        4.7090   -0.5730   -0.1170 C.ar    1  UNL1        0.0106
     31  C25        0.3310   -0.7470    0.7250 C.ar    1  UNL1       -0.0363
     32 H          -4.7134   -2.0707    0.8736 H       1  UNL1        0.0677
     33 H          -5.1929    2.1296   -0.9518 H       1  UNL1        0.0624
     34 H          -7.4163    2.7267   -1.6564 H       1  UNL1        0.0618
     35 H          -9.2526    1.1658   -1.3918 H       1  UNL1        0.0618
     36 H          -8.7829   -0.9936   -0.4030 H       1  UNL1        0.0618
     37 H          -6.5805   -1.5759    0.2887 H       1  UNL1        0.0624
     38 H          -0.9775    2.2820    1.0032 H       1  UNL1        0.0636
     39 H           1.3605    2.8132    1.2089 H       1  UNL1        0.0618
     40 H           3.0334    1.0860    1.1062 H       1  UNL1        0.0620
     41 H           2.5316   -2.0853   -0.1835 H       1  UNL1        0.0377
     42 H           2.4206   -2.2645    1.5787 H       1  UNL1        0.0377
     43 H           6.3716   -1.1663    3.1298 H       1  UNL1        0.1921
     44 H           7.7113    0.7212   -0.8336 H       1  UNL1        0.0625
     45 H           6.6385    1.1213   -2.9883 H       1  UNL1        0.0618
     46 H           4.3486    0.4293   -3.2618 H       1  UNL1        0.0618
     47 H           3.1360   -0.6208   -1.5032 H       1  UNL1        0.0624
     48 H           0.0442   -1.7293    0.5916 H       1  UNL1        0.0639
@<TRIPOS>BOND
     1     1     2    2
     2     2     3    1
     3     2    13   am
     4     3     4    2
     5     4     5    1
     6     4    11    1
     7     5     6   ar
     8     5    10   ar
     9     6     7   ar
    10     7     8   ar
    11     8     9   ar
    12     9    10   ar
    13    11    12    2
    14    11    13   am
    15    13    14    1
    16    14    15   ar
    17    14    31   ar
    18    15    16   ar
    19    16    17   ar
    20    17    18   ar
    21    18    19    1
    22    18    31   ar
    23    19    20    1
    24    20    21   ar
    25    20    30   ar
    26    21    22   ar
    27    22    23   ar
    28    23    24    2
    29    23    25   ar
    30    25    26   ar
    31    25    30   ar
    32    26    27   ar
    33    27    28   ar
    34    28    29   ar
    35    29    30   ar
    36     3    32    1
    37     6    33    1
    38     7    34    1
    39     8    35    1
    40     9    36    1
    41    10    37    1
    42    15    38    1
    43    16    39    1
    44    17    40    1
    45    19    41    1
    46    19    42    1
    47    22    43    1
    48    26    44    1
    49    27    45    1
    50    28    46    1
    51    29    47    1
    52    31    48    1
@<TRIPOS>MOLECULE
../data/bude_mols_rdkit_confs/molecule_90.pdb
 48 52 0 0 0
SMALL
GASTEIGER

@<TRIPOS>ATOM
      1  O1         0.5220   -1.9600   -0.5080 O.2     1  UNL1       -0.2698
      2  C1         1.5660   -1.2670   -0.4440 C.2     1  UNL1        0.2511
      3  C2         2.9360   -1.6580   -0.2360 C.2     1  UNL1        0.0138
      4  C3         3.7440   -0.6220   -0.2350 C.2     1  UNL1        0.0497
      5  C4         5.2000   -0.6870   -0.0470 C.ar    1  UNL1       -0.0127
      6  C5         5.9990    0.4330   -0.0490 C.ar    1  UNL1       -0.0539
      7  C6         7.3710    0.3110    0.1330 C.ar    1  UNL1       -0.0612
      8  C7         7.9340   -0.9240    0.3130 C.ar    1  UNL1       -0.0617
      9  C8         7.1620   -2.0630    0.3200 C.ar    1  UNL1       -0.0612
     10  C9         5.8110   -1.9090    0.1380 C.ar    1  UNL1       -0.0539
     11  C10        2.9090    0.5490   -0.4520 C.2     1  UNL1        0.2582
     12  O2         3.3100    1.7510   -0.5170 O.2     1  UNL1       -0.2692
     13  N1         1.5480    0.1660   -0.5840 N.am    1  UNL1       -0.2028
     14  C11        0.4020    0.9840   -0.8080 C.ar    1  UNL1        0.0448
     15  C12        0.1630    1.6590   -1.9860 C.ar    1  UNL1       -0.0398
     16  C13       -0.9490    2.4230   -2.2100 C.ar    1  UNL1       -0.0597
     17  C14       -1.8690    2.5170   -1.2010 C.ar    1  UNL1       -0.0581
     18  C15       -1.7100    1.8790    0.0030 C.ar    1  UNL1       -0.0397
     19  C16       -2.7380    1.9820    1.0550 C.3     1  UNL1        0.0172
     20  C17       -3.3800    0.7170    1.4210 C.ar    1  UNL1        0.0736
     21  N2        -2.9160    0.1140    2.5560 N.ar    1  UNL1       -0.1750
     22  N3        -3.3630   -1.0320    3.0020 N.ar    1  UNL1       -0.2425
     23  C18       -4.3370   -1.6300    2.2830 C.ar    1  UNL1        0.2725
     24  O3        -4.8010   -2.7300    2.6660 O.2     1  UNL1       -0.2658
     25  C19       -4.8560   -1.0810    1.1260 C.ar    1  UNL1        0.0496
     26  C20       -5.8550   -1.6950    0.3990 C.ar    1  UNL1       -0.0487
     27  C21       -6.3670   -1.1290   -0.7530 C.ar    1  UNL1       -0.0610
     28  C22       -5.8810    0.0770   -1.1990 C.ar    1  UNL1       -0.0611
     29  C23       -4.8830    0.6860   -0.4680 C.ar    1  UNL1       -0.0521
     30  C24       -4.3610    0.1370    0.6790 C.ar    1  UNL1        0.0106
     31  C25       -0.5750    1.1230    0.1780 C.ar    1  UNL1       -0.0363
     32 H           3.2457   -2.6335   -0.1038 H       1  UNL1        0.0677
     33 H           5.5785    1.3654   -0.1859 H       1  UNL1        0.0624
     34 H           7.9672    1.1534    0.1325 H       1  UNL1        0.0618
     35 H           8.9545   -1.0019    0.4456 H       1  UNL1        0.0618
     36 H           7.5824   -2.9955    0.4567 H       1  UNL1        0.0618
     37 H           5.2194   -2.7546    0.1397 H       1  UNL1        0.0624
     38 H           0.8624    1.5836   -2.7411 H       1  UNL1        0.0636
     39 H          -1.0895    2.9114   -3.1082 H       1  UNL1        0.0618
     40 H          -2.7143    3.0895   -1.3517 H       1  UNL1        0.0620
     41 H          -3.4979    2.6525    0.7117 H       1  UNL1        0.0377
     42 H          -2.2327    2.3254    1.9335 H       1  UNL1        0.0377
     43 H          -3.0057   -1.4395    3.8239 H       1  UNL1        0.1921
     44 H          -6.2295   -2.6001    0.7238 H       1  UNL1        0.0625
     45 H          -7.1134   -1.6112   -1.2779 H       1  UNL1        0.0618
     46 H          -6.2526    0.5143   -2.0567 H       1  UNL1        0.0618
     47 H          -4.5125    1.5917   -0.7957 H       1  UNL1        0.0624
     48 H          -0.4399    0.6370    1.0783 H       1  UNL1        0.0639
@<TRIPOS>BOND
     1     1     2    2
     2     2     3    1
     3     2    13   am
     4     3     4    2
     5     4     5    1
     6     4    11    1
     7     5     6   ar
     8     5    10   ar
     9     6     7   ar
    10     7     8   ar
    11     8     9   ar
    12     9    10   ar
    13    11    12    2
    14    11    13   am
    15    13    14    1
    16    14    15   ar
    17    14    31   ar
    18    15    16   ar
    19    16    17   ar
    20    17    18   ar
    21    18    19    1
    22    18    31   ar
    23    19    20    1
    24    20    21   ar
    25    20    30   ar
    26    21    22   ar
    27    22    23   ar
    28    23    24    2
    29    23    25   ar
    30    25    26   ar
    31    25    30   ar
    32    26    27   ar
    33    27    28   ar
    34    28    29   ar
    35    29    30   ar
    36     3    32    1
    37     6    33    1
    38     7    34    1
    39     8    35    1
    40     9    36    1
    41    10    37    1
    42    15    38    1
    43    16    39    1
    44    17    40    1
    45    19    41    1
    46    19    42    1
    47    22    43    1
    48    26    44    1
    49    27    45    1
    50    28    46    1
    51    29    47    1
    52    31    48    1
@<TRIPOS>MOLECULE
../data/bude_mols_rdkit_confs/molecule_90.pdb
 48 52 0 0 0
SMALL
GASTEIGER

@<TRIPOS>ATOM
      1  O1         0.8580   -0.7510   -3.0910 O.2     1  UNL1       -0.2698
      2  C1         1.5270   -0.4470   -2.0930 C.2     1  UNL1        0.2511
      3  C2         2.6850   -1.2230   -1.6230 C.2     1  UNL1        0.0138
      4  C3         3.1750   -0.6220   -0.5280 C.2     1  UNL1        0.0497
      5  C4         4.3340   -1.1000    0.2300 C.ar    1  UNL1       -0.0127
      6  C5         4.7610   -0.4010    1.3350 C.ar    1  UNL1       -0.0539
      7  C6         5.8670   -0.8680    2.0550 C.ar    1  UNL1       -0.0612
      8  C7         6.5000   -2.0210    1.6370 C.ar    1  UNL1       -0.0617
      9  C8         6.0510   -2.7070    0.5210 C.ar    1  UNL1       -0.0612
     10  C9         4.9680   -2.2550   -0.1900 C.ar    1  UNL1       -0.0539
     11  C10        2.3550    0.5540   -0.2540 C.2     1  UNL1        0.2582
     12  O2         2.4710    1.3930    0.6790 O.2     1  UNL1       -0.2692
     13  N1         1.3240    0.6630   -1.2340 N.am    1  UNL1       -0.2028
     14  C11        0.3050    1.6400   -1.3640 C.ar    1  UNL1        0.0448
     15  C12        0.4590    2.7630   -2.1510 C.ar    1  UNL1       -0.0398
     16  C13       -0.5210    3.7050   -2.2820 C.ar    1  UNL1       -0.0597
     17  C14       -1.7110    3.5330   -1.6060 C.ar    1  UNL1       -0.0581
     18  C15       -1.9270    2.4290   -0.8010 C.ar    1  UNL1       -0.0397
     19  C16       -3.2200    2.3300   -0.1270 C.3     1  UNL1        0.0172
     20  C17       -3.4260    1.1660    0.7220 C.ar    1  UNL1        0.0736
     21  N2        -3.3900    1.2250    2.0640 N.ar    1  UNL1       -0.1750
     22  N3        -3.5850    0.1610    2.8200 N.ar    1  UNL1       -0.2425
     23  C18       -3.8340   -1.0600    2.3150 C.ar    1  UNL1        0.2725
     24  O3        -4.0160   -2.0550    3.0540 O.2     1  UNL1       -0.2658
     25  C19       -3.8860   -1.2020    0.9280 C.ar    1  UNL1        0.0496
     26  C20       -4.1370   -2.4340    0.3600 C.ar    1  UNL1       -0.0487
     27  C21       -4.1730   -2.4930   -1.0200 C.ar    1  UNL1       -0.0610
     28  C22       -3.9730   -1.4020   -1.8360 C.ar    1  UNL1       -0.0611
     29  C23       -3.7250   -0.1850   -1.2350 C.ar    1  UNL1       -0.0521
     30  C24       -3.6780   -0.0670    0.1510 C.ar    1  UNL1        0.0106
     31  C25       -0.9100    1.5160   -0.7050 C.ar    1  UNL1       -0.0363
     32 H           3.0562   -2.0811   -2.0599 H       1  UNL1        0.0677
     33 H           4.2714    0.4582    1.6300 H       1  UNL1        0.0624
     34 H           6.2041   -0.3576    2.8862 H       1  UNL1        0.0618
     35 H           7.3155   -2.3752    2.1610 H       1  UNL1        0.0618
     36 H           6.5360   -3.5671    0.2210 H       1  UNL1        0.0618
     37 H           4.6333   -2.7666   -1.0214 H       1  UNL1        0.0624
     38 H           1.3473    2.8959   -2.6592 H       1  UNL1        0.0636
     39 H          -0.3733    4.5341   -2.8785 H       1  UNL1        0.0618
     40 H          -2.4548    4.2419   -1.7027 H       1  UNL1        0.0620
     41 H          -3.9790    2.3199   -0.8811 H       1  UNL1        0.0377
     42 H          -3.2583    3.1708    0.5337 H       1  UNL1        0.0377
     43 H          -3.5464    0.2661    3.7981 H       1  UNL1        0.1921
     44 H          -4.2909   -3.2737    0.9398 H       1  UNL1        0.0625
     45 H          -4.3602   -3.4056   -1.4639 H       1  UNL1        0.0618
     46 H          -4.0075   -1.4917   -2.8635 H       1  UNL1        0.0618
     47 H          -3.5721    0.6500   -1.8218 H       1  UNL1        0.0624
     48 H          -1.0561    0.6873   -0.1075 H       1  UNL1        0.0639
@<TRIPOS>BOND
     1     1     2    2
     2     2     3    1
     3     2    13   am
     4     3     4    2
     5     4     5    1
     6     4    11    1
     7     5     6   ar
     8     5    10   ar
     9     6     7   ar
    10     7     8   ar
    11     8     9   ar
    12     9    10   ar
    13    11    12    2
    14    11    13   am
    15    13    14    1
    16    14    15   ar
    17    14    31   ar
    18    15    16   ar
    19    16    17   ar
    20    17    18   ar
    21    18    19    1
    22    18    31   ar
    23    19    20    1
    24    20    21   ar
    25    20    30   ar
    26    21    22   ar
    27    22    23   ar
    28    23    24    2
    29    23    25   ar
    30    25    26   ar
    31    25    30   ar
    32    26    27   ar
    33    27    28   ar
    34    28    29   ar
    35    29    30   ar
    36     3    32    1
    37     6    33    1
    38     7    34    1
    39     8    35    1
    40     9    36    1
    41    10    37    1
    42    15    38    1
    43    16    39    1
    44    17    40    1
    45    19    41    1
    46    19    42    1
    47    22    43    1
    48    26    44    1
    49    27    45    1
    50    28    46    1
    51    29    47    1
    52    31    48    1
@<TRIPOS>MOLECULE
../data/bude_mols_rdkit_confs/molecule_90.pdb
 48 52 0 0 0
SMALL
GASTEIGER

@<TRIPOS>ATOM
      1  O1         1.9330   -2.8440    0.4080 O.2     1  UNL1       -0.2698
      2  C1         2.5870   -1.7800    0.3220 C.2     1  UNL1        0.2511
      3  C2         4.0640   -1.6680    0.3040 C.2     1  UNL1        0.0138
      4  C3         4.4120   -0.3870    0.2040 C.2     1  UNL1        0.0497
      5  C4         5.7840    0.1190    0.1580 C.ar    1  UNL1       -0.0127
      6  C5         6.0670    1.4600    0.0340 C.ar    1  UNL1       -0.0539
      7  C6         7.3530    1.9330   -0.0000 C.ar    1  UNL1       -0.0612
      8  C7         8.3870    1.0220    0.0940 C.ar    1  UNL1       -0.0617
      9  C8         8.1450   -0.3350    0.2200 C.ar    1  UNL1       -0.0612
     10  C9         6.8420   -0.7740    0.2510 C.ar    1  UNL1       -0.0539
     11  C10        3.1960    0.4010    0.1530 C.2     1  UNL1        0.2582
     12  O2         3.0450    1.6390    0.0610 O.2     1  UNL1       -0.2692
     13  N1         2.0510   -0.4750    0.2270 N.am    1  UNL1       -0.2028
     14  C11        0.6810   -0.0930    0.2190 C.ar    1  UNL1        0.0448
     15  C12        0.2070    0.7990    1.1870 C.ar    1  UNL1       -0.0398
     16  C13       -1.0870    1.2150    1.2420 C.ar    1  UNL1       -0.0597
     17  C14       -1.9850    0.7460    0.3090 C.ar    1  UNL1       -0.0581
     18  C15       -1.5630   -0.1350   -0.6630 C.ar    1  UNL1       -0.0397
     19  C16       -2.5320   -0.6360   -1.6500 C.3     1  UNL1        0.0172
     20  C17       -3.8520   -0.0160   -1.5940 C.ar    1  UNL1        0.0736
     21  N2        -4.2100    0.9460   -2.4610 N.ar    1  UNL1       -0.1750
     22  N3        -5.3710    1.5610   -2.4760 N.ar    1  UNL1       -0.2425
     23  C18       -6.3040    1.2330   -1.5700 C.ar    1  UNL1        0.2725
     24  O3        -7.4120    1.8060   -1.5670 O.2     1  UNL1       -0.2658
     25  C19       -6.0310    0.2670   -0.6510 C.ar    1  UNL1        0.0496
     26  C20       -7.0000   -0.0720    0.2800 C.ar    1  UNL1       -0.0487
     27  C21       -6.7520   -1.0440    1.2130 C.ar    1  UNL1       -0.0610
     28  C22       -5.5170   -1.6690    1.1940 C.ar    1  UNL1       -0.0611
     29  C23       -4.5390   -1.3500    0.2800 C.ar    1  UNL1       -0.0521
     30  C24       -4.7980   -0.3690   -0.6560 C.ar    1  UNL1        0.0106
     31  C25       -0.2470   -0.5410   -0.6960 C.ar    1  UNL1       -0.0363
     32 H           4.7220   -2.4611    0.3603 H       1  UNL1        0.0677
     33 H           5.2860    2.1310   -0.0356 H       1  UNL1        0.0624
     34 H           7.5437    2.9429   -0.0933 H       1  UNL1        0.0618
     35 H           9.3616    1.3606    0.0698 H       1  UNL1        0.0618
     36 H           8.9273   -1.0045    0.2894 H       1  UNL1        0.0618
     37 H           6.6481   -1.7833    0.3449 H       1  UNL1        0.0624
     38 H           0.8697    1.1580    1.8919 H       1  UNL1        0.0636
     39 H          -1.3924    1.8746    1.9746 H       1  UNL1        0.0618
     40 H          -2.9698    1.0531    0.3377 H       1  UNL1        0.0620
     41 H          -2.6529   -1.6872   -1.4913 H       1  UNL1        0.0377
     42 H          -2.1299   -0.3927   -2.6113 H       1  UNL1        0.0377
     43 H          -5.5547    2.2574   -3.1472 H       1  UNL1        0.1921
     44 H          -7.9125    0.4099    0.2704 H       1  UNL1        0.0625
     45 H          -7.4665   -1.3032    1.9111 H       1  UNL1        0.0618
     46 H          -5.3221   -2.4030    1.8927 H       1  UNL1        0.0618
     47 H          -3.6284   -1.8354    0.2941 H       1  UNL1        0.0624
     48 H           0.0536   -1.2018   -1.4295 H       1  UNL1        0.0639
@<TRIPOS>BOND
     1     1     2    2
     2     2     3    1
     3     2    13   am
     4     3     4    2
     5     4     5    1
     6     4    11    1
     7     5     6   ar
     8     5    10   ar
     9     6     7   ar
    10     7     8   ar
    11     8     9   ar
    12     9    10   ar
    13    11    12    2
    14    11    13   am
    15    13    14    1
    16    14    15   ar
    17    14    31   ar
    18    15    16   ar
    19    16    17   ar
    20    17    18   ar
    21    18    19    1
    22    18    31   ar
    23    19    20    1
    24    20    21   ar
    25    20    30   ar
    26    21    22   ar
    27    22    23   ar
    28    23    24    2
    29    23    25   ar
    30    25    26   ar
    31    25    30   ar
    32    26    27   ar
    33    27    28   ar
    34    28    29   ar
    35    29    30   ar
    36     3    32    1
    37     6    33    1
    38     7    34    1
    39     8    35    1
    40     9    36    1
    41    10    37    1
    42    15    38    1
    43    16    39    1
    44    17    40    1
    45    19    41    1
    46    19    42    1
    47    22    43    1
    48    26    44    1
    49    27    45    1
    50    28    46    1
    51    29    47    1
    52    31    48    1
@<TRIPOS>MOLECULE
../data/bude_mols_rdkit_confs/molecule_90.pdb
 48 52 0 0 0
SMALL
GASTEIGER

@<TRIPOS>ATOM
      1  O1         1.7160   -0.6610    3.5610 O.2     1  UNL1       -0.2698
      2  C1         2.3370   -0.5430    2.4620 C.2     1  UNL1        0.2511
      3  C2         3.6300    0.0770    2.2260 C.2     1  UNL1        0.0138
      4  C3         3.9710    0.0160    0.9350 C.2     1  UNL1        0.0497
      5  C4         5.1960    0.5360    0.3370 C.ar    1  UNL1       -0.0127
      6  C5         5.4450    0.4110   -1.0030 C.ar    1  UNL1       -0.0539
      7  C6         6.5900    0.8890   -1.6130 C.ar    1  UNL1       -0.0612
      8  C7         7.5270    1.5220   -0.8320 C.ar    1  UNL1       -0.0617
      9  C8         7.2920    1.6560    0.5210 C.ar    1  UNL1       -0.0612
     10  C9         6.1430    1.1740    1.1160 C.ar    1  UNL1       -0.0539
     11  C10        2.8750   -0.6670    0.2720 C.2     1  UNL1        0.2582
     12  O2         2.7600   -0.9520   -0.9560 O.2     1  UNL1       -0.2692
     13  N1         1.8450   -1.0230    1.2190 N.am    1  UNL1       -0.2028
     14  C11        0.6350   -1.6950    0.9160 C.ar    1  UNL1        0.0448
     15  C12        0.5770   -2.9890    0.4380 C.ar    1  UNL1       -0.0398
     16  C13       -0.6140   -3.6190    0.1530 C.ar    1  UNL1       -0.0597
     17  C14       -1.8030   -2.9120    0.3580 C.ar    1  UNL1       -0.0581
     18  C15       -1.7830   -1.6210    0.8330 C.ar    1  UNL1       -0.0397
     19  C16       -3.0450   -0.8720    1.0510 C.3     1  UNL1        0.0172
     20  C17       -3.4150   -0.1540   -0.1990 C.ar    1  UNL1        0.0736
     21  N2        -2.7090   -0.2730   -1.3270 N.ar    1  UNL1       -0.1750
     22  N3        -3.0080    0.3410   -2.4470 N.ar    1  UNL1       -0.2425
     23  C18       -4.0850    1.1390   -2.4730 C.ar    1  UNL1        0.2725
     24  O3        -4.4060    1.7460   -3.5290 O.2     1  UNL1       -0.2658
     25  C19       -4.8800    1.3210   -1.3440 C.ar    1  UNL1        0.0496
     26  C20       -5.9820    2.1190   -1.3130 C.ar    1  UNL1       -0.0487
     27  C21       -6.7200    2.2510   -0.1510 C.ar    1  UNL1       -0.0610
     28  C22       -6.3860    1.5920    1.0240 C.ar    1  UNL1       -0.0611
     29  C23       -5.2500    0.7740    0.9800 C.ar    1  UNL1       -0.0521
     30  C24       -4.5280    0.6550   -0.1860 C.ar    1  UNL1        0.0106
     31  C25       -0.5640   -1.0400    1.1020 C.ar    1  UNL1       -0.0363
     32 H           4.2109    0.5093    2.9614 H       1  UNL1        0.0677
     33 H           4.7412   -0.0650   -1.5888 H       1  UNL1        0.0624
     34 H           6.7371    0.7735   -2.6279 H       1  UNL1        0.0618
     35 H           8.3942    1.8919   -1.2516 H       1  UNL1        0.0618
     36 H           7.9967    2.1311    1.1063 H       1  UNL1        0.0618
     37 H           5.9930    1.2888    2.1306 H       1  UNL1        0.0624
     38 H           1.4591   -3.5034    0.2887 H       1  UNL1        0.0636
     39 H          -0.6287   -4.5877   -0.2026 H       1  UNL1        0.0618
     40 H          -2.7070   -3.3644    0.1503 H       1  UNL1        0.0620
     41 H          -2.9083   -0.1646    1.8421 H       1  UNL1        0.0377
     42 H          -3.8251   -1.5548    1.3156 H       1  UNL1        0.0377
     43 H          -2.4535    0.2184   -3.2512 H       1  UNL1        0.1921
     44 H          -6.2690    2.6293   -2.1628 H       1  UNL1        0.0625
     45 H          -7.5510    2.8630   -0.1577 H       1  UNL1        0.0618
     46 H          -6.9452    1.6991    1.8847 H       1  UNL1        0.0618
     47 H          -4.9535    0.2592    1.8238 H       1  UNL1        0.0624
     48 H          -0.5470   -0.0717    1.4585 H       1  UNL1        0.0639
@<TRIPOS>BOND
     1     1     2    2
     2     2     3    1
     3     2    13   am
     4     3     4    2
     5     4     5    1
     6     4    11    1
     7     5     6   ar
     8     5    10   ar
     9     6     7   ar
    10     7     8   ar
    11     8     9   ar
    12     9    10   ar
    13    11    12    2
    14    11    13   am
    15    13    14    1
    16    14    15   ar
    17    14    31   ar
    18    15    16   ar
    19    16    17   ar
    20    17    18   ar
    21    18    19    1
    22    18    31   ar
    23    19    20    1
    24    20    21   ar
    25    20    30   ar
    26    21    22   ar
    27    22    23   ar
    28    23    24    2
    29    23    25   ar
    30    25    26   ar
    31    25    30   ar
    32    26    27   ar
    33    27    28   ar
    34    28    29   ar
    35    29    30   ar
    36     3    32    1
    37     6    33    1
    38     7    34    1
    39     8    35    1
    40     9    36    1
    41    10    37    1
    42    15    38    1
    43    16    39    1
    44    17    40    1
    45    19    41    1
    46    19    42    1
    47    22    43    1
    48    26    44    1
    49    27    45    1
    50    28    46    1
    51    29    47    1
    52    31    48    1
@<TRIPOS>MOLECULE
../data/bude_mols_rdkit_confs/molecule_90.pdb
 48 52 0 0 0
SMALL
GASTEIGER

@<TRIPOS>ATOM
      1  O1        -2.6840   -3.2750    0.4890 O.2     1  UNL1       -0.2698
      2  C1        -3.0300   -2.0550    0.4580 C.2     1  UNL1        0.2511
      3  C2        -4.3870   -1.5340    0.3460 C.2     1  UNL1        0.0138
      4  C3        -4.3790   -0.2000    0.3450 C.2     1  UNL1        0.0497
      5  C4        -5.5320    0.6910    0.2480 C.ar    1  UNL1       -0.0127
      6  C5        -6.8100    0.1470    0.1440 C.ar    1  UNL1       -0.0539
      7  C6        -7.9200    0.9610    0.0500 C.ar    1  UNL1       -0.0612
      8  C7        -7.7860    2.3290    0.0580 C.ar    1  UNL1       -0.0617
      9  C8        -6.5450    2.9030    0.1590 C.ar    1  UNL1       -0.0612
     10  C9        -5.4430    2.0620    0.2520 C.ar    1  UNL1       -0.0539
     11  C10       -2.9910    0.1990    0.4580 C.2     1  UNL1        0.2582
     12  O2        -2.5140    1.3620    0.4960 O.2     1  UNL1       -0.2692
     13  N1        -2.1320   -0.9580    0.5310 N.am    1  UNL1       -0.2028
     14  C11       -0.7180   -0.9580    0.6440 C.ar    1  UNL1        0.0448
     15  C12       -0.1110   -1.5270    1.7420 C.ar    1  UNL1       -0.0398
     16  C13        1.2560   -1.5550    1.8950 C.ar    1  UNL1       -0.0597
     17  C14        2.0500   -0.9870    0.9020 C.ar    1  UNL1       -0.0581
     18  C15        1.4590   -0.4280   -0.1740 C.ar    1  UNL1       -0.0397
     19  C16        2.2260    0.2190   -1.2600 C.3     1  UNL1        0.0172
     20  C17        3.5670   -0.3220   -1.4200 C.ar    1  UNL1        0.0736
     21  N2         3.8110   -1.3370   -2.3050 N.ar    1  UNL1       -0.1750
     22  N3         5.0020   -1.8750   -2.4560 N.ar    1  UNL1       -0.2425
     23  C18        6.0350   -1.4140   -1.7140 C.ar    1  UNL1        0.2725
     24  O3         7.1710   -1.9220   -1.8540 O.2     1  UNL1       -0.2658
     25  C19        5.8840   -0.3990   -0.8030 C.ar    1  UNL1        0.0496
     26  C20        6.9240    0.0970   -0.0560 C.ar    1  UNL1       -0.0487
     27  C21        6.7360    1.1340    0.8310 C.ar    1  UNL1       -0.0610
     28  C22        5.4780    1.6920    0.9810 C.ar    1  UNL1       -0.0611
     29  C23        4.4250    1.2020    0.2370 C.ar    1  UNL1       -0.0521
     30  C24        4.6270    0.1570   -0.6540 C.ar    1  UNL1        0.0106
     31  C25        0.0650   -0.4080   -0.3160 C.ar    1  UNL1       -0.0363
     32 H          -5.2361   -2.1165    0.2770 H       1  UNL1        0.0677
     33 H          -6.9282   -0.8782    0.1372 H       1  UNL1        0.0624
     34 H          -8.8587    0.5393   -0.0270 H       1  UNL1        0.0618
     35 H          -8.6240    2.9272   -0.0124 H       1  UNL1        0.0618
     36 H          -6.4328    3.9289    0.1657 H       1  UNL1        0.0618
     37 H          -4.5071    2.4902    0.3282 H       1  UNL1        0.0624
     38 H          -0.7026   -1.9471    2.4758 H       1  UNL1        0.0636
     39 H           1.6840   -1.9879    2.7283 H       1  UNL1        0.0618
     40 H           3.0784   -0.9936    0.9883 H       1  UNL1        0.0620
     41 H           2.3051    1.2639   -1.0437 H       1  UNL1        0.0377
     42 H           1.6993    0.0344   -2.1729 H       1  UNL1        0.0377
     43 H           5.1400   -2.6051   -3.1019 H       1  UNL1        0.1921
     44 H           7.8643   -0.3150   -0.1611 H       1  UNL1        0.0625
     45 H           7.5308    1.4939    1.3822 H       1  UNL1        0.0618
     46 H           5.3292    2.4685    1.6443 H       1  UNL1        0.0618
     47 H           3.4845    1.6134    0.3431 H       1  UNL1        0.0624
     48 H          -0.3642    0.0242   -1.1491 H       1  UNL1        0.0639
@<TRIPOS>BOND
     1     1     2    2
     2     2     3    1
     3     2    13   am
     4     3     4    2
     5     4     5    1
     6     4    11    1
     7     5     6   ar
     8     5    10   ar
     9     6     7   ar
    10     7     8   ar
    11     8     9   ar
    12     9    10   ar
    13    11    12    2
    14    11    13   am
    15    13    14    1
    16    14    15   ar
    17    14    31   ar
    18    15    16   ar
    19    16    17   ar
    20    17    18   ar
    21    18    19    1
    22    18    31   ar
    23    19    20    1
    24    20    21   ar
    25    20    30   ar
    26    21    22   ar
    27    22    23   ar
    28    23    24    2
    29    23    25   ar
    30    25    26   ar
    31    25    30   ar
    32    26    27   ar
    33    27    28   ar
    34    28    29   ar
    35    29    30   ar
    36     3    32    1
    37     6    33    1
    38     7    34    1
    39     8    35    1
    40     9    36    1
    41    10    37    1
    42    15    38    1
    43    16    39    1
    44    17    40    1
    45    19    41    1
    46    19    42    1
    47    22    43    1
    48    26    44    1
    49    27    45    1
    50    28    46    1
    51    29    47    1
    52    31    48    1
@<TRIPOS>MOLECULE
../data/bude_mols_rdkit_confs/molecule_90.pdb
 48 52 0 0 0
SMALL
GASTEIGER

@<TRIPOS>ATOM
      1  O1         1.5770    2.3530    2.2190 O.2     1  UNL1       -0.2698
      2  C1         2.1490    1.6210    1.3810 C.2     1  UNL1        0.2511
      3  C2         3.5010    1.0640    1.6220 C.2     1  UNL1        0.0138
      4  C3         3.8790    0.3270    0.5940 C.2     1  UNL1        0.0497
      5  C4         5.1550   -0.3800    0.4780 C.ar    1  UNL1       -0.0127
      6  C5         6.1050   -0.2470    1.4570 C.ar    1  UNL1       -0.0539
      7  C6         7.3160   -0.9000    1.4010 C.ar    1  UNL1       -0.0612
      8  C7         7.5940   -1.7080    0.3440 C.ar    1  UNL1       -0.0617
      9  C8         6.6500   -1.8430   -0.6330 C.ar    1  UNL1       -0.0612
     10  C9         5.4220   -1.1940   -0.5990 C.ar    1  UNL1       -0.0539
     11  C10        2.7780    0.3670   -0.3810 C.2     1  UNL1        0.2582
     12  O2         2.7340   -0.2000   -1.4940 O.2     1  UNL1       -0.2692
     13  N1         1.7160    1.1660    0.1100 N.am    1  UNL1       -0.2028
     14  C11        0.4590    1.5140   -0.4490 C.ar    1  UNL1        0.0448
     15  C12        0.1260    2.8750   -0.5480 C.ar    1  UNL1       -0.0398
     16  C13       -1.0770    3.2080   -1.0890 C.ar    1  UNL1       -0.0597
     17  C14       -1.9610    2.2340   -1.5350 C.ar    1  UNL1       -0.0581
     18  C15       -1.6800    0.8970   -1.4600 C.ar    1  UNL1       -0.0397
     19  C16       -2.5600   -0.1900   -1.9120 C.3     1  UNL1        0.0172
     20  C17       -3.2090   -0.9760   -0.8610 C.ar    1  UNL1        0.0736
     21  N2        -2.6490   -2.1630   -0.4710 N.ar    1  UNL1       -0.1750
     22  N3        -3.1330   -2.9260    0.4720 N.ar    1  UNL1       -0.2425
     23  C18       -4.2390   -2.6060    1.1550 C.ar    1  UNL1        0.2725
     24  O3        -4.7110   -3.3380    2.0690 O.2     1  UNL1       -0.2658
     25  C19       -4.8970   -1.4180    0.8420 C.ar    1  UNL1        0.0496
     26  C20       -6.0440   -1.0500    1.5090 C.ar    1  UNL1       -0.0487
     27  C21       -6.6650    0.1200    1.1640 C.ar    1  UNL1       -0.0610
     28  C22       -6.1360    0.9140    0.1570 C.ar    1  UNL1       -0.0611
     29  C23       -4.9820    0.5380   -0.5070 C.ar    1  UNL1       -0.0521
     30  C24       -4.3480   -0.6380   -0.1680 C.ar    1  UNL1        0.0106
     31  C25       -0.4390    0.5720   -0.9020 C.ar    1  UNL1       -0.0363
     32 H           4.0652    1.2284    2.4704 H       1  UNL1        0.0677
     33 H           5.9057    0.3640    2.2645 H       1  UNL1        0.0624
     34 H           8.0080   -0.7767    2.1566 H       1  UNL1        0.0618
     35 H           8.4954   -2.2066    0.2816 H       1  UNL1        0.0618
     36 H           6.8587   -2.4570   -1.4358 H       1  UNL1        0.0618
     37 H           4.7325   -1.3183   -1.3567 H       1  UNL1        0.0624
     38 H           0.7777    3.6042   -0.2185 H       1  UNL1        0.0636
     39 H          -1.3377    4.2033   -1.1695 H       1  UNL1        0.0618
     40 H          -2.8638    2.5298   -1.9381 H       1  UNL1        0.0620
     41 H          -1.9731   -0.8598   -2.5052 H       1  UNL1        0.0377
     42 H          -3.3555    0.2883   -2.4443 H       1  UNL1        0.0377
     43 H          -2.6680   -3.7664    0.6883 H       1  UNL1        0.1921
     44 H          -6.4295   -1.6470    2.2574 H       1  UNL1        0.0625
     45 H          -7.5261    0.4112    1.6527 H       1  UNL1        0.0618
     46 H          -6.6085    1.7949   -0.0997 H       1  UNL1        0.0618
     47 H          -4.5968    1.1365   -1.2543 H       1  UNL1        0.0624
     48 H          -0.1828   -0.4248   -0.8257 H       1  UNL1        0.0639
@<TRIPOS>BOND
     1     1     2    2
     2     2     3    1
     3     2    13   am
     4     3     4    2
     5     4     5    1
     6     4    11    1
     7     5     6   ar
     8     5    10   ar
     9     6     7   ar
    10     7     8   ar
    11     8     9   ar
    12     9    10   ar
    13    11    12    2
    14    11    13   am
    15    13    14    1
    16    14    15   ar
    17    14    31   ar
    18    15    16   ar
    19    16    17   ar
    20    17    18   ar
    21    18    19    1
    22    18    31   ar
    23    19    20    1
    24    20    21   ar
    25    20    30   ar
    26    21    22   ar
    27    22    23   ar
    28    23    24    2
    29    23    25   ar
    30    25    26   ar
    31    25    30   ar
    32    26    27   ar
    33    27    28   ar
    34    28    29   ar
    35    29    30   ar
    36     3    32    1
    37     6    33    1
    38     7    34    1
    39     8    35    1
    40     9    36    1
    41    10    37    1
    42    15    38    1
    43    16    39    1
    44    17    40    1
    45    19    41    1
    46    19    42    1
    47    22    43    1
    48    26    44    1
    49    27    45    1
    50    28    46    1
    51    29    47    1
    52    31    48    1
