@<TRIPOS>MOLECULE
../data/bude_mols_rdkit_confs/molecule_40.pdb
 37 39 0 0 0
SMALL
GASTEIGER

@<TRIPOS>ATOM
      1  O1         0.3580    0.1320    0.9290 O.2     1  UNL1       -0.2754
      2  C1         0.3770   -0.2060   -0.2660 C.2     1  UNL1        0.2192
      3  C2        -0.5530   -1.2040   -0.8100 C.3     1  UNL1        0.0685
      4  C3        -1.8790   -0.7020   -1.1600 C.ar    1  UNL1        0.0780
      5  N1        -2.1530   -0.3550   -2.4610 N.ar    1  UNL1       -0.1748
      6  N2        -3.3010    0.1560   -2.8440 N.ar    1  UNL1       -0.2425
      7  C4        -4.3000    0.3800   -1.9800 C.ar    1  UNL1        0.2725
      8  O2        -5.4000    0.8590   -2.3080 O.2     1  UNL1       -0.2658
      9  C5        -4.1050    0.0600   -0.6530 C.ar    1  UNL1        0.0496
     10  C6        -5.1170    0.2730    0.2450 C.ar    1  UNL1       -0.0487
     11  C7        -4.9600   -0.0480    1.5710 C.ar    1  UNL1       -0.0610
     12  C8        -3.7490   -0.5920    1.9620 C.ar    1  UNL1       -0.0611
     13  C9        -2.7260   -0.8120    1.0800 C.ar    1  UNL1       -0.0521
     14  C10       -2.8690   -0.4890   -0.2660 C.ar    1  UNL1        0.0108
     15  N3         1.3430    0.4210   -1.0880 N.am    1  UNL1       -0.3109
     16  C11        2.2570    1.3990   -0.5280 C.3     1  UNL1        0.0368
     17  C12        3.4390    0.7690    0.1150 C.ar    1  UNL1       -0.0302
     18  C13        3.7310   -0.5600   -0.0510 C.ar    1  UNL1       -0.0544
     19  C14        4.8450   -1.1460    0.5150 C.ar    1  UNL1       -0.0261
     20  C15        5.6920   -0.3680    1.2710 C.ar    1  UNL1        0.1234
     21  F1         6.7840   -0.9100    1.8280 F       1  UNL1       -0.2055
     22  C16        5.4130    0.9630    1.4470 C.ar    1  UNL1       -0.0261
     23  C17        4.2820    1.5510    0.8710 C.ar    1  UNL1       -0.0544
     24 H          -0.6749   -1.9748   -0.0779 H       1  UNL1        0.0423
     25 H          -0.1164   -1.5444   -1.7256 H       1  UNL1        0.0423
     26 H          -3.4310    0.3809   -3.7936 H       1  UNL1        0.1921
     27 H          -6.0085    0.6797   -0.0788 H       1  UNL1        0.0625
     28 H          -5.7187    0.1109    2.2523 H       1  UNL1        0.0618
     29 H          -3.6125   -0.8407    2.9543 H       1  UNL1        0.0618
     30 H          -1.8403   -1.2212    1.4162 H       1  UNL1        0.0624
     31 H           1.3952    0.1927   -2.0442 H       1  UNL1        0.1490
     32 H           1.7344    1.9768    0.2055 H       1  UNL1        0.0512
     33 H           2.6110    2.0110   -1.3311 H       1  UNL1        0.0512
     34 H           3.0959   -1.1425   -0.6188 H       1  UNL1        0.0622
     35 H           5.0394   -2.1496    0.3739 H       1  UNL1        0.0646
     36 H           6.0501    1.5424    2.0157 H       1  UNL1        0.0646
     37 H           4.0832    2.5540    1.0106 H       1  UNL1        0.0622
@<TRIPOS>BOND
     1     1     2    2
     2     2     3    1
     3     2    15   am
     4     3     4    1
     5     4     5   ar
     6     4    14   ar
     7     5     6   ar
     8     6     7   ar
     9     7     8    2
    10     7     9   ar
    11     9    10   ar
    12     9    14   ar
    13    10    11   ar
    14    11    12   ar
    15    12    13   ar
    16    13    14   ar
    17    15    16    1
    18    16    17    1
    19    17    18   ar
    20    17    23   ar
    21    18    19   ar
    22    19    20   ar
    23    20    21    1
    24    20    22   ar
    25    22    23   ar
    26     3    24    1
    27     3    25    1
    28     6    26    1
    29    10    27    1
    30    11    28    1
    31    12    29    1
    32    13    30    1
    33    15    31    1
    34    16    32    1
    35    16    33    1
    36    18    34    1
    37    19    35    1
    38    22    36    1
    39    23    37    1
@<TRIPOS>MOLECULE
../data/bude_mols_rdkit_confs/molecule_40.pdb
 37 39 0 0 0
SMALL
GASTEIGER

@<TRIPOS>ATOM
      1  O1         1.0830    0.9690   -1.9850 O.2     1  UNL1       -0.2754
      2  C1         0.5890    0.3510   -1.0260 C.2     1  UNL1        0.2192
      3  C2        -0.5360   -0.6000   -1.2320 C.3     1  UNL1        0.0685
      4  C3        -1.7690    0.2130   -0.9580 C.ar    1  UNL1        0.0780
      5  N1        -1.7750    1.5450   -1.1040 N.ar    1  UNL1       -0.1748
      6  N2        -2.8060    2.3070   -0.7800 N.ar    1  UNL1       -0.2425
      7  C4        -3.9180    1.7590   -0.2800 C.ar    1  UNL1        0.2725
      8  O2        -4.8710    2.5090    0.0140 O.2     1  UNL1       -0.2658
      9  C5        -3.9970    0.3990   -0.0990 C.ar    1  UNL1        0.0496
     10  C6        -5.1590   -0.1440    0.4180 C.ar    1  UNL1       -0.0487
     11  C7        -5.1980   -1.5190    0.5810 C.ar    1  UNL1       -0.0610
     12  C8        -4.1090   -2.2970    0.2340 C.ar    1  UNL1       -0.0611
     13  C9        -2.9540   -1.7250   -0.2820 C.ar    1  UNL1       -0.0521
     14  C10       -2.9060   -0.3770   -0.4450 C.ar    1  UNL1        0.0108
     15  N3         1.0760    0.5420    0.2750 N.am    1  UNL1       -0.3109
     16  C11        2.1750    1.4320    0.5720 C.3     1  UNL1        0.0368
     17  C12        3.4250    0.6590    0.3880 C.ar    1  UNL1       -0.0302
     18  C13        3.3440   -0.7330    0.5360 C.ar    1  UNL1       -0.0544
     19  C14        4.4360   -1.5460    0.4210 C.ar    1  UNL1       -0.0261
     20  C15        5.6430   -0.9450    0.1510 C.ar    1  UNL1        0.1234
     21  F1         6.7730   -1.6660    0.0250 F       1  UNL1       -0.2055
     22  C16        5.7420    0.4210    0.0020 C.ar    1  UNL1       -0.0261
     23  C17        4.6290    1.2240    0.1210 C.ar    1  UNL1       -0.0544
     24 H          -0.4659   -1.4223   -0.5510 H       1  UNL1        0.0423
     25 H          -0.5371   -1.0230   -2.2148 H       1  UNL1        0.0423
     26 H          -2.7544    3.2818   -0.9075 H       1  UNL1        0.1921
     27 H          -5.9635    0.4504    0.6718 H       1  UNL1        0.0625
     28 H          -6.0457   -1.9658    0.9641 H       1  UNL1        0.0618
     29 H          -4.1555   -3.3201    0.3607 H       1  UNL1        0.0618
     30 H          -2.1457   -2.3136   -0.5374 H       1  UNL1        0.0624
     31 H           0.6524    0.0503    1.0153 H       1  UNL1        0.1490
     32 H           2.1035    1.7789    1.5817 H       1  UNL1        0.0512
     33 H           2.1576    2.2860   -0.0724 H       1  UNL1        0.0512
     34 H           2.4262   -1.1589    0.7392 H       1  UNL1        0.0622
     35 H           4.3582   -2.5690    0.5322 H       1  UNL1        0.0646
     36 H           6.6597    0.8472   -0.2009 H       1  UNL1        0.0646
     37 H           4.7105    2.2466    0.0080 H       1  UNL1        0.0622
@<TRIPOS>BOND
     1     1     2    2
     2     2     3    1
     3     2    15   am
     4     3     4    1
     5     4     5   ar
     6     4    14   ar
     7     5     6   ar
     8     6     7   ar
     9     7     8    2
    10     7     9   ar
    11     9    10   ar
    12     9    14   ar
    13    10    11   ar
    14    11    12   ar
    15    12    13   ar
    16    13    14   ar
    17    15    16    1
    18    16    17    1
    19    17    18   ar
    20    17    23   ar
    21    18    19   ar
    22    19    20   ar
    23    20    21    1
    24    20    22   ar
    25    22    23   ar
    26     3    24    1
    27     3    25    1
    28     6    26    1
    29    10    27    1
    30    11    28    1
    31    12    29    1
    32    13    30    1
    33    15    31    1
    34    16    32    1
    35    16    33    1
    36    18    34    1
    37    19    35    1
    38    22    36    1
    39    23    37    1
@<TRIPOS>MOLECULE
../data/bude_mols_rdkit_confs/molecule_40.pdb
 37 39 0 0 0
SMALL
GASTEIGER

@<TRIPOS>ATOM
      1  O1         0.2920    0.2970    0.7950 O.2     1  UNL1       -0.2754
      2  C1         0.3050   -0.0690   -0.4020 C.2     1  UNL1        0.2192
      3  C2        -0.6410    0.3740   -1.4290 C.3     1  UNL1        0.0685
      4  C3        -1.9920   -0.1750   -1.2140 C.ar    1  UNL1        0.0780
      5  N1        -2.3350   -1.2970   -1.8830 N.ar    1  UNL1       -0.1748
      6  N2        -3.5120   -1.8570   -1.6930 N.ar    1  UNL1       -0.2425
      7  C4        -4.4320   -1.3780   -0.8530 C.ar    1  UNL1        0.2725
      8  O2        -5.5540   -1.9380   -0.6870 O.2     1  UNL1       -0.2658
      9  C5        -4.1570   -0.2300   -0.1330 C.ar    1  UNL1        0.0496
     10  C6        -5.0960    0.3060    0.7420 C.ar    1  UNL1       -0.0487
     11  C7        -4.7950    1.4620    1.4330 C.ar    1  UNL1       -0.0610
     12  C8        -3.5680    2.0480    1.2330 C.ar    1  UNL1       -0.0611
     13  C9        -2.6430    1.5100    0.3670 C.ar    1  UNL1       -0.0521
     14  C10       -2.9210    0.3500   -0.3380 C.ar    1  UNL1        0.0108
     15  N3         1.3410   -1.0000   -0.7580 N.am    1  UNL1       -0.3109
     16  C11        2.3150   -1.4830    0.1810 C.3     1  UNL1        0.0368
     17  C12        3.4690   -0.6080    0.4130 C.ar    1  UNL1       -0.0302
     18  C13        4.6060   -1.2110    0.9520 C.ar    1  UNL1       -0.0544
     19  C14        5.7260   -0.4210    1.1810 C.ar    1  UNL1       -0.0261
     20  C15        5.7320    0.9180    0.8900 C.ar    1  UNL1        0.1234
     21  F1         6.8490    1.6540    1.1240 F       1  UNL1       -0.2055
     22  C16        4.6000    1.4980    0.3590 C.ar    1  UNL1       -0.0261
     23  C17        3.4780    0.7250    0.1260 C.ar    1  UNL1       -0.0544
     24 H          -0.2865    0.0526   -2.3860 H       1  UNL1        0.0423
     25 H          -0.7073    1.4407   -1.3771 H       1  UNL1        0.0423
     26 H          -3.7250   -2.6744   -2.1987 H       1  UNL1        0.1921
     27 H          -6.0092   -0.1564    0.8732 H       1  UNL1        0.0625
     28 H          -5.4771    1.8778    2.0864 H       1  UNL1        0.0618
     29 H          -3.3342    2.9131    1.7449 H       1  UNL1        0.0618
     30 H          -1.7311    1.9765    0.2413 H       1  UNL1        0.0624
     31 H           1.3850   -1.3212   -1.6876 H       1  UNL1        0.1490
     32 H           2.6820   -2.4209   -0.1803 H       1  UNL1        0.0512
     33 H           1.8059   -1.5464    1.1200 H       1  UNL1        0.0512
     34 H           4.6149   -2.2186    1.1750 H       1  UNL1        0.0622
     35 H           6.5739   -0.8533    1.5800 H       1  UNL1        0.0646
     36 H           4.5901    2.5056    0.1362 H       1  UNL1        0.0646
     37 H           2.6330    1.1641   -0.2718 H       1  UNL1        0.0622
@<TRIPOS>BOND
     1     1     2    2
     2     2     3    1
     3     2    15   am
     4     3     4    1
     5     4     5   ar
     6     4    14   ar
     7     5     6   ar
     8     6     7   ar
     9     7     8    2
    10     7     9   ar
    11     9    10   ar
    12     9    14   ar
    13    10    11   ar
    14    11    12   ar
    15    12    13   ar
    16    13    14   ar
    17    15    16    1
    18    16    17    1
    19    17    18   ar
    20    17    23   ar
    21    18    19   ar
    22    19    20   ar
    23    20    21    1
    24    20    22   ar
    25    22    23   ar
    26     3    24    1
    27     3    25    1
    28     6    26    1
    29    10    27    1
    30    11    28    1
    31    12    29    1
    32    13    30    1
    33    15    31    1
    34    16    32    1
    35    16    33    1
    36    18    34    1
    37    19    35    1
    38    22    36    1
    39    23    37    1
@<TRIPOS>MOLECULE
../data/bude_mols_rdkit_confs/molecule_40.pdb
 37 39 0 0 0
SMALL
GASTEIGER

@<TRIPOS>ATOM
      1  O1         0.2410   -0.4940    0.5630 O.2     1  UNL1       -0.2754
      2  C1         0.3190   -0.3570   -0.6800 C.2     1  UNL1        0.2192
      3  C2        -0.5970    0.5130   -1.4610 C.3     1  UNL1        0.0685
      4  C3        -1.6450    1.1480   -0.6610 C.ar    1  UNL1        0.0780
      5  N1        -1.5810    2.4270   -0.3160 N.ar    1  UNL1       -0.1748
      6  N2        -2.5110    3.0320    0.4020 N.ar    1  UNL1       -0.2425
      7  C4        -3.5770    2.3460    0.8120 C.ar    1  UNL1        0.2725
      8  O2        -4.4640    2.9580    1.5060 O.2     1  UNL1       -0.2658
      9  C5        -3.7330    1.0150    0.5040 C.ar    1  UNL1        0.0496
     10  C6        -4.8170    0.2760    0.9060 C.ar    1  UNL1       -0.0487
     11  C7        -4.9220   -1.0700    0.5630 C.ar    1  UNL1       -0.0610
     12  C8        -3.9350   -1.6680   -0.1850 C.ar    1  UNL1       -0.0611
     13  C9        -2.8450   -0.9240   -0.5900 C.ar    1  UNL1       -0.0521
     14  C10       -2.7530    0.4120   -0.2410 C.ar    1  UNL1        0.0108
     15  N3         1.3150   -1.0540   -1.3990 N.am    1  UNL1       -0.3109
     16  C11        2.2460   -1.9150   -0.7340 C.3     1  UNL1        0.0368
     17  C12        3.2640   -1.0440   -0.0910 C.ar    1  UNL1       -0.0302
     18  C13        3.3880   -0.9770    1.2780 C.ar    1  UNL1       -0.0544
     19  C14        4.3320   -0.1620    1.8920 C.ar    1  UNL1       -0.0261
     20  C15        5.1530    0.5890    1.0950 C.ar    1  UNL1        0.1234
     21  F1         6.0810    1.3910    1.6760 F       1  UNL1       -0.2055
     22  C16        5.0730    0.5600   -0.2790 C.ar    1  UNL1       -0.0261
     23  C17        4.1130   -0.2690   -0.8630 C.ar    1  UNL1       -0.0544
     24 H          -1.0654   -0.0839   -2.2155 H       1  UNL1        0.0423
     25 H          -0.0001    1.3016   -1.8693 H       1  UNL1        0.0423
     26 H          -2.4166    3.9844    0.6327 H       1  UNL1        0.1921
     27 H          -5.5603    0.7209    1.4669 H       1  UNL1        0.0625
     28 H          -5.7405   -1.6184    0.8702 H       1  UNL1        0.0618
     29 H          -4.0086   -2.6649   -0.4415 H       1  UNL1        0.0618
     30 H          -2.0996   -1.3636   -1.1524 H       1  UNL1        0.0624
     31 H           1.3702   -0.9458   -2.3760 H       1  UNL1        0.1490
     32 H           2.7145   -2.5659   -1.4423 H       1  UNL1        0.0512
     33 H           1.7500   -2.5226   -0.0061 H       1  UNL1        0.0512
     34 H           2.7617   -1.5487    1.8661 H       1  UNL1        0.0622
     35 H           4.4116   -0.1243    2.9202 H       1  UNL1        0.0646
     36 H           5.7038    1.1339   -0.8602 H       1  UNL1        0.0646
     37 H           4.0346   -0.3048   -1.8914 H       1  UNL1        0.0622
@<TRIPOS>BOND
     1     1     2    2
     2     2     3    1
     3     2    15   am
     4     3     4    1
     5     4     5   ar
     6     4    14   ar
     7     5     6   ar
     8     6     7   ar
     9     7     8    2
    10     7     9   ar
    11     9    10   ar
    12     9    14   ar
    13    10    11   ar
    14    11    12   ar
    15    12    13   ar
    16    13    14   ar
    17    15    16    1
    18    16    17    1
    19    17    18   ar
    20    17    23   ar
    21    18    19   ar
    22    19    20   ar
    23    20    21    1
    24    20    22   ar
    25    22    23   ar
    26     3    24    1
    27     3    25    1
    28     6    26    1
    29    10    27    1
    30    11    28    1
    31    12    29    1
    32    13    30    1
    33    15    31    1
    34    16    32    1
    35    16    33    1
    36    18    34    1
    37    19    35    1
    38    22    36    1
    39    23    37    1
@<TRIPOS>MOLECULE
../data/bude_mols_rdkit_confs/molecule_40.pdb
 37 39 0 0 0
SMALL
GASTEIGER

@<TRIPOS>ATOM
      1  O1         0.5900   -1.3240   -1.1680 O.2     1  UNL1       -0.2754
      2  C1         0.3180   -0.2050   -0.5690 C.2     1  UNL1        0.2192
      3  C2        -0.6950    0.6210   -1.2880 C.3     1  UNL1        0.0685
      4  C3        -2.0360    0.0570   -1.1670 C.ar    1  UNL1        0.0780
      5  N1        -2.5490   -0.7660   -2.1020 N.ar    1  UNL1       -0.1748
      6  N2        -3.7400   -1.3130   -1.9450 N.ar    1  UNL1       -0.2425
      7  C4        -4.5330   -1.1110   -0.8790 C.ar    1  UNL1        0.2725
      8  O2        -5.6640   -1.6710   -0.7990 O.2     1  UNL1       -0.2658
      9  C5        -4.0790   -0.2790    0.1220 C.ar    1  UNL1        0.0496
     10  C6        -4.8570   -0.0220    1.2310 C.ar    1  UNL1       -0.0487
     11  C7        -4.3350    0.8380    2.1740 C.ar    1  UNL1       -0.0610
     12  C8        -3.1050    1.4280    2.0450 C.ar    1  UNL1       -0.0611
     13  C9        -2.3490    1.1430    0.9100 C.ar    1  UNL1       -0.0521
     14  C10       -2.8320    0.2860   -0.0570 C.ar    1  UNL1        0.0108
     15  N3         0.9540    0.1330    0.6360 N.am    1  UNL1       -0.3109
     16  C11        1.9540   -0.7500    1.2490 C.3     1  UNL1        0.0368
     17  C12        3.2980   -0.4330    0.7200 C.ar    1  UNL1       -0.0302
     18  C13        3.9940    0.5470    1.4100 C.ar    1  UNL1       -0.0544
     19  C14        5.2390    0.8820    0.9560 C.ar    1  UNL1       -0.0261
     20  C15        5.7880    0.2750   -0.1420 C.ar    1  UNL1        0.1234
     21  F1         7.0370    0.6510   -0.5580 F       1  UNL1       -0.2055
     22  C16        5.1040   -0.6950   -0.8280 C.ar    1  UNL1       -0.0261
     23  C17        3.8390   -1.0350   -0.3670 C.ar    1  UNL1       -0.0544
     24 H          -0.4312    0.6691   -2.3239 H       1  UNL1        0.0423
     25 H          -0.7026    1.5966   -0.8485 H       1  UNL1        0.0423
     26 H          -4.0693   -1.9087   -2.6563 H       1  UNL1        0.1921
     27 H          -5.7870   -0.4534    1.3498 H       1  UNL1        0.0625
     28 H          -4.8959    1.0467    3.0147 H       1  UNL1        0.0618
     29 H          -2.7472    2.0681    2.7712 H       1  UNL1        0.0618
     30 H          -1.4200    1.5766    0.7917 H       1  UNL1        0.0624
     31 H           0.7243    0.9812    1.0799 H       1  UNL1        0.1490
     32 H           1.7147   -1.7680    1.0224 H       1  UNL1        0.0512
     33 H           1.9496   -0.6044    2.3090 H       1  UNL1        0.0512
     34 H           3.5862    1.0081    2.2383 H       1  UNL1        0.0622
     35 H           5.7777    1.6091    1.4521 H       1  UNL1        0.0646
     36 H           5.5138   -1.1552   -1.6558 H       1  UNL1        0.0646
     37 H           3.2993   -1.7616   -0.8627 H       1  UNL1        0.0622
@<TRIPOS>BOND
     1     1     2    2
     2     2     3    1
     3     2    15   am
     4     3     4    1
     5     4     5   ar
     6     4    14   ar
     7     5     6   ar
     8     6     7   ar
     9     7     8    2
    10     7     9   ar
    11     9    10   ar
    12     9    14   ar
    13    10    11   ar
    14    11    12   ar
    15    12    13   ar
    16    13    14   ar
    17    15    16    1
    18    16    17    1
    19    17    18   ar
    20    17    23   ar
    21    18    19   ar
    22    19    20   ar
    23    20    21    1
    24    20    22   ar
    25    22    23   ar
    26     3    24    1
    27     3    25    1
    28     6    26    1
    29    10    27    1
    30    11    28    1
    31    12    29    1
    32    13    30    1
    33    15    31    1
    34    16    32    1
    35    16    33    1
    36    18    34    1
    37    19    35    1
    38    22    36    1
    39    23    37    1
@<TRIPOS>MOLECULE
../data/bude_mols_rdkit_confs/molecule_40.pdb
 37 39 0 0 0
SMALL
GASTEIGER

@<TRIPOS>ATOM
      1  O1         0.4840    0.0610    1.3310 O.2     1  UNL1       -0.2754
      2  C1         0.0400    0.5400    0.2640 C.2     1  UNL1        0.2192
      3  C2         0.9530    1.1560   -0.7260 C.3     1  UNL1        0.0685
      4  C3         2.3580    1.1370   -0.3160 C.ar    1  UNL1        0.0780
      5  N1         2.9870    2.2470    0.1450 N.ar    1  UNL1       -0.1748
      6  N2         4.2620    2.2400    0.5200 N.ar    1  UNL1       -0.2425
      7  C4         4.9730    1.1020    0.4460 C.ar    1  UNL1        0.2725
      8  O2         6.1800    1.0770    0.7960 O.2     1  UNL1       -0.2658
      9  C5         4.4290   -0.0850   -0.0090 C.ar    1  UNL1        0.0496
     10  C6         5.1280   -1.2510   -0.0920 C.ar    1  UNL1       -0.0487
     11  C7         4.5300   -2.4020   -0.5540 C.ar    1  UNL1       -0.0610
     12  C8         3.1860   -2.3570   -0.9390 C.ar    1  UNL1       -0.0611
     13  C9         2.4760   -1.1640   -0.8530 C.ar    1  UNL1       -0.0521
     14  C10        3.0860   -0.0340   -0.3920 C.ar    1  UNL1        0.0108
     15  N3        -1.3450    0.4940   -0.0020 N.am    1  UNL1       -0.3109
     16  C11       -2.2090   -0.1180    0.9940 C.3     1  UNL1        0.0368
     17  C12       -3.6260   -0.0490    0.5420 C.ar    1  UNL1       -0.0302
     18  C13       -4.4590    1.0150    0.8830 C.ar    1  UNL1       -0.0544
     19  C14       -5.7660    1.0530    0.4490 C.ar    1  UNL1       -0.0261
     20  C15       -6.3060    0.0620   -0.3290 C.ar    1  UNL1        0.1234
     21  F1        -7.5930    0.1050   -0.7540 F       1  UNL1       -0.2055
     22  C16       -5.4970   -0.9940   -0.6740 C.ar    1  UNL1       -0.0261
     23  C17       -4.1790   -1.0370   -0.2380 C.ar    1  UNL1       -0.0544
     24 H           0.6568    2.1737   -0.8725 H       1  UNL1        0.0423
     25 H           0.8794    0.5785   -1.6237 H       1  UNL1        0.0423
     26 H           4.6841    3.0656    0.8508 H       1  UNL1        0.1921
     27 H           6.1190   -1.2721    0.1952 H       1  UNL1        0.0625
     28 H           5.0642   -3.2828   -0.6152 H       1  UNL1        0.0618
     29 H           2.7207   -3.2098   -1.2872 H       1  UNL1        0.0618
     30 H           1.4848   -1.1335   -1.1388 H       1  UNL1        0.0624
     31 H          -1.7145    0.8647   -0.8358 H       1  UNL1        0.1490
     32 H          -2.1063    0.4039    1.9224 H       1  UNL1        0.0512
     33 H          -1.9287   -1.1424    1.1238 H       1  UNL1        0.0512
     34 H          -4.0927    1.7829    1.4671 H       1  UNL1        0.0622
     35 H          -6.3581    1.8541    0.7186 H       1  UNL1        0.0646
     36 H          -5.8701   -1.7578   -1.2591 H       1  UNL1        0.0646
     37 H          -3.5923   -1.8413   -0.5099 H       1  UNL1        0.0622
@<TRIPOS>BOND
     1     1     2    2
     2     2     3    1
     3     2    15   am
     4     3     4    1
     5     4     5   ar
     6     4    14   ar
     7     5     6   ar
     8     6     7   ar
     9     7     8    2
    10     7     9   ar
    11     9    10   ar
    12     9    14   ar
    13    10    11   ar
    14    11    12   ar
    15    12    13   ar
    16    13    14   ar
    17    15    16    1
    18    16    17    1
    19    17    18   ar
    20    17    23   ar
    21    18    19   ar
    22    19    20   ar
    23    20    21    1
    24    20    22   ar
    25    22    23   ar
    26     3    24    1
    27     3    25    1
    28     6    26    1
    29    10    27    1
    30    11    28    1
    31    12    29    1
    32    13    30    1
    33    15    31    1
    34    16    32    1
    35    16    33    1
    36    18    34    1
    37    19    35    1
    38    22    36    1
    39    23    37    1
@<TRIPOS>MOLECULE
../data/bude_mols_rdkit_confs/molecule_40.pdb
 37 39 0 0 0
SMALL
GASTEIGER

@<TRIPOS>ATOM
      1  O1        -0.1340   -0.2960    0.6130 O.2     1  UNL1       -0.2754
      2  C1        -0.1950   -0.5430   -0.6040 C.2     1  UNL1        0.2192
      3  C2         0.7060    0.1270   -1.5560 C.3     1  UNL1        0.0685
      4  C3         1.6110    1.0320   -0.7740 C.ar    1  UNL1        0.0780
      5  N1         1.4410    2.3700   -0.7380 N.ar    1  UNL1       -0.1748
      6  N2         2.2110    3.1790   -0.0700 N.ar    1  UNL1       -0.2425
      7  C4         3.2390    2.6880    0.6310 C.ar    1  UNL1        0.2725
      8  O2         4.0160    3.4290    1.2950 O.2     1  UNL1       -0.2658
      9  C5         3.4940    1.3380    0.6560 C.ar    1  UNL1        0.0496
     10  C6         4.5470    0.7780    1.3670 C.ar    1  UNL1       -0.0487
     11  C7         4.7870   -0.5770    1.3800 C.ar    1  UNL1       -0.0610
     12  C8         3.9340   -1.3760    0.6530 C.ar    1  UNL1       -0.0611
     13  C9         2.8780   -0.8630   -0.0650 C.ar    1  UNL1       -0.0521
     14  C10        2.6540    0.5020   -0.0650 C.ar    1  UNL1        0.0108
     15  N3        -1.1380   -1.4800   -1.0980 N.am    1  UNL1       -0.3109
     16  C11       -2.0170   -2.1240   -0.1400 C.3     1  UNL1        0.0368
     17  C12       -3.0900   -1.1990    0.2610 C.ar    1  UNL1       -0.0302
     18  C13       -3.2140    0.0630   -0.2820 C.ar    1  UNL1       -0.0544
     19  C14       -4.2170    0.9280    0.0850 C.ar    1  UNL1       -0.0261
     20  C15       -5.1470    0.5380    1.0330 C.ar    1  UNL1        0.1234
     21  F1        -6.1570    1.3460    1.4340 F       1  UNL1       -0.2055
     22  C16       -5.0440   -0.7010    1.5820 C.ar    1  UNL1       -0.0261
     23  C17       -4.0200   -1.5730    1.2000 C.ar    1  UNL1       -0.0544
     24 H           0.1345    0.7003   -2.2557 H       1  UNL1        0.0423
     25 H           1.2791   -0.5953   -2.0989 H       1  UNL1        0.0423
     26 H           2.0377    4.1481   -0.0805 H       1  UNL1        0.1921
     27 H           5.1714    1.3996    1.9044 H       1  UNL1        0.0625
     28 H           5.5745   -0.9778    1.9131 H       1  UNL1        0.0618
     29 H           4.0919   -2.3958    0.6461 H       1  UNL1        0.0618
     30 H           2.2581   -1.4917   -0.5992 H       1  UNL1        0.0624
     31 H          -1.1943   -1.6866   -2.0589 H       1  UNL1        0.1490
     32 H          -1.4526   -2.4075    0.7237 H       1  UNL1        0.0512
     33 H          -2.4518   -2.9916   -0.5907 H       1  UNL1        0.0512
     34 H          -2.5283    0.3689   -0.9900 H       1  UNL1        0.0622
     35 H          -4.2765    1.8645   -0.3445 H       1  UNL1        0.0646
     36 H          -5.7311   -1.0023    2.2906 H       1  UNL1        0.0646
     37 H          -3.9622   -2.5098    1.6291 H       1  UNL1        0.0622
@<TRIPOS>BOND
     1     1     2    2
     2     2     3    1
     3     2    15   am
     4     3     4    1
     5     4     5   ar
     6     4    14   ar
     7     5     6   ar
     8     6     7   ar
     9     7     8    2
    10     7     9   ar
    11     9    10   ar
    12     9    14   ar
    13    10    11   ar
    14    11    12   ar
    15    12    13   ar
    16    13    14   ar
    17    15    16    1
    18    16    17    1
    19    17    18   ar
    20    17    23   ar
    21    18    19   ar
    22    19    20   ar
    23    20    21    1
    24    20    22   ar
    25    22    23   ar
    26     3    24    1
    27     3    25    1
    28     6    26    1
    29    10    27    1
    30    11    28    1
    31    12    29    1
    32    13    30    1
    33    15    31    1
    34    16    32    1
    35    16    33    1
    36    18    34    1
    37    19    35    1
    38    22    36    1
    39    23    37    1
@<TRIPOS>MOLECULE
../data/bude_mols_rdkit_confs/molecule_40.pdb
 37 39 0 0 0
SMALL
GASTEIGER

@<TRIPOS>ATOM
      1  O1         0.1340   -1.3680   -0.1660 O.2     1  UNL1       -0.2754
      2  C1         0.3110   -0.8510   -1.2990 C.2     1  UNL1        0.2192
      3  C2        -0.8610   -0.4290   -2.0820 C.3     1  UNL1        0.0685
      4  C3        -2.1020   -0.7290   -1.3720 C.ar    1  UNL1        0.0780
      5  N1        -2.8870   -1.7710   -1.7510 N.ar    1  UNL1       -0.1748
      6  N2        -4.0230   -2.0880   -1.1520 N.ar    1  UNL1       -0.2425
      7  C4        -4.4610   -1.3680   -0.1090 C.ar    1  UNL1        0.2725
      8  O2        -5.5490   -1.6450    0.4920 O.2     1  UNL1       -0.2658
      9  C5        -3.7350   -0.2780    0.3630 C.ar    1  UNL1        0.0496
     10  C6        -4.1320    0.4940    1.4180 C.ar    1  UNL1       -0.0487
     11  C7        -3.3600    1.5770    1.8420 C.ar    1  UNL1       -0.0610
     12  C8        -2.1790    1.8640    1.1790 C.ar    1  UNL1       -0.0611
     13  C9        -1.7680    1.0850    0.1060 C.ar    1  UNL1       -0.0521
     14  C10       -2.5490    0.0210   -0.2930 C.ar    1  UNL1        0.0108
     15  N3         1.6600   -0.7130   -1.7430 N.am    1  UNL1       -0.3109
     16  C11        2.8020   -1.1210   -0.9890 C.3     1  UNL1        0.0368
     17  C12        3.2230   -0.2240    0.0880 C.ar    1  UNL1       -0.0302
     18  C13        4.4800   -0.4360    0.6540 C.ar    1  UNL1       -0.0544
     19  C14        4.9700    0.3360    1.6600 C.ar    1  UNL1       -0.0261
     20  C15        4.2230    1.3740    2.1630 C.ar    1  UNL1        0.1234
     21  F1         4.7420    2.1430    3.1830 F       1  UNL1       -0.2055
     22  C16        2.9760    1.6100    1.6260 C.ar    1  UNL1       -0.0261
     23  C17        2.4850    0.8130    0.5940 C.ar    1  UNL1       -0.0544
     24 H          -0.8603   -0.9460   -3.0188 H       1  UNL1        0.0423
     25 H          -0.8043    0.6282   -2.2367 H       1  UNL1        0.0423
     26 H          -4.5490   -2.8557   -1.4733 H       1  UNL1        0.1921
     27 H          -5.0134    0.2738    1.9075 H       1  UNL1        0.0625
     28 H          -3.6657    2.1563    2.6395 H       1  UNL1        0.0618
     29 H          -1.6005    2.6622    1.4844 H       1  UNL1        0.0618
     30 H          -0.8876    1.2999   -0.3876 H       1  UNL1        0.0624
     31 H           1.8136   -0.3097   -2.6279 H       1  UNL1        0.1490
     32 H           3.6223   -1.2216   -1.6687 H       1  UNL1        0.0512
     33 H           2.5141   -2.0312   -0.5057 H       1  UNL1        0.0512
     34 H           5.0611   -1.2095    0.2949 H       1  UNL1        0.0622
     35 H           5.9066    0.1418    2.0474 H       1  UNL1        0.0646
     36 H           2.4003    2.3845    1.9917 H       1  UNL1        0.0646
     37 H           1.5494    1.0073    0.2042 H       1  UNL1        0.0622
@<TRIPOS>BOND
     1     1     2    2
     2     2     3    1
     3     2    15   am
     4     3     4    1
     5     4     5   ar
     6     4    14   ar
     7     5     6   ar
     8     6     7   ar
     9     7     8    2
    10     7     9   ar
    11     9    10   ar
    12     9    14   ar
    13    10    11   ar
    14    11    12   ar
    15    12    13   ar
    16    13    14   ar
    17    15    16    1
    18    16    17    1
    19    17    18   ar
    20    17    23   ar
    21    18    19   ar
    22    19    20   ar
    23    20    21    1
    24    20    22   ar
    25    22    23   ar
    26     3    24    1
    27     3    25    1
    28     6    26    1
    29    10    27    1
    30    11    28    1
    31    12    29    1
    32    13    30    1
    33    15    31    1
    34    16    32    1
    35    16    33    1
    36    18    34    1
    37    19    35    1
    38    22    36    1
    39    23    37    1
@<TRIPOS>MOLECULE
../data/bude_mols_rdkit_confs/molecule_40.pdb
 37 39 0 0 0
SMALL
GASTEIGER

@<TRIPOS>ATOM
      1  O1         0.6500    0.7200    1.2060 O.2     1  UNL1       -0.2754
      2  C1         0.3610   -0.3220    0.5260 C.2     1  UNL1        0.2192
      3  C2        -0.5670   -1.2670    1.1390 C.3     1  UNL1        0.0685
      4  C3        -1.8640   -0.5650    1.4250 C.ar    1  UNL1        0.0780
      5  N1        -2.1690   -0.1410    2.6610 N.ar    1  UNL1       -0.1748
      6  N2        -3.2680    0.4820    2.9960 N.ar    1  UNL1       -0.2425
      7  C4        -4.1950    0.7350    2.0400 C.ar    1  UNL1        0.2725
      8  O2        -5.2720    1.3250    2.2750 O.2     1  UNL1       -0.2658
      9  C5        -3.9710    0.3360    0.7380 C.ar    1  UNL1        0.0496
     10  C6        -4.9020    0.5780   -0.2720 C.ar    1  UNL1       -0.0487
     11  C7        -4.6890    0.1860   -1.5670 C.ar    1  UNL1       -0.0610
     12  C8        -3.5080   -0.4670   -1.8490 C.ar    1  UNL1       -0.0611
     13  C9        -2.5520   -0.7310   -0.8860 C.ar    1  UNL1       -0.0521
     14  C10       -2.7990   -0.3190    0.4210 C.ar    1  UNL1        0.0108
     15  N3         0.9840   -0.4230   -0.7420 N.am    1  UNL1       -0.3109
     16  C11        1.9080    0.5970   -1.2390 C.3     1  UNL1        0.0368
     17  C12        3.2550    0.4310   -0.6430 C.ar    1  UNL1       -0.0302
     18  C13        4.2530    1.3730   -0.6960 C.ar    1  UNL1       -0.0544
     19  C14        5.5150    1.1920   -0.1560 C.ar    1  UNL1       -0.0261
     20  C15        5.7870    0.0050    0.4690 C.ar    1  UNL1        0.1234
     21  F1         7.0170   -0.2190    1.0140 F       1  UNL1       -0.2055
     22  C16        4.8170   -0.9770    0.5500 C.ar    1  UNL1       -0.0261
     23  C17        3.5500   -0.7580   -0.0090 C.ar    1  UNL1       -0.0544
     24 H          -0.1506   -1.6370    2.0525 H       1  UNL1        0.0423
     25 H          -0.7394   -2.0869    0.4735 H       1  UNL1        0.0423
     26 H          -3.4200    0.7629    3.9273 H       1  UNL1        0.1921
     27 H          -5.7791    1.0679   -0.0361 H       1  UNL1        0.0625
     28 H          -5.3866    0.3725   -2.3042 H       1  UNL1        0.0618
     29 H          -3.3303   -0.7713   -2.8190 H       1  UNL1        0.0618
     30 H          -1.6771   -1.2212   -1.1296 H       1  UNL1        0.0624
     31 H           0.7890   -1.2050   -1.3074 H       1  UNL1        0.1490
     32 H           1.5299    1.5651   -0.9846 H       1  UNL1        0.0512
     33 H           1.9905    0.4932   -2.3008 H       1  UNL1        0.0512
     34 H           4.0502    2.2690   -1.1663 H       1  UNL1        0.0622
     35 H           6.2312    1.9320   -0.2229 H       1  UNL1        0.0646
     36 H           5.0255   -1.8709    1.0218 H       1  UNL1        0.0646
     37 H           2.8300   -1.4946    0.0546 H       1  UNL1        0.0622
@<TRIPOS>BOND
     1     1     2    2
     2     2     3    1
     3     2    15   am
     4     3     4    1
     5     4     5   ar
     6     4    14   ar
     7     5     6   ar
     8     6     7   ar
     9     7     8    2
    10     7     9   ar
    11     9    10   ar
    12     9    14   ar
    13    10    11   ar
    14    11    12   ar
    15    12    13   ar
    16    13    14   ar
    17    15    16    1
    18    16    17    1
    19    17    18   ar
    20    17    23   ar
    21    18    19   ar
    22    19    20   ar
    23    20    21    1
    24    20    22   ar
    25    22    23   ar
    26     3    24    1
    27     3    25    1
    28     6    26    1
    29    10    27    1
    30    11    28    1
    31    12    29    1
    32    13    30    1
    33    15    31    1
    34    16    32    1
    35    16    33    1
    36    18    34    1
    37    19    35    1
    38    22    36    1
    39    23    37    1
@<TRIPOS>MOLECULE
../data/bude_mols_rdkit_confs/molecule_40.pdb
 37 39 0 0 0
SMALL
GASTEIGER

@<TRIPOS>ATOM
      1  O1         0.2480    0.2800    0.8160 O.2     1  UNL1       -0.2754
      2  C1         0.3040    0.5630   -0.4050 C.2     1  UNL1        0.2192
      3  C2        -0.6060    0.0730   -1.4410 C.3     1  UNL1        0.0685
      4  C3        -1.6860   -0.8150   -0.9570 C.ar    1  UNL1        0.0780
      5  N1        -1.6250   -2.1560   -1.0830 N.ar    1  UNL1       -0.1748
      6  N2        -2.5800   -2.9700   -0.6460 N.ar    1  UNL1       -0.2425
      7  C4        -3.6800   -2.4950   -0.0430 C.ar    1  UNL1        0.2725
      8  O2        -4.5760   -3.3080    0.3650 O.2     1  UNL1       -0.2658
      9  C5        -3.8140   -1.1340    0.1220 C.ar    1  UNL1        0.0496
     10  C6        -4.9580   -0.6570    0.7420 C.ar    1  UNL1       -0.0487
     11  C7        -5.0800    0.6990    0.8930 C.ar    1  UNL1       -0.0610
     12  C8        -4.1050    1.5390    0.4460 C.ar    1  UNL1       -0.0611
     13  C9        -2.9700    1.0720   -0.1680 C.ar    1  UNL1       -0.0521
     14  C10       -2.8050   -0.2930   -0.3420 C.ar    1  UNL1        0.0108
     15  N3         1.3480    1.4380   -0.8090 N.am    1  UNL1       -0.3109
     16  C11        2.3270    2.0010    0.0860 C.3     1  UNL1        0.0368
     17  C12        3.3800    0.9840    0.4290 C.ar    1  UNL1       -0.0302
     18  C13        4.4590    1.3390    1.1970 C.ar    1  UNL1       -0.0544
     19  C14        5.4220    0.4220    1.5150 C.ar    1  UNL1       -0.0261
     20  C15        5.3160   -0.8930    1.0570 C.ar    1  UNL1        0.1234
     21  F1         6.2880   -1.7880    1.3850 F       1  UNL1       -0.2055
     22  C16        4.2320   -1.2070    0.2990 C.ar    1  UNL1       -0.0261
     23  C17        3.2550   -0.3030   -0.0310 C.ar    1  UNL1       -0.0544
     24 H          -0.0285   -0.4688   -2.1606 H       1  UNL1        0.0423
     25 H          -1.0893    0.9370   -1.8469 H       1  UNL1        0.0423
     26 H          -2.4781   -3.9417   -0.7673 H       1  UNL1        0.1921
     27 H          -5.6917   -1.3003    1.0779 H       1  UNL1        0.0625
     28 H          -5.9193    1.0884    1.3502 H       1  UNL1        0.0618
     29 H          -4.2234    2.5563    0.5728 H       1  UNL1        0.0618
     30 H          -2.2467    1.7306   -0.4968 H       1  UNL1        0.0624
     31 H           1.4063    1.6751   -1.7627 H       1  UNL1        0.1490
     32 H           1.8401    2.3191    0.9841 H       1  UNL1        0.0512
     33 H           2.7962    2.8329   -0.3964 H       1  UNL1        0.0512
     34 H           4.5452    2.3090    1.5387 H       1  UNL1        0.0622
     35 H           6.2287    0.7021    2.0945 H       1  UNL1        0.0646
     36 H           4.1396   -2.1753   -0.0457 H       1  UNL1        0.0646
     37 H           2.4476   -0.5829   -0.6096 H       1  UNL1        0.0622
@<TRIPOS>BOND
     1     1     2    2
     2     2     3    1
     3     2    15   am
     4     3     4    1
     5     4     5   ar
     6     4    14   ar
     7     5     6   ar
     8     6     7   ar
     9     7     8    2
    10     7     9   ar
    11     9    10   ar
    12     9    14   ar
    13    10    11   ar
    14    11    12   ar
    15    12    13   ar
    16    13    14   ar
    17    15    16    1
    18    16    17    1
    19    17    18   ar
    20    17    23   ar
    21    18    19   ar
    22    19    20   ar
    23    20    21    1
    24    20    22   ar
    25    22    23   ar
    26     3    24    1
    27     3    25    1
    28     6    26    1
    29    10    27    1
    30    11    28    1
    31    12    29    1
    32    13    30    1
    33    15    31    1
    34    16    32    1
    35    16    33    1
    36    18    34    1
    37    19    35    1
    38    22    36    1
    39    23    37    1
@<TRIPOS>MOLECULE
../data/bude_mols_rdkit_confs/molecule_40.pdb
 37 39 0 0 0
SMALL
GASTEIGER

@<TRIPOS>ATOM
      1  O1         1.0210    0.8440    1.0090 O.2     1  UNL1       -0.2754
      2  C1         0.5500    0.1430    0.0980 C.2     1  UNL1        0.2192
      3  C2        -0.7190    0.4850   -0.6600 C.3     1  UNL1        0.0685
      4  C3        -1.8560    0.1420    0.2140 C.ar    1  UNL1        0.0780
      5  N1        -1.6520   -0.5020    1.3910 N.ar    1  UNL1       -0.1748
      6  N2        -2.6410   -0.8490    2.1900 N.ar    1  UNL1       -0.2425
      7  C4        -3.9250   -0.5970    1.9050 C.ar    1  UNL1        0.2725
      8  O2        -4.8650   -0.9490    2.6980 O.2     1  UNL1       -0.2658
      9  C5        -4.2010    0.0600    0.7170 C.ar    1  UNL1        0.0496
     10  C6        -5.5060    0.3420    0.3890 C.ar    1  UNL1       -0.0487
     11  C7        -5.7910    0.9930   -0.7830 C.ar    1  UNL1       -0.0610
     12  C8        -4.7570    1.3690   -1.6410 C.ar    1  UNL1       -0.0611
     13  C9        -3.4700    1.0730   -1.2830 C.ar    1  UNL1       -0.0521
     14  C10       -3.1400    0.4310   -0.1340 C.ar    1  UNL1        0.0108
     15  N3         1.2620   -1.0670   -0.2390 N.am    1  UNL1       -0.3109
     16  C11        2.4480   -1.4680    0.4520 C.3     1  UNL1        0.0368
     17  C12        3.6710   -0.7550    0.1150 C.ar    1  UNL1       -0.0302
     18  C13        4.2110    0.1650    1.0030 C.ar    1  UNL1       -0.0544
     19  C14        5.3850    0.8250    0.7140 C.ar    1  UNL1       -0.0261
     20  C15        6.0770    0.6000   -0.4770 C.ar    1  UNL1        0.1234
     21  F1         7.2390    1.2750   -0.7260 F       1  UNL1       -0.2055
     22  C16        5.5350   -0.3160   -1.3580 C.ar    1  UNL1       -0.0261
     23  C17        4.3610   -0.9710   -1.0600 C.ar    1  UNL1       -0.0544
     24 H          -0.7689   -0.0824   -1.5658 H       1  UNL1        0.0423
     25 H          -0.7386    1.5232   -0.9182 H       1  UNL1        0.0423
     26 H          -2.4269   -1.3129    3.0316 H       1  UNL1        0.1921
     27 H          -6.2701    0.0638    1.0245 H       1  UNL1        0.0625
     28 H          -6.7701    1.2050   -1.0308 H       1  UNL1        0.0618
     29 H          -4.9585    1.8596   -2.5263 H       1  UNL1        0.0618
     30 H          -2.7091    1.3532   -1.9214 H       1  UNL1        0.0624
     31 H           0.9201   -1.6340   -0.9676 H       1  UNL1        0.1490
     32 H           2.6094   -2.5053    0.2449 H       1  UNL1        0.0512
     33 H           2.2645   -1.2424    1.4817 H       1  UNL1        0.0512
     34 H           3.7256    0.3575    1.8932 H       1  UNL1        0.0622
     35 H           5.7622    1.5026    1.3949 H       1  UNL1        0.0646
     36 H           6.0157   -0.5116   -2.2500 H       1  UNL1        0.0646
     37 H           3.9833   -1.6485   -1.7407 H       1  UNL1        0.0622
@<TRIPOS>BOND
     1     1     2    2
     2     2     3    1
     3     2    15   am
     4     3     4    1
     5     4     5   ar
     6     4    14   ar
     7     5     6   ar
     8     6     7   ar
     9     7     8    2
    10     7     9   ar
    11     9    10   ar
    12     9    14   ar
    13    10    11   ar
    14    11    12   ar
    15    12    13   ar
    16    13    14   ar
    17    15    16    1
    18    16    17    1
    19    17    18   ar
    20    17    23   ar
    21    18    19   ar
    22    19    20   ar
    23    20    21    1
    24    20    22   ar
    25    22    23   ar
    26     3    24    1
    27     3    25    1
    28     6    26    1
    29    10    27    1
    30    11    28    1
    31    12    29    1
    32    13    30    1
    33    15    31    1
    34    16    32    1
    35    16    33    1
    36    18    34    1
    37    19    35    1
    38    22    36    1
    39    23    37    1
@<TRIPOS>MOLECULE
../data/bude_mols_rdkit_confs/molecule_40.pdb
 37 39 0 0 0
SMALL
GASTEIGER

@<TRIPOS>ATOM
      1  O1         0.1260   -0.0970   -0.5560 O.2     1  UNL1       -0.2754
      2  C1         0.1910   -0.7930    0.4850 C.2     1  UNL1        0.2192
      3  C2        -0.8020   -0.5940    1.6000 C.3     1  UNL1        0.0685
      4  C3        -1.7170    0.4450    1.2210 C.ar    1  UNL1        0.0780
      5  N1        -1.6010    1.6740    1.7550 N.ar    1  UNL1       -0.1748
      6  N2        -2.4280    2.6540    1.4310 N.ar    1  UNL1       -0.2425
      7  C4        -3.4310    2.5010    0.5590 C.ar    1  UNL1        0.2725
      8  O2        -4.2230    3.4370    0.2480 O.2     1  UNL1       -0.2658
      9  C5        -3.6220    1.2700   -0.0370 C.ar    1  UNL1        0.0496
     10  C6        -4.6380    1.0470   -0.9440 C.ar    1  UNL1       -0.0487
     11  C7        -4.7830   -0.2040   -1.5090 C.ar    1  UNL1       -0.0610
     12  C8        -3.9130   -1.2150   -1.1600 C.ar    1  UNL1       -0.0611
     13  C9        -2.9020   -0.9750   -0.2520 C.ar    1  UNL1       -0.0521
     14  C10       -2.7500    0.2570    0.3120 C.ar    1  UNL1        0.0108
     15  N3         1.2170   -1.7610    0.5750 N.am    1  UNL1       -0.3109
     16  C11        2.1650   -1.9450   -0.4950 C.3     1  UNL1        0.0368
     17  C12        3.2210   -0.9320   -0.5690 C.ar    1  UNL1       -0.0302
     18  C13        3.1290    0.0850   -1.4840 C.ar    1  UNL1       -0.0544
     19  C14        4.1140    1.0450   -1.5620 C.ar    1  UNL1       -0.0261
     20  C15        5.1990    1.0000   -0.7310 C.ar    1  UNL1        0.1234
     21  F1         6.1820    1.9460   -0.7990 F       1  UNL1       -0.2055
     22  C16        5.3060   -0.0290    0.2040 C.ar    1  UNL1       -0.0261
     23  C17        4.3140   -0.9810    0.2710 C.ar    1  UNL1       -0.0544
     24 H          -0.2872   -0.3118    2.4946 H       1  UNL1        0.0423
     25 H          -1.3366   -1.5034    1.7788 H       1  UNL1        0.0423
     26 H          -2.2998    3.5355    1.8503 H       1  UNL1        0.1921
     27 H          -5.2847    1.8101   -1.1980 H       1  UNL1        0.0625
     28 H          -5.5386   -0.3816   -2.1891 H       1  UNL1        0.0618
     29 H          -4.0180   -2.1525   -1.5784 H       1  UNL1        0.0618
     30 H          -2.2538   -1.7364    0.0030 H       1  UNL1        0.0624
     31 H           1.2853   -2.3195    1.3829 H       1  UNL1        0.1490
     32 H           1.6276   -1.9322   -1.4202 H       1  UNL1        0.0512
     33 H           2.6568   -2.8754   -0.3015 H       1  UNL1        0.0512
     34 H           2.3164    0.1316   -2.1185 H       1  UNL1        0.0622
     35 H           4.0322    1.8057   -2.2545 H       1  UNL1        0.0646
     36 H           6.1189   -0.0762    0.8380 H       1  UNL1        0.0646
     37 H           4.3893   -1.7443    0.9614 H       1  UNL1        0.0622
@<TRIPOS>BOND
     1     1     2    2
     2     2     3    1
     3     2    15   am
     4     3     4    1
     5     4     5   ar
     6     4    14   ar
     7     5     6   ar
     8     6     7   ar
     9     7     8    2
    10     7     9   ar
    11     9    10   ar
    12     9    14   ar
    13    10    11   ar
    14    11    12   ar
    15    12    13   ar
    16    13    14   ar
    17    15    16    1
    18    16    17    1
    19    17    18   ar
    20    17    23   ar
    21    18    19   ar
    22    19    20   ar
    23    20    21    1
    24    20    22   ar
    25    22    23   ar
    26     3    24    1
    27     3    25    1
    28     6    26    1
    29    10    27    1
    30    11    28    1
    31    12    29    1
    32    13    30    1
    33    15    31    1
    34    16    32    1
    35    16    33    1
    36    18    34    1
    37    19    35    1
    38    22    36    1
    39    23    37    1
@<TRIPOS>MOLECULE
../data/bude_mols_rdkit_confs/molecule_40.pdb
 37 39 0 0 0
SMALL
GASTEIGER

@<TRIPOS>ATOM
      1  O1         0.1080    0.5620    1.2550 O.2     1  UNL1       -0.2754
      2  C1        -0.0640    1.5430    0.4910 C.2     1  UNL1        0.2192
      3  C2        -1.4410    1.8210    0.0000 C.3     1  UNL1        0.0685
      4  C3        -2.4180    0.8390    0.5650 C.ar    1  UNL1        0.0780
      5  N1        -3.2580    1.2100    1.5460 N.ar    1  UNL1       -0.1748
      6  N2        -4.1580    0.4030    2.0970 N.ar    1  UNL1       -0.2425
      7  C4        -4.2480   -0.8750    1.6560 C.ar    1  UNL1        0.2725
      8  O2        -5.0820   -1.6850    2.1400 O.2     1  UNL1       -0.2658
      9  C5        -3.4290   -1.3230    0.6630 C.ar    1  UNL1        0.0496
     10  C6        -3.4730   -2.6170    0.1710 C.ar    1  UNL1       -0.0487
     11  C7        -2.6270   -3.0310   -0.8310 C.ar    1  UNL1       -0.0610
     12  C8        -1.7170   -2.1730   -1.3710 C.ar    1  UNL1       -0.0611
     13  C9        -1.6640   -0.8850   -0.8910 C.ar    1  UNL1       -0.0521
     14  C10       -2.4970   -0.4540    0.1060 C.ar    1  UNL1        0.0108
     15  N3         1.0530    2.3220    0.1450 N.am    1  UNL1       -0.3109
     16  C11        2.4060    2.1110    0.5770 C.3     1  UNL1        0.0368
     17  C12        3.1040    1.0210   -0.1400 C.ar    1  UNL1       -0.0302
     18  C13        3.1320   -0.2770    0.2960 C.ar    1  UNL1       -0.0544
     19  C14        3.8110   -1.2460   -0.4360 C.ar    1  UNL1       -0.0261
     20  C15        4.4680   -0.9100   -1.6140 C.ar    1  UNL1        0.1234
     21  F1         5.1440   -1.8230   -2.3600 F       1  UNL1       -0.2055
     22  C16        4.4430    0.3910   -2.0550 C.ar    1  UNL1       -0.0261
     23  C17        3.7650    1.3250   -1.3120 C.ar    1  UNL1       -0.0544
     24 H          -1.4527    1.7520   -1.0677 H       1  UNL1        0.0423
     25 H          -1.7239    2.8039    0.3143 H       1  UNL1        0.0423
     26 H          -4.7496    0.7281    2.8137 H       1  UNL1        0.1921
     27 H          -4.1548   -3.2843    0.5645 H       1  UNL1        0.0625
     28 H          -2.6820   -4.0016   -1.1774 H       1  UNL1        0.0618
     29 H          -1.0818   -2.4824   -2.1232 H       1  UNL1        0.0618
     30 H          -0.9785   -0.2266   -1.2930 H       1  UNL1        0.0624
     31 H           0.8922    3.0878   -0.4524 H       1  UNL1        0.1490
     32 H           2.3928    1.8731    1.6201 H       1  UNL1        0.0512
     33 H           2.9422    3.0128    0.3666 H       1  UNL1        0.0512
     34 H           2.6482   -0.5370    1.1697 H       1  UNL1        0.0622
     35 H           3.8270   -2.2222   -0.1016 H       1  UNL1        0.0646
     36 H           4.9242    0.6605   -2.9272 H       1  UNL1        0.0646
     37 H           3.7490    2.3013   -1.6461 H       1  UNL1        0.0622
@<TRIPOS>BOND
     1     1     2    2
     2     2     3    1
     3     2    15   am
     4     3     4    1
     5     4     5   ar
     6     4    14   ar
     7     5     6   ar
     8     6     7   ar
     9     7     8    2
    10     7     9   ar
    11     9    10   ar
    12     9    14   ar
    13    10    11   ar
    14    11    12   ar
    15    12    13   ar
    16    13    14   ar
    17    15    16    1
    18    16    17    1
    19    17    18   ar
    20    17    23   ar
    21    18    19   ar
    22    19    20   ar
    23    20    21    1
    24    20    22   ar
    25    22    23   ar
    26     3    24    1
    27     3    25    1
    28     6    26    1
    29    10    27    1
    30    11    28    1
    31    12    29    1
    32    13    30    1
    33    15    31    1
    34    16    32    1
    35    16    33    1
    36    18    34    1
    37    19    35    1
    38    22    36    1
    39    23    37    1
@<TRIPOS>MOLECULE
../data/bude_mols_rdkit_confs/molecule_40.pdb
 37 39 0 0 0
SMALL
GASTEIGER

@<TRIPOS>ATOM
      1  O1         0.2940   -2.3690    0.3860 O.2     1  UNL1       -0.2754
      2  C1         0.0360   -1.5720   -0.5460 C.2     1  UNL1        0.2192
      3  C2         1.0670   -1.2820   -1.5880 C.3     1  UNL1        0.0685
      4  C3         1.9080   -0.1170   -1.1830 C.ar    1  UNL1        0.0780
      5  N1         1.6650    1.0970   -1.6580 N.ar    1  UNL1       -0.1748
      6  N2         2.2690    2.1920   -1.3230 N.ar    1  UNL1       -0.2425
      7  C4         3.2430    2.1250   -0.4020 C.ar    1  UNL1        0.2725
      8  O2         3.8520    3.1720   -0.0520 O.2     1  UNL1       -0.2658
      9  C5         3.5940    0.9330    0.1700 C.ar    1  UNL1        0.0496
     10  C6         4.5880    0.8520    1.1150 C.ar    1  UNL1       -0.0487
     11  C7         4.9130   -0.3680    1.6610 C.ar    1  UNL1       -0.0610
     12  C8         4.2660   -1.5200    1.2800 C.ar    1  UNL1       -0.0611
     13  C9         3.2680   -1.4140    0.3310 C.ar    1  UNL1       -0.0521
     14  C10        2.8990   -0.2210   -0.2430 C.ar    1  UNL1        0.0108
     15  N3        -1.2270   -0.9100   -0.6380 N.am    1  UNL1       -0.3109
     16  C11       -2.2070   -1.1940    0.4060 C.3     1  UNL1        0.0368
     17  C12       -3.3720   -0.3110    0.2700 C.ar    1  UNL1       -0.0302
     18  C13       -3.2330    1.0490    0.2000 C.ar    1  UNL1       -0.0544
     19  C14       -4.2570    1.9440    0.0540 C.ar    1  UNL1       -0.0261
     20  C15       -5.5510    1.4090   -0.0260 C.ar    1  UNL1        0.1234
     21  F1        -6.5930    2.2560   -0.1810 F       1  UNL1       -0.2055
     22  C16       -5.7310    0.0690    0.0420 C.ar    1  UNL1       -0.0261
     23  C17       -4.6620   -0.8210    0.1890 C.ar    1  UNL1       -0.0544
     24 H           0.5788   -1.0587   -2.5136 H       1  UNL1        0.0423
     25 H           1.6962   -2.1402   -1.6998 H       1  UNL1        0.0423
     26 H           2.0203    3.0517   -1.7333 H       1  UNL1        0.1921
     27 H           5.0889    1.7033    1.4141 H       1  UNL1        0.0625
     28 H           5.6589   -0.4199    2.3723 H       1  UNL1        0.0618
     29 H           4.5177   -2.4333    1.6894 H       1  UNL1        0.0618
     30 H           2.7754   -2.2725    0.0387 H       1  UNL1        0.0624
     31 H          -1.4278   -0.2884   -1.3746 H       1  UNL1        0.1490
     32 H          -1.7565   -1.0379    1.3639 H       1  UNL1        0.0512
     33 H          -2.5293   -2.2099    0.3117 H       1  UNL1        0.0512
     34 H          -2.2762    1.4307    0.2626 H       1  UNL1        0.0622
     35 H          -4.0862    2.9606    0.0052 H       1  UNL1        0.0646
     36 H          -6.6896   -0.3087   -0.0166 H       1  UNL1        0.0646
     37 H          -4.8284   -1.8384    0.2365 H       1  UNL1        0.0622
@<TRIPOS>BOND
     1     1     2    2
     2     2     3    1
     3     2    15   am
     4     3     4    1
     5     4     5   ar
     6     4    14   ar
     7     5     6   ar
     8     6     7   ar
     9     7     8    2
    10     7     9   ar
    11     9    10   ar
    12     9    14   ar
    13    10    11   ar
    14    11    12   ar
    15    12    13   ar
    16    13    14   ar
    17    15    16    1
    18    16    17    1
    19    17    18   ar
    20    17    23   ar
    21    18    19   ar
    22    19    20   ar
    23    20    21    1
    24    20    22   ar
    25    22    23   ar
    26     3    24    1
    27     3    25    1
    28     6    26    1
    29    10    27    1
    30    11    28    1
    31    12    29    1
    32    13    30    1
    33    15    31    1
    34    16    32    1
    35    16    33    1
    36    18    34    1
    37    19    35    1
    38    22    36    1
    39    23    37    1
@<TRIPOS>MOLECULE
../data/bude_mols_rdkit_confs/molecule_40.pdb
 37 39 0 0 0
SMALL
GASTEIGER

@<TRIPOS>ATOM
      1  O1         0.1850   -0.0440    0.9950 O.2     1  UNL1       -0.2754
      2  C1         0.2970    0.2130   -0.2220 C.2     1  UNL1        0.2192
      3  C2        -0.6540    1.1300   -0.9540 C.3     1  UNL1        0.0685
      4  C3        -1.9190    0.4540   -1.2480 C.ar    1  UNL1        0.0780
      5  N1        -2.0800   -0.1260   -2.4700 N.ar    1  UNL1       -0.1748
      6  N2        -3.1130   -0.8090   -2.8570 N.ar    1  UNL1       -0.2425
      7  C4        -4.1160   -0.9710   -1.9910 C.ar    1  UNL1        0.2725
      8  O2        -5.1590   -1.6320   -2.2990 O.2     1  UNL1       -0.2658
      9  C5        -4.0760   -0.4380   -0.7290 C.ar    1  UNL1        0.0496
     10  C6        -5.1090   -0.5930    0.1650 C.ar    1  UNL1       -0.0487
     11  C7        -5.0280   -0.0330    1.4150 C.ar    1  UNL1       -0.0610
     12  C8        -3.9030    0.7050    1.8080 C.ar    1  UNL1       -0.0611
     13  C9        -2.8820    0.8450    0.8960 C.ar    1  UNL1       -0.0521
     14  C10       -2.9390    0.2960   -0.3540 C.ar    1  UNL1        0.0108
     15  N3         1.3590   -0.3680   -1.0050 N.am    1  UNL1       -0.3109
     16  C11        2.3250   -1.2490   -0.3950 C.3     1  UNL1        0.0368
     17  C12        3.4590   -0.5250    0.1880 C.ar    1  UNL1       -0.0302
     18  C13        3.4370   -0.0240    1.4520 C.ar    1  UNL1       -0.0544
     19  C14        4.5440    0.6540    2.0000 C.ar    1  UNL1       -0.0261
     20  C15        5.6920    0.8340    1.2680 C.ar    1  UNL1        0.1234
     21  F1         6.7870    1.4900    1.7790 F       1  UNL1       -0.2055
     22  C16        5.7290    0.3290   -0.0220 C.ar    1  UNL1       -0.0261
     23  C17        4.6440   -0.3310   -0.5470 C.ar    1  UNL1       -0.0544
     24 H          -0.2021    1.4403   -1.8729 H       1  UNL1        0.0423
     25 H          -0.8580    1.9751   -0.3302 H       1  UNL1        0.0423
     26 H          -3.1558   -1.1958   -3.7613 H       1  UNL1        0.1921
     27 H          -5.9470   -1.1316   -0.1047 H       1  UNL1        0.0625
     28 H          -5.8093   -0.1574    2.0776 H       1  UNL1        0.0618
     29 H          -3.8426    1.1281    2.7473 H       1  UNL1        0.0618
     30 H          -2.0439    1.3835    1.1656 H       1  UNL1        0.0624
     31 H           1.4257   -0.1616   -1.9653 H       1  UNL1        0.1490
     32 H           2.6946   -1.9214   -1.1408 H       1  UNL1        0.0512
     33 H           1.8319   -1.7716    0.3979 H       1  UNL1        0.0512
     34 H           2.5871   -0.1435    2.0250 H       1  UNL1        0.0622
     35 H           4.4915    1.0199    2.9635 H       1  UNL1        0.0646
     36 H           6.5795    0.4497   -0.5939 H       1  UNL1        0.0646
     37 H           4.6996   -0.6960   -1.5107 H       1  UNL1        0.0622
@<TRIPOS>BOND
     1     1     2    2
     2     2     3    1
     3     2    15   am
     4     3     4    1
     5     4     5   ar
     6     4    14   ar
     7     5     6   ar
     8     6     7   ar
     9     7     8    2
    10     7     9   ar
    11     9    10   ar
    12     9    14   ar
    13    10    11   ar
    14    11    12   ar
    15    12    13   ar
    16    13    14   ar
    17    15    16    1
    18    16    17    1
    19    17    18   ar
    20    17    23   ar
    21    18    19   ar
    22    19    20   ar
    23    20    21    1
    24    20    22   ar
    25    22    23   ar
    26     3    24    1
    27     3    25    1
    28     6    26    1
    29    10    27    1
    30    11    28    1
    31    12    29    1
    32    13    30    1
    33    15    31    1
    34    16    32    1
    35    16    33    1
    36    18    34    1
    37    19    35    1
    38    22    36    1
    39    23    37    1
@<TRIPOS>MOLECULE
../data/bude_mols_rdkit_confs/molecule_40.pdb
 37 39 0 0 0
SMALL
GASTEIGER

@<TRIPOS>ATOM
      1  O1         0.7000   -0.4370    1.4640 O.2     1  UNL1       -0.2754
      2  C1         0.5060   -0.9930    0.3490 C.2     1  UNL1        0.2192
      3  C2        -0.7700   -0.8660   -0.4010 C.3     1  UNL1        0.0685
      4  C3        -1.7550   -0.0250    0.3120 C.ar    1  UNL1        0.0780
      5  N1        -1.5490    0.5670    1.4840 N.ar    1  UNL1       -0.1748
      6  N2        -2.4920    1.3120    2.0650 N.ar    1  UNL1       -0.2425
      7  C4        -3.6970    1.5040    1.4980 C.ar    1  UNL1        0.2725
      8  O2        -4.5960    2.2020    2.0300 O.2     1  UNL1       -0.2658
      9  C5        -3.9900    0.9250    0.2840 C.ar    1  UNL1        0.0496
     10  C6        -5.2160    1.0940   -0.3380 C.ar    1  UNL1       -0.0487
     11  C7        -5.4290    0.4800   -1.5530 C.ar    1  UNL1       -0.0610
     12  C8        -4.4560   -0.2900   -2.1540 C.ar    1  UNL1       -0.0611
     13  C9        -3.2570   -0.4320   -1.5060 C.ar    1  UNL1       -0.0521
     14  C10       -2.9840    0.1520   -0.2980 C.ar    1  UNL1        0.0108
     15  N3         1.5250   -1.7860   -0.2560 N.am    1  UNL1       -0.3109
     16  C11        2.8020   -1.9870    0.3670 C.3     1  UNL1        0.0368
     17  C12        3.6580   -0.7790    0.2280 C.ar    1  UNL1       -0.0302
     18  C13        3.2150    0.3360   -0.4510 C.ar    1  UNL1       -0.0544
     19  C14        4.0170    1.4680   -0.5820 C.ar    1  UNL1       -0.0261
     20  C15        5.2740    1.4320   -0.0050 C.ar    1  UNL1        0.1234
     21  F1         6.0510    2.5180   -0.1270 F       1  UNL1       -0.2055
     22  C16        5.7370    0.3330    0.6750 C.ar    1  UNL1       -0.0261
     23  C17        4.9300   -0.7800    0.7950 C.ar    1  UNL1       -0.0544
     24 H          -1.1865   -1.8417   -0.5403 H       1  UNL1        0.0423
     25 H          -0.5550   -0.3972   -1.3385 H       1  UNL1        0.0423
     26 H          -2.3002    1.7333    2.9339 H       1  UNL1        0.1921
     27 H          -5.9542    1.6675    0.0992 H       1  UNL1        0.0625
     28 H          -6.3391    0.5994   -2.0247 H       1  UNL1        0.0618
     29 H          -4.6256   -0.7456   -3.0643 H       1  UNL1        0.0618
     30 H          -2.5241   -1.0071   -1.9500 H       1  UNL1        0.0624
     31 H           1.3471   -2.2083   -1.1273 H       1  UNL1        0.1490
     32 H           3.2910   -2.8178   -0.0972 H       1  UNL1        0.0512
     33 H           2.6473   -2.1776    1.4085 H       1  UNL1        0.0512
     34 H           2.2719    0.3323   -0.8701 H       1  UNL1        0.0622
     35 H           3.6856    2.3025   -1.0907 H       1  UNL1        0.0646
     36 H           6.6806    0.3391    1.0929 H       1  UNL1        0.0646
     37 H           5.2685   -1.6115    1.3040 H       1  UNL1        0.0622
@<TRIPOS>BOND
     1     1     2    2
     2     2     3    1
     3     2    15   am
     4     3     4    1
     5     4     5   ar
     6     4    14   ar
     7     5     6   ar
     8     6     7   ar
     9     7     8    2
    10     7     9   ar
    11     9    10   ar
    12     9    14   ar
    13    10    11   ar
    14    11    12   ar
    15    12    13   ar
    16    13    14   ar
    17    15    16    1
    18    16    17    1
    19    17    18   ar
    20    17    23   ar
    21    18    19   ar
    22    19    20   ar
    23    20    21    1
    24    20    22   ar
    25    22    23   ar
    26     3    24    1
    27     3    25    1
    28     6    26    1
    29    10    27    1
    30    11    28    1
    31    12    29    1
    32    13    30    1
    33    15    31    1
    34    16    32    1
    35    16    33    1
    36    18    34    1
    37    19    35    1
    38    22    36    1
    39    23    37    1
@<TRIPOS>MOLECULE
../data/bude_mols_rdkit_confs/molecule_40.pdb
 37 39 0 0 0
SMALL
GASTEIGER

@<TRIPOS>ATOM
      1  O1         0.0360   -0.1300    0.5700 O.2     1  UNL1       -0.2754
      2  C1        -0.1220   -0.4220   -0.6630 C.2     1  UNL1        0.2192
      3  C2         0.8660    0.1340   -1.6520 C.3     1  UNL1        0.0685
      4  C3         1.8630    1.0030   -1.0250 C.ar    1  UNL1        0.0780
      5  N1         1.8650    2.3320   -1.1870 N.ar    1  UNL1       -0.1748
      6  N2         2.7780    3.0630   -0.6240 N.ar    1  UNL1       -0.2425
      7  C4         3.7710    2.5940    0.1420 C.ar    1  UNL1        0.2725
      8  O2         4.6320    3.3480    0.6650 O.2     1  UNL1       -0.2658
      9  C5         3.8400    1.2130    0.3630 C.ar    1  UNL1        0.0496
     10  C6         4.8400    0.6930    1.1540 C.ar    1  UNL1       -0.0487
     11  C7         4.8790   -0.6870    1.3670 C.ar    1  UNL1       -0.0610
     12  C8         3.9050   -1.4530    0.7660 C.ar    1  UNL1       -0.0611
     13  C9         2.9070   -0.9290   -0.0240 C.ar    1  UNL1       -0.0521
     14  C10        2.8590    0.4510   -0.2440 C.ar    1  UNL1        0.0108
     15  N3        -1.1910   -1.2390   -1.0730 N.am    1  UNL1       -0.3109
     16  C11       -2.1550   -1.7770   -0.1840 C.3     1  UNL1        0.0368
     17  C12       -3.3060   -0.9640    0.1790 C.ar    1  UNL1       -0.0302
     18  C13       -4.5550   -1.6170    0.0940 C.ar    1  UNL1       -0.0544
     19  C14       -5.7210   -0.9700    0.4070 C.ar    1  UNL1       -0.0261
     20  C15       -5.6920    0.3580    0.8220 C.ar    1  UNL1        0.1234
     21  F1        -6.8130    1.0390    1.1410 F       1  UNL1       -0.2055
     22  C16       -4.4700    0.9810    0.9010 C.ar    1  UNL1       -0.0261
     23  C17       -3.2820    0.3340    0.5840 C.ar    1  UNL1       -0.0544
     24 H           0.3330    0.6994   -2.3877 H       1  UNL1        0.0423
     25 H           1.3862   -0.6925   -2.0893 H       1  UNL1        0.0423
     26 H           2.7373    4.0356   -0.7713 H       1  UNL1        0.1921
     27 H           5.5473    1.3111    1.5814 H       1  UNL1        0.0625
     28 H           5.6112   -1.1170    1.9535 H       1  UNL1        0.0618
     29 H           3.9244   -2.4739    0.9159 H       1  UNL1        0.0618
     30 H           2.2006   -1.5491   -0.4501 H       1  UNL1        0.0624
     31 H          -1.2743   -1.4490   -2.0312 H       1  UNL1        0.1490
     32 H          -1.6438   -2.0211    0.7237 H       1  UNL1        0.0512
     33 H          -2.5783   -2.5962   -0.7269 H       1  UNL1        0.0512
     34 H          -4.5901   -2.6025   -0.2104 H       1  UNL1        0.0622
     35 H          -6.6221   -1.4679    0.3350 H       1  UNL1        0.0646
     36 H          -4.4332    1.9659    1.2071 H       1  UNL1        0.0646
     37 H          -2.3838    0.8371    0.6557 H       1  UNL1        0.0622
@<TRIPOS>BOND
     1     1     2    2
     2     2     3    1
     3     2    15   am
     4     3     4    1
     5     4     5   ar
     6     4    14   ar
     7     5     6   ar
     8     6     7   ar
     9     7     8    2
    10     7     9   ar
    11     9    10   ar
    12     9    14   ar
    13    10    11   ar
    14    11    12   ar
    15    12    13   ar
    16    13    14   ar
    17    15    16    1
    18    16    17    1
    19    17    18   ar
    20    17    23   ar
    21    18    19   ar
    22    19    20   ar
    23    20    21    1
    24    20    22   ar
    25    22    23   ar
    26     3    24    1
    27     3    25    1
    28     6    26    1
    29    10    27    1
    30    11    28    1
    31    12    29    1
    32    13    30    1
    33    15    31    1
    34    16    32    1
    35    16    33    1
    36    18    34    1
    37    19    35    1
    38    22    36    1
    39    23    37    1
@<TRIPOS>MOLECULE
../data/bude_mols_rdkit_confs/molecule_40.pdb
 37 39 0 0 0
SMALL
GASTEIGER

@<TRIPOS>ATOM
      1  O1         0.1640   -0.0280   -0.6860 O.2     1  UNL1       -0.2754
      2  C1         0.1760    0.5910    0.3990 C.2     1  UNL1        0.2192
      3  C2        -0.8240    0.2970    1.4950 C.3     1  UNL1        0.0685
      4  C3        -1.7960   -0.7200    1.0980 C.ar    1  UNL1        0.0780
      5  N1        -1.7470   -1.9740    1.4970 N.ar    1  UNL1       -0.1748
      6  N2        -2.6280   -2.9110    1.1470 N.ar    1  UNL1       -0.2425
      7  C4        -3.6620   -2.6340    0.3360 C.ar    1  UNL1        0.2725
      8  O2        -4.5280   -3.4730   -0.0330 O.2     1  UNL1       -0.2658
      9  C5        -3.7780   -1.3300   -0.1260 C.ar    1  UNL1        0.0496
     10  C6        -4.8280   -0.9800   -0.9650 C.ar    1  UNL1       -0.0487
     11  C7        -4.9000    0.3170   -1.3890 C.ar    1  UNL1       -0.0610
     12  C8        -3.9720    1.2820   -1.0140 C.ar    1  UNL1       -0.0611
     13  C9        -2.9260    0.9330   -0.1780 C.ar    1  UNL1       -0.0521
     14  C10       -2.8550   -0.3720    0.2480 C.ar    1  UNL1        0.0108
     15  N3         1.1620    1.5940    0.5880 N.am    1  UNL1       -0.3109
     16  C11        2.1660    1.9390   -0.3910 C.3     1  UNL1        0.0368
     17  C12        3.3210    1.0160   -0.3670 C.ar    1  UNL1       -0.0302
     18  C13        4.3780    1.2940    0.4670 C.ar    1  UNL1       -0.0544
     19  C14        5.5010    0.4990    0.5750 C.ar    1  UNL1       -0.0261
     20  C15        5.5340   -0.6410   -0.2190 C.ar    1  UNL1        0.1234
     21  F1         6.6010   -1.4740   -0.1710 F       1  UNL1       -0.2055
     22  C16        4.4800   -0.9290   -1.0590 C.ar    1  UNL1       -0.0261
     23  C17        3.3590   -0.1040   -1.1440 C.ar    1  UNL1       -0.0544
     24 H          -1.3475    1.1989    1.7347 H       1  UNL1        0.0423
     25 H          -0.2844   -0.0767    2.3400 H       1  UNL1        0.0423
     26 H          -2.5182   -3.8270    1.4908 H       1  UNL1        0.1921
     27 H          -5.5307   -1.6765   -1.2585 H       1  UNL1        0.0625
     28 H          -5.6748    0.5915   -2.0130 H       1  UNL1        0.0618
     29 H          -4.0626    2.2513   -1.3565 H       1  UNL1        0.0618
     30 H          -2.2229    1.6290    0.1158 H       1  UNL1        0.0624
     31 H           1.1615    2.0859    1.4408 H       1  UNL1        0.1490
     32 H           2.5148    2.9304   -0.1901 H       1  UNL1        0.0512
     33 H           1.7142    1.8694   -1.3584 H       1  UNL1        0.0512
     34 H           4.3289    2.1468    1.0460 H       1  UNL1        0.0622
     35 H           6.2763    0.7388    1.2126 H       1  UNL1        0.0646
     36 H           4.5216   -1.7797   -1.6418 H       1  UNL1        0.0646
     37 H           2.5785   -0.3350   -1.7784 H       1  UNL1        0.0622
@<TRIPOS>BOND
     1     1     2    2
     2     2     3    1
     3     2    15   am
     4     3     4    1
     5     4     5   ar
     6     4    14   ar
     7     5     6   ar
     8     6     7   ar
     9     7     8    2
    10     7     9   ar
    11     9    10   ar
    12     9    14   ar
    13    10    11   ar
    14    11    12   ar
    15    12    13   ar
    16    13    14   ar
    17    15    16    1
    18    16    17    1
    19    17    18   ar
    20    17    23   ar
    21    18    19   ar
    22    19    20   ar
    23    20    21    1
    24    20    22   ar
    25    22    23   ar
    26     3    24    1
    27     3    25    1
    28     6    26    1
    29    10    27    1
    30    11    28    1
    31    12    29    1
    32    13    30    1
    33    15    31    1
    34    16    32    1
    35    16    33    1
    36    18    34    1
    37    19    35    1
    38    22    36    1
    39    23    37    1
@<TRIPOS>MOLECULE
../data/bude_mols_rdkit_confs/molecule_40.pdb
 37 39 0 0 0
SMALL
GASTEIGER

@<TRIPOS>ATOM
      1  O1         0.2200    0.3640   -0.5390 O.2     1  UNL1       -0.2754
      2  C1         0.2250    0.4200    0.6990 C.2     1  UNL1        0.2192
      3  C2        -0.8040   -0.2380    1.5310 C.3     1  UNL1        0.0685
      4  C3        -1.8240   -0.9440    0.7690 C.ar    1  UNL1        0.0780
      5  N1        -1.7950   -2.2830    0.6900 N.ar    1  UNL1       -0.1748
      6  N2        -2.7220   -2.9600   -0.0040 N.ar    1  UNL1       -0.2425
      7  C4        -3.7170   -2.3470   -0.6500 C.ar    1  UNL1        0.2725
      8  O2        -4.5830   -3.0060   -1.2990 O.2     1  UNL1       -0.2658
      9  C5        -3.8100   -0.9780   -0.6120 C.ar    1  UNL1        0.0496
     10  C6        -4.8170   -0.3260   -1.2620 C.ar    1  UNL1       -0.0487
     11  C7        -4.8750    1.0570   -1.1980 C.ar    1  UNL1       -0.0610
     12  C8        -3.9140    1.7400   -0.4790 C.ar    1  UNL1       -0.0611
     13  C9        -2.8930    1.0890    0.1800 C.ar    1  UNL1       -0.0521
     14  C10       -2.8370   -0.2830    0.1160 C.ar    1  UNL1        0.0108
     15  N3         1.2520    1.1430    1.3640 N.am    1  UNL1       -0.3109
     16  C11        2.3100    1.8260    0.6690 C.3     1  UNL1        0.0368
     17  C12        3.3660    0.9180    0.1620 C.ar    1  UNL1       -0.0302
     18  C13        4.0830    1.2020   -0.9780 C.ar    1  UNL1       -0.0544
     19  C14        5.0790    0.3520   -1.4520 C.ar    1  UNL1       -0.0261
     20  C15        5.3830   -0.8160   -0.7880 C.ar    1  UNL1        0.1234
     21  F1         6.3430   -1.6580   -1.2280 F       1  UNL1       -0.2055
     22  C16        4.6660   -1.1030    0.3520 C.ar    1  UNL1       -0.0261
     23  C17        3.6790   -0.2580    0.8200 C.ar    1  UNL1       -0.0544
     24 H          -1.2860    0.5111    2.1237 H       1  UNL1        0.0423
     25 H          -0.2984   -0.9721    2.1229 H       1  UNL1        0.0423
     26 H          -2.6669   -3.9424   -0.0383 H       1  UNL1        0.1921
     27 H          -5.5255   -0.8554   -1.7938 H       1  UNL1        0.0625
     28 H          -5.6278    1.5707   -1.6821 H       1  UNL1        0.0618
     29 H          -3.9616    2.7699   -0.4336 H       1  UNL1        0.0618
     30 H          -2.1853    1.6208    0.7105 H       1  UNL1        0.0624
     31 H           1.2386    1.1781    2.3478 H       1  UNL1        0.1490
     32 H           2.7597    2.5267    1.3410 H       1  UNL1        0.0512
     33 H           1.8708    2.3043   -0.1815 H       1  UNL1        0.0512
     34 H           3.8765    2.0700   -1.4965 H       1  UNL1        0.0622
     35 H           5.5953    0.5999   -2.3105 H       1  UNL1        0.0646
     36 H           4.8714   -1.9717    0.8699 H       1  UNL1        0.0646
     37 H           3.1642   -0.5090    1.6785 H       1  UNL1        0.0622
@<TRIPOS>BOND
     1     1     2    2
     2     2     3    1
     3     2    15   am
     4     3     4    1
     5     4     5   ar
     6     4    14   ar
     7     5     6   ar
     8     6     7   ar
     9     7     8    2
    10     7     9   ar
    11     9    10   ar
    12     9    14   ar
    13    10    11   ar
    14    11    12   ar
    15    12    13   ar
    16    13    14   ar
    17    15    16    1
    18    16    17    1
    19    17    18   ar
    20    17    23   ar
    21    18    19   ar
    22    19    20   ar
    23    20    21    1
    24    20    22   ar
    25    22    23   ar
    26     3    24    1
    27     3    25    1
    28     6    26    1
    29    10    27    1
    30    11    28    1
    31    12    29    1
    32    13    30    1
    33    15    31    1
    34    16    32    1
    35    16    33    1
    36    18    34    1
    37    19    35    1
    38    22    36    1
    39    23    37    1
@<TRIPOS>MOLECULE
../data/bude_mols_rdkit_confs/molecule_40.pdb
 37 39 0 0 0
SMALL
GASTEIGER

@<TRIPOS>ATOM
      1  O1        -0.2190   -0.2510   -1.3840 O.2     1  UNL1       -0.2754
      2  C1        -0.2420   -1.3770   -0.8400 C.2     1  UNL1        0.2192
      3  C2         0.9900   -2.0840   -0.4110 C.3     1  UNL1        0.0685
      4  C3         2.1490   -1.2350   -0.7650 C.ar    1  UNL1        0.0780
      5  N1         2.9250   -1.5810   -1.8280 N.ar    1  UNL1       -0.1748
      6  N2         3.9730   -0.8630   -2.1790 N.ar    1  UNL1       -0.2425
      7  C4         4.2880    0.2370   -1.4770 C.ar    1  UNL1        0.2725
      8  O2         5.2780    0.9410   -1.7850 O.2     1  UNL1       -0.2658
      9  C5         3.5210    0.6320   -0.3780 C.ar    1  UNL1        0.0496
     10  C6         3.8220    1.7580    0.3580 C.ar    1  UNL1       -0.0487
     11  C7         3.0190    2.0970    1.4370 C.ar    1  UNL1       -0.0610
     12  C8         1.9270    1.3500    1.8050 C.ar    1  UNL1       -0.0611
     13  C9         1.6250    0.2070    1.0540 C.ar    1  UNL1       -0.0521
     14  C10        2.4230   -0.1240   -0.0120 C.ar    1  UNL1        0.0108
     15  N3        -1.4980   -2.0000   -0.6270 N.am    1  UNL1       -0.3109
     16  C11       -2.7280   -1.3590   -1.0200 C.3     1  UNL1        0.0368
     17  C12       -3.1560   -0.2920   -0.0760 C.ar    1  UNL1       -0.0302
     18  C13       -2.9210    1.0290   -0.3440 C.ar    1  UNL1       -0.0544
     19  C14       -3.3350    1.9840    0.5620 C.ar    1  UNL1       -0.0261
     20  C15       -3.9830    1.6790    1.7420 C.ar    1  UNL1        0.1234
     21  F1        -4.3890    2.6310    2.6310 F       1  UNL1       -0.2055
     22  C16       -4.2000    0.3330    1.9710 C.ar    1  UNL1       -0.0261
     23  C17       -3.8000   -0.6400    1.0900 C.ar    1  UNL1       -0.0544
     24 H           1.0623   -3.0258   -0.9137 H       1  UNL1        0.0423
     25 H           0.9682   -2.2637    0.6436 H       1  UNL1        0.0423
     26 H           4.5214   -1.1317   -2.9512 H       1  UNL1        0.1921
     27 H           4.6355    2.3421    0.1091 H       1  UNL1        0.0625
     28 H           3.2506    2.9414    1.9832 H       1  UNL1        0.0618
     29 H           1.3452    1.6232    2.6124 H       1  UNL1        0.0618
     30 H           0.8120   -0.3793    1.2995 H       1  UNL1        0.0624
     31 H          -1.5306   -2.8876   -0.2024 H       1  UNL1        0.1490
     32 H          -3.4982   -2.1002   -1.0684 H       1  UNL1        0.0512
     33 H          -2.5580   -0.8962   -1.9696 H       1  UNL1        0.0512
     34 H          -2.4399    1.3078   -1.2134 H       1  UNL1        0.0622
     35 H          -3.1508    2.9763    0.3465 H       1  UNL1        0.0646
     36 H          -4.6816    0.0489    2.8384 H       1  UNL1        0.0646
     37 H          -3.9821   -1.6335    1.3016 H       1  UNL1        0.0622
@<TRIPOS>BOND
     1     1     2    2
     2     2     3    1
     3     2    15   am
     4     3     4    1
     5     4     5   ar
     6     4    14   ar
     7     5     6   ar
     8     6     7   ar
     9     7     8    2
    10     7     9   ar
    11     9    10   ar
    12     9    14   ar
    13    10    11   ar
    14    11    12   ar
    15    12    13   ar
    16    13    14   ar
    17    15    16    1
    18    16    17    1
    19    17    18   ar
    20    17    23   ar
    21    18    19   ar
    22    19    20   ar
    23    20    21    1
    24    20    22   ar
    25    22    23   ar
    26     3    24    1
    27     3    25    1
    28     6    26    1
    29    10    27    1
    30    11    28    1
    31    12    29    1
    32    13    30    1
    33    15    31    1
    34    16    32    1
    35    16    33    1
    36    18    34    1
    37    19    35    1
    38    22    36    1
    39    23    37    1
@<TRIPOS>MOLECULE
../data/bude_mols_rdkit_confs/molecule_40.pdb
 37 39 0 0 0
SMALL
GASTEIGER

@<TRIPOS>ATOM
      1  O1        -0.8930    2.0090    0.7350 O.2     1  UNL1       -0.2754
      2  C1        -0.4210    0.9710    0.1440 C.2     1  UNL1        0.2192
      3  C2         0.7230    1.1790   -0.8060 C.3     1  UNL1        0.0685
      4  C3         1.7920    0.1800   -0.7040 C.ar    1  UNL1        0.0780
      5  N1         1.4350   -1.0640   -1.1530 N.ar    1  UNL1       -0.1748
      6  N2         2.2660   -2.0520   -1.0710 N.ar    1  UNL1       -0.2425
      7  C4         3.5220   -1.8830   -0.5420 C.ar    1  UNL1        0.2725
      8  O2         4.3080   -2.8830   -0.4820 O.2     1  UNL1       -0.2658
      9  C5         3.8970   -0.6360   -0.0910 C.ar    1  UNL1        0.0496
     10  C6         5.1860   -0.4970    0.3900 C.ar    1  UNL1       -0.0487
     11  C7         5.6260    0.7380    0.8080 C.ar    1  UNL1       -0.0610
     12  C8         4.7720    1.7940    0.7380 C.ar    1  UNL1       -0.0611
     13  C9         3.4880    1.6480    0.2620 C.ar    1  UNL1       -0.0521
     14  C10        3.0140    0.4130   -0.1720 C.ar    1  UNL1        0.0108
     15  N3        -1.0220   -0.2450    0.4340 N.am    1  UNL1       -0.3109
     16  C11       -2.1460   -0.5030    1.2850 C.3     1  UNL1        0.0368
     17  C12       -3.4660   -0.3470    0.6350 C.ar    1  UNL1       -0.0302
     18  C13       -4.5410    0.1810    1.3070 C.ar    1  UNL1       -0.0544
     19  C14       -5.7940    0.3350    0.7690 C.ar    1  UNL1       -0.0261
     20  C15       -6.0050   -0.0670   -0.5400 C.ar    1  UNL1        0.1234
     21  F1        -7.2240    0.0560   -1.0940 F       1  UNL1       -0.2055
     22  C16       -4.9580   -0.6060   -1.2590 C.ar    1  UNL1       -0.0261
     23  C17       -3.6860   -0.7420   -0.6670 C.ar    1  UNL1       -0.0544
     24 H           1.1469    2.1421   -0.6119 H       1  UNL1        0.0423
     25 H           0.3178    1.0892   -1.7922 H       1  UNL1        0.0423
     26 H           1.9931   -2.9412   -1.3937 H       1  UNL1        0.1921
     27 H           5.8142   -1.3145    0.4352 H       1  UNL1        0.0625
     28 H           6.5855    0.8605    1.1677 H       1  UNL1        0.0618
     29 H           5.0929    2.7245    1.0482 H       1  UNL1        0.0618
     30 H           2.8651    2.4700    0.2263 H       1  UNL1        0.0624
     31 H          -0.6247   -1.0336   -0.0014 H       1  UNL1        0.1490
     32 H          -2.1000    0.1748    2.1116 H       1  UNL1        0.0512
     33 H          -2.0735   -1.5301    1.5762 H       1  UNL1        0.0512
     34 H          -4.3967    0.4826    2.2833 H       1  UNL1        0.0622
     35 H          -6.5616    0.7410    1.3267 H       1  UNL1        0.0646
     36 H          -5.1067   -0.9107   -2.2337 H       1  UNL1        0.0646
     37 H          -2.9092   -1.1426   -1.2157 H       1  UNL1        0.0622
@<TRIPOS>BOND
     1     1     2    2
     2     2     3    1
     3     2    15   am
     4     3     4    1
     5     4     5   ar
     6     4    14   ar
     7     5     6   ar
     8     6     7   ar
     9     7     8    2
    10     7     9   ar
    11     9    10   ar
    12     9    14   ar
    13    10    11   ar
    14    11    12   ar
    15    12    13   ar
    16    13    14   ar
    17    15    16    1
    18    16    17    1
    19    17    18   ar
    20    17    23   ar
    21    18    19   ar
    22    19    20   ar
    23    20    21    1
    24    20    22   ar
    25    22    23   ar
    26     3    24    1
    27     3    25    1
    28     6    26    1
    29    10    27    1
    30    11    28    1
    31    12    29    1
    32    13    30    1
    33    15    31    1
    34    16    32    1
    35    16    33    1
    36    18    34    1
    37    19    35    1
    38    22    36    1
    39    23    37    1
@<TRIPOS>MOLECULE
../data/bude_mols_rdkit_confs/molecule_40.pdb
 37 39 0 0 0
SMALL
GASTEIGER

@<TRIPOS>ATOM
      1  O1        -0.1100   -2.7530    1.1580 O.2     1  UNL1       -0.2754
      2  C1        -0.0880   -1.8680    0.2380 C.2     1  UNL1        0.2192
      3  C2         1.2090   -1.5430   -0.3630 C.3     1  UNL1        0.0685
      4  C3         1.7890   -0.3090    0.2740 C.ar    1  UNL1        0.0780
      5  N1         1.0480    0.4780    1.0520 N.ar    1  UNL1       -0.1748
      6  N2         1.5670    1.5940    1.5100 N.ar    1  UNL1       -0.2425
      7  C4         2.8210    1.9660    1.2240 C.ar    1  UNL1        0.2725
      8  O2         3.3450    3.0530    1.6670 O.2     1  UNL1       -0.2658
      9  C5         3.6350    1.1910    0.4270 C.ar    1  UNL1        0.0496
     10  C6         4.9100    1.5270    0.1100 C.ar    1  UNL1       -0.0487
     11  C7         5.6610    0.6920   -0.6980 C.ar    1  UNL1       -0.0610
     12  C8         5.1590   -0.4880   -1.2050 C.ar    1  UNL1       -0.0611
     13  C9         3.8460   -0.7930   -0.8530 C.ar    1  UNL1       -0.0521
     14  C10        3.0740    0.0210   -0.0500 C.ar    1  UNL1        0.0108
     15  N3        -1.2660   -1.2120   -0.1870 N.am    1  UNL1       -0.3109
     16  C11       -2.5330   -1.5590    0.4080 C.3     1  UNL1        0.0368
     17  C12       -3.5930   -0.5390    0.1840 C.ar    1  UNL1       -0.0302
     18  C13       -4.7990   -0.9660   -0.2990 C.ar    1  UNL1       -0.0544
     19  C14       -5.8450   -0.0770   -0.5660 C.ar    1  UNL1       -0.0261
     20  C15       -5.6250    1.2450   -0.3230 C.ar    1  UNL1        0.1234
     21  F1        -6.6680    2.0980   -0.5660 F       1  UNL1       -0.2055
     22  C16       -4.4290    1.7290    0.1600 C.ar    1  UNL1       -0.0261
     23  C17       -3.4180    0.7960    0.4060 C.ar    1  UNL1       -0.0544
     24 H           1.0785   -1.3705   -1.4109 H       1  UNL1        0.0423
     25 H           1.8791   -2.3621   -0.2054 H       1  UNL1        0.0423
     26 H           1.0162    2.1759    2.0821 H       1  UNL1        0.1921
     27 H           5.3190    2.4032    0.4705 H       1  UNL1        0.0625
     28 H           6.6300    0.9615   -0.9292 H       1  UNL1        0.0618
     29 H           5.7218   -1.1076   -1.8086 H       1  UNL1        0.0618
     30 H           3.4317   -1.6684   -1.2094 H       1  UNL1        0.0624
     31 H          -1.2216   -0.5208   -0.8866 H       1  UNL1        0.1490
     32 H          -2.3917   -1.6747    1.4623 H       1  UNL1        0.0512
     33 H          -2.8628   -2.4635   -0.0589 H       1  UNL1        0.0512
     34 H          -4.9414   -1.9735   -0.4715 H       1  UNL1        0.0622
     35 H          -6.7499   -0.4102   -0.9335 H       1  UNL1        0.0646
     36 H          -4.2859    2.7364    0.3326 H       1  UNL1        0.0646
     37 H          -2.5098    1.1273    0.7672 H       1  UNL1        0.0622
@<TRIPOS>BOND
     1     1     2    2
     2     2     3    1
     3     2    15   am
     4     3     4    1
     5     4     5   ar
     6     4    14   ar
     7     5     6   ar
     8     6     7   ar
     9     7     8    2
    10     7     9   ar
    11     9    10   ar
    12     9    14   ar
    13    10    11   ar
    14    11    12   ar
    15    12    13   ar
    16    13    14   ar
    17    15    16    1
    18    16    17    1
    19    17    18   ar
    20    17    23   ar
    21    18    19   ar
    22    19    20   ar
    23    20    21    1
    24    20    22   ar
    25    22    23   ar
    26     3    24    1
    27     3    25    1
    28     6    26    1
    29    10    27    1
    30    11    28    1
    31    12    29    1
    32    13    30    1
    33    15    31    1
    34    16    32    1
    35    16    33    1
    36    18    34    1
    37    19    35    1
    38    22    36    1
    39    23    37    1
