@<TRIPOS>MOLECULE
../data/bude_mols_rdkit_confs/molecule_94.pdb
 51 53 0 0 0
SMALL
GASTEIGER

@<TRIPOS>ATOM
      1  O1        -4.4860   -0.7000   -0.7160 O.2     1  UNL1       -0.2739
      2  C1        -4.4750   -0.2810    0.5030 C.2     1  UNL1        0.2334
      3  C2        -5.7450   -0.1580    1.1960 C.3     1  UNL1        0.0505
      4  C3        -6.6000    0.8850    0.5640 C.ar    1  UNL1       -0.0386
      5  C4        -6.4810    2.1890    1.0310 C.ar    1  UNL1       -0.0581
      6  C5        -7.2680    3.1750    0.4750 C.ar    1  UNL1       -0.0615
      7  C6        -8.1750    2.9220   -0.5300 C.ar    1  UNL1       -0.0617
      8  C7        -8.2950    1.6320   -0.9920 C.ar    1  UNL1       -0.0615
      9  C8        -7.4950    0.6350   -0.4280 C.ar    1  UNL1       -0.0581
     10  N1        -3.1800    0.0090    1.0430 N.am    1  UNL1       -0.2339
     11  N2        -2.0820   -0.1970    0.2120 N.am    1  UNL1       -0.2304
     12  C9        -1.0270   -1.0900    0.6050 C.2     1  UNL1        0.2602
     13  O2        -1.1720   -1.6450    1.7340 O.2     1  UNL1       -0.2687
     14  C10        0.1450   -1.3600   -0.2210 C.ar    1  UNL1        0.0400
     15  C11        0.1050   -1.3570   -1.5950 C.ar    1  UNL1       -0.0495
     16  C12        1.1860   -1.6140   -2.4050 C.ar    1  UNL1       -0.0592
     17  C13        2.3910   -1.8940   -1.8200 C.ar    1  UNL1       -0.0353
     18  C14        2.4870   -1.9090   -0.4180 C.ar    1  UNL1        0.1062
     19  S1         4.0600   -2.2490    0.2730 S.O2    1  UNL1        0.0609
     20  O3         4.8750   -3.0770   -0.6510 O.2     1  UNL1       -0.1528
     21  O4         3.9340   -2.9110    1.6290 O.2     1  UNL1       -0.1528
     22  N3         4.8510   -0.7330    0.5260 N.3     1  UNL1       -0.1766
     23  C15        4.9800   -0.0980   -0.8030 C.3     1  UNL1        0.0205
     24  C16        5.4360    1.3260   -0.6500 C.3     1  UNL1       -0.0385
     25  C17        6.5720    1.4990    0.2920 C.3     1  UNL1       -0.0506
     26  C18        6.8210    0.3870    1.2490 C.3     1  UNL1       -0.0385
     27  C19        6.2610   -0.9400    0.9020 C.3     1  UNL1        0.0205
     28  C20        1.3790   -1.6460    0.3650 C.ar    1  UNL1       -0.0232
     29 H          -5.5625    0.1100    2.2157 H       1  UNL1        0.0407
     30 H          -6.2556   -1.0966    1.1403 H       1  UNL1        0.0407
     31 H          -5.8125    2.4159    1.7838 H       1  UNL1        0.0620
     32 H          -7.1737    4.1410    0.8258 H       1  UNL1        0.0618
     33 H          -8.7503    3.6814   -0.9266 H       1  UNL1        0.0618
     34 H          -8.9651    1.4042   -1.7431 H       1  UNL1        0.0618
     35 H          -7.5874   -0.3310   -0.7790 H       1  UNL1        0.0620
     36 H          -3.0710    0.3403    1.9637 H       1  UNL1        0.1728
     37 H          -2.0280    0.2728   -0.6515 H       1  UNL1        0.1731
     38 H          -0.7976   -1.1477   -2.0495 H       1  UNL1        0.0625
     39 H           1.0906   -1.5961   -3.4324 H       1  UNL1        0.0618
     40 H           3.2200   -2.0919   -2.4019 H       1  UNL1        0.0637
     41 H           4.0313   -0.1151   -1.2975 H       1  UNL1        0.0444
     42 H           5.7005   -0.6374   -1.3816 H       1  UNL1        0.0444
     43 H           4.6114    1.9068   -0.2929 H       1  UNL1        0.0278
     44 H           5.7797    1.6460   -1.6115 H       1  UNL1        0.0278
     45 H           6.3870    2.3840    0.8642 H       1  UNL1        0.0266
     46 H           7.4454    1.5405   -0.3248 H       1  UNL1        0.0266
     47 H           6.4068    0.6750    2.1926 H       1  UNL1        0.0278
     48 H           7.8821    0.2497    1.2438 H       1  UNL1        0.0278
     49 H           6.8012   -1.3625    0.0807 H       1  UNL1        0.0444
     50 H           6.3385   -1.6134    1.7299 H       1  UNL1        0.0444
     51 H           1.4649   -1.6612    1.3933 H       1  UNL1        0.0644
@<TRIPOS>BOND
     1     1     2    2
     2     2     3    1
     3     2    10   am
     4     3     4    1
     5     4     5   ar
     6     4     9   ar
     7     5     6   ar
     8     6     7   ar
     9     7     8   ar
    10     8     9   ar
    11    10    11    1
    12    11    12   am
    13    12    13    2
    14    12    14    1
    15    14    15   ar
    16    14    28   ar
    17    15    16   ar
    18    16    17   ar
    19    17    18   ar
    20    18    19    1
    21    18    28   ar
    22    19    20    2
    23    19    21    2
    24    19    22    1
    25    22    23    1
    26    22    27    1
    27    23    24    1
    28    24    25    1
    29    25    26    1
    30    26    27    1
    31     3    29    1
    32     3    30    1
    33     5    31    1
    34     6    32    1
    35     7    33    1
    36     8    34    1
    37     9    35    1
    38    10    36    1
    39    11    37    1
    40    15    38    1
    41    16    39    1
    42    17    40    1
    43    23    41    1
    44    23    42    1
    45    24    43    1
    46    24    44    1
    47    25    45    1
    48    25    46    1
    49    26    47    1
    50    26    48    1
    51    27    49    1
    52    27    50    1
    53    28    51    1
@<TRIPOS>MOLECULE
../data/bude_mols_rdkit_confs/molecule_94.pdb
 51 53 0 0 0
SMALL
GASTEIGER

@<TRIPOS>ATOM
      1  O1         2.3010    1.3430   -1.4700 O.2     1  UNL1       -0.2739
      2  C1         3.3970    1.0550   -0.9370 C.2     1  UNL1        0.2334
      3  C2         4.7150    1.4120   -1.5630 C.3     1  UNL1        0.0505
      4  C3         5.8160    0.8840   -0.7260 C.ar    1  UNL1       -0.0386
      5  C4         6.3870   -0.3410   -0.9160 C.ar    1  UNL1       -0.0581
      6  C5         7.4170   -0.7910   -0.1000 C.ar    1  UNL1       -0.0615
      7  C6         7.8530    0.0270    0.9130 C.ar    1  UNL1       -0.0617
      8  C7         7.2890    1.2790    1.1300 C.ar    1  UNL1       -0.0615
      9  C8         6.2800    1.6720    0.2970 C.ar    1  UNL1       -0.0581
     10  N1         3.3520    0.3610    0.3130 N.am    1  UNL1       -0.2339
     11  N2         2.1400    0.0010    0.9350 N.am    1  UNL1       -0.2304
     12  C9         1.2400   -0.7840    0.1540 C.2     1  UNL1        0.2602
     13  O2         1.5550   -1.1120   -1.0230 O.2     1  UNL1       -0.2687
     14  C10       -0.0380   -1.2060    0.7110 C.ar    1  UNL1        0.0400
     15  C11       -0.1940   -1.4350    2.0600 C.ar    1  UNL1       -0.0495
     16  C12       -1.4020   -1.8290    2.6030 C.ar    1  UNL1       -0.0592
     17  C13       -2.5000   -2.0040    1.7890 C.ar    1  UNL1       -0.0353
     18  C14       -2.3480   -1.7760    0.4530 C.ar    1  UNL1        0.1062
     19  S1        -3.7500   -1.9860   -0.5930 S.O2    1  UNL1        0.0609
     20  O3        -4.5660   -3.1870   -0.1800 O.2     1  UNL1       -0.1528
     21  O4        -3.2450   -2.3250   -1.9920 O.2     1  UNL1       -0.1528
     22  N3        -4.6270   -0.5610   -0.5700 N.3     1  UNL1       -0.1766
     23  C15       -4.0270    0.6200   -1.0300 C.3     1  UNL1        0.0205
     24  C16       -4.5190    1.7930   -0.2010 C.3     1  UNL1       -0.0385
     25  C17       -6.0010    1.8690   -0.0730 C.3     1  UNL1       -0.0506
     26  C18       -6.7240    0.6900   -0.6510 C.3     1  UNL1       -0.0385
     27  C19       -6.0000   -0.5890   -0.2890 C.3     1  UNL1        0.0205
     28  C20       -1.1580   -1.3860   -0.1000 C.ar    1  UNL1       -0.0232
     29 H           4.7997    2.4763   -1.6344 H       1  UNL1        0.0407
     30 H           4.7733    0.9839   -2.5419 H       1  UNL1        0.0407
     31 H           6.0469   -0.9447   -1.6808 H       1  UNL1        0.0620
     32 H           7.8444   -1.7180   -0.2515 H       1  UNL1        0.0618
     33 H           8.6170   -0.2950    1.5275 H       1  UNL1        0.0618
     34 H           7.6206    1.8896    1.8930 H       1  UNL1        0.0618
     35 H           5.8496    2.5985    0.4430 H       1  UNL1        0.0620
     36 H           4.1996    0.1261    0.7553 H       1  UNL1        0.1728
     37 H           1.9263    0.2754    1.8560 H       1  UNL1        0.1731
     38 H           0.6172   -1.3083    2.6853 H       1  UNL1        0.0625
     39 H          -1.4819   -1.9923    3.6189 H       1  UNL1        0.0618
     40 H          -3.4093   -2.2985    2.1783 H       1  UNL1        0.0637
     41 H          -4.2857    0.7752   -2.0566 H       1  UNL1        0.0444
     42 H          -2.9640    0.5393   -0.9387 H       1  UNL1        0.0444
     43 H          -4.1747    2.6963   -0.6597 H       1  UNL1        0.0278
     44 H          -4.1309    1.6567    0.7868 H       1  UNL1        0.0278
     45 H          -6.3375    2.7505   -0.5775 H       1  UNL1        0.0266
     46 H          -6.2210    1.8842    0.9740 H       1  UNL1        0.0266
     47 H          -6.7634    0.7857   -1.7160 H       1  UNL1        0.0278
     48 H          -7.7166    0.6567   -0.2529 H       1  UNL1        0.0278
     49 H          -6.1263   -0.7630    0.7592 H       1  UNL1        0.0444
     50 H          -6.4247   -1.3676   -0.8876 H       1  UNL1        0.0444
     51 H          -1.0898   -1.2252   -1.1171 H       1  UNL1        0.0644
@<TRIPOS>BOND
     1     1     2    2
     2     2     3    1
     3     2    10   am
     4     3     4    1
     5     4     5   ar
     6     4     9   ar
     7     5     6   ar
     8     6     7   ar
     9     7     8   ar
    10     8     9   ar
    11    10    11    1
    12    11    12   am
    13    12    13    2
    14    12    14    1
    15    14    15   ar
    16    14    28   ar
    17    15    16   ar
    18    16    17   ar
    19    17    18   ar
    20    18    19    1
    21    18    28   ar
    22    19    20    2
    23    19    21    2
    24    19    22    1
    25    22    23    1
    26    22    27    1
    27    23    24    1
    28    24    25    1
    29    25    26    1
    30    26    27    1
    31     3    29    1
    32     3    30    1
    33     5    31    1
    34     6    32    1
    35     7    33    1
    36     8    34    1
    37     9    35    1
    38    10    36    1
    39    11    37    1
    40    15    38    1
    41    16    39    1
    42    17    40    1
    43    23    41    1
    44    23    42    1
    45    24    43    1
    46    24    44    1
    47    25    45    1
    48    25    46    1
    49    26    47    1
    50    26    48    1
    51    27    49    1
    52    27    50    1
    53    28    51    1
@<TRIPOS>MOLECULE
../data/bude_mols_rdkit_confs/molecule_94.pdb
 51 53 0 0 0
SMALL
GASTEIGER

@<TRIPOS>ATOM
      1  O1         4.8840    0.7390    0.4200 O.2     1  UNL1       -0.2739
      2  C1         4.6620   -0.4060    0.9060 C.2     1  UNL1        0.2334
      3  C2         5.8640   -1.2540    1.1890 C.3     1  UNL1        0.0505
      4  C3         7.0380   -0.7850    0.4040 C.ar    1  UNL1       -0.0386
      5  C4         7.9090    0.1980    0.7690 C.ar    1  UNL1       -0.0581
      6  C5         8.9800    0.5470   -0.0600 C.ar    1  UNL1       -0.0615
      7  C6         9.1700   -0.1040   -1.2700 C.ar    1  UNL1       -0.0617
      8  C7         8.3050   -1.1010   -1.6720 C.ar    1  UNL1       -0.0615
      9  C8         7.2620   -1.4190   -0.8260 C.ar    1  UNL1       -0.0581
     10  N1         3.3220   -0.8660    1.1580 N.am    1  UNL1       -0.2339
     11  N2         2.2330   -0.0390    0.8760 N.am    1  UNL1       -0.2304
     12  C9         0.9010   -0.5080    0.8430 C.2     1  UNL1        0.2602
     13  O2         0.7270   -1.7390    1.0770 O.2     1  UNL1       -0.2687
     14  C10       -0.2330    0.3640    0.5660 C.ar    1  UNL1        0.0400
     15  C11       -0.0980    1.6220    0.0640 C.ar    1  UNL1       -0.0495
     16  C12       -1.2180    2.4090   -0.1670 C.ar    1  UNL1       -0.0592
     17  C13       -2.4990    1.9530    0.1030 C.ar    1  UNL1       -0.0353
     18  C14       -2.6490    0.6790    0.6100 C.ar    1  UNL1        0.1062
     19  S1        -4.2570    0.0890    0.9620 S.O2    1  UNL1        0.0609
     20  O3        -4.1990   -0.9390    2.0810 O.2     1  UNL1       -0.1528
     21  O4        -5.1310    1.2160    1.4400 O.2     1  UNL1       -0.1528
     22  N3        -4.9880   -0.6610   -0.3920 N.3     1  UNL1       -0.1766
     23  C15       -5.1610    0.2480   -1.5070 C.3     1  UNL1        0.0205
     24  C16       -6.4160    1.0660   -1.3820 C.3     1  UNL1       -0.0385
     25  C17       -7.6380    0.2320   -1.0610 C.3     1  UNL1       -0.0506
     26  C18       -7.3390   -0.5470    0.2040 C.3     1  UNL1       -0.0385
     27  C19       -6.1410   -1.4220   -0.0790 C.3     1  UNL1        0.0205
     28  C20       -1.5160   -0.1090    0.8390 C.ar    1  UNL1       -0.0232
     29 H           5.6479   -2.2682    0.9250 H       1  UNL1        0.0407
     30 H           6.0970   -1.1820    2.2308 H       1  UNL1        0.0407
     31 H           7.7767    0.6899    1.6665 H       1  UNL1        0.0620
     32 H           9.6321    1.2925    0.2300 H       1  UNL1        0.0618
     33 H           9.9642    0.1593   -1.8741 H       1  UNL1        0.0618
     34 H           8.4331   -1.5905   -2.5714 H       1  UNL1        0.0618
     35 H           6.6105   -2.1653   -1.1151 H       1  UNL1        0.0620
     36 H           3.1729   -1.7653    1.5298 H       1  UNL1        0.1728
     37 H           2.4010    0.9134    0.6920 H       1  UNL1        0.1731
     38 H           0.8420    1.9927   -0.1460 H       1  UNL1        0.0625
     39 H          -1.0936    3.3592   -0.5501 H       1  UNL1        0.0618
     40 H          -3.3208    2.5524   -0.0712 H       1  UNL1        0.0637
     41 H          -5.2092   -0.3213   -2.4117 H       1  UNL1        0.0444
     42 H          -4.3292    0.9210   -1.5149 H       1  UNL1        0.0444
     43 H          -6.5846    1.5750   -2.3080 H       1  UNL1        0.0278
     44 H          -6.2729    1.7485   -0.5704 H       1  UNL1        0.0278
     45 H          -7.8414   -0.4429   -1.8661 H       1  UNL1        0.0266
     46 H          -8.4955    0.8573   -0.9245 H       1  UNL1        0.0266
     47 H          -8.1805   -1.1528    0.4683 H       1  UNL1        0.0278
     48 H          -7.1387    0.1169    1.0189 H       1  UNL1        0.0278
     49 H          -5.9369   -2.0179    0.7859 H       1  UNL1        0.0444
     50 H          -6.3722   -2.0338   -0.9259 H       1  UNL1        0.0444
     51 H          -1.6323   -1.0616    1.2184 H       1  UNL1        0.0644
@<TRIPOS>BOND
     1     1     2    2
     2     2     3    1
     3     2    10   am
     4     3     4    1
     5     4     5   ar
     6     4     9   ar
     7     5     6   ar
     8     6     7   ar
     9     7     8   ar
    10     8     9   ar
    11    10    11    1
    12    11    12   am
    13    12    13    2
    14    12    14    1
    15    14    15   ar
    16    14    28   ar
    17    15    16   ar
    18    16    17   ar
    19    17    18   ar
    20    18    19    1
    21    18    28   ar
    22    19    20    2
    23    19    21    2
    24    19    22    1
    25    22    23    1
    26    22    27    1
    27    23    24    1
    28    24    25    1
    29    25    26    1
    30    26    27    1
    31     3    29    1
    32     3    30    1
    33     5    31    1
    34     6    32    1
    35     7    33    1
    36     8    34    1
    37     9    35    1
    38    10    36    1
    39    11    37    1
    40    15    38    1
    41    16    39    1
    42    17    40    1
    43    23    41    1
    44    23    42    1
    45    24    43    1
    46    24    44    1
    47    25    45    1
    48    25    46    1
    49    26    47    1
    50    26    48    1
    51    27    49    1
    52    27    50    1
    53    28    51    1
@<TRIPOS>MOLECULE
../data/bude_mols_rdkit_confs/molecule_94.pdb
 51 53 0 0 0
SMALL
GASTEIGER

@<TRIPOS>ATOM
      1  O1         4.4210    0.5750    0.3960 O.2     1  UNL1       -0.2739
      2  C1         4.3350   -0.4640    1.0930 C.2     1  UNL1        0.2334
      3  C2         5.5100   -1.3630    1.2050 C.3     1  UNL1        0.0505
      4  C3         6.6260   -0.7810    0.3930 C.ar    1  UNL1       -0.0386
      5  C4         7.5170    0.1420    0.9510 C.ar    1  UNL1       -0.0581
      6  C5         8.5400    0.6740    0.1930 C.ar    1  UNL1       -0.0615
      7  C6         8.6500    0.2670   -1.1170 C.ar    1  UNL1       -0.0617
      8  C7         7.7840   -0.6410   -1.6900 C.ar    1  UNL1       -0.0615
      9  C8         6.7540   -1.1740   -0.9180 C.ar    1  UNL1       -0.0581
     10  N1         3.0990   -0.7470    1.7590 N.am    1  UNL1       -0.2339
     11  N2         2.0640    0.1450    1.6000 N.am    1  UNL1       -0.2304
     12  C9         0.8750   -0.1360    0.8810 C.2     1  UNL1        0.2602
     13  O2         0.7770   -1.2930    0.3610 O.2     1  UNL1       -0.2687
     14  C10       -0.2220    0.8030    0.7040 C.ar    1  UNL1        0.0400
     15  C11       -0.2790    1.9900    1.4000 C.ar    1  UNL1       -0.0495
     16  C12       -1.3390    2.8880    1.1980 C.ar    1  UNL1       -0.0592
     17  C13       -2.3470    2.6170    0.3090 C.ar    1  UNL1       -0.0353
     18  C14       -2.2760    1.4170   -0.3850 C.ar    1  UNL1        0.1062
     19  S1        -3.5040    1.0010   -1.5380 S.O2    1  UNL1        0.0609
     20  O3        -3.9060    2.2790   -2.2560 O.2     1  UNL1       -0.1528
     21  O4        -2.8510    0.1360   -2.6080 O.2     1  UNL1       -0.1528
     22  N3        -4.8350    0.2090   -0.9580 N.3     1  UNL1       -0.1766
     23  C15       -5.6600    0.8310    0.0010 C.3     1  UNL1        0.0205
     24  C16       -7.0870    0.7630   -0.5720 C.3     1  UNL1       -0.0385
     25  C17       -7.3890   -0.6990   -0.8220 C.3     1  UNL1       -0.0506
     26  C18       -6.2600   -1.6210   -0.4510 C.3     1  UNL1       -0.0385
     27  C19       -4.9450   -1.1930   -1.1060 C.3     1  UNL1        0.0205
     28  C20       -1.2400    0.5280   -0.1950 C.ar    1  UNL1       -0.0232
     29 H           5.2595   -2.3341    0.8321 H       1  UNL1        0.0407
     30 H           5.8077   -1.4550    2.2286 H       1  UNL1        0.0407
     31 H           7.4084    0.4271    1.9369 H       1  UNL1        0.0620
     32 H           9.2018    1.3557    0.5958 H       1  UNL1        0.0618
     33 H           9.4114    0.6570   -1.6942 H       1  UNL1        0.0618
     34 H           7.8975   -0.9215   -2.6766 H       1  UNL1        0.0618
     35 H           6.0950   -1.8557   -1.3255 H       1  UNL1        0.0620
     36 H           2.9935   -1.5541    2.3128 H       1  UNL1        0.1728
     37 H           2.1547    1.0348    2.0115 H       1  UNL1        0.1731
     38 H           0.4649    2.2216    2.0768 H       1  UNL1        0.0625
     39 H          -1.3600    3.7718    1.7305 H       1  UNL1        0.0618
     40 H          -3.1260    3.2777    0.1620 H       1  UNL1        0.0637
     41 H          -5.3635    1.8490    0.1445 H       1  UNL1        0.0444
     42 H          -5.5929    0.3478    0.9533 H       1  UNL1        0.0444
     43 H          -7.1425    1.3125   -1.4885 H       1  UNL1        0.0278
     44 H          -7.7943    1.1902    0.1078 H       1  UNL1        0.0278
     45 H          -7.6017   -0.8270   -1.8628 H       1  UNL1        0.0266
     46 H          -8.2211   -0.9574   -0.2009 H       1  UNL1        0.0266
     47 H          -6.5015   -2.6126   -0.7725 H       1  UNL1        0.0278
     48 H          -6.1327   -1.5840    0.6108 H       1  UNL1        0.0278
     49 H          -4.1217   -1.6773   -0.6238 H       1  UNL1        0.0444
     50 H          -4.9322   -1.4656   -2.1406 H       1  UNL1        0.0444
     51 H          -1.2222   -0.3546   -0.7296 H       1  UNL1        0.0644
@<TRIPOS>BOND
     1     1     2    2
     2     2     3    1
     3     2    10   am
     4     3     4    1
     5     4     5   ar
     6     4     9   ar
     7     5     6   ar
     8     6     7   ar
     9     7     8   ar
    10     8     9   ar
    11    10    11    1
    12    11    12   am
    13    12    13    2
    14    12    14    1
    15    14    15   ar
    16    14    28   ar
    17    15    16   ar
    18    16    17   ar
    19    17    18   ar
    20    18    19    1
    21    18    28   ar
    22    19    20    2
    23    19    21    2
    24    19    22    1
    25    22    23    1
    26    22    27    1
    27    23    24    1
    28    24    25    1
    29    25    26    1
    30    26    27    1
    31     3    29    1
    32     3    30    1
    33     5    31    1
    34     6    32    1
    35     7    33    1
    36     8    34    1
    37     9    35    1
    38    10    36    1
    39    11    37    1
    40    15    38    1
    41    16    39    1
    42    17    40    1
    43    23    41    1
    44    23    42    1
    45    24    43    1
    46    24    44    1
    47    25    45    1
    48    25    46    1
    49    26    47    1
    50    26    48    1
    51    27    49    1
    52    27    50    1
    53    28    51    1
@<TRIPOS>MOLECULE
../data/bude_mols_rdkit_confs/molecule_94.pdb
 51 53 0 0 0
SMALL
GASTEIGER

@<TRIPOS>ATOM
      1  O1         4.3830   -2.2910   -1.9000 O.2     1  UNL1       -0.2739
      2  C1         4.6960   -1.3660   -1.0950 C.2     1  UNL1        0.2334
      3  C2         6.0700   -0.7920   -1.1270 C.3     1  UNL1        0.0505
      4  C3         6.2540    0.2760   -0.1090 C.ar    1  UNL1       -0.0386
      5  C4         6.6840   -0.0320    1.1610 C.ar    1  UNL1       -0.0581
      6  C5         6.8510    0.9570    2.0790 C.ar    1  UNL1       -0.0615
      7  C6         6.5990    2.2790    1.7780 C.ar    1  UNL1       -0.0617
      8  C7         6.1670    2.5840    0.5050 C.ar    1  UNL1       -0.0615
      9  C8         5.9970    1.5870   -0.4290 C.ar    1  UNL1       -0.0581
     10  N1         3.6800   -0.9370   -0.1990 N.am    1  UNL1       -0.2339
     11  N2         2.4230   -1.5450   -0.2540 N.am    1  UNL1       -0.2304
     12  C9         1.2440   -0.8140   -0.5540 C.2     1  UNL1        0.2602
     13  O2         1.4200    0.4230   -0.7650 O.2     1  UNL1       -0.2687
     14  C10       -0.0760   -1.4260   -0.6180 C.ar    1  UNL1        0.0400
     15  C11       -0.3550   -2.7130   -0.2230 C.ar    1  UNL1       -0.0495
     16  C12       -1.5970   -3.2990   -0.2880 C.ar    1  UNL1       -0.0592
     17  C13       -2.6350   -2.5310   -0.7890 C.ar    1  UNL1       -0.0353
     18  C14       -2.4080   -1.2410   -1.1970 C.ar    1  UNL1        0.1062
     19  S1        -3.7390   -0.3080   -1.8300 S.O2    1  UNL1        0.0609
     20  O3        -4.7250   -1.3120   -2.4240 O.2     1  UNL1       -0.1528
     21  O4        -3.2800    0.6100   -2.9340 O.2     1  UNL1       -0.1528
     22  N3        -4.5260    0.4890   -0.5810 N.3     1  UNL1       -0.1766
     23  C15       -5.1200   -0.2790    0.4280 C.3     1  UNL1        0.0205
     24  C16       -6.3390    0.3620    1.0620 C.3     1  UNL1       -0.0385
     25  C17       -6.1560    1.8500    1.2460 C.3     1  UNL1       -0.0506
     26  C18       -5.7720    2.4690   -0.0600 C.3     1  UNL1       -0.0385
     27  C19       -4.4130    1.8770   -0.4560 C.3     1  UNL1        0.0205
     28  C20       -1.1430   -0.6880   -1.1140 C.ar    1  UNL1       -0.0232
     29 H           6.2484   -0.3781   -2.0974 H       1  UNL1        0.0407
     30 H           6.7610   -1.5789   -0.9075 H       1  UNL1        0.0407
     31 H           6.8796   -1.0125    1.4166 H       1  UNL1        0.0620
     32 H           7.1754    0.7115    3.0274 H       1  UNL1        0.0618
     33 H           6.7301    3.0188    2.4855 H       1  UNL1        0.0618
     34 H           5.9700    3.5646    0.2508 H       1  UNL1        0.0618
     35 H           5.6732    1.8269   -1.3791 H       1  UNL1        0.0620
     36 H           3.8593   -0.2207    0.4521 H       1  UNL1        0.1728
     37 H           2.3530   -2.5113   -0.0791 H       1  UNL1        0.1731
     38 H           0.4233   -3.2796    0.1488 H       1  UNL1        0.0625
     39 H          -1.7495   -4.2709    0.0236 H       1  UNL1        0.0618
     40 H          -3.5839   -2.9311   -0.8557 H       1  UNL1        0.0637
     41 H          -4.3923   -0.4465    1.1944 H       1  UNL1        0.0444
     42 H          -5.4540   -1.1853   -0.0323 H       1  UNL1        0.0444
     43 H          -6.5092   -0.0872    2.0181 H       1  UNL1        0.0278
     44 H          -7.1739    0.2067    0.4111 H       1  UNL1        0.0278
     45 H          -5.3848    2.0284    1.9660 H       1  UNL1        0.0266
     46 H          -7.0719    2.2826    1.5907 H       1  UNL1        0.0266
     47 H          -5.6932    3.5308    0.0459 H       1  UNL1        0.0278
     48 H          -6.5089    2.2670   -0.8091 H       1  UNL1        0.0278
     49 H          -4.1010    2.2947   -1.3904 H       1  UNL1        0.0444
     50 H          -3.6904    2.1088    0.2983 H       1  UNL1        0.0444
     51 H          -0.9901    0.2843   -1.4242 H       1  UNL1        0.0644
@<TRIPOS>BOND
     1     1     2    2
     2     2     3    1
     3     2    10   am
     4     3     4    1
     5     4     5   ar
     6     4     9   ar
     7     5     6   ar
     8     6     7   ar
     9     7     8   ar
    10     8     9   ar
    11    10    11    1
    12    11    12   am
    13    12    13    2
    14    12    14    1
    15    14    15   ar
    16    14    28   ar
    17    15    16   ar
    18    16    17   ar
    19    17    18   ar
    20    18    19    1
    21    18    28   ar
    22    19    20    2
    23    19    21    2
    24    19    22    1
    25    22    23    1
    26    22    27    1
    27    23    24    1
    28    24    25    1
    29    25    26    1
    30    26    27    1
    31     3    29    1
    32     3    30    1
    33     5    31    1
    34     6    32    1
    35     7    33    1
    36     8    34    1
    37     9    35    1
    38    10    36    1
    39    11    37    1
    40    15    38    1
    41    16    39    1
    42    17    40    1
    43    23    41    1
    44    23    42    1
    45    24    43    1
    46    24    44    1
    47    25    45    1
    48    25    46    1
    49    26    47    1
    50    26    48    1
    51    27    49    1
    52    27    50    1
    53    28    51    1
@<TRIPOS>MOLECULE
../data/bude_mols_rdkit_confs/molecule_94.pdb
 51 53 0 0 0
SMALL
GASTEIGER

@<TRIPOS>ATOM
      1  O1         3.8640    1.2110    0.3020 O.2     1  UNL1       -0.2739
      2  C1         4.3800    0.3600   -0.4660 C.2     1  UNL1        0.2334
      3  C2         5.6750    0.5640   -1.1500 C.3     1  UNL1        0.0505
      4  C3         6.8360    0.8120   -0.2930 C.ar    1  UNL1       -0.0386
      5  C4         7.3880   -0.2200    0.4720 C.ar    1  UNL1       -0.0581
      6  C5         8.5220   -0.0490    1.2260 C.ar    1  UNL1       -0.0615
      7  C6         9.1680    1.1660    1.2580 C.ar    1  UNL1       -0.0617
      8  C7         8.6340    2.1940    0.5110 C.ar    1  UNL1       -0.0615
      9  C8         7.4980    2.0430   -0.2500 C.ar    1  UNL1       -0.0581
     10  N1         3.6780   -0.8790   -0.7030 N.am    1  UNL1       -0.2339
     11  N2         2.4440   -1.2040   -0.1520 N.am    1  UNL1       -0.2304
     12  C9         1.2580   -0.6050   -0.6260 C.2     1  UNL1        0.2602
     13  O2         1.4000    0.2450   -1.5730 O.2     1  UNL1       -0.2687
     14  C10       -0.0650   -0.8940   -0.1200 C.ar    1  UNL1        0.0400
     15  C11       -0.3510   -2.0820    0.5060 C.ar    1  UNL1       -0.0495
     16  C12       -1.6070   -2.3790    0.9990 C.ar    1  UNL1       -0.0592
     17  C13       -2.6260   -1.4510    0.8650 C.ar    1  UNL1       -0.0353
     18  C14       -2.3810   -0.2490    0.2420 C.ar    1  UNL1        0.1062
     19  S1        -3.6020    0.9630    0.1070 S.O2    1  UNL1        0.0609
     20  O3        -3.5600    1.8710    1.3060 O.2     1  UNL1       -0.1528
     21  O4        -3.2570    1.8180   -1.1120 O.2     1  UNL1       -0.1528
     22  N3        -5.1640    0.3870   -0.1200 N.3     1  UNL1       -0.1766
     23  C15       -5.4710   -0.3720   -1.2490 C.3     1  UNL1        0.0205
     24  C16       -6.8930   -0.0910   -1.7220 C.3     1  UNL1       -0.0385
     25  C17       -7.6910    0.5800   -0.6410 C.3     1  UNL1       -0.0506
     26  C18       -7.3620   -0.1640    0.6510 C.3     1  UNL1       -0.0385
     27  C19       -5.9650    0.2840    1.0400 C.3     1  UNL1        0.0205
     28  C20       -1.1070    0.0210   -0.2460 C.ar    1  UNL1       -0.0232
     29 H           5.5683    1.4044   -1.8036 H       1  UNL1        0.0407
     30 H           5.8819   -0.3617   -1.6452 H       1  UNL1        0.0407
     31 H           6.9264   -1.1430    0.4696 H       1  UNL1        0.0620
     32 H           8.8943   -0.8398    1.7748 H       1  UNL1        0.0618
     33 H          10.0219    1.3025    1.8213 H       1  UNL1        0.0618
     34 H           9.1046    3.1124    0.5231 H       1  UNL1        0.0618
     35 H           7.1327    2.8419   -0.7916 H       1  UNL1        0.0620
     36 H           4.1029   -1.5398   -1.2963 H       1  UNL1        0.1728
     37 H           2.3970   -1.8614    0.5793 H       1  UNL1        0.1731
     38 H           0.4014   -2.7802    0.6124 H       1  UNL1        0.0625
     39 H          -1.7841   -3.2838    1.4627 H       1  UNL1        0.0618
     40 H          -3.5676   -1.6606    1.2318 H       1  UNL1        0.0637
     41 H          -5.3805   -1.4106   -1.0083 H       1  UNL1        0.0444
     42 H          -4.7914   -0.1099   -2.0328 H       1  UNL1        0.0444
     43 H          -7.3646   -1.0150   -1.9842 H       1  UNL1        0.0278
     44 H          -6.8503    0.5590   -2.5709 H       1  UNL1        0.0278
     45 H          -8.7373    0.5100   -0.8538 H       1  UNL1        0.0266
     46 H          -7.4506    1.6199   -0.5656 H       1  UNL1        0.0266
     47 H          -7.3827   -1.2213    0.4880 H       1  UNL1        0.0278
     48 H          -8.0735    0.0494    1.4212 H       1  UNL1        0.0278
     49 H          -6.0176    1.2373    1.5231 H       1  UNL1        0.0444
     50 H          -5.5341   -0.4312    1.7091 H       1  UNL1        0.0444
     51 H          -0.9292    0.9235   -0.7139 H       1  UNL1        0.0644
@<TRIPOS>BOND
     1     1     2    2
     2     2     3    1
     3     2    10   am
     4     3     4    1
     5     4     5   ar
     6     4     9   ar
     7     5     6   ar
     8     6     7   ar
     9     7     8   ar
    10     8     9   ar
    11    10    11    1
    12    11    12   am
    13    12    13    2
    14    12    14    1
    15    14    15   ar
    16    14    28   ar
    17    15    16   ar
    18    16    17   ar
    19    17    18   ar
    20    18    19    1
    21    18    28   ar
    22    19    20    2
    23    19    21    2
    24    19    22    1
    25    22    23    1
    26    22    27    1
    27    23    24    1
    28    24    25    1
    29    25    26    1
    30    26    27    1
    31     3    29    1
    32     3    30    1
    33     5    31    1
    34     6    32    1
    35     7    33    1
    36     8    34    1
    37     9    35    1
    38    10    36    1
    39    11    37    1
    40    15    38    1
    41    16    39    1
    42    17    40    1
    43    23    41    1
    44    23    42    1
    45    24    43    1
    46    24    44    1
    47    25    45    1
    48    25    46    1
    49    26    47    1
    50    26    48    1
    51    27    49    1
    52    27    50    1
    53    28    51    1
@<TRIPOS>MOLECULE
../data/bude_mols_rdkit_confs/molecule_94.pdb
 51 53 0 0 0
SMALL
GASTEIGER

@<TRIPOS>ATOM
      1  O1         4.5560   -0.6890   -0.0340 O.2     1  UNL1       -0.2739
      2  C1         4.3100    0.3360    0.6410 C.2     1  UNL1        0.2334
      3  C2         5.4350    1.2880    0.8840 C.3     1  UNL1        0.0505
      4  C3         6.6890    0.7850    0.2860 C.ar    1  UNL1       -0.0386
      5  C4         7.5300    0.0230    1.0980 C.ar    1  UNL1       -0.0581
      6  C5         8.7110   -0.5000    0.6240 C.ar    1  UNL1       -0.0615
      7  C6         9.0260   -0.2370   -0.6890 C.ar    1  UNL1       -0.0617
      8  C7         8.2050    0.5200   -1.5210 C.ar    1  UNL1       -0.0615
      9  C8         7.0290    1.0300   -1.0170 C.ar    1  UNL1       -0.0581
     10  N1         3.0060    0.5300    1.1280 N.am    1  UNL1       -0.2339
     11  N2         1.9520   -0.3570    0.9040 N.am    1  UNL1       -0.2304
     12  C9         0.7040    0.0280    0.3040 C.2     1  UNL1        0.2602
     13  O2         0.6090    1.2520   -0.0190 O.2     1  UNL1       -0.2687
     14  C10       -0.3610   -0.9350    0.0970 C.ar    1  UNL1        0.0400
     15  C11       -0.1130   -2.2070   -0.3650 C.ar    1  UNL1       -0.0495
     16  C12       -1.1300   -3.1350   -0.5390 C.ar    1  UNL1       -0.0592
     17  C13       -2.4260   -2.7790   -0.2430 C.ar    1  UNL1       -0.0353
     18  C14       -2.6990   -1.5020    0.2240 C.ar    1  UNL1        0.1062
     19  S1        -4.3290   -1.0210    0.6350 S.O2    1  UNL1        0.0609
     20  O3        -4.2030    0.0760    1.6890 O.2     1  UNL1       -0.1528
     21  O4        -5.0730   -2.1530    1.2820 O.2     1  UNL1       -0.1528
     22  N3        -5.1780   -0.3540   -0.6760 N.3     1  UNL1       -0.1766
     23  C15       -4.6230    0.8310   -1.2220 C.3     1  UNL1        0.0205
     24  C16       -5.5560    2.0120   -1.2040 C.3     1  UNL1       -0.0385
     25  C17       -6.5050    1.9770   -0.0180 C.3     1  UNL1       -0.0506
     26  C18       -7.3110    0.7110   -0.0370 C.3     1  UNL1       -0.0385
     27  C19       -6.5920   -0.4580   -0.6320 C.3     1  UNL1        0.0205
     28  C20       -1.6640   -0.6030    0.3860 C.ar    1  UNL1       -0.0232
     29 H           5.5724    1.4063    1.9385 H       1  UNL1        0.0407
     30 H           5.1926    2.2268    0.4314 H       1  UNL1        0.0407
     31 H           7.2594   -0.1526    2.0783 H       1  UNL1        0.0620
     32 H           9.3318   -1.0635    1.2257 H       1  UNL1        0.0618
     33 H           9.9059   -0.6158   -1.0728 H       1  UNL1        0.0618
     34 H           8.4740    0.6964   -2.5016 H       1  UNL1        0.0618
     35 H           6.4078    1.5936   -1.6183 H       1  UNL1        0.0620
     36 H           2.8254    1.3394    1.6585 H       1  UNL1        0.1728
     37 H           2.0697   -1.2971    1.1714 H       1  UNL1        0.1731
     38 H           0.8571   -2.4788   -0.5886 H       1  UNL1        0.0625
     39 H          -0.9165   -4.0828   -0.8870 H       1  UNL1        0.0618
     40 H          -3.1916   -3.4596   -0.3680 H       1  UNL1        0.0637
     41 H          -4.3474    0.6361   -2.2373 H       1  UNL1        0.0444
     42 H          -3.7854    1.0903   -0.6087 H       1  UNL1        0.0444
     43 H          -6.1317    2.0099   -2.1059 H       1  UNL1        0.0278
     44 H          -4.9619    2.8982   -1.1227 H       1  UNL1        0.0278
     45 H          -7.1654    2.8174   -0.0687 H       1  UNL1        0.0266
     46 H          -5.9350    2.0147    0.8868 H       1  UNL1        0.0266
     47 H          -8.1991    0.8859   -0.6075 H       1  UNL1        0.0278
     48 H          -7.5193    0.4608    0.9823 H       1  UNL1        0.0278
     49 H          -6.8400   -1.3245   -0.0553 H       1  UNL1        0.0444
     50 H          -6.9122   -0.5087   -1.6517 H       1  UNL1        0.0444
     51 H          -1.8740    0.3456    0.7340 H       1  UNL1        0.0644
@<TRIPOS>BOND
     1     1     2    2
     2     2     3    1
     3     2    10   am
     4     3     4    1
     5     4     5   ar
     6     4     9   ar
     7     5     6   ar
     8     6     7   ar
     9     7     8   ar
    10     8     9   ar
    11    10    11    1
    12    11    12   am
    13    12    13    2
    14    12    14    1
    15    14    15   ar
    16    14    28   ar
    17    15    16   ar
    18    16    17   ar
    19    17    18   ar
    20    18    19    1
    21    18    28   ar
    22    19    20    2
    23    19    21    2
    24    19    22    1
    25    22    23    1
    26    22    27    1
    27    23    24    1
    28    24    25    1
    29    25    26    1
    30    26    27    1
    31     3    29    1
    32     3    30    1
    33     5    31    1
    34     6    32    1
    35     7    33    1
    36     8    34    1
    37     9    35    1
    38    10    36    1
    39    11    37    1
    40    15    38    1
    41    16    39    1
    42    17    40    1
    43    23    41    1
    44    23    42    1
    45    24    43    1
    46    24    44    1
    47    25    45    1
    48    25    46    1
    49    26    47    1
    50    26    48    1
    51    27    49    1
    52    27    50    1
    53    28    51    1
@<TRIPOS>MOLECULE
../data/bude_mols_rdkit_confs/molecule_94.pdb
 51 53 0 0 0
SMALL
GASTEIGER

@<TRIPOS>ATOM
      1  O1         4.6350    0.7420    0.4190 O.2     1  UNL1       -0.2739
      2  C1         4.3270   -0.3440   -0.1700 C.2     1  UNL1        0.2334
      3  C2         5.4430   -1.2010   -0.6320 C.3     1  UNL1        0.0505
      4  C3         6.7620   -0.6240   -0.3160 C.ar    1  UNL1       -0.0386
      5  C4         7.3580   -0.9600    0.8800 C.ar    1  UNL1       -0.0581
      6  C5         8.6080   -0.4520    1.2520 C.ar    1  UNL1       -0.0615
      7  C6         9.2340    0.4000    0.3840 C.ar    1  UNL1       -0.0617
      8  C7         8.6720    0.7610   -0.8210 C.ar    1  UNL1       -0.0615
      9  C8         7.4400    0.2370   -1.1460 C.ar    1  UNL1       -0.0581
     10  N1         2.9810   -0.7290   -0.3820 N.am    1  UNL1       -0.2339
     11  N2         1.9730    0.1340    0.0810 N.am    1  UNL1       -0.2304
     12  C9         0.6430    0.0710   -0.4080 C.2     1  UNL1        0.2602
     13  O2         0.3840   -0.8020   -1.2910 O.2     1  UNL1       -0.2687
     14  C10       -0.4280    0.9450    0.0440 C.ar    1  UNL1        0.0400
     15  C11       -0.2430    1.9630    0.9530 C.ar    1  UNL1       -0.0495
     16  C12       -1.2800    2.7910    1.3770 C.ar    1  UNL1       -0.0592
     17  C13       -2.5550    2.6130    0.8880 C.ar    1  UNL1       -0.0353
     18  C14       -2.7600    1.5890   -0.0310 C.ar    1  UNL1        0.1062
     19  S1        -4.3760    1.3510   -0.6610 S.O2    1  UNL1        0.0609
     20  O3        -5.1000    2.6510   -0.6770 O.2     1  UNL1       -0.1528
     21  O4        -4.2380    0.8320   -2.0650 O.2     1  UNL1       -0.1528
     22  N3        -5.1900    0.2690    0.3700 N.3     1  UNL1       -0.1766
     23  C15       -4.6030   -1.0280    0.4630 C.3     1  UNL1        0.0205
     24  C16       -5.6420   -2.1230    0.6520 C.3     1  UNL1       -0.0385
     25  C17       -6.6850   -2.0950   -0.4200 C.3     1  UNL1       -0.0506
     26  C18       -7.1630   -0.7010   -0.7210 C.3     1  UNL1       -0.0385
     27  C19       -6.6130    0.2930    0.2740 C.3     1  UNL1        0.0205
     28  C20       -1.7200    0.7810   -0.4370 C.ar    1  UNL1       -0.0232
     29 H           5.3664   -1.3232   -1.6922 H       1  UNL1        0.0407
     30 H           5.3666   -2.1390   -0.1229 H       1  UNL1        0.0407
     31 H           6.8686   -1.6049    1.5200 H       1  UNL1        0.0620
     32 H           9.0429   -0.7116    2.1512 H       1  UNL1        0.0618
     33 H          10.1568    0.7847    0.6400 H       1  UNL1        0.0618
     34 H           9.1602    1.4058   -1.4621 H       1  UNL1        0.0618
     35 H           7.0100    0.5007   -2.0463 H       1  UNL1        0.0620
     36 H           2.7588   -1.5726   -0.8383 H       1  UNL1        0.1728
     37 H           2.1972    0.8038    0.7668 H       1  UNL1        0.1731
     38 H           0.7026    2.1188    1.3357 H       1  UNL1        0.0625
     39 H          -1.0919    3.5410    2.0605 H       1  UNL1        0.0618
     40 H          -3.3325    3.2191    1.1932 H       1  UNL1        0.0637
     41 H          -3.9327   -1.0428    1.2969 H       1  UNL1        0.0444
     42 H          -4.0900   -1.2204   -0.4561 H       1  UNL1        0.0444
     43 H          -6.1178   -1.9881    1.6009 H       1  UNL1        0.0278
     44 H          -5.1409   -3.0671    0.6018 H       1  UNL1        0.0278
     45 H          -7.5203   -2.6831   -0.1017 H       1  UNL1        0.0266
     46 H          -6.2450   -2.4881   -1.3126 H       1  UNL1        0.0266
     47 H          -8.2320   -0.6820   -0.6784 H       1  UNL1        0.0278
     48 H          -6.8188   -0.4286   -1.6968 H       1  UNL1        0.0278
     49 H          -6.9165    1.2748   -0.0241 H       1  UNL1        0.0444
     50 H          -6.9994    0.0251    1.2352 H       1  UNL1        0.0444
     51 H          -1.9075    0.0304   -1.1200 H       1  UNL1        0.0644
@<TRIPOS>BOND
     1     1     2    2
     2     2     3    1
     3     2    10   am
     4     3     4    1
     5     4     5   ar
     6     4     9   ar
     7     5     6   ar
     8     6     7   ar
     9     7     8   ar
    10     8     9   ar
    11    10    11    1
    12    11    12   am
    13    12    13    2
    14    12    14    1
    15    14    15   ar
    16    14    28   ar
    17    15    16   ar
    18    16    17   ar
    19    17    18   ar
    20    18    19    1
    21    18    28   ar
    22    19    20    2
    23    19    21    2
    24    19    22    1
    25    22    23    1
    26    22    27    1
    27    23    24    1
    28    24    25    1
    29    25    26    1
    30    26    27    1
    31     3    29    1
    32     3    30    1
    33     5    31    1
    34     6    32    1
    35     7    33    1
    36     8    34    1
    37     9    35    1
    38    10    36    1
    39    11    37    1
    40    15    38    1
    41    16    39    1
    42    17    40    1
    43    23    41    1
    44    23    42    1
    45    24    43    1
    46    24    44    1
    47    25    45    1
    48    25    46    1
    49    26    47    1
    50    26    48    1
    51    27    49    1
    52    27    50    1
    53    28    51    1
@<TRIPOS>MOLECULE
../data/bude_mols_rdkit_confs/molecule_94.pdb
 51 53 0 0 0
SMALL
GASTEIGER

@<TRIPOS>ATOM
      1  O1         3.8590   -0.0900   -0.1630 O.2     1  UNL1       -0.2739
      2  C1         3.7630   -1.3440   -0.0150 C.2     1  UNL1        0.2334
      3  C2         4.9620   -2.1700    0.1820 C.3     1  UNL1        0.0505
      4  C3         6.1560   -1.2970    0.1690 C.ar    1  UNL1       -0.0386
      5  C4         6.6680   -0.7360    1.3110 C.ar    1  UNL1       -0.0581
      6  C5         7.7870    0.0650    1.2340 C.ar    1  UNL1       -0.0615
      7  C6         8.4040    0.3140    0.0270 C.ar    1  UNL1       -0.0617
      8  C7         7.8800   -0.2540   -1.1090 C.ar    1  UNL1       -0.0615
      9  C8         6.7800   -1.0400   -1.0230 C.ar    1  UNL1       -0.0581
     10  N1         2.4430   -1.8650   -0.0540 N.am    1  UNL1       -0.2339
     11  N2         1.3390   -1.0320   -0.2450 N.am    1  UNL1       -0.2304
     12  C9         1.0670    0.0470    0.6320 C.2     1  UNL1        0.2602
     13  O2         1.8670    0.2140    1.5850 O.2     1  UNL1       -0.2687
     14  C10       -0.0670    0.9550    0.4910 C.ar    1  UNL1        0.0400
     15  C11       -0.1440    2.0730    1.2920 C.ar    1  UNL1       -0.0495
     16  C12       -1.1990    2.9540    1.1890 C.ar    1  UNL1       -0.0592
     17  C13       -2.2080    2.7070    0.2520 C.ar    1  UNL1       -0.0353
     18  C14       -2.1570    1.5990   -0.5620 C.ar    1  UNL1        0.1062
     19  S1        -3.4110    1.2880   -1.7390 S.O2    1  UNL1        0.0609
     20  O3        -2.7970    0.4710   -2.8430 O.2     1  UNL1       -0.1528
     21  O4        -3.9450    2.5940   -2.2660 O.2     1  UNL1       -0.1528
     22  N3        -4.6680    0.4390   -1.0110 N.3     1  UNL1       -0.1766
     23  C15       -4.4050   -0.8280   -0.4720 C.3     1  UNL1        0.0205
     24  C16       -5.6730   -1.6500   -0.2580 C.3     1  UNL1       -0.0385
     25  C17       -6.5040   -0.8600    0.7350 C.3     1  UNL1       -0.0506
     26  C18       -6.8660    0.4510    0.1010 C.3     1  UNL1       -0.0385
     27  C19       -5.6950    1.2170   -0.4220 C.3     1  UNL1        0.0205
     28  C20       -1.0820    0.7500   -0.4180 C.ar    1  UNL1       -0.0232
     29 H           5.0353   -2.8897   -0.6064 H       1  UNL1        0.0407
     30 H           4.8984   -2.6814    1.1197 H       1  UNL1        0.0407
     31 H           6.2180   -0.9126    2.2228 H       1  UNL1        0.0620
     32 H           8.1696    0.4857    2.0952 H       1  UNL1        0.0618
     33 H           9.2419    0.9144   -0.0225 H       1  UNL1        0.0618
     34 H           8.3231   -0.0824   -2.0251 H       1  UNL1        0.0618
     35 H           6.3990   -1.4597   -1.8854 H       1  UNL1        0.0620
     36 H           2.3033   -2.8333    0.0559 H       1  UNL1        0.1728
     37 H           0.7364   -1.1980   -1.0056 H       1  UNL1        0.1731
     38 H           0.6019    2.2543    1.9818 H       1  UNL1        0.0625
     39 H          -1.2441    3.7869    1.7966 H       1  UNL1        0.0618
     40 H          -2.9999    3.3637    0.1704 H       1  UNL1        0.0637
     41 H          -3.9138   -0.7041    0.4705 H       1  UNL1        0.0444
     42 H          -3.7907   -1.3562   -1.1710 H       1  UNL1        0.0444
     43 H          -5.4315   -2.6137    0.1393 H       1  UNL1        0.0278
     44 H          -6.1995   -1.8143   -1.1749 H       1  UNL1        0.0278
     45 H          -5.9374   -0.6877    1.6262 H       1  UNL1        0.0266
     46 H          -7.3886   -1.4036    0.9935 H       1  UNL1        0.0266
     47 H          -7.3621    1.0532    0.8332 H       1  UNL1        0.0278
     48 H          -7.4894    0.2268   -0.7392 H       1  UNL1        0.0278
     49 H          -6.0537    1.9025   -1.1612 H       1  UNL1        0.0444
     50 H          -5.2517    1.6908    0.4288 H       1  UNL1        0.0444
     51 H          -1.0342   -0.0844   -1.0234 H       1  UNL1        0.0644
@<TRIPOS>BOND
     1     1     2    2
     2     2     3    1
     3     2    10   am
     4     3     4    1
     5     4     5   ar
     6     4     9   ar
     7     5     6   ar
     8     6     7   ar
     9     7     8   ar
    10     8     9   ar
    11    10    11    1
    12    11    12   am
    13    12    13    2
    14    12    14    1
    15    14    15   ar
    16    14    28   ar
    17    15    16   ar
    18    16    17   ar
    19    17    18   ar
    20    18    19    1
    21    18    28   ar
    22    19    20    2
    23    19    21    2
    24    19    22    1
    25    22    23    1
    26    22    27    1
    27    23    24    1
    28    24    25    1
    29    25    26    1
    30    26    27    1
    31     3    29    1
    32     3    30    1
    33     5    31    1
    34     6    32    1
    35     7    33    1
    36     8    34    1
    37     9    35    1
    38    10    36    1
    39    11    37    1
    40    15    38    1
    41    16    39    1
    42    17    40    1
    43    23    41    1
    44    23    42    1
    45    24    43    1
    46    24    44    1
    47    25    45    1
    48    25    46    1
    49    26    47    1
    50    26    48    1
    51    27    49    1
    52    27    50    1
    53    28    51    1
@<TRIPOS>MOLECULE
../data/bude_mols_rdkit_confs/molecule_94.pdb
 51 53 0 0 0
SMALL
GASTEIGER

@<TRIPOS>ATOM
      1  O1         3.6200    0.5510    0.0080 O.2     1  UNL1       -0.2739
      2  C1         3.6560   -0.1350   -1.0430 C.2     1  UNL1        0.2334
      3  C2         4.8890   -0.1720   -1.8680 C.3     1  UNL1        0.0505
      4  C3         5.9610    0.6620   -1.2790 C.ar    1  UNL1       -0.0386
      5  C4         6.0480    2.0160   -1.6100 C.ar    1  UNL1       -0.0581
      6  C5         7.0390    2.8080   -1.0790 C.ar    1  UNL1       -0.0615
      7  C6         7.9690    2.2880   -0.2110 C.ar    1  UNL1       -0.0617
      8  C7         7.8890    0.9660    0.1150 C.ar    1  UNL1       -0.0615
      9  C8         6.9010    0.1530   -0.4070 C.ar    1  UNL1       -0.0581
     10  N1         2.5110   -0.8760   -1.4360 N.am    1  UNL1       -0.2339
     11  N2         1.3390   -0.8410   -0.6530 N.am    1  UNL1       -0.2304
     12  C9         0.7440   -2.0470   -0.2090 C.2     1  UNL1        0.2602
     13  O2         1.3280   -3.1180   -0.5590 O.2     1  UNL1       -0.2687
     14  C10       -0.4670   -2.0980    0.6040 C.ar    1  UNL1        0.0400
     15  C11       -0.9450   -3.3100    1.0040 C.ar    1  UNL1       -0.0495
     16  C12       -2.0860   -3.4250    1.7760 C.ar    1  UNL1       -0.0592
     17  C13       -2.7440   -2.2600    2.1390 C.ar    1  UNL1       -0.0353
     18  C14       -2.2830   -1.0170    1.7470 C.ar    1  UNL1        0.1062
     19  S1        -3.0900    0.4680    2.1910 S.O2    1  UNL1        0.0609
     20  O3        -2.0000    1.5260    2.3120 O.2     1  UNL1       -0.1528
     21  O4        -3.7030    0.3180    3.5580 O.2     1  UNL1       -0.1528
     22  N3        -4.2280    0.8790    1.0120 N.3     1  UNL1       -0.1766
     23  C15       -3.7480    1.1230   -0.2940 C.3     1  UNL1        0.0205
     24  C16       -4.7680    1.7590   -1.2080 C.3     1  UNL1       -0.0385
     25  C17       -6.1260    1.1210   -1.1010 C.3     1  UNL1       -0.0506
     26  C18       -6.2230    0.0070   -0.1180 C.3     1  UNL1       -0.0385
     27  C19       -5.4740    0.2260    1.1520 C.3     1  UNL1        0.0205
     28  C20       -1.1320   -0.9720    0.9740 C.ar    1  UNL1       -0.0232
     29 H           4.6628    0.1935   -2.8479 H       1  UNL1        0.0407
     30 H           5.2351   -1.1836   -1.9094 H       1  UNL1        0.0407
     31 H           5.3605    2.4271   -2.2607 H       1  UNL1        0.0620
     32 H           7.0849    3.8065   -1.3358 H       1  UNL1        0.0618
     33 H           8.7117    2.8848    0.1855 H       1  UNL1        0.0618
     34 H           8.5816    0.5640    0.7659 H       1  UNL1        0.0618
     35 H           6.8660   -0.8438   -0.1421 H       1  UNL1        0.0620
     36 H           2.5353   -1.4165   -2.2585 H       1  UNL1        0.1728
     37 H           0.9334    0.0237   -0.4144 H       1  UNL1        0.1731
     38 H          -0.4412   -4.1656    0.7228 H       1  UNL1        0.0625
     39 H          -2.4369   -4.3490    2.0728 H       1  UNL1        0.0618
     40 H          -3.5979   -2.3221    2.7153 H       1  UNL1        0.0637
     41 H          -3.4460    0.1902   -0.7224 H       1  UNL1        0.0444
     42 H          -2.9358    1.8137   -0.2041 H       1  UNL1        0.0444
     43 H          -4.4261    1.6675   -2.2178 H       1  UNL1        0.0278
     44 H          -4.8694    2.7828   -0.9140 H       1  UNL1        0.0278
     45 H          -6.3891    0.7371   -2.0645 H       1  UNL1        0.0266
     46 H          -6.7885    1.8855   -0.7524 H       1  UNL1        0.0266
     47 H          -5.8415   -0.8792   -0.5807 H       1  UNL1        0.0278
     48 H          -7.2559   -0.0678    0.1510 H       1  UNL1        0.0278
     49 H          -6.0867    0.8177    1.7996 H       1  UNL1        0.0444
     50 H          -5.2568   -0.7473    1.5398 H       1  UNL1        0.0444
     51 H          -0.7693   -0.0548    0.6704 H       1  UNL1        0.0644
@<TRIPOS>BOND
     1     1     2    2
     2     2     3    1
     3     2    10   am
     4     3     4    1
     5     4     5   ar
     6     4     9   ar
     7     5     6   ar
     8     6     7   ar
     9     7     8   ar
    10     8     9   ar
    11    10    11    1
    12    11    12   am
    13    12    13    2
    14    12    14    1
    15    14    15   ar
    16    14    28   ar
    17    15    16   ar
    18    16    17   ar
    19    17    18   ar
    20    18    19    1
    21    18    28   ar
    22    19    20    2
    23    19    21    2
    24    19    22    1
    25    22    23    1
    26    22    27    1
    27    23    24    1
    28    24    25    1
    29    25    26    1
    30    26    27    1
    31     3    29    1
    32     3    30    1
    33     5    31    1
    34     6    32    1
    35     7    33    1
    36     8    34    1
    37     9    35    1
    38    10    36    1
    39    11    37    1
    40    15    38    1
    41    16    39    1
    42    17    40    1
    43    23    41    1
    44    23    42    1
    45    24    43    1
    46    24    44    1
    47    25    45    1
    48    25    46    1
    49    26    47    1
    50    26    48    1
    51    27    49    1
    52    27    50    1
    53    28    51    1
@<TRIPOS>MOLECULE
../data/bude_mols_rdkit_confs/molecule_94.pdb
 51 53 0 0 0
SMALL
GASTEIGER

@<TRIPOS>ATOM
      1  O1         3.6800    0.3610   -0.3550 O.2     1  UNL1       -0.2739
      2  C1         4.2580   -0.7000   -0.6840 C.2     1  UNL1        0.2334
      3  C2         5.7270   -0.7050   -0.8210 C.3     1  UNL1        0.0505
      4  C3         6.3510    0.5770   -0.3920 C.ar    1  UNL1       -0.0386
      5  C4         6.7600    0.6890    0.9470 C.ar    1  UNL1       -0.0581
      6  C5         7.3700    1.8280    1.4400 C.ar    1  UNL1       -0.0615
      7  C6         7.5730    2.8720    0.5700 C.ar    1  UNL1       -0.0617
      8  C7         7.1770    2.7770   -0.7430 C.ar    1  UNL1       -0.0615
      9  C8         6.5710    1.6350   -1.2190 C.ar    1  UNL1       -0.0581
     10  N1         3.5110   -1.8740   -0.9200 N.am    1  UNL1       -0.2339
     11  N2         2.1430   -2.0100   -0.8300 N.am    1  UNL1       -0.2304
     12  C9         1.3500   -1.5930    0.2790 C.2     1  UNL1        0.2602
     13  O2         1.9070   -1.0390    1.2410 O.2     1  UNL1       -0.2687
     14  C10       -0.0920   -1.8170    0.2900 C.ar    1  UNL1        0.0400
     15  C11       -0.5260   -3.0040   -0.2700 C.ar    1  UNL1       -0.0495
     16  C12       -1.8510   -3.3410   -0.3100 C.ar    1  UNL1       -0.0592
     17  C13       -2.7900   -2.4710    0.2240 C.ar    1  UNL1       -0.0353
     18  C14       -2.3860   -1.2860    0.7850 C.ar    1  UNL1        0.1062
     19  S1        -3.5560   -0.2200    1.4760 S.O2    1  UNL1        0.0609
     20  O3        -4.3540   -1.0270    2.4910 O.2     1  UNL1       -0.1528
     21  O4        -2.8900    0.8730    2.2940 O.2     1  UNL1       -0.1528
     22  N3        -4.6300    0.4580    0.3940 N.3     1  UNL1       -0.1766
     23  C15       -4.2000    1.2750   -0.6490 C.3     1  UNL1        0.0205
     24  C16       -5.2570    2.3260   -0.9440 C.3     1  UNL1       -0.0385
     25  C17       -6.6450    1.8080   -1.0730 C.3     1  UNL1       -0.0506
     26  C18       -6.9860    0.6300   -0.2060 C.3     1  UNL1       -0.0385
     27  C19       -5.8000   -0.2590    0.1090 C.3     1  UNL1        0.0205
     28  C20       -1.0400   -0.9840    0.8050 C.ar    1  UNL1       -0.0232
     29 H           5.9740   -0.8787   -1.8475 H       1  UNL1        0.0407
     30 H           6.1072   -1.4769   -0.1850 H       1  UNL1        0.0407
     31 H           6.5998   -0.1062    1.5850 H       1  UNL1        0.0620
     32 H           7.6627    1.8917    2.4276 H       1  UNL1        0.0618
     33 H           8.0272    3.7358    0.9055 H       1  UNL1        0.0618
     34 H           7.3359    3.5724   -1.3811 H       1  UNL1        0.0618
     35 H           6.2823    1.5816   -2.2083 H       1  UNL1        0.0620
     36 H           4.0193   -2.6777   -1.1749 H       1  UNL1        0.1728
     37 H           1.6770   -2.4274   -1.5902 H       1  UNL1        0.1731
     38 H           0.1692   -3.6540   -0.6690 H       1  UNL1        0.0625
     39 H          -2.1491   -4.2337   -0.7333 H       1  UNL1        0.0618
     40 H          -3.7924   -2.7150    0.1993 H       1  UNL1        0.0637
     41 H          -4.0363    0.6798   -1.5230 H       1  UNL1        0.0444
     42 H          -3.2877    1.7584   -0.3681 H       1  UNL1        0.0444
     43 H          -4.9968    2.8085   -1.8629 H       1  UNL1        0.0278
     44 H          -5.2631    2.9861   -0.1019 H       1  UNL1        0.0278
     45 H          -6.7944    1.5195   -2.0925 H       1  UNL1        0.0266
     46 H          -7.2833    2.6028   -0.7477 H       1  UNL1        0.0266
     47 H          -7.7242    0.0421   -0.7103 H       1  UNL1        0.0278
     48 H          -7.3403    1.0198    0.7254 H       1  UNL1        0.0278
     49 H          -6.0439   -0.8624    0.9583 H       1  UNL1        0.0444
     50 H          -5.6059   -0.8489   -0.7623 H       1  UNL1        0.0444
     51 H          -0.7388   -0.0916    1.2268 H       1  UNL1        0.0644
@<TRIPOS>BOND
     1     1     2    2
     2     2     3    1
     3     2    10   am
     4     3     4    1
     5     4     5   ar
     6     4     9   ar
     7     5     6   ar
     8     6     7   ar
     9     7     8   ar
    10     8     9   ar
    11    10    11    1
    12    11    12   am
    13    12    13    2
    14    12    14    1
    15    14    15   ar
    16    14    28   ar
    17    15    16   ar
    18    16    17   ar
    19    17    18   ar
    20    18    19    1
    21    18    28   ar
    22    19    20    2
    23    19    21    2
    24    19    22    1
    25    22    23    1
    26    22    27    1
    27    23    24    1
    28    24    25    1
    29    25    26    1
    30    26    27    1
    31     3    29    1
    32     3    30    1
    33     5    31    1
    34     6    32    1
    35     7    33    1
    36     8    34    1
    37     9    35    1
    38    10    36    1
    39    11    37    1
    40    15    38    1
    41    16    39    1
    42    17    40    1
    43    23    41    1
    44    23    42    1
    45    24    43    1
    46    24    44    1
    47    25    45    1
    48    25    46    1
    49    26    47    1
    50    26    48    1
    51    27    49    1
    52    27    50    1
    53    28    51    1
@<TRIPOS>MOLECULE
../data/bude_mols_rdkit_confs/molecule_94.pdb
 51 53 0 0 0
SMALL
GASTEIGER

@<TRIPOS>ATOM
      1  O1         4.1120    0.3640   -0.0580 O.2     1  UNL1       -0.2739
      2  C1         4.0710   -0.3920    0.9700 C.2     1  UNL1        0.2334
      3  C2         5.3320   -0.9610    1.5370 C.3     1  UNL1        0.0505
      4  C3         6.4990   -0.5530    0.7290 C.ar    1  UNL1       -0.0386
      5  C4         7.1490    0.6240    1.0270 C.ar    1  UNL1       -0.0581
      6  C5         8.2410    1.0370    0.2960 C.ar    1  UNL1       -0.0615
      7  C6         8.6720    0.2410   -0.7490 C.ar    1  UNL1       -0.0617
      8  C7         8.0340   -0.9360   -1.0580 C.ar    1  UNL1       -0.0615
      9  C8         6.9500   -1.3330   -0.3220 C.ar    1  UNL1       -0.0581
     10  N1         2.8060   -0.6530    1.5240 N.am    1  UNL1       -0.2339
     11  N2         1.6030   -0.1280    1.0040 N.am    1  UNL1       -0.2304
     12  C9         1.2570   -0.3140   -0.3720 C.2     1  UNL1        0.2602
     13  O2         2.1200   -0.9800   -1.0510 O.2     1  UNL1       -0.2687
     14  C10        0.0560    0.1870   -0.9860 C.ar    1  UNL1        0.0400
     15  C11        0.0620    0.3240   -2.3660 C.ar    1  UNL1       -0.0495
     16  C12       -1.0340    0.7820   -3.0650 C.ar    1  UNL1       -0.0592
     17  C13       -2.1990    1.1270   -2.4200 C.ar    1  UNL1       -0.0353
     18  C14       -2.1980    0.9880   -1.0500 C.ar    1  UNL1        0.1062
     19  S1        -3.6650    1.4020   -0.1930 S.O2    1  UNL1        0.0609
     20  O3        -4.2410    2.6510   -0.8210 O.2     1  UNL1       -0.1528
     21  O4        -3.2650    1.7970    1.2250 O.2     1  UNL1       -0.1528
     22  N3        -4.7420    0.1200   -0.0920 N.3     1  UNL1       -0.1766
     23  C15       -4.9260   -0.3860    1.2140 C.3     1  UNL1        0.0205
     24  C16       -6.2740   -0.1780    1.8210 C.3     1  UNL1       -0.0385
     25  C17       -7.3650   -0.0750    0.8020 C.3     1  UNL1       -0.0506
     26  C18       -6.9060   -0.8530   -0.4260 C.3     1  UNL1       -0.0385
     27  C19       -5.7670   -0.0120   -1.0220 C.3     1  UNL1        0.0205
     28  C20       -1.1100    0.5320   -0.3390 C.ar    1  UNL1       -0.0232
     29 H           5.2643   -2.0288    1.5419 H       1  UNL1        0.0407
     30 H           5.4579   -0.5922    2.5335 H       1  UNL1        0.0407
     31 H           6.8127    1.2057    1.8103 H       1  UNL1        0.0620
     32 H           8.7257    1.9194    0.5229 H       1  UNL1        0.0618
     33 H           9.4881    0.5364   -1.3073 H       1  UNL1        0.0618
     34 H           8.3703   -1.5180   -1.8411 H       1  UNL1        0.0618
     35 H           6.4678   -2.2161   -0.5513 H       1  UNL1        0.0620
     36 H           2.7561   -1.2334    2.3177 H       1  UNL1        0.1728
     37 H           0.9949    0.3720    1.5951 H       1  UNL1        0.1731
     38 H           0.9168    0.0744   -2.8876 H       1  UNL1        0.0625
     39 H          -0.9796    0.8678   -4.0920 H       1  UNL1        0.0618
     40 H          -3.0260    1.4702   -2.9332 H       1  UNL1        0.0637
     41 H          -4.2060    0.0848    1.8503 H       1  UNL1        0.0444
     42 H          -4.8132   -1.4465    1.1272 H       1  UNL1        0.0444
     43 H          -6.2547    0.7265    2.3923 H       1  UNL1        0.0278
     44 H          -6.4854   -1.0315    2.4308 H       1  UNL1        0.0278
     45 H          -7.5322    0.9503    0.5456 H       1  UNL1        0.0266
     46 H          -8.2819   -0.4727    1.1841 H       1  UNL1        0.0266
     47 H          -7.7066   -0.9546   -1.1285 H       1  UNL1        0.0278
     48 H          -6.5888   -1.8448   -0.1798 H       1  UNL1        0.0278
     49 H          -5.3904   -0.4951   -1.8993 H       1  UNL1        0.0444
     50 H          -6.1401    0.9581   -1.2763 H       1  UNL1        0.0444
     51 H          -1.1690    0.4481    0.6879 H       1  UNL1        0.0644
@<TRIPOS>BOND
     1     1     2    2
     2     2     3    1
     3     2    10   am
     4     3     4    1
     5     4     5   ar
     6     4     9   ar
     7     5     6   ar
     8     6     7   ar
     9     7     8   ar
    10     8     9   ar
    11    10    11    1
    12    11    12   am
    13    12    13    2
    14    12    14    1
    15    14    15   ar
    16    14    28   ar
    17    15    16   ar
    18    16    17   ar
    19    17    18   ar
    20    18    19    1
    21    18    28   ar
    22    19    20    2
    23    19    21    2
    24    19    22    1
    25    22    23    1
    26    22    27    1
    27    23    24    1
    28    24    25    1
    29    25    26    1
    30    26    27    1
    31     3    29    1
    32     3    30    1
    33     5    31    1
    34     6    32    1
    35     7    33    1
    36     8    34    1
    37     9    35    1
    38    10    36    1
    39    11    37    1
    40    15    38    1
    41    16    39    1
    42    17    40    1
    43    23    41    1
    44    23    42    1
    45    24    43    1
    46    24    44    1
    47    25    45    1
    48    25    46    1
    49    26    47    1
    50    26    48    1
    51    27    49    1
    52    27    50    1
    53    28    51    1
@<TRIPOS>MOLECULE
../data/bude_mols_rdkit_confs/molecule_94.pdb
 51 53 0 0 0
SMALL
GASTEIGER

@<TRIPOS>ATOM
      1  O1         3.3520   -0.1170    0.3630 O.2     1  UNL1       -0.2739
      2  C1         3.9390   -0.3960   -0.6990 C.2     1  UNL1        0.2334
      3  C2         5.3930   -0.4410   -0.9150 C.3     1  UNL1        0.0505
      4  C3         6.2100   -0.1270    0.2510 C.ar    1  UNL1       -0.0386
      5  C4         6.8780    1.0660    0.3360 C.ar    1  UNL1       -0.0581
      6  C5         7.6780    1.4400    1.4160 C.ar    1  UNL1       -0.0615
      7  C6         7.7930    0.5460    2.4550 C.ar    1  UNL1       -0.0617
      8  C7         7.1220   -0.6720    2.3910 C.ar    1  UNL1       -0.0615
      9  C8         6.3440   -1.0130    1.3180 C.ar    1  UNL1       -0.0581
     10  N1         3.1110   -0.7090   -1.8230 N.am    1  UNL1       -0.2339
     11  N2         1.7210   -0.7180   -1.7280 N.am    1  UNL1       -0.2304
     12  C9         0.8270   -0.6100   -2.8340 C.2     1  UNL1        0.2602
     13  O2         1.3380   -0.4860   -3.9550 O.2     1  UNL1       -0.2687
     14  C10       -0.6350   -0.6510   -2.6080 C.ar    1  UNL1        0.0400
     15  C11       -1.5040   -0.5590   -3.6840 C.ar    1  UNL1       -0.0495
     16  C12       -2.8820   -0.6110   -3.5320 C.ar    1  UNL1       -0.0592
     17  C13       -3.4250   -0.7590   -2.2660 C.ar    1  UNL1       -0.0353
     18  C14       -2.5760   -0.8520   -1.1840 C.ar    1  UNL1        0.1062
     19  S1        -3.2340   -1.0530    0.4230 S.O2    1  UNL1        0.0609
     20  O3        -4.4540   -1.9320    0.4270 O.2     1  UNL1       -0.1528
     21  O4        -2.1510   -1.6700    1.2660 O.2     1  UNL1       -0.1528
     22  N3        -3.6320    0.5280    1.0360 N.3     1  UNL1       -0.1766
     23  C15       -4.6390    1.0820    0.1430 C.3     1  UNL1        0.0205
     24  C16       -5.4460    2.0820    0.9420 C.3     1  UNL1       -0.0385
     25  C17       -6.3520    1.2640    1.8700 C.3     1  UNL1       -0.0506
     26  C18       -5.5090    0.2490    2.5950 C.3     1  UNL1       -0.0385
     27  C19       -4.0300    0.5040    2.4150 C.3     1  UNL1        0.0205
     28  C20       -1.1910   -0.7960   -1.3690 C.ar    1  UNL1       -0.0232
     29 H           5.6339    0.2615   -1.6853 H       1  UNL1        0.0407
     30 H           5.6213   -1.4549   -1.1697 H       1  UNL1        0.0407
     31 H           6.7835    1.7300   -0.4484 H       1  UNL1        0.0620
     32 H           8.1637    2.3504    1.4346 H       1  UNL1        0.0618
     33 H           8.3730    0.7767    3.2768 H       1  UNL1        0.0618
     34 H           7.2139   -1.3367    3.1750 H       1  UNL1        0.0618
     35 H           5.8582   -1.9233    1.2992 H       1  UNL1        0.0620
     36 H           3.5342   -0.9235   -2.6856 H       1  UNL1        0.1728
     37 H           1.3264   -0.8054   -0.8303 H       1  UNL1        0.1731
     38 H          -1.1119   -0.4478   -4.6321 H       1  UNL1        0.0625
     39 H          -3.4985   -0.5399   -4.3565 H       1  UNL1        0.0618
     40 H          -4.4479   -0.7989   -2.1352 H       1  UNL1        0.0637
     41 H          -5.2764    0.3025   -0.2190 H       1  UNL1        0.0444
     42 H          -4.1798    1.5530   -0.7009 H       1  UNL1        0.0444
     43 H          -6.0371    2.6880    0.2875 H       1  UNL1        0.0278
     44 H          -4.8097    2.7371    1.4995 H       1  UNL1        0.0278
     45 H          -7.1011    0.7636    1.2926 H       1  UNL1        0.0266
     46 H          -6.8311    1.9107    2.5750 H       1  UNL1        0.0266
     47 H          -5.7397   -0.7247    2.2161 H       1  UNL1        0.0278
     48 H          -5.7309    0.3224    3.6392 H       1  UNL1        0.0278
     49 H          -3.7901    1.4488    2.8563 H       1  UNL1        0.0444
     50 H          -3.5053   -0.3002    2.8871 H       1  UNL1        0.0444
     51 H          -0.5718   -0.8662   -0.5464 H       1  UNL1        0.0644
@<TRIPOS>BOND
     1     1     2    2
     2     2     3    1
     3     2    10   am
     4     3     4    1
     5     4     5   ar
     6     4     9   ar
     7     5     6   ar
     8     6     7   ar
     9     7     8   ar
    10     8     9   ar
    11    10    11    1
    12    11    12   am
    13    12    13    2
    14    12    14    1
    15    14    15   ar
    16    14    28   ar
    17    15    16   ar
    18    16    17   ar
    19    17    18   ar
    20    18    19    1
    21    18    28   ar
    22    19    20    2
    23    19    21    2
    24    19    22    1
    25    22    23    1
    26    22    27    1
    27    23    24    1
    28    24    25    1
    29    25    26    1
    30    26    27    1
    31     3    29    1
    32     3    30    1
    33     5    31    1
    34     6    32    1
    35     7    33    1
    36     8    34    1
    37     9    35    1
    38    10    36    1
    39    11    37    1
    40    15    38    1
    41    16    39    1
    42    17    40    1
    43    23    41    1
    44    23    42    1
    45    24    43    1
    46    24    44    1
    47    25    45    1
    48    25    46    1
    49    26    47    1
    50    26    48    1
    51    27    49    1
    52    27    50    1
    53    28    51    1
@<TRIPOS>MOLECULE
../data/bude_mols_rdkit_confs/molecule_94.pdb
 51 53 0 0 0
SMALL
GASTEIGER

@<TRIPOS>ATOM
      1  O1        -4.0580    1.4770    0.1730 O.2     1  UNL1       -0.2739
      2  C1        -4.4580    0.3500    0.5720 C.2     1  UNL1        0.2334
      3  C2        -5.8500    0.1460    1.0450 C.3     1  UNL1        0.0505
      4  C3        -6.8070   -0.0580   -0.0770 C.ar    1  UNL1       -0.0386
      5  C4        -7.5690   -1.2020   -0.0640 C.ar    1  UNL1       -0.0581
      6  C5        -8.4320   -1.5400   -1.0790 C.ar    1  UNL1       -0.0615
      7  C6        -8.5560   -0.6840   -2.1820 C.ar    1  UNL1       -0.0617
      8  C7        -7.7880    0.4620   -2.1800 C.ar    1  UNL1       -0.0615
      9  C8        -6.9120    0.7890   -1.1430 C.ar    1  UNL1       -0.0581
     10  N1        -3.4960   -0.6860    0.5370 N.am    1  UNL1       -0.2339
     11  N2        -2.1790   -0.3270    0.0920 N.am    1  UNL1       -0.2304
     12  C9        -1.3180    0.3790    0.8350 C.2     1  UNL1        0.2602
     13  O2        -1.8450    0.6980    2.0700 O.2     1  UNL1       -0.2687
     14  C10        0.0030    0.9270    0.7770 C.ar    1  UNL1        0.0400
     15  C11        0.1980    2.2510    0.9850 C.ar    1  UNL1       -0.0495
     16  C12        1.4480    2.7980    1.0210 C.ar    1  UNL1       -0.0592
     17  C13        2.5330    1.9980    0.8460 C.ar    1  UNL1       -0.0353
     18  C14        2.3870    0.5960    0.6310 C.ar    1  UNL1        0.1062
     19  S1         3.8290   -0.3840    0.5050 S.O2    1  UNL1        0.0609
     20  O3         4.3370   -0.6970    1.8770 O.2     1  UNL1       -0.1528
     21  O4         3.4070   -1.7210   -0.1190 O.2     1  UNL1       -0.1528
     22  N3         4.9960    0.2760   -0.5350 N.3     1  UNL1       -0.1766
     23  C15        5.2580   -0.4330   -1.7310 C.3     1  UNL1        0.0205
     24  C16        6.1050   -1.6400   -1.5000 C.3     1  UNL1       -0.0385
     25  C17        7.3520   -1.3080   -0.7140 C.3     1  UNL1       -0.0506
     26  C18        7.0880   -0.4520    0.4950 C.3     1  UNL1       -0.0385
     27  C19        6.1840    0.7140    0.1740 C.3     1  UNL1        0.0205
     28  C20        1.1240    0.0960    0.5990 C.ar    1  UNL1       -0.0232
     29 H          -6.1530    1.0074    1.6027 H       1  UNL1        0.0407
     30 H          -5.8629   -0.7370    1.6492 H       1  UNL1        0.0407
     31 H          -7.4894   -1.8368    0.7458 H       1  UNL1        0.0620
     32 H          -8.9813   -2.4123   -1.0297 H       1  UNL1        0.0618
     33 H          -9.1949   -0.9019   -2.9627 H       1  UNL1        0.0618
     34 H          -7.8644    1.1072   -2.9818 H       1  UNL1        0.0618
     35 H          -6.3535    1.6559   -1.1815 H       1  UNL1        0.0620
     36 H          -3.7182   -1.6071    0.8043 H       1  UNL1        0.1728
     37 H          -1.8946   -0.6148   -0.8055 H       1  UNL1        0.1731
     38 H          -0.6215    2.8635    1.1201 H       1  UNL1        0.0625
     39 H           1.5684    3.8106    1.1798 H       1  UNL1        0.0618
     40 H           3.4780    2.4122    0.8691 H       1  UNL1        0.0637
     41 H           5.7648    0.2176   -2.4127 H       1  UNL1        0.0444
     42 H           4.3207   -0.7621   -2.1285 H       1  UNL1        0.0444
     43 H           6.3908   -2.0489   -2.4466 H       1  UNL1        0.0278
     44 H           5.5326   -2.3447   -0.9338 H       1  UNL1        0.0278
     45 H           8.0292   -0.7861   -1.3574 H       1  UNL1        0.0266
     46 H           7.7587   -2.2332   -0.3624 H       1  UNL1        0.0266
     47 H           8.0199   -0.0760    0.8626 H       1  UNL1        0.0278
     48 H           6.5992   -1.0577    1.2293 H       1  UNL1        0.0278
     49 H           5.8906    1.1899    1.0863 H       1  UNL1        0.0444
     50 H           6.7201    1.3967   -0.4516 H       1  UNL1        0.0444
     51 H           0.9842   -0.9142    0.4409 H       1  UNL1        0.0644
@<TRIPOS>BOND
     1     1     2    2
     2     2     3    1
     3     2    10   am
     4     3     4    1
     5     4     5   ar
     6     4     9   ar
     7     5     6   ar
     8     6     7   ar
     9     7     8   ar
    10     8     9   ar
    11    10    11    1
    12    11    12   am
    13    12    13    2
    14    12    14    1
    15    14    15   ar
    16    14    28   ar
    17    15    16   ar
    18    16    17   ar
    19    17    18   ar
    20    18    19    1
    21    18    28   ar
    22    19    20    2
    23    19    21    2
    24    19    22    1
    25    22    23    1
    26    22    27    1
    27    23    24    1
    28    24    25    1
    29    25    26    1
    30    26    27    1
    31     3    29    1
    32     3    30    1
    33     5    31    1
    34     6    32    1
    35     7    33    1
    36     8    34    1
    37     9    35    1
    38    10    36    1
    39    11    37    1
    40    15    38    1
    41    16    39    1
    42    17    40    1
    43    23    41    1
    44    23    42    1
    45    24    43    1
    46    24    44    1
    47    25    45    1
    48    25    46    1
    49    26    47    1
    50    26    48    1
    51    27    49    1
    52    27    50    1
    53    28    51    1
@<TRIPOS>MOLECULE
../data/bude_mols_rdkit_confs/molecule_94.pdb
 51 53 0 0 0
SMALL
GASTEIGER

@<TRIPOS>ATOM
      1  O1         4.2160   -0.0960    1.7110 O.2     1  UNL1       -0.2739
      2  C1         4.2780   -0.9230    0.7510 C.2     1  UNL1        0.2334
      3  C2         5.4780   -1.7710    0.6440 C.3     1  UNL1        0.0505
      4  C3         6.7060   -1.0240    0.3150 C.ar    1  UNL1       -0.0386
      5  C4         7.2700   -1.2130   -0.9420 C.ar    1  UNL1       -0.0581
      6  C5         8.4150   -0.5180   -1.2460 C.ar    1  UNL1       -0.0615
      7  C6         9.0180    0.3530   -0.3530 C.ar    1  UNL1       -0.0617
      8  C7         8.4640    0.5370    0.8770 C.ar    1  UNL1       -0.0615
      9  C8         7.3060   -0.1620    1.1910 C.ar    1  UNL1       -0.0581
     10  N1         3.1850   -0.9690   -0.1380 N.am    1  UNL1       -0.2339
     11  N2         2.0920   -0.1250    0.0900 N.am    1  UNL1       -0.2304
     12  C9         0.9790   -0.1380   -0.7880 C.2     1  UNL1        0.2602
     13  O2         1.0170   -0.9170   -1.7650 O.2     1  UNL1       -0.2687
     14  C10       -0.1460    0.7610   -0.4880 C.ar    1  UNL1        0.0400
     15  C11       -0.0340    1.8930    0.2730 C.ar    1  UNL1       -0.0495
     16  C12       -1.1560    2.6900    0.5450 C.ar    1  UNL1       -0.0592
     17  C13       -2.3880    2.3780    0.0710 C.ar    1  UNL1       -0.0353
     18  C14       -2.4920    1.2290   -0.7010 C.ar    1  UNL1        0.1062
     19  S1        -4.0260    0.7150   -1.3590 S.O2    1  UNL1        0.0609
     20  O3        -3.7710   -0.1100   -2.5880 O.2     1  UNL1       -0.1528
     21  O4        -4.8140    1.9350   -1.7550 O.2     1  UNL1       -0.1528
     22  N3        -4.7960   -0.2500   -0.2060 N.3     1  UNL1       -0.1766
     23  C15       -5.1170    0.3520    1.0350 C.3     1  UNL1        0.0205
     24  C16       -6.5060   -0.0770    1.4910 C.3     1  UNL1       -0.0385
     25  C17       -7.4240    0.0500    0.3000 C.3     1  UNL1       -0.0506
     26  C18       -7.0800   -0.9890   -0.7270 C.3     1  UNL1       -0.0385
     27  C19       -5.6060   -1.3100   -0.6630 C.3     1  UNL1        0.0205
     28  C20       -1.3930    0.4360   -0.9750 C.ar    1  UNL1       -0.0232
     29 H           5.3099   -2.4985   -0.1224 H       1  UNL1        0.0407
     30 H           5.6318   -2.2168    1.6045 H       1  UNL1        0.0407
     31 H           6.8412   -1.8561   -1.6258 H       1  UNL1        0.0620
     32 H           8.8429   -0.6497   -2.1758 H       1  UNL1        0.0618
     33 H           9.8786    0.8573   -0.6176 H       1  UNL1        0.0618
     34 H           8.8943    1.1805    1.5595 H       1  UNL1        0.0618
     35 H           6.8815   -0.0257    2.1217 H       1  UNL1        0.0620
     36 H           3.1904   -1.5845   -0.9064 H       1  UNL1        0.1728
     37 H           2.0961    0.4818    0.8653 H       1  UNL1        0.1731
     38 H           0.8872    2.1636    0.6514 H       1  UNL1        0.0625
     39 H          -1.0408    3.5378    1.1221 H       1  UNL1        0.0618
     40 H          -3.2101    2.9676    0.2749 H       1  UNL1        0.0637
     41 H          -5.0948    1.4163    0.9266 H       1  UNL1        0.0444
     42 H          -4.4006    0.0414    1.7666 H       1  UNL1        0.0444
     43 H          -6.8439    0.5570    2.2839 H       1  UNL1        0.0278
     44 H          -6.4929   -1.0828    1.8557 H       1  UNL1        0.0278
     45 H          -7.3136    1.0235   -0.1302 H       1  UNL1        0.0266
     46 H          -8.4351   -0.0933    0.6193 H       1  UNL1        0.0266
     47 H          -7.3197   -0.6172   -1.7013 H       1  UNL1        0.0278
     48 H          -7.6420   -1.8778   -0.5294 H       1  UNL1        0.0278
     49 H          -5.4733   -2.1409   -0.0021 H       1  UNL1        0.0444
     50 H          -5.2963   -1.5192   -1.6656 H       1  UNL1        0.0444
     51 H          -1.5085   -0.4114   -1.5526 H       1  UNL1        0.0644
@<TRIPOS>BOND
     1     1     2    2
     2     2     3    1
     3     2    10   am
     4     3     4    1
     5     4     5   ar
     6     4     9   ar
     7     5     6   ar
     8     6     7   ar
     9     7     8   ar
    10     8     9   ar
    11    10    11    1
    12    11    12   am
    13    12    13    2
    14    12    14    1
    15    14    15   ar
    16    14    28   ar
    17    15    16   ar
    18    16    17   ar
    19    17    18   ar
    20    18    19    1
    21    18    28   ar
    22    19    20    2
    23    19    21    2
    24    19    22    1
    25    22    23    1
    26    22    27    1
    27    23    24    1
    28    24    25    1
    29    25    26    1
    30    26    27    1
    31     3    29    1
    32     3    30    1
    33     5    31    1
    34     6    32    1
    35     7    33    1
    36     8    34    1
    37     9    35    1
    38    10    36    1
    39    11    37    1
    40    15    38    1
    41    16    39    1
    42    17    40    1
    43    23    41    1
    44    23    42    1
    45    24    43    1
    46    24    44    1
    47    25    45    1
    48    25    46    1
    49    26    47    1
    50    26    48    1
    51    27    49    1
    52    27    50    1
    53    28    51    1
@<TRIPOS>MOLECULE
../data/bude_mols_rdkit_confs/molecule_94.pdb
 51 53 0 0 0
SMALL
GASTEIGER

@<TRIPOS>ATOM
      1  O1         4.3580   -0.6660    0.3370 O.2     1  UNL1       -0.2739
      2  C1         4.4490    0.0770   -0.6710 C.2     1  UNL1        0.2334
      3  C2         5.6430    0.9240   -0.8930 C.3     1  UNL1        0.0505
      4  C3         6.6160    0.7210    0.2230 C.ar    1  UNL1       -0.0386
      5  C4         6.5360    1.4790    1.3900 C.ar    1  UNL1       -0.0581
      6  C5         7.4420    1.2880    2.4220 C.ar    1  UNL1       -0.0615
      7  C6         8.4360    0.3430    2.2990 C.ar    1  UNL1       -0.0617
      8  C7         8.5110   -0.3990    1.1480 C.ar    1  UNL1       -0.0615
      9  C8         7.6130   -0.2190    0.1120 C.ar    1  UNL1       -0.0581
     10  N1         3.3980    0.0990   -1.5980 N.am    1  UNL1       -0.2339
     11  N2         2.2270   -0.6670   -1.4700 N.am    1  UNL1       -0.2304
     12  C9         0.9540   -0.0370   -1.4610 C.2     1  UNL1        0.2602
     13  O2         0.9680    1.2360   -1.5780 O.2     1  UNL1       -0.2687
     14  C10       -0.2950   -0.7640   -1.3290 C.ar    1  UNL1        0.0400
     15  C11       -0.3720   -2.1130   -1.0740 C.ar    1  UNL1       -0.0495
     16  C12       -1.5710   -2.7830   -0.9480 C.ar    1  UNL1       -0.0592
     17  C13       -2.7500   -2.1030   -1.0760 C.ar    1  UNL1       -0.0353
     18  C14       -2.7130   -0.7520   -1.3320 C.ar    1  UNL1        0.1062
     19  S1        -4.1670    0.1830   -1.4990 S.O2    1  UNL1        0.0609
     20  O3        -5.2630   -0.7690   -1.9060 O.2     1  UNL1       -0.1528
     21  O4        -3.9740    1.2250   -2.5470 O.2     1  UNL1       -0.1528
     22  N3        -4.5180    0.9120    0.0240 N.3     1  UNL1       -0.1766
     23  C15       -4.7410   -0.0960    1.0280 C.3     1  UNL1        0.0205
     24  C16       -6.1970   -0.4640    1.1530 C.3     1  UNL1       -0.0385
     25  C17       -6.9980    0.7100    1.6110 C.3     1  UNL1       -0.0506
     26  C18       -6.2660    1.9790    1.2590 C.3     1  UNL1       -0.0385
     27  C19       -5.5790    1.8700   -0.0750 C.3     1  UNL1        0.0205
     28  C20       -1.4930   -0.0950   -1.4560 C.ar    1  UNL1       -0.0232
     29 H           5.3490    1.9523   -0.9265 H       1  UNL1        0.0407
     30 H           6.1037    0.6529   -1.8199 H       1  UNL1        0.0407
     31 H           5.7944    2.1901    1.4869 H       1  UNL1        0.0620
     32 H           7.3714    1.8539    3.2821 H       1  UNL1        0.0618
     33 H           9.1149    0.1952    3.0621 H       1  UNL1        0.0618
     34 H           9.2548   -1.1080    1.0529 H       1  UNL1        0.0618
     35 H           7.6912   -0.7900   -0.7441 H       1  UNL1        0.0620
     36 H           3.4853    0.6850   -2.3843 H       1  UNL1        0.1728
     37 H           2.2892   -1.6459   -1.3861 H       1  UNL1        0.1731
     38 H           0.5051   -2.6472   -0.9725 H       1  UNL1        0.0625
     39 H          -1.5781   -3.7972   -0.7572 H       1  UNL1        0.0618
     40 H          -3.6524   -2.5949   -0.9822 H       1  UNL1        0.0637
     41 H          -4.3974    0.2751    1.9709 H       1  UNL1        0.0444
     42 H          -4.2045   -0.9745    0.7358 H       1  UNL1        0.0444
     43 H          -6.2994   -1.2581    1.8628 H       1  UNL1        0.0278
     44 H          -6.5578   -0.7753    0.1950 H       1  UNL1        0.0278
     45 H          -7.1344    0.6582    2.6710 H       1  UNL1        0.0266
     46 H          -7.9538    0.7019    1.1300 H       1  UNL1        0.0266
     47 H          -5.5324    2.1771    2.0123 H       1  UNL1        0.0278
     48 H          -6.9807    2.7733    1.2035 H       1  UNL1        0.0278
     49 H          -6.2822    1.5513   -0.8158 H       1  UNL1        0.0444
     50 H          -5.1810    2.8227   -0.3558 H       1  UNL1        0.0444
     51 H          -1.4850    0.9190   -1.6479 H       1  UNL1        0.0644
@<TRIPOS>BOND
     1     1     2    2
     2     2     3    1
     3     2    10   am
     4     3     4    1
     5     4     5   ar
     6     4     9   ar
     7     5     6   ar
     8     6     7   ar
     9     7     8   ar
    10     8     9   ar
    11    10    11    1
    12    11    12   am
    13    12    13    2
    14    12    14    1
    15    14    15   ar
    16    14    28   ar
    17    15    16   ar
    18    16    17   ar
    19    17    18   ar
    20    18    19    1
    21    18    28   ar
    22    19    20    2
    23    19    21    2
    24    19    22    1
    25    22    23    1
    26    22    27    1
    27    23    24    1
    28    24    25    1
    29    25    26    1
    30    26    27    1
    31     3    29    1
    32     3    30    1
    33     5    31    1
    34     6    32    1
    35     7    33    1
    36     8    34    1
    37     9    35    1
    38    10    36    1
    39    11    37    1
    40    15    38    1
    41    16    39    1
    42    17    40    1
    43    23    41    1
    44    23    42    1
    45    24    43    1
    46    24    44    1
    47    25    45    1
    48    25    46    1
    49    26    47    1
    50    26    48    1
    51    27    49    1
    52    27    50    1
    53    28    51    1
@<TRIPOS>MOLECULE
../data/bude_mols_rdkit_confs/molecule_94.pdb
 51 53 0 0 0
SMALL
GASTEIGER

@<TRIPOS>ATOM
      1  O1         4.2620    0.1150   -0.0280 O.2     1  UNL1       -0.2739
      2  C1         3.9180    1.1920    0.5130 C.2     1  UNL1        0.2334
      3  C2         4.9020    1.9770    1.3050 C.3     1  UNL1        0.0505
      4  C3         6.2040    1.2400    1.2980 C.ar    1  UNL1       -0.0386
      5  C4         6.4820    0.3700    2.3380 C.ar    1  UNL1       -0.0581
      6  C5         7.6660   -0.3380    2.3810 C.ar    1  UNL1       -0.0615
      7  C6         8.6020   -0.1900    1.3800 C.ar    1  UNL1       -0.0617
      8  C7         8.3200    0.6780    0.3480 C.ar    1  UNL1       -0.0615
      9  C8         7.1380    1.3930    0.2920 C.ar    1  UNL1       -0.0581
     10  N1         2.5780    1.6030    0.3270 N.am    1  UNL1       -0.2339
     11  N2         1.6310    0.9000   -0.4140 N.am    1  UNL1       -0.2304
     12  C9         0.4590    0.3070    0.0940 C.2     1  UNL1        0.2602
     13  O2         0.2590    0.4260    1.3540 O.2     1  UNL1       -0.2687
     14  C10       -0.5270   -0.4210   -0.7130 C.ar    1  UNL1        0.0400
     15  C11       -0.4620   -0.4780   -2.0810 C.ar    1  UNL1       -0.0495
     16  C12       -1.3690   -1.1420   -2.8730 C.ar    1  UNL1       -0.0592
     17  C13       -2.4040   -1.7840   -2.2100 C.ar    1  UNL1       -0.0353
     18  C14       -2.5210   -1.7620   -0.8450 C.ar    1  UNL1        0.1062
     19  S1        -3.8400   -2.5760   -0.0900 S.O2    1  UNL1        0.0609
     20  O3        -4.3720   -3.6260   -1.0680 O.2     1  UNL1       -0.1528
     21  O4        -3.4180   -3.3430    1.1290 O.2     1  UNL1       -0.1528
     22  N3        -5.1800   -1.5390    0.2220 N.3     1  UNL1       -0.1766
     23  C15       -4.8470   -0.4780    1.1150 C.3     1  UNL1        0.0205
     24  C16       -5.8040    0.6730    1.0960 C.3     1  UNL1       -0.0385
     25  C17       -6.0540    1.1770   -0.3100 C.3     1  UNL1       -0.0506
     26  C18       -5.3640    0.2690   -1.3220 C.3     1  UNL1       -0.0385
     27  C19       -5.8390   -1.1270   -0.9850 C.3     1  UNL1        0.0205
     28  C20       -1.5890   -1.0850   -0.0940 C.ar    1  UNL1       -0.0232
     29 H           4.5530    2.0857    2.3106 H       1  UNL1        0.0407
     30 H           5.0266    2.9504    0.8785 H       1  UNL1        0.0407
     31 H           5.7913    0.2485    3.0951 H       1  UNL1        0.0620
     32 H           7.8514   -0.9813    3.1664 H       1  UNL1        0.0618
     33 H           9.4900   -0.7152    1.4030 H       1  UNL1        0.0618
     34 H           9.0130    0.7983   -0.4072 H       1  UNL1        0.0618
     35 H           6.9551    2.0355   -0.4946 H       1  UNL1        0.0620
     36 H           2.2944    2.4451    0.7509 H       1  UNL1        0.1728
     37 H           1.7959    0.8095   -1.3804 H       1  UNL1        0.1731
     38 H           0.3190    0.0095   -2.5472 H       1  UNL1        0.0625
     39 H          -1.2844   -1.1614   -3.9013 H       1  UNL1        0.0618
     40 H          -3.1095   -2.2953   -2.7630 H       1  UNL1        0.0637
     41 H          -3.8773   -0.1108    0.8508 H       1  UNL1        0.0444
     42 H          -4.8843   -0.8884    2.1025 H       1  UNL1        0.0444
     43 H          -5.3974    1.4705    1.6821 H       1  UNL1        0.0278
     44 H          -6.7365    0.3353    1.4977 H       1  UNL1        0.0278
     45 H          -5.6672    2.1702   -0.4040 H       1  UNL1        0.0266
     46 H          -7.1070    1.1771   -0.5001 H       1  UNL1        0.0266
     47 H          -4.3006    0.3379   -1.2250 H       1  UNL1        0.0278
     48 H          -5.5984    0.5404   -2.3301 H       1  UNL1        0.0278
     49 H          -6.8988   -1.1246   -0.8377 H       1  UNL1        0.0444
     50 H          -5.6093   -1.8013   -1.7834 H       1  UNL1        0.0444
     51 H          -1.6746   -1.0673    0.9343 H       1  UNL1        0.0644
@<TRIPOS>BOND
     1     1     2    2
     2     2     3    1
     3     2    10   am
     4     3     4    1
     5     4     5   ar
     6     4     9   ar
     7     5     6   ar
     8     6     7   ar
     9     7     8   ar
    10     8     9   ar
    11    10    11    1
    12    11    12   am
    13    12    13    2
    14    12    14    1
    15    14    15   ar
    16    14    28   ar
    17    15    16   ar
    18    16    17   ar
    19    17    18   ar
    20    18    19    1
    21    18    28   ar
    22    19    20    2
    23    19    21    2
    24    19    22    1
    25    22    23    1
    26    22    27    1
    27    23    24    1
    28    24    25    1
    29    25    26    1
    30    26    27    1
    31     3    29    1
    32     3    30    1
    33     5    31    1
    34     6    32    1
    35     7    33    1
    36     8    34    1
    37     9    35    1
    38    10    36    1
    39    11    37    1
    40    15    38    1
    41    16    39    1
    42    17    40    1
    43    23    41    1
    44    23    42    1
    45    24    43    1
    46    24    44    1
    47    25    45    1
    48    25    46    1
    49    26    47    1
    50    26    48    1
    51    27    49    1
    52    27    50    1
    53    28    51    1
@<TRIPOS>MOLECULE
../data/bude_mols_rdkit_confs/molecule_94.pdb
 51 53 0 0 0
SMALL
GASTEIGER

@<TRIPOS>ATOM
      1  O1         3.9930   -0.2340   -1.7610 O.2     1  UNL1       -0.2739
      2  C1         4.4820   -0.6680   -0.6750 C.2     1  UNL1        0.2334
      3  C2         5.9440   -0.8830   -0.4920 C.3     1  UNL1        0.0505
      4  C3         6.8170    0.2590   -0.3610 C.ar    1  UNL1       -0.0386
      5  C4         6.9470    0.8760    0.8930 C.ar    1  UNL1       -0.0581
      6  C5         7.8160    1.9070    1.0730 C.ar    1  UNL1       -0.0615
      7  C6         8.5850    2.3550    0.0010 C.ar    1  UNL1       -0.0617
      8  C7         8.4620    1.7520   -1.2370 C.ar    1  UNL1       -0.0615
      9  C8         7.5750    0.7060   -1.4090 C.ar    1  UNL1       -0.0581
     10  N1         3.5720   -0.9600    0.3860 N.am    1  UNL1       -0.2339
     11  N2         2.2180   -0.9050    0.4370 N.am    1  UNL1       -0.2304
     12  C9         1.2290    0.0210    0.0610 C.2     1  UNL1        0.2602
     13  O2         1.5780    1.0710   -0.4710 O.2     1  UNL1       -0.2687
     14  C10       -0.1720   -0.3860    0.3540 C.ar    1  UNL1        0.0400
     15  C11       -0.3950   -0.8290    1.6650 C.ar    1  UNL1       -0.0495
     16  C12       -1.6210   -1.3340    2.0290 C.ar    1  UNL1       -0.0592
     17  C13       -2.6640   -1.4250    1.1290 C.ar    1  UNL1       -0.0353
     18  C14       -2.4610   -0.9940   -0.1590 C.ar    1  UNL1        0.1062
     19  S1        -3.6880   -1.2000   -1.3760 S.O2    1  UNL1        0.0609
     20  O3        -3.1430   -0.5820   -2.6680 O.2     1  UNL1       -0.1528
     21  O4        -3.7320   -2.7010   -1.7270 O.2     1  UNL1       -0.1528
     22  N3        -5.1990   -0.5770   -1.1240 N.3     1  UNL1       -0.1766
     23  C15       -6.0230   -1.0030   -0.0700 C.3     1  UNL1        0.0205
     24  C16       -6.4250    0.1750    0.8400 C.3     1  UNL1       -0.0385
     25  C17       -7.3530    1.0700    0.0310 C.3     1  UNL1       -0.0506
     26  C18       -6.8060    1.2570   -1.3490 C.3     1  UNL1       -0.0385
     27  C19       -5.3840    0.7720   -1.5340 C.3     1  UNL1        0.0205
     28  C20       -1.1980   -0.4760   -0.5090 C.ar    1  UNL1       -0.0232
     29 H           6.2854   -1.4409   -1.3388 H       1  UNL1        0.0407
     30 H           6.0111   -1.3628    0.4620 H       1  UNL1        0.0407
     31 H           6.3773    0.5440    1.6869 H       1  UNL1        0.0620
     32 H           7.9052    2.3549    1.9985 H       1  UNL1        0.0618
     33 H           9.2462    3.1367    0.1310 H       1  UNL1        0.0618
     34 H           9.0317    2.0824   -2.0316 H       1  UNL1        0.0618
     35 H           7.4837    0.2588   -2.3346 H       1  UNL1        0.0620
     36 H           4.0007   -1.2508    1.2232 H       1  UNL1        0.1728
     37 H           1.8305   -1.7166    0.8375 H       1  UNL1        0.1731
     38 H           0.3652   -0.7758    2.3609 H       1  UNL1        0.0625
     39 H          -1.7652   -1.6532    2.9997 H       1  UNL1        0.0618
     40 H          -3.5772   -1.8089    1.4182 H       1  UNL1        0.0637
     41 H          -5.4957   -1.7291    0.5128 H       1  UNL1        0.0444
     42 H          -6.9130   -1.4255   -0.4874 H       1  UNL1        0.0444
     43 H          -5.5550    0.7222    1.1377 H       1  UNL1        0.0278
     44 H          -6.9121   -0.1770    1.7253 H       1  UNL1        0.0278
     45 H          -7.4355    2.0223    0.5119 H       1  UNL1        0.0266
     46 H          -8.3177    0.6114   -0.0319 H       1  UNL1        0.0266
     47 H          -6.8354    2.3011   -1.5811 H       1  UNL1        0.0278
     48 H          -7.4154    0.6653   -1.9997 H       1  UNL1        0.0278
     49 H          -5.1288    0.8515   -2.5701 H       1  UNL1        0.0444
     50 H          -4.7554    1.3822   -0.9197 H       1  UNL1        0.0444
     51 H          -1.0538   -0.1492   -1.4772 H       1  UNL1        0.0644
@<TRIPOS>BOND
     1     1     2    2
     2     2     3    1
     3     2    10   am
     4     3     4    1
     5     4     5   ar
     6     4     9   ar
     7     5     6   ar
     8     6     7   ar
     9     7     8   ar
    10     8     9   ar
    11    10    11    1
    12    11    12   am
    13    12    13    2
    14    12    14    1
    15    14    15   ar
    16    14    28   ar
    17    15    16   ar
    18    16    17   ar
    19    17    18   ar
    20    18    19    1
    21    18    28   ar
    22    19    20    2
    23    19    21    2
    24    19    22    1
    25    22    23    1
    26    22    27    1
    27    23    24    1
    28    24    25    1
    29    25    26    1
    30    26    27    1
    31     3    29    1
    32     3    30    1
    33     5    31    1
    34     6    32    1
    35     7    33    1
    36     8    34    1
    37     9    35    1
    38    10    36    1
    39    11    37    1
    40    15    38    1
    41    16    39    1
    42    17    40    1
    43    23    41    1
    44    23    42    1
    45    24    43    1
    46    24    44    1
    47    25    45    1
    48    25    46    1
    49    26    47    1
    50    26    48    1
    51    27    49    1
    52    27    50    1
    53    28    51    1
@<TRIPOS>MOLECULE
../data/bude_mols_rdkit_confs/molecule_94.pdb
 51 53 0 0 0
SMALL
GASTEIGER

@<TRIPOS>ATOM
      1  O1        -3.8970   -0.3240    0.4000 O.2     1  UNL1       -0.2739
      2  C1        -4.2480   -0.1070   -0.7800 C.2     1  UNL1        0.2334
      3  C2        -5.4720    0.6820   -1.0310 C.3     1  UNL1        0.0505
      4  C3        -6.1150    1.1050    0.2340 C.ar    1  UNL1       -0.0386
      5  C4        -7.0510    0.2950    0.8260 C.ar    1  UNL1       -0.0581
      6  C5        -7.6440    0.7040    2.0090 C.ar    1  UNL1       -0.0615
      7  C6        -7.3320    1.9000    2.6230 C.ar    1  UNL1       -0.0617
      8  C7        -6.3930    2.7080    2.0250 C.ar    1  UNL1       -0.0615
      9  C8        -5.7890    2.3030    0.8310 C.ar    1  UNL1       -0.0581
     10  N1        -3.4680   -0.6210   -1.8320 N.am    1  UNL1       -0.2339
     11  N2        -2.2930   -1.3820   -1.5980 N.am    1  UNL1       -0.2304
     12  C9        -1.1240   -0.8400   -1.0450 C.2     1  UNL1        0.2602
     13  O2        -1.0950    0.3770   -0.7350 O.2     1  UNL1       -0.2687
     14  C10        0.0600   -1.6430   -0.8170 C.ar    1  UNL1        0.0400
     15  C11        0.1100   -2.9410   -1.2120 C.ar    1  UNL1       -0.0495
     16  C12        1.2750   -3.6660   -0.9620 C.ar    1  UNL1       -0.0592
     17  C13        2.3660   -3.1220   -0.3350 C.ar    1  UNL1       -0.0353
     18  C14        2.3280   -1.8100    0.0700 C.ar    1  UNL1        0.1062
     19  S1         3.7200   -1.1330    0.8680 S.O2    1  UNL1        0.0609
     20  O3         3.2390   -0.0340    1.8070 O.2     1  UNL1       -0.1528
     21  O4         4.3080   -2.1970    1.7350 O.2     1  UNL1       -0.1528
     22  N3         4.8480   -0.4290   -0.1880 N.3     1  UNL1       -0.1766
     23  C15        4.3900    0.6660   -0.9620 C.3     1  UNL1        0.0205
     24  C16        5.2560    1.9000   -0.8430 C.3     1  UNL1       -0.0385
     25  C17        5.7550    2.0530    0.5640 C.3     1  UNL1       -0.0506
     26  C18        6.6520    0.8770    0.8760 C.3     1  UNL1       -0.0385
     27  C19        6.1960   -0.4000    0.2530 C.3     1  UNL1        0.0205
     28  C20        1.1820   -1.0910   -0.1750 C.ar    1  UNL1       -0.0232
     29 H          -6.1624    0.0844   -1.5889 H       1  UNL1        0.0407
     30 H          -5.1987    1.5600   -1.5782 H       1  UNL1        0.0407
     31 H          -7.3096   -0.6067    0.3957 H       1  UNL1        0.0620
     32 H          -8.3472    0.0899    2.4489 H       1  UNL1        0.0618
     33 H          -7.7896    2.1798    3.5046 H       1  UNL1        0.0618
     34 H          -6.1354    3.6096    2.4560 H       1  UNL1        0.0618
     35 H          -5.0849    2.9137    0.3880 H       1  UNL1        0.0620
     36 H          -3.7461   -0.4473   -2.7603 H       1  UNL1        0.1728
     37 H          -2.2990   -2.3374   -1.8356 H       1  UNL1        0.1731
     38 H          -0.6946   -3.3806   -1.6858 H       1  UNL1        0.0625
     39 H           1.3175   -4.6527   -1.2614 H       1  UNL1        0.0618
     40 H           3.2090   -3.6936   -0.1686 H       1  UNL1        0.0637
     41 H           3.4003    0.9158   -0.6411 H       1  UNL1        0.0444
     42 H           4.4222    0.3594   -1.9866 H       1  UNL1        0.0444
     43 H           4.6805    2.7620   -1.1090 H       1  UNL1        0.0278
     44 H           6.0943    1.8014   -1.5006 H       1  UNL1        0.0278
     45 H           4.9277    2.0678    1.2424 H       1  UNL1        0.0266
     46 H           6.2972    2.9697    0.6668 H       1  UNL1        0.0266
     47 H           6.6807    0.7449    1.9374 H       1  UNL1        0.0278
     48 H           7.6163    1.0995    0.4691 H       1  UNL1        0.0278
     49 H           6.8217   -0.5934   -0.5932 H       1  UNL1        0.0444
     50 H           6.2635   -1.1382    1.0246 H       1  UNL1        0.0444
     51 H           1.1440   -0.1043    0.1251 H       1  UNL1        0.0644
@<TRIPOS>BOND
     1     1     2    2
     2     2     3    1
     3     2    10   am
     4     3     4    1
     5     4     5   ar
     6     4     9   ar
     7     5     6   ar
     8     6     7   ar
     9     7     8   ar
    10     8     9   ar
    11    10    11    1
    12    11    12   am
    13    12    13    2
    14    12    14    1
    15    14    15   ar
    16    14    28   ar
    17    15    16   ar
    18    16    17   ar
    19    17    18   ar
    20    18    19    1
    21    18    28   ar
    22    19    20    2
    23    19    21    2
    24    19    22    1
    25    22    23    1
    26    22    27    1
    27    23    24    1
    28    24    25    1
    29    25    26    1
    30    26    27    1
    31     3    29    1
    32     3    30    1
    33     5    31    1
    34     6    32    1
    35     7    33    1
    36     8    34    1
    37     9    35    1
    38    10    36    1
    39    11    37    1
    40    15    38    1
    41    16    39    1
    42    17    40    1
    43    23    41    1
    44    23    42    1
    45    24    43    1
    46    24    44    1
    47    25    45    1
    48    25    46    1
    49    26    47    1
    50    26    48    1
    51    27    49    1
    52    27    50    1
    53    28    51    1
@<TRIPOS>MOLECULE
../data/bude_mols_rdkit_confs/molecule_94.pdb
 51 53 0 0 0
SMALL
GASTEIGER

@<TRIPOS>ATOM
      1  O1         3.6840    0.3780   -0.4320 O.2     1  UNL1       -0.2739
      2  C1         3.4930    1.4370    0.2190 C.2     1  UNL1        0.2334
      3  C2         4.6330    2.3270    0.5240 C.3     1  UNL1        0.0505
      4  C3         5.8630    1.7370   -0.0440 C.ar    1  UNL1       -0.0386
      5  C4         6.6360    0.8600    0.7230 C.ar    1  UNL1       -0.0581
      6  C5         7.7840    0.3000    0.2080 C.ar    1  UNL1       -0.0615
      7  C6         8.2110    0.5780   -1.0630 C.ar    1  UNL1       -0.0617
      8  C7         7.4550    1.4470   -1.8380 C.ar    1  UNL1       -0.0615
      9  C8         6.3040    2.0050   -1.3160 C.ar    1  UNL1       -0.0581
     10  N1         2.1740    1.7420    0.6440 N.am    1  UNL1       -0.2339
     11  N2         1.1510    0.8430    0.3130 N.am    1  UNL1       -0.2304
     12  C9         1.1880   -0.5230    0.6600 C.2     1  UNL1        0.2602
     13  O2         2.1940   -0.9310    1.2940 O.2     1  UNL1       -0.2687
     14  C10        0.1340   -1.4330    0.3160 C.ar    1  UNL1        0.0400
     15  C11        0.3700   -2.7970    0.5300 C.ar    1  UNL1       -0.0495
     16  C12       -0.6190   -3.6990    0.2160 C.ar    1  UNL1       -0.0592
     17  C13       -1.8310   -3.3110   -0.3000 C.ar    1  UNL1       -0.0353
     18  C14       -2.0520   -1.9710   -0.5060 C.ar    1  UNL1        0.1062
     19  S1        -3.5970   -1.4820   -1.1610 S.O2    1  UNL1        0.0609
     20  O3        -3.3620   -0.1660   -1.8900 O.2     1  UNL1       -0.1528
     21  O4        -4.0940   -2.4530   -2.1920 O.2     1  UNL1       -0.1528
     22  N3        -4.7480   -1.1820    0.0600 N.3     1  UNL1       -0.1766
     23  C15       -4.3960   -0.1310    0.9500 C.3     1  UNL1        0.0205
     24  C16       -4.8720    1.2330    0.5790 C.3     1  UNL1       -0.0385
     25  C17       -6.3080    1.2670    0.1060 C.3     1  UNL1       -0.0506
     26  C18       -6.5970    0.1590   -0.8820 C.3     1  UNL1       -0.0385
     27  C19       -6.1040   -1.1550   -0.3690 C.3     1  UNL1        0.0205
     28  C20       -1.0770   -1.0380   -0.2000 C.ar    1  UNL1       -0.0232
     29 H           4.7381    2.4262    1.5842 H       1  UNL1        0.0407
     30 H           4.4634    3.2939    0.0983 H       1  UNL1        0.0407
     31 H           6.3431    0.6298    1.6854 H       1  UNL1        0.0620
     32 H           8.3361   -0.3451    0.7945 H       1  UNL1        0.0618
     33 H           9.0738    0.1519   -1.4357 H       1  UNL1        0.0618
     34 H           7.7515    1.6752   -2.7998 H       1  UNL1        0.0618
     35 H           5.7539    2.6489   -1.9058 H       1  UNL1        0.0620
     36 H           1.9831    2.5608    1.1562 H       1  UNL1        0.1728
     37 H           0.3713    1.1806   -0.1843 H       1  UNL1        0.1731
     38 H           1.2708   -3.1194    0.9168 H       1  UNL1        0.0625
     39 H          -0.4442   -4.7038    0.3738 H       1  UNL1        0.0618
     40 H          -2.5571   -4.0082   -0.5272 H       1  UNL1        0.0637
     41 H          -3.3282   -0.0988    1.0111 H       1  UNL1        0.0444
     42 H          -4.8832   -0.3629    1.8740 H       1  UNL1        0.0444
     43 H          -4.2486    1.6065   -0.2063 H       1  UNL1        0.0278
     44 H          -4.8191    1.8342    1.4626 H       1  UNL1        0.0278
     45 H          -6.4960    2.2093   -0.3647 H       1  UNL1        0.0266
     46 H          -6.9430    1.1302    0.9563 H       1  UNL1        0.0266
     47 H          -6.1083    0.3792   -1.8081 H       1  UNL1        0.0278
     48 H          -7.6556    0.0951   -1.0239 H       1  UNL1        0.0278
     49 H          -6.7171   -1.4339    0.4624 H       1  UNL1        0.0444
     50 H          -6.1607   -1.8303   -1.1970 H       1  UNL1        0.0444
     51 H          -1.2611   -0.0354   -0.3609 H       1  UNL1        0.0644
@<TRIPOS>BOND
     1     1     2    2
     2     2     3    1
     3     2    10   am
     4     3     4    1
     5     4     5   ar
     6     4     9   ar
     7     5     6   ar
     8     6     7   ar
     9     7     8   ar
    10     8     9   ar
    11    10    11    1
    12    11    12   am
    13    12    13    2
    14    12    14    1
    15    14    15   ar
    16    14    28   ar
    17    15    16   ar
    18    16    17   ar
    19    17    18   ar
    20    18    19    1
    21    18    28   ar
    22    19    20    2
    23    19    21    2
    24    19    22    1
    25    22    23    1
    26    22    27    1
    27    23    24    1
    28    24    25    1
    29    25    26    1
    30    26    27    1
    31     3    29    1
    32     3    30    1
    33     5    31    1
    34     6    32    1
    35     7    33    1
    36     8    34    1
    37     9    35    1
    38    10    36    1
    39    11    37    1
    40    15    38    1
    41    16    39    1
    42    17    40    1
    43    23    41    1
    44    23    42    1
    45    24    43    1
    46    24    44    1
    47    25    45    1
    48    25    46    1
    49    26    47    1
    50    26    48    1
    51    27    49    1
    52    27    50    1
    53    28    51    1
@<TRIPOS>MOLECULE
../data/bude_mols_rdkit_confs/molecule_94.pdb
 51 53 0 0 0
SMALL
GASTEIGER

@<TRIPOS>ATOM
      1  O1         4.1900   -0.5610    1.6510 O.2     1  UNL1       -0.2739
      2  C1         4.0300    0.3330    0.8000 C.2     1  UNL1        0.2334
      3  C2         4.9160    1.4950    0.7710 C.3     1  UNL1        0.0505
      4  C3         6.3210    1.2030    0.4860 C.ar    1  UNL1       -0.0386
      5  C4         6.8180    1.4550   -0.7970 C.ar    1  UNL1       -0.0581
      6  C5         8.1190    1.2100   -1.1630 C.ar    1  UNL1       -0.0615
      7  C6         8.9920    0.6910   -0.2290 C.ar    1  UNL1       -0.0617
      8  C7         8.5100    0.4360    1.0410 C.ar    1  UNL1       -0.0615
      9  C8         7.2050    0.6840    1.4040 C.ar    1  UNL1       -0.0581
     10  N1         2.9800    0.2200   -0.1400 N.am    1  UNL1       -0.2339
     11  N2         2.0630   -0.8720   -0.1730 N.am    1  UNL1       -0.2304
     12  C9         0.6870   -0.6280   -0.0950 C.2     1  UNL1        0.2602
     13  O2         0.3570    0.6110    0.0130 O.2     1  UNL1       -0.2687
     14  C10       -0.4000   -1.5850   -0.1270 C.ar    1  UNL1        0.0400
     15  C11       -0.2570   -2.8680    0.2810 C.ar    1  UNL1       -0.0495
     16  C12       -1.3480   -3.7220    0.2260 C.ar    1  UNL1       -0.0592
     17  C13       -2.5840   -3.2610   -0.2460 C.ar    1  UNL1       -0.0353
     18  C14       -2.7430   -1.9630   -0.6630 C.ar    1  UNL1        0.1062
     19  S1        -4.2830   -1.3370   -1.2350 S.O2    1  UNL1        0.0609
     20  O3        -5.1650   -2.4300   -1.7580 O.2     1  UNL1       -0.1528
     21  O4        -3.9880   -0.4520   -2.4380 O.2     1  UNL1       -0.1528
     22  N3        -5.0550   -0.4130   -0.0040 N.3     1  UNL1       -0.1766
     23  C15       -4.2420    0.7020    0.3340 C.3     1  UNL1        0.0205
     24  C16       -4.9250    1.8570    0.9890 C.3     1  UNL1       -0.0385
     25  C17       -6.3330    2.0990    0.5720 C.3     1  UNL1       -0.0506
     26  C18       -7.0810    0.7980    0.6200 C.3     1  UNL1       -0.0385
     27  C19       -6.4050   -0.1530   -0.3560 C.3     1  UNL1        0.0205
     28  C20       -1.6430   -1.1440   -0.5960 C.ar    1  UNL1       -0.0232
     29 H           4.8651    1.9735    1.7267 H       1  UNL1        0.0407
     30 H           4.5721    2.1092   -0.0348 H       1  UNL1        0.0407
     31 H           6.1750    1.8445   -1.5040 H       1  UNL1        0.0620
     32 H           8.4391    1.4113   -2.1232 H       1  UNL1        0.0618
     33 H           9.9765    0.4988   -0.4717 H       1  UNL1        0.0618
     34 H           9.1540    0.0439    1.7456 H       1  UNL1        0.0618
     35 H           6.8897    0.4804    2.3653 H       1  UNL1        0.0620
     36 H           2.8760    0.9348   -0.8090 H       1  UNL1        0.1728
     37 H           2.3970   -1.7949   -0.2504 H       1  UNL1        0.1731
     38 H           0.6537   -3.2065    0.6290 H       1  UNL1        0.0625
     39 H          -1.2491   -4.7019    0.5342 H       1  UNL1        0.0618
     40 H          -3.3876   -3.9076   -0.2807 H       1  UNL1        0.0637
     41 H          -3.7924    1.0606   -0.5683 H       1  UNL1        0.0444
     42 H          -3.5504    0.3345    1.0631 H       1  UNL1        0.0444
     43 H          -4.3613    2.7394    0.7689 H       1  UNL1        0.0278
     44 H          -4.9680    1.6162    2.0307 H       1  UNL1        0.0278
     45 H          -6.3513    2.4880   -0.4246 H       1  UNL1        0.0266
     46 H          -6.7912    2.8069    1.2307 H       1  UNL1        0.0266
     47 H          -8.1005    0.9517    0.3338 H       1  UNL1        0.0278
     48 H          -7.0703    0.3929    1.6103 H       1  UNL1        0.0278
     49 H          -6.9430   -1.0778   -0.3644 H       1  UNL1        0.0444
     50 H          -6.4094    0.3092   -1.3210 H       1  UNL1        0.0444
     51 H          -1.7364   -0.1634   -0.9039 H       1  UNL1        0.0644
@<TRIPOS>BOND
     1     1     2    2
     2     2     3    1
     3     2    10   am
     4     3     4    1
     5     4     5   ar
     6     4     9   ar
     7     5     6   ar
     8     6     7   ar
     9     7     8   ar
    10     8     9   ar
    11    10    11    1
    12    11    12   am
    13    12    13    2
    14    12    14    1
    15    14    15   ar
    16    14    28   ar
    17    15    16   ar
    18    16    17   ar
    19    17    18   ar
    20    18    19    1
    21    18    28   ar
    22    19    20    2
    23    19    21    2
    24    19    22    1
    25    22    23    1
    26    22    27    1
    27    23    24    1
    28    24    25    1
    29    25    26    1
    30    26    27    1
    31     3    29    1
    32     3    30    1
    33     5    31    1
    34     6    32    1
    35     7    33    1
    36     8    34    1
    37     9    35    1
    38    10    36    1
    39    11    37    1
    40    15    38    1
    41    16    39    1
    42    17    40    1
    43    23    41    1
    44    23    42    1
    45    24    43    1
    46    24    44    1
    47    25    45    1
    48    25    46    1
    49    26    47    1
    50    26    48    1
    51    27    49    1
    52    27    50    1
    53    28    51    1
@<TRIPOS>MOLECULE
../data/bude_mols_rdkit_confs/molecule_94.pdb
 51 53 0 0 0
SMALL
GASTEIGER

@<TRIPOS>ATOM
      1  O1         4.1240   -0.0790   -0.3890 O.2     1  UNL1       -0.2739
      2  C1         4.0700    0.1950    0.8430 C.2     1  UNL1        0.2334
      3  C2         5.3110    0.3660    1.6640 C.3     1  UNL1        0.0505
      4  C3         6.4680    0.1660    0.7810 C.ar    1  UNL1       -0.0386
      5  C4         7.0310   -1.0580    0.6170 C.ar    1  UNL1       -0.0581
      6  C5         8.1150   -1.2560   -0.2080 C.ar    1  UNL1       -0.0615
      7  C6         8.6480   -0.1720   -0.8950 C.ar    1  UNL1       -0.0617
      8  C7         8.0680    1.0870   -0.7270 C.ar    1  UNL1       -0.0615
      9  C8         6.9850    1.2490    0.1070 C.ar    1  UNL1       -0.0581
     10  N1         2.8360    0.3480    1.4830 N.am    1  UNL1       -0.2339
     11  N2         1.6530    0.1980    0.7460 N.am    1  UNL1       -0.2304
     12  C9         1.3290   -0.9770    0.0090 C.2     1  UNL1        0.2602
     13  O2         2.1300   -1.9380    0.0040 O.2     1  UNL1       -0.2687
     14  C10        0.0470   -0.9840   -0.7140 C.ar    1  UNL1        0.0400
     15  C11       -0.1860   -1.8330   -1.7780 C.ar    1  UNL1       -0.0495
     16  C12       -1.3890   -1.8420   -2.4460 C.ar    1  UNL1       -0.0592
     17  C13       -2.4050   -0.9740   -2.0430 C.ar    1  UNL1       -0.0353
     18  C14       -2.2200   -0.1130   -0.9920 C.ar    1  UNL1        0.1062
     19  S1        -3.4830    0.9800   -0.4790 S.O2    1  UNL1        0.0609
     20  O3        -2.7900    2.1860    0.1450 O.2     1  UNL1       -0.1528
     21  O4        -4.2130    1.4160   -1.7320 O.2     1  UNL1       -0.1528
     22  N3        -4.5130    0.3200    0.6950 N.3     1  UNL1       -0.1766
     23  C15       -5.2080   -0.8320    0.2340 C.3     1  UNL1        0.0205
     24  C16       -6.4990   -0.5600   -0.4880 C.3     1  UNL1       -0.0385
     25  C17       -7.0860    0.7890   -0.2440 C.3     1  UNL1       -0.0506
     26  C18       -6.7240    1.3600    1.1000 C.3     1  UNL1       -0.0385
     27  C19       -5.2730    1.2770    1.4220 C.3     1  UNL1        0.0205
     28  C20       -0.9860   -0.1480   -0.3550 C.ar    1  UNL1       -0.0232
     29 H           5.3270   -0.3562    2.4534 H       1  UNL1        0.0407
     30 H           5.3385    1.3434    2.0986 H       1  UNL1        0.0407
     31 H           6.6348   -1.8638    1.1257 H       1  UNL1        0.0620
     32 H           8.5262   -2.1965   -0.3148 H       1  UNL1        0.0618
     33 H           9.4600   -0.2956   -1.5198 H       1  UNL1        0.0618
     34 H           8.4536    1.9008   -1.2311 H       1  UNL1        0.0618
     35 H           6.5608    2.1821    0.2269 H       1  UNL1        0.0620
     36 H           2.7984    0.5594    2.4438 H       1  UNL1        0.1728
     37 H           1.0117    0.9449    0.7374 H       1  UNL1        0.1731
     38 H           0.5614   -2.4774   -2.0799 H       1  UNL1        0.0625
     39 H          -1.5388   -2.4855   -3.2388 H       1  UNL1        0.0618
     40 H          -3.3078   -0.9803   -2.5429 H       1  UNL1        0.0637
     41 H          -5.4270   -1.4468    1.0819 H       1  UNL1        0.0444
     42 H          -4.5631   -1.2993   -0.4806 H       1  UNL1        0.0444
     43 H          -7.2135   -1.2938   -0.1781 H       1  UNL1        0.0278
     44 H          -6.2718   -0.6025   -1.5327 H       1  UNL1        0.0278
     45 H          -8.1515    0.7120   -0.3047 H       1  UNL1        0.0266
     46 H          -6.6870    1.4479   -0.9867 H       1  UNL1        0.0266
     47 H          -7.2664    0.8239    1.8505 H       1  UNL1        0.0278
     48 H          -6.9762    2.3995    1.0729 H       1  UNL1        0.0278
     49 H          -4.8441    2.2398    1.2378 H       1  UNL1        0.0444
     50 H          -5.2283    0.9567    2.4419 H       1  UNL1        0.0444
     51 H          -0.8339    0.4941    0.4385 H       1  UNL1        0.0644
@<TRIPOS>BOND
     1     1     2    2
     2     2     3    1
     3     2    10   am
     4     3     4    1
     5     4     5   ar
     6     4     9   ar
     7     5     6   ar
     8     6     7   ar
     9     7     8   ar
    10     8     9   ar
    11    10    11    1
    12    11    12   am
    13    12    13    2
    14    12    14    1
    15    14    15   ar
    16    14    28   ar
    17    15    16   ar
    18    16    17   ar
    19    17    18   ar
    20    18    19    1
    21    18    28   ar
    22    19    20    2
    23    19    21    2
    24    19    22    1
    25    22    23    1
    26    22    27    1
    27    23    24    1
    28    24    25    1
    29    25    26    1
    30    26    27    1
    31     3    29    1
    32     3    30    1
    33     5    31    1
    34     6    32    1
    35     7    33    1
    36     8    34    1
    37     9    35    1
    38    10    36    1
    39    11    37    1
    40    15    38    1
    41    16    39    1
    42    17    40    1
    43    23    41    1
    44    23    42    1
    45    24    43    1
    46    24    44    1
    47    25    45    1
    48    25    46    1
    49    26    47    1
    50    26    48    1
    51    27    49    1
    52    27    50    1
    53    28    51    1
@<TRIPOS>MOLECULE
../data/bude_mols_rdkit_confs/molecule_94.pdb
 51 53 0 0 0
SMALL
GASTEIGER

@<TRIPOS>ATOM
      1  O1         4.0700   -1.9390    0.8360 O.2     1  UNL1       -0.2739
      2  C1         4.4610   -1.4140   -0.2040 C.2     1  UNL1        0.2334
      3  C2         5.7980   -1.7430   -0.7790 C.3     1  UNL1        0.0505
      4  C3         6.7200   -0.6790   -0.2570 C.ar    1  UNL1       -0.0386
      5  C4         7.4960    0.0230   -1.1140 C.ar    1  UNL1       -0.0581
      6  C5         8.2540    1.1180   -0.6770 C.ar    1  UNL1       -0.0615
      7  C6         8.1760    1.4530    0.6650 C.ar    1  UNL1       -0.0617
      8  C7         7.4020    0.7520    1.5440 C.ar    1  UNL1       -0.0615
      9  C8         6.6680   -0.3280    1.0690 C.ar    1  UNL1       -0.0581
     10  N1         3.6320   -0.4550   -0.8730 N.am    1  UNL1       -0.2339
     11  N2         2.3980   -0.1070   -0.2990 N.am    1  UNL1       -0.2304
     12  C9         1.1800    0.0330   -0.9680 C.2     1  UNL1        0.2602
     13  O2         1.0850   -0.1570   -2.1920 O.2     1  UNL1       -0.2687
     14  C10        0.0120    0.4100   -0.1620 C.ar    1  UNL1        0.0400
     15  C11        0.1030    1.4240    0.7380 C.ar    1  UNL1       -0.0495
     16  C12       -0.9780    1.7370    1.5250 C.ar    1  UNL1       -0.0592
     17  C13       -2.1610    1.0210    1.4010 C.ar    1  UNL1       -0.0353
     18  C14       -2.2500    0.0000    0.4880 C.ar    1  UNL1        0.1062
     19  S1        -3.6910   -0.9890    0.2920 S.O2    1  UNL1        0.0609
     20  O3        -3.3180   -2.2230   -0.4710 O.2     1  UNL1       -0.1528
     21  O4        -4.1420   -1.4640    1.6540 O.2     1  UNL1       -0.1528
     22  N3        -4.8590   -0.1220   -0.5370 N.3     1  UNL1       -0.1766
     23  C15       -5.3810    1.0550    0.0340 C.3     1  UNL1        0.0205
     24  C16       -6.9080    1.0440   -0.0910 C.3     1  UNL1       -0.0385
     25  C17       -7.3470   -0.3810    0.1790 C.3     1  UNL1       -0.0506
     26  C18       -6.9910   -1.1840   -1.0790 C.3     1  UNL1       -0.0385
     27  C19       -5.6070   -0.7720   -1.5500 C.3     1  UNL1        0.0205
     28  C20       -1.1350   -0.3020   -0.3030 C.ar    1  UNL1       -0.0232
     29 H           5.7635   -1.7189   -1.8482 H       1  UNL1        0.0407
     30 H           6.1223   -2.7250   -0.5043 H       1  UNL1        0.0407
     31 H           7.5306   -0.2527   -2.1079 H       1  UNL1        0.0620
     32 H           8.8472    1.6539   -1.3296 H       1  UNL1        0.0618
     33 H           8.7206    2.2584    1.0112 H       1  UNL1        0.0618
     34 H           7.3628    1.0185    2.5402 H       1  UNL1        0.0618
     35 H           6.0785   -0.8711    1.7190 H       1  UNL1        0.0620
     36 H           3.9226   -0.0470   -1.7206 H       1  UNL1        0.1728
     37 H           2.3910    0.0544    0.6722 H       1  UNL1        0.1731
     38 H           0.9818    1.9572    0.8298 H       1  UNL1        0.0625
     39 H          -0.9109    2.5060    2.2100 H       1  UNL1        0.0618
     40 H          -2.9721    1.2560    1.9943 H       1  UNL1        0.0637
     41 H          -4.9864    1.9068   -0.4794 H       1  UNL1        0.0444
     42 H          -5.1061    1.1049    1.0669 H       1  UNL1        0.0444
     43 H          -7.2012    1.3416   -1.0761 H       1  UNL1        0.0278
     44 H          -7.3594    1.7270    0.5980 H       1  UNL1        0.0278
     45 H          -8.4016   -0.4170    0.3560 H       1  UNL1        0.0266
     46 H          -6.8638   -0.7802    1.0462 H       1  UNL1        0.0266
     47 H          -7.7070   -0.9827   -1.8483 H       1  UNL1        0.0278
     48 H          -7.0017   -2.2305   -0.8563 H       1  UNL1        0.0278
     49 H          -5.0757   -1.6474   -1.8604 H       1  UNL1        0.0444
     50 H          -5.7312   -0.0799   -2.3565 H       1  UNL1        0.0444
     51 H          -1.1852   -1.0668   -0.9941 H       1  UNL1        0.0644
@<TRIPOS>BOND
     1     1     2    2
     2     2     3    1
     3     2    10   am
     4     3     4    1
     5     4     5   ar
     6     4     9   ar
     7     5     6   ar
     8     6     7   ar
     9     7     8   ar
    10     8     9   ar
    11    10    11    1
    12    11    12   am
    13    12    13    2
    14    12    14    1
    15    14    15   ar
    16    14    28   ar
    17    15    16   ar
    18    16    17   ar
    19    17    18   ar
    20    18    19    1
    21    18    28   ar
    22    19    20    2
    23    19    21    2
    24    19    22    1
    25    22    23    1
    26    22    27    1
    27    23    24    1
    28    24    25    1
    29    25    26    1
    30    26    27    1
    31     3    29    1
    32     3    30    1
    33     5    31    1
    34     6    32    1
    35     7    33    1
    36     8    34    1
    37     9    35    1
    38    10    36    1
    39    11    37    1
    40    15    38    1
    41    16    39    1
    42    17    40    1
    43    23    41    1
    44    23    42    1
    45    24    43    1
    46    24    44    1
    47    25    45    1
    48    25    46    1
    49    26    47    1
    50    26    48    1
    51    27    49    1
    52    27    50    1
    53    28    51    1
@<TRIPOS>MOLECULE
../data/bude_mols_rdkit_confs/molecule_94.pdb
 51 53 0 0 0
SMALL
GASTEIGER

@<TRIPOS>ATOM
      1  O1         3.9190    0.2040   -0.4040 O.2     1  UNL1       -0.2739
      2  C1         4.1570    0.1970    0.8330 C.2     1  UNL1        0.2334
      3  C2         5.4420   -0.3330    1.4030 C.3     1  UNL1        0.0505
      4  C3         6.2650   -0.7930    0.2620 C.ar    1  UNL1       -0.0386
      5  C4         7.1330    0.0930   -0.3230 C.ar    1  UNL1       -0.0581
      6  C5         7.8880   -0.3720   -1.3910 C.ar    1  UNL1       -0.0615
      7  C6         7.7570   -1.6800   -1.8320 C.ar    1  UNL1       -0.0617
      8  C7         6.8820   -2.5610   -1.2360 C.ar    1  UNL1       -0.0615
      9  C8         6.1230   -2.0960   -0.1640 C.ar    1  UNL1       -0.0581
     10  N1         3.1360    0.7230    1.6740 N.am    1  UNL1       -0.2339
     11  N2         1.9430    1.2160    1.1620 N.am    1  UNL1       -0.2304
     12  C9         1.0070    0.4540    0.4160 C.2     1  UNL1        0.2602
     13  O2         1.2520   -0.7550    0.1890 O.2     1  UNL1       -0.2687
     14  C10       -0.1990    1.1260   -0.0490 C.ar    1  UNL1        0.0400
     15  C11       -0.1580    1.9110   -1.1840 C.ar    1  UNL1       -0.0495
     16  C12       -1.3060    2.5670   -1.6400 C.ar    1  UNL1       -0.0592
     17  C13       -2.5050    2.4450   -0.9650 C.ar    1  UNL1       -0.0353
     18  C14       -2.5570    1.6610    0.1730 C.ar    1  UNL1        0.1062
     19  S1        -4.0780    1.5160    1.0210 S.O2    1  UNL1        0.0609
     20  O3        -4.8730    2.7970    0.9130 O.2     1  UNL1       -0.1528
     21  O4        -3.8160    1.3080    2.5050 O.2     1  UNL1       -0.1528
     22  N3        -5.0320    0.2200    0.4690 N.3     1  UNL1       -0.1766
     23  C15       -4.3860   -1.0590    0.6520 C.3     1  UNL1        0.0205
     24  C16       -5.2490   -2.0950   -0.0350 C.3     1  UNL1       -0.0385
     25  C17       -6.6600   -1.5600   -0.2910 C.3     1  UNL1       -0.0506
     26  C18       -6.5920   -0.4180   -1.2870 C.3     1  UNL1       -0.0385
     27  C19       -5.3510    0.3870   -0.9290 C.3     1  UNL1        0.0205
     28  C20       -1.4080    1.0270    0.5960 C.ar    1  UNL1       -0.0232
     29 H           5.2413   -1.1500    2.0641 H       1  UNL1        0.0407
     30 H           5.9526    0.4236    1.9613 H       1  UNL1        0.0407
     31 H           7.2211    1.0637    0.0162 H       1  UNL1        0.0620
     32 H           8.5530    0.2618   -1.8612 H       1  UNL1        0.0618
     33 H           8.3301   -2.0018   -2.6276 H       1  UNL1        0.0618
     34 H           6.7916   -3.5326   -1.5720 H       1  UNL1        0.0618
     35 H           5.4564   -2.7255    0.3097 H       1  UNL1        0.0620
     36 H           3.2800    0.7377    2.6478 H       1  UNL1        0.1728
     37 H           1.7313    2.1629    1.3287 H       1  UNL1        0.1731
     38 H           0.7289    2.0148   -1.7013 H       1  UNL1        0.0625
     39 H          -1.2567    3.1490   -2.4908 H       1  UNL1        0.0618
     40 H          -3.3493    2.9316   -1.3048 H       1  UNL1        0.0637
     41 H          -4.3038   -1.2829    1.6951 H       1  UNL1        0.0444
     42 H          -3.3992   -1.0502    0.2385 H       1  UNL1        0.0444
     43 H          -5.3127   -2.9636    0.5866 H       1  UNL1        0.0278
     44 H          -4.8026   -2.3364   -0.9770 H       1  UNL1        0.0278
     45 H          -7.0806   -1.2080    0.6277 H       1  UNL1        0.0266
     46 H          -7.2733   -2.3429   -0.6858 H       1  UNL1        0.0266
     47 H          -7.4661    0.1942   -1.2091 H       1  UNL1        0.0278
     48 H          -6.5437   -0.7809   -2.2924 H       1  UNL1        0.0278
     49 H          -4.5273    0.0483   -1.5220 H       1  UNL1        0.0444
     50 H          -5.5400    1.4224   -1.1218 H       1  UNL1        0.0444
     51 H          -1.4591    0.4444    1.4463 H       1  UNL1        0.0644
@<TRIPOS>BOND
     1     1     2    2
     2     2     3    1
     3     2    10   am
     4     3     4    1
     5     4     5   ar
     6     4     9   ar
     7     5     6   ar
     8     6     7   ar
     9     7     8   ar
    10     8     9   ar
    11    10    11    1
    12    11    12   am
    13    12    13    2
    14    12    14    1
    15    14    15   ar
    16    14    28   ar
    17    15    16   ar
    18    16    17   ar
    19    17    18   ar
    20    18    19    1
    21    18    28   ar
    22    19    20    2
    23    19    21    2
    24    19    22    1
    25    22    23    1
    26    22    27    1
    27    23    24    1
    28    24    25    1
    29    25    26    1
    30    26    27    1
    31     3    29    1
    32     3    30    1
    33     5    31    1
    34     6    32    1
    35     7    33    1
    36     8    34    1
    37     9    35    1
    38    10    36    1
    39    11    37    1
    40    15    38    1
    41    16    39    1
    42    17    40    1
    43    23    41    1
    44    23    42    1
    45    24    43    1
    46    24    44    1
    47    25    45    1
    48    25    46    1
    49    26    47    1
    50    26    48    1
    51    27    49    1
    52    27    50    1
    53    28    51    1
@<TRIPOS>MOLECULE
../data/bude_mols_rdkit_confs/molecule_94.pdb
 51 53 0 0 0
SMALL
GASTEIGER

@<TRIPOS>ATOM
      1  O1         4.4190    0.3320    0.4790 O.2     1  UNL1       -0.2739
      2  C1         4.3750   -0.5280   -0.4300 C.2     1  UNL1        0.2334
      3  C2         5.5090   -0.6720   -1.3860 C.3     1  UNL1        0.0505
      4  C3         6.5430    0.3190   -1.0390 C.ar    1  UNL1       -0.0386
      5  C4         6.5710    1.5490   -1.6750 C.ar    1  UNL1       -0.0581
      6  C5         7.5360    2.4710   -1.3390 C.ar    1  UNL1       -0.0615
      7  C6         8.4780    2.1870   -0.3750 C.ar    1  UNL1       -0.0617
      8  C7         8.4320    0.9610    0.2420 C.ar    1  UNL1       -0.0615
      9  C8         7.4770    0.0170   -0.0730 C.ar    1  UNL1       -0.0581
     10  N1         3.2700   -1.4070   -0.6090 N.am    1  UNL1       -0.2339
     11  N2         2.1690   -1.3410    0.2460 N.am    1  UNL1       -0.2304
     12  C9         0.8200   -1.2890   -0.1760 C.2     1  UNL1        0.2602
     13  O2         0.5800   -1.3060   -1.4090 O.2     1  UNL1       -0.2687
     14  C10       -0.3090   -1.2150    0.7770 C.ar    1  UNL1        0.0400
     15  C11       -0.1040   -0.9030    2.0990 C.ar    1  UNL1       -0.0495
     16  C12       -1.1680   -0.8360    2.9820 C.ar    1  UNL1       -0.0592
     17  C13       -2.4260   -1.0800    2.5360 C.ar    1  UNL1       -0.0353
     18  C14       -2.6720   -1.3970    1.2160 C.ar    1  UNL1        0.1062
     19  S1        -4.3270   -1.7040    0.6920 S.O2    1  UNL1        0.0609
     20  O3        -5.0690   -2.2140    1.9110 O.2     1  UNL1       -0.1528
     21  O4        -4.2900   -2.7990   -0.3420 O.2     1  UNL1       -0.1528
     22  N3        -5.0470   -0.3020    0.1280 N.3     1  UNL1       -0.1766
     23  C15       -4.5160    0.3620   -0.9840 C.3     1  UNL1        0.0205
     24  C16       -5.5740    0.9060   -1.9220 C.3     1  UNL1       -0.0385
     25  C17       -6.4800    1.8110   -1.1590 C.3     1  UNL1       -0.0506
     26  C18       -6.8260    1.3750    0.2220 C.3     1  UNL1       -0.0385
     27  C19       -6.3460   -0.0130    0.5740 C.3     1  UNL1        0.0205
     28  C20       -1.5990   -1.4570    0.3600 C.ar    1  UNL1       -0.0232
     29 H           5.1638   -0.4989   -2.3839 H       1  UNL1        0.0407
     30 H           5.9145   -1.6604   -1.3270 H       1  UNL1        0.0407
     31 H           5.8704    1.7735   -2.3987 H       1  UNL1        0.0620
     32 H           7.5540    3.3864   -1.8152 H       1  UNL1        0.0618
     33 H           9.2009    2.8789   -0.1225 H       1  UNL1        0.0618
     34 H           9.1345    0.7389    0.9646 H       1  UNL1        0.0618
     35 H           7.4626   -0.8972    0.4055 H       1  UNL1        0.0620
     36 H           3.2824   -2.0657   -1.3406 H       1  UNL1        0.1728
     37 H           2.3443   -1.3298    1.2147 H       1  UNL1        0.1731
     38 H           0.8530   -0.7167    2.4373 H       1  UNL1        0.0625
     39 H          -1.0053   -0.6018    3.9738 H       1  UNL1        0.0618
     40 H          -3.2157   -1.0273    3.1983 H       1  UNL1        0.0637
     41 H          -3.9016   -0.3249   -1.5277 H       1  UNL1        0.0444
     42 H          -3.9597    1.1987   -0.6162 H       1  UNL1        0.0444
     43 H          -6.1393    0.0961   -2.3335 H       1  UNL1        0.0278
     44 H          -5.1074    1.4484   -2.7176 H       1  UNL1        0.0278
     45 H          -7.3918    1.9032   -1.7113 H       1  UNL1        0.0266
     46 H          -5.9422    2.7290   -1.0456 H       1  UNL1        0.0266
     47 H          -7.8909    1.3971    0.3235 H       1  UNL1        0.0278
     48 H          -6.3307    2.0490    0.8893 H       1  UNL1        0.0278
     49 H          -6.3658   -0.1151    1.6389 H       1  UNL1        0.0444
     50 H          -7.0011   -0.6998    0.0799 H       1  UNL1        0.0444
     51 H          -1.7657   -1.6918   -0.6310 H       1  UNL1        0.0644
@<TRIPOS>BOND
     1     1     2    2
     2     2     3    1
     3     2    10   am
     4     3     4    1
     5     4     5   ar
     6     4     9   ar
     7     5     6   ar
     8     6     7   ar
     9     7     8   ar
    10     8     9   ar
    11    10    11    1
    12    11    12   am
    13    12    13    2
    14    12    14    1
    15    14    15   ar
    16    14    28   ar
    17    15    16   ar
    18    16    17   ar
    19    17    18   ar
    20    18    19    1
    21    18    28   ar
    22    19    20    2
    23    19    21    2
    24    19    22    1
    25    22    23    1
    26    22    27    1
    27    23    24    1
    28    24    25    1
    29    25    26    1
    30    26    27    1
    31     3    29    1
    32     3    30    1
    33     5    31    1
    34     6    32    1
    35     7    33    1
    36     8    34    1
    37     9    35    1
    38    10    36    1
    39    11    37    1
    40    15    38    1
    41    16    39    1
    42    17    40    1
    43    23    41    1
    44    23    42    1
    45    24    43    1
    46    24    44    1
    47    25    45    1
    48    25    46    1
    49    26    47    1
    50    26    48    1
    51    27    49    1
    52    27    50    1
    53    28    51    1
@<TRIPOS>MOLECULE
../data/bude_mols_rdkit_confs/molecule_94.pdb
 51 53 0 0 0
SMALL
GASTEIGER

@<TRIPOS>ATOM
      1  O1         4.3280    0.0710   -0.4740 O.2     1  UNL1       -0.2739
      2  C1         4.3740   -0.0880    0.7930 C.2     1  UNL1        0.2334
      3  C2         5.6210    0.2800    1.4940 C.3     1  UNL1        0.0505
      4  C3         6.6530    0.7720    0.5500 C.ar    1  UNL1       -0.0386
      5  C4         7.5450   -0.0850   -0.0180 C.ar    1  UNL1       -0.0581
      6  C5         8.4740    0.4340   -0.9000 C.ar    1  UNL1       -0.0615
      7  C6         8.5060    1.7720   -1.2000 C.ar    1  UNL1       -0.0617
      8  C7         7.6110    2.6650   -0.6360 C.ar    1  UNL1       -0.0615
      9  C8         6.6890    2.1190    0.2450 C.ar    1  UNL1       -0.0581
     10  N1         3.2100   -0.6090    1.4090 N.am    1  UNL1       -0.2339
     11  N2         2.1170   -0.9040    0.6070 N.am    1  UNL1       -0.2304
     12  C9         0.8850   -1.3490    1.1620 C.2     1  UNL1        0.2602
     13  O2         0.7650   -1.4830    2.4000 O.2     1  UNL1       -0.2687
     14  C10       -0.2620   -1.6550    0.3000 C.ar    1  UNL1        0.0400
     15  C11       -0.0510   -2.0630   -1.0190 C.ar    1  UNL1       -0.0495
     16  C12       -1.0980   -2.3380   -1.8690 C.ar    1  UNL1       -0.0592
     17  C13       -2.3970   -2.2140   -1.4250 C.ar    1  UNL1       -0.0353
     18  C14       -2.6320   -1.8130   -0.1240 C.ar    1  UNL1        0.1062
     19  S1        -4.2900   -1.6390    0.4470 S.O2    1  UNL1        0.0609
     20  O3        -5.1430   -2.5350   -0.4410 O.2     1  UNL1       -0.1528
     21  O4        -4.3370   -2.0840    1.8620 O.2     1  UNL1       -0.1528
     22  N3        -4.8220   -0.0500    0.2270 N.3     1  UNL1       -0.1766
     23  C15       -4.8690    0.4300   -1.1040 C.3     1  UNL1        0.0205
     24  C16       -5.5250    1.8080   -1.1970 C.3     1  UNL1       -0.0385
     25  C17       -6.9480    1.6310   -0.7390 C.3     1  UNL1       -0.0506
     26  C18       -7.0210    1.0220    0.6180 C.3     1  UNL1       -0.0385
     27  C19       -5.7480    0.4660    1.1580 C.3     1  UNL1        0.0205
     28  C20       -1.5650   -1.5410    0.7160 C.ar    1  UNL1       -0.0232
     29 H           5.9995   -0.5809    2.0044 H       1  UNL1        0.0407
     30 H           5.3972    1.0660    2.1846 H       1  UNL1        0.0407
     31 H           7.5281   -1.0928    0.2034 H       1  UNL1        0.0620
     32 H           9.1585   -0.1990   -1.3425 H       1  UNL1        0.0618
     33 H           9.2153    2.1219   -1.8630 H       1  UNL1        0.0618
     34 H           7.6286    3.6729   -0.8570 H       1  UNL1        0.0618
     35 H           6.0010    2.7454    0.6914 H       1  UNL1        0.0620
     36 H           3.1773   -0.7581    2.3816 H       1  UNL1        0.1728
     37 H           2.1958   -0.8030   -0.3691 H       1  UNL1        0.1731
     38 H           0.9161   -2.1609   -1.3656 H       1  UNL1        0.0625
     39 H          -0.9105   -2.6370   -2.8388 H       1  UNL1        0.0618
     40 H          -3.1860   -2.4186   -2.0580 H       1  UNL1        0.0637
     41 H          -5.4297   -0.2597   -1.6997 H       1  UNL1        0.0444
     42 H          -3.8629    0.5201   -1.4569 H       1  UNL1        0.0444
     43 H          -5.5021    2.1617   -2.2066 H       1  UNL1        0.0278
     44 H          -5.0090    2.5256   -0.5939 H       1  UNL1        0.0278
     45 H          -7.4582    0.9950   -1.4319 H       1  UNL1        0.0266
     46 H          -7.4056    2.5972   -0.6948 H       1  UNL1        0.0266
     47 H          -7.7353    0.2262    0.5809 H       1  UNL1        0.0278
     48 H          -7.2872    1.8216    1.2773 H       1  UNL1        0.0278
     49 H          -5.2585    1.2493    1.6981 H       1  UNL1        0.0444
     50 H          -6.0439   -0.3765    1.7476 H       1  UNL1        0.0444
     51 H          -1.7557   -1.2431    1.6855 H       1  UNL1        0.0644
@<TRIPOS>BOND
     1     1     2    2
     2     2     3    1
     3     2    10   am
     4     3     4    1
     5     4     5   ar
     6     4     9   ar
     7     5     6   ar
     8     6     7   ar
     9     7     8   ar
    10     8     9   ar
    11    10    11    1
    12    11    12   am
    13    12    13    2
    14    12    14    1
    15    14    15   ar
    16    14    28   ar
    17    15    16   ar
    18    16    17   ar
    19    17    18   ar
    20    18    19    1
    21    18    28   ar
    22    19    20    2
    23    19    21    2
    24    19    22    1
    25    22    23    1
    26    22    27    1
    27    23    24    1
    28    24    25    1
    29    25    26    1
    30    26    27    1
    31     3    29    1
    32     3    30    1
    33     5    31    1
    34     6    32    1
    35     7    33    1
    36     8    34    1
    37     9    35    1
    38    10    36    1
    39    11    37    1
    40    15    38    1
    41    16    39    1
    42    17    40    1
    43    23    41    1
    44    23    42    1
    45    24    43    1
    46    24    44    1
    47    25    45    1
    48    25    46    1
    49    26    47    1
    50    26    48    1
    51    27    49    1
    52    27    50    1
    53    28    51    1
@<TRIPOS>MOLECULE
../data/bude_mols_rdkit_confs/molecule_94.pdb
 51 53 0 0 0
SMALL
GASTEIGER

@<TRIPOS>ATOM
      1  O1        -4.5600   -1.9000    1.6520 O.2     1  UNL1       -0.2739
      2  C1        -4.8170   -1.8180    0.4280 C.2     1  UNL1        0.2334
      3  C2        -6.2440   -1.7030   -0.0560 C.3     1  UNL1        0.0505
      4  C3        -6.5400   -0.2620    0.0170 C.ar    1  UNL1       -0.0386
      5  C4        -6.4890    0.4450   -1.1600 C.ar    1  UNL1       -0.0581
      6  C5        -6.6770    1.7970   -1.1570 C.ar    1  UNL1       -0.0615
      7  C6        -6.9200    2.4540    0.0170 C.ar    1  UNL1       -0.0617
      8  C7        -6.9770    1.7580    1.2070 C.ar    1  UNL1       -0.0615
      9  C8        -6.7810    0.3750    1.1980 C.ar    1  UNL1       -0.0581
     10  N1        -3.7950   -1.8220   -0.5480 N.am    1  UNL1       -0.2339
     11  N2        -2.4710   -1.9230   -0.1610 N.am    1  UNL1       -0.2304
     12  C9        -1.5170   -0.8510   -0.2330 C.2     1  UNL1        0.2602
     13  O2        -1.9360    0.2320   -0.6670 O.2     1  UNL1       -0.2687
     14  C10       -0.1400   -1.0810    0.1950 C.ar    1  UNL1        0.0400
     15  C11        0.0560   -1.8840    1.3280 C.ar    1  UNL1       -0.0495
     16  C12        1.3130   -2.2230    1.7490 C.ar    1  UNL1       -0.0592
     17  C13        2.3810   -1.7300    0.9930 C.ar    1  UNL1       -0.0353
     18  C14        2.2370   -0.9440   -0.1180 C.ar    1  UNL1        0.1062
     19  S1         3.5960   -0.4510   -1.0740 S.O2    1  UNL1        0.0609
     20  O3         3.0850    0.0530   -2.4350 O.2     1  UNL1       -0.1528
     21  O4         4.3340   -1.7350   -1.4380 O.2     1  UNL1       -0.1528
     22  N3         4.5430    0.6920   -0.3770 N.3     1  UNL1       -0.1766
     23  C15        5.2450    0.5090    0.8040 C.3     1  UNL1        0.0205
     24  C16        6.7520    0.4990    0.5830 C.3     1  UNL1       -0.0385
     25  C17        7.2380    1.5210   -0.3600 C.3     1  UNL1       -0.0506
     26  C18        6.2430    2.3560   -1.0730 C.3     1  UNL1       -0.0385
     27  C19        4.8460    1.8900   -1.1130 C.3     1  UNL1        0.0205
     28  C20        0.9280   -0.6090   -0.5270 C.ar    1  UNL1       -0.0232
     29 H          -6.9045   -2.2579    0.5771 H       1  UNL1        0.0407
     30 H          -6.3733   -2.0967   -1.0425 H       1  UNL1        0.0407
     31 H          -6.3081   -0.0474   -2.0487 H       1  UNL1        0.0620
     32 H          -6.6356    2.3245   -2.0431 H       1  UNL1        0.0618
     33 H          -7.0616    3.4762    0.0131 H       1  UNL1        0.0618
     34 H          -7.1622    2.2533    2.0932 H       1  UNL1        0.0618
     35 H          -6.8184   -0.1608    2.0792 H       1  UNL1        0.0620
     36 H          -4.0253   -1.7529   -1.5027 H       1  UNL1        0.1728
     37 H          -2.1607   -2.7897    0.1881 H       1  UNL1        0.1731
     38 H          -0.7634   -2.2257    1.8542 H       1  UNL1        0.0625
     39 H           1.4651   -2.8126    2.5822 H       1  UNL1        0.0618
     40 H           3.3382   -1.9743    1.2917 H       1  UNL1        0.0637
     41 H           4.9541   -0.4255    1.2363 H       1  UNL1        0.0444
     42 H           5.0140    1.3276    1.4532 H       1  UNL1        0.0444
     43 H           7.0279   -0.4631    0.2045 H       1  UNL1        0.0278
     44 H           7.1998    0.7206    1.5292 H       1  UNL1        0.0278
     45 H           7.8164    1.0145   -1.1042 H       1  UNL1        0.0266
     46 H           7.7683    2.2157    0.2573 H       1  UNL1        0.0266
     47 H           6.5753    2.4507   -2.0857 H       1  UNL1        0.0278
     48 H           6.2043    3.2639   -0.5081 H       1  UNL1        0.0278
     49 H           4.2314    2.6742   -0.7230 H       1  UNL1        0.0444
     50 H           4.6608    1.6446   -2.1379 H       1  UNL1        0.0444
     51 H           0.7758   -0.0167   -1.3583 H       1  UNL1        0.0644
@<TRIPOS>BOND
     1     1     2    2
     2     2     3    1
     3     2    10   am
     4     3     4    1
     5     4     5   ar
     6     4     9   ar
     7     5     6   ar
     8     6     7   ar
     9     7     8   ar
    10     8     9   ar
    11    10    11    1
    12    11    12   am
    13    12    13    2
    14    12    14    1
    15    14    15   ar
    16    14    28   ar
    17    15    16   ar
    18    16    17   ar
    19    17    18   ar
    20    18    19    1
    21    18    28   ar
    22    19    20    2
    23    19    21    2
    24    19    22    1
    25    22    23    1
    26    22    27    1
    27    23    24    1
    28    24    25    1
    29    25    26    1
    30    26    27    1
    31     3    29    1
    32     3    30    1
    33     5    31    1
    34     6    32    1
    35     7    33    1
    36     8    34    1
    37     9    35    1
    38    10    36    1
    39    11    37    1
    40    15    38    1
    41    16    39    1
    42    17    40    1
    43    23    41    1
    44    23    42    1
    45    24    43    1
    46    24    44    1
    47    25    45    1
    48    25    46    1
    49    26    47    1
    50    26    48    1
    51    27    49    1
    52    27    50    1
    53    28    51    1
@<TRIPOS>MOLECULE
../data/bude_mols_rdkit_confs/molecule_94.pdb
 51 53 0 0 0
SMALL
GASTEIGER

@<TRIPOS>ATOM
      1  O1         4.3310   -2.2260   -2.3220 O.2     1  UNL1       -0.2739
      2  C1         4.6310   -1.1860   -1.6410 C.2     1  UNL1        0.2334
      3  C2         6.0490   -0.7430   -1.5090 C.3     1  UNL1        0.0505
      4  C3         6.2180    0.0990   -0.2930 C.ar    1  UNL1       -0.0386
      5  C4         6.1790    1.4720   -0.3780 C.ar    1  UNL1       -0.0581
      6  C5         6.3070    2.2460    0.7550 C.ar    1  UNL1       -0.0615
      7  C6         6.4770    1.6590    1.9860 C.ar    1  UNL1       -0.0617
      8  C7         6.5180    0.2860    2.0640 C.ar    1  UNL1       -0.0615
      9  C8         6.3900   -0.4700    0.9440 C.ar    1  UNL1       -0.0581
     10  N1         3.5290   -0.5210   -1.0380 N.am    1  UNL1       -0.2339
     11  N2         2.2180   -0.9110   -1.1300 N.am    1  UNL1       -0.2304
     12  C9         1.0800   -0.0380   -1.1930 C.2     1  UNL1        0.2602
     13  O2         1.3360    1.1930   -1.1650 O.2     1  UNL1       -0.2687
     14  C10       -0.2590   -0.5750   -1.2820 C.ar    1  UNL1        0.0400
     15  C11       -0.7680   -0.9310   -2.5060 C.ar    1  UNL1       -0.0495
     16  C12       -2.0470   -1.4860   -2.6210 C.ar    1  UNL1       -0.0592
     17  C13       -2.7960   -1.6690   -1.4570 C.ar    1  UNL1       -0.0353
     18  C14       -2.2950   -1.3140   -0.2260 C.ar    1  UNL1        0.1062
     19  S1        -3.2520   -1.6040    1.1960 S.O2    1  UNL1        0.0609
     20  O3        -2.4090   -1.7460    2.4320 O.2     1  UNL1       -0.1528
     21  O4        -3.9720   -2.9290    1.0340 O.2     1  UNL1       -0.1528
     22  N3        -4.4400   -0.4050    1.3430 N.3     1  UNL1       -0.1766
     23  C15       -5.3740   -0.3900    0.2300 C.3     1  UNL1        0.0205
     24  C16       -6.5840    0.4560    0.5700 C.3     1  UNL1       -0.0385
     25  C17       -6.1790    1.8260    1.0450 C.3     1  UNL1       -0.0506
     26  C18       -5.0510    1.8590    2.0180 C.3     1  UNL1       -0.0385
     27  C19       -3.9620    0.9230    1.6050 C.3     1  UNL1        0.0205
     28  C20       -1.0080   -0.7600   -0.1470 C.ar    1  UNL1       -0.0232
     29 H           6.3225   -0.1739   -2.3728 H       1  UNL1        0.0407
     30 H           6.6760   -1.6059   -1.4238 H       1  UNL1        0.0407
     31 H           6.0530    1.9252   -1.2966 H       1  UNL1        0.0620
     32 H           6.2749    3.2747    0.6785 H       1  UNL1        0.0618
     33 H           6.5721    2.2371    2.8356 H       1  UNL1        0.0618
     34 H           6.6469   -0.1719    2.9798 H       1  UNL1        0.0618
     35 H           6.4228   -1.4983    1.0246 H       1  UNL1        0.0620
     36 H           3.7234    0.2871   -0.5103 H       1  UNL1        0.1728
     37 H           2.0405   -1.8790   -1.1552 H       1  UNL1        0.1731
     38 H          -0.1984   -0.7870   -3.3545 H       1  UNL1        0.0625
     39 H          -2.4271   -1.7533   -3.5425 H       1  UNL1        0.0618
     40 H          -3.7415   -2.0775   -1.5212 H       1  UNL1        0.0637
     41 H          -5.6904   -1.3906    0.0212 H       1  UNL1        0.0444
     42 H          -4.8875    0.0271   -0.6269 H       1  UNL1        0.0444
     43 H          -7.1425   -0.0296    1.3427 H       1  UNL1        0.0278
     44 H          -7.1769    0.5671   -0.3137 H       1  UNL1        0.0278
     45 H          -7.0295    2.2785    1.5106 H       1  UNL1        0.0266
     46 H          -5.8343    2.3483    0.1771 H       1  UNL1        0.0266
     47 H          -5.4126    1.5715    2.9832 H       1  UNL1        0.0278
     48 H          -4.6545    2.8524    2.0477 H       1  UNL1        0.0278
     49 H          -3.5034    1.3029    0.7160 H       1  UNL1        0.0444
     50 H          -3.2658    0.8610    2.4152 H       1  UNL1        0.0444
     51 H          -0.6221   -0.4898    0.7712 H       1  UNL1        0.0644
@<TRIPOS>BOND
     1     1     2    2
     2     2     3    1
     3     2    10   am
     4     3     4    1
     5     4     5   ar
     6     4     9   ar
     7     5     6   ar
     8     6     7   ar
     9     7     8   ar
    10     8     9   ar
    11    10    11    1
    12    11    12   am
    13    12    13    2
    14    12    14    1
    15    14    15   ar
    16    14    28   ar
    17    15    16   ar
    18    16    17   ar
    19    17    18   ar
    20    18    19    1
    21    18    28   ar
    22    19    20    2
    23    19    21    2
    24    19    22    1
    25    22    23    1
    26    22    27    1
    27    23    24    1
    28    24    25    1
    29    25    26    1
    30    26    27    1
    31     3    29    1
    32     3    30    1
    33     5    31    1
    34     6    32    1
    35     7    33    1
    36     8    34    1
    37     9    35    1
    38    10    36    1
    39    11    37    1
    40    15    38    1
    41    16    39    1
    42    17    40    1
    43    23    41    1
    44    23    42    1
    45    24    43    1
    46    24    44    1
    47    25    45    1
    48    25    46    1
    49    26    47    1
    50    26    48    1
    51    27    49    1
    52    27    50    1
    53    28    51    1
@<TRIPOS>MOLECULE
../data/bude_mols_rdkit_confs/molecule_94.pdb
 51 53 0 0 0
SMALL
GASTEIGER

@<TRIPOS>ATOM
      1  O1         3.8340    0.3800    0.1910 O.2     1  UNL1       -0.2739
      2  C1         3.8240    0.5230    1.4450 C.2     1  UNL1        0.2334
      3  C2         5.0020    0.1000    2.2790 C.3     1  UNL1        0.0505
      4  C3         6.0340   -0.4500    1.3540 C.ar    1  UNL1       -0.0386
      5  C4         6.9080    0.4020    0.7210 C.ar    1  UNL1       -0.0581
      6  C5         7.8810   -0.0400   -0.1390 C.ar    1  UNL1       -0.0615
      7  C6         7.9930   -1.4020   -0.3860 C.ar    1  UNL1       -0.0617
      8  C7         7.1180   -2.2560    0.2480 C.ar    1  UNL1       -0.0615
      9  C8         6.1400   -1.7960    1.1160 C.ar    1  UNL1       -0.0581
     10  N1         2.6650    1.0950    2.0180 N.am    1  UNL1       -0.2339
     11  N2         1.5780    1.4850    1.1920 N.am    1  UNL1       -0.2304
     12  C9         0.7930    0.5610    0.4770 C.2     1  UNL1        0.2602
     13  O2         1.0940   -0.6540    0.6100 O.2     1  UNL1       -0.2687
     14  C10       -0.3170    0.8840   -0.3900 C.ar    1  UNL1        0.0400
     15  C11       -0.5210    2.1850   -0.7780 C.ar    1  UNL1       -0.0495
     16  C12       -1.5670    2.5660   -1.6250 C.ar    1  UNL1       -0.0592
     17  C13       -2.4300    1.5670   -2.0810 C.ar    1  UNL1       -0.0353
     18  C14       -2.2360    0.2580   -1.6970 C.ar    1  UNL1        0.1062
     19  S1        -3.3040   -0.9760   -2.2750 S.O2    1  UNL1        0.0609
     20  O3        -3.6920   -0.5740   -3.6980 O.2     1  UNL1       -0.1528
     21  O4        -2.5830   -2.2860   -2.3950 O.2     1  UNL1       -0.1528
     22  N3        -4.7400   -1.1360   -1.3870 N.3     1  UNL1       -0.1766
     23  C15       -4.4700   -1.4840   -0.0360 C.3     1  UNL1        0.0205
     24  C16       -5.6330   -1.3160    0.9130 C.3     1  UNL1       -0.0385
     25  C17       -6.1930    0.0850    0.8660 C.3     1  UNL1       -0.0506
     26  C18       -5.5910    0.8430   -0.3140 C.3     1  UNL1       -0.0385
     27  C19       -5.6570   -0.0590   -1.4990 C.3     1  UNL1        0.0205
     28  C20       -1.1980   -0.0800   -0.8660 C.ar    1  UNL1       -0.0232
     29 H           4.7023   -0.6512    2.9796 H       1  UNL1        0.0407
     30 H           5.3930    0.9318    2.8269 H       1  UNL1        0.0407
     31 H           6.8288    1.4152    0.9002 H       1  UNL1        0.0620
     32 H           8.5201    0.6295   -0.5955 H       1  UNL1        0.0618
     33 H           8.7141   -1.7653   -1.0287 H       1  UNL1        0.0618
     34 H           7.1928   -3.2700    0.0713 H       1  UNL1        0.0618
     35 H           5.4987   -2.4595    1.5780 H       1  UNL1        0.0620
     36 H           2.6115    1.2233    2.9926 H       1  UNL1        0.1728
     37 H           1.3641    2.4430    1.1161 H       1  UNL1        0.1731
     38 H           0.1239    2.9118   -0.4305 H       1  UNL1        0.0625
     39 H          -1.6966    3.5513   -1.9034 H       1  UNL1        0.0618
     40 H          -3.2142    1.8096   -2.7065 H       1  UNL1        0.0637
     41 H          -3.6671   -0.8677    0.3111 H       1  UNL1        0.0444
     42 H          -4.2352   -2.5279   -0.0381 H       1  UNL1        0.0444
     43 H          -5.3010   -1.5237    1.9088 H       1  UNL1        0.0278
     44 H          -6.4058   -1.9946    0.6175 H       1  UNL1        0.0278
     45 H          -5.9522    0.5945    1.7756 H       1  UNL1        0.0266
     46 H          -7.2556    0.0370    0.7501 H       1  UNL1        0.0266
     47 H          -4.5734    1.0987   -0.1044 H       1  UNL1        0.0278
     48 H          -6.1293    1.7495   -0.4969 H       1  UNL1        0.0278
     49 H          -6.6482   -0.4538   -1.5802 H       1  UNL1        0.0444
     50 H          -5.4003    0.5103   -2.3678 H       1  UNL1        0.0444
     51 H          -1.0692   -1.0660   -0.5898 H       1  UNL1        0.0644
@<TRIPOS>BOND
     1     1     2    2
     2     2     3    1
     3     2    10   am
     4     3     4    1
     5     4     5   ar
     6     4     9   ar
     7     5     6   ar
     8     6     7   ar
     9     7     8   ar
    10     8     9   ar
    11    10    11    1
    12    11    12   am
    13    12    13    2
    14    12    14    1
    15    14    15   ar
    16    14    28   ar
    17    15    16   ar
    18    16    17   ar
    19    17    18   ar
    20    18    19    1
    21    18    28   ar
    22    19    20    2
    23    19    21    2
    24    19    22    1
    25    22    23    1
    26    22    27    1
    27    23    24    1
    28    24    25    1
    29    25    26    1
    30    26    27    1
    31     3    29    1
    32     3    30    1
    33     5    31    1
    34     6    32    1
    35     7    33    1
    36     8    34    1
    37     9    35    1
    38    10    36    1
    39    11    37    1
    40    15    38    1
    41    16    39    1
    42    17    40    1
    43    23    41    1
    44    23    42    1
    45    24    43    1
    46    24    44    1
    47    25    45    1
    48    25    46    1
    49    26    47    1
    50    26    48    1
    51    27    49    1
    52    27    50    1
    53    28    51    1
@<TRIPOS>MOLECULE
../data/bude_mols_rdkit_confs/molecule_94.pdb
 51 53 0 0 0
SMALL
GASTEIGER

@<TRIPOS>ATOM
      1  O1         2.8040    0.9140    1.8080 O.2     1  UNL1       -0.2739
      2  C1         3.8320    0.8180    1.0670 C.2     1  UNL1        0.2334
      3  C2         5.1220    1.0950    1.6990 C.3     1  UNL1        0.0505
      4  C3         6.2860    0.4640    1.0710 C.ar    1  UNL1       -0.0386
      5  C4         6.6390   -0.8620    1.2570 C.ar    1  UNL1       -0.0581
      6  C5         7.7600   -1.3980    0.6450 C.ar    1  UNL1       -0.0615
      7  C6         8.5680   -0.6480   -0.1710 C.ar    1  UNL1       -0.0617
      8  C7         8.2380    0.6840   -0.3780 C.ar    1  UNL1       -0.0615
      9  C8         7.1180    1.2120    0.2380 C.ar    1  UNL1       -0.0581
     10  N1         3.6090    0.4510   -0.2780 N.am    1  UNL1       -0.2339
     11  N2         2.3590    0.2010   -0.8330 N.am    1  UNL1       -0.2304
     12  C9         1.3760   -0.6480   -0.2470 C.2     1  UNL1        0.2602
     13  O2         1.6490   -1.2010    0.8280 O.2     1  UNL1       -0.2687
     14  C10        0.0800   -0.8940   -0.8510 C.ar    1  UNL1        0.0400
     15  C11       -0.0420   -2.0220   -1.6420 C.ar    1  UNL1       -0.0495
     16  C12       -1.2410   -2.2910   -2.2500 C.ar    1  UNL1       -0.0592
     17  C13       -2.3100   -1.4440   -2.0750 C.ar    1  UNL1       -0.0353
     18  C14       -2.2170   -0.2940   -1.2790 C.ar    1  UNL1        0.1062
     19  S1        -3.6160    0.7330   -1.1370 S.O2    1  UNL1        0.0609
     20  O3        -4.3380    0.7660   -2.4720 O.2     1  UNL1       -0.1528
     21  O4        -3.1430    2.1410   -0.8680 O.2     1  UNL1       -0.1528
     22  N3        -4.6540    0.1550    0.0670 N.3     1  UNL1       -0.1766
     23  C15       -4.8690    0.9740    1.2000 C.3     1  UNL1        0.0205
     24  C16       -6.2350    1.5770    1.3470 C.3     1  UNL1       -0.0385
     25  C17       -7.3370    0.7300    0.8080 C.3     1  UNL1       -0.0506
     26  C18       -6.9300   -0.6680    0.4670 C.3     1  UNL1       -0.0385
     27  C19       -5.7070   -0.6450   -0.4220 C.3     1  UNL1        0.0205
     28  C20       -1.0030   -0.0550   -0.6830 C.ar    1  UNL1       -0.0232
     29 H           5.0711    0.7558    2.7125 H       1  UNL1        0.0407
     30 H           5.2740    2.1496    1.6014 H       1  UNL1        0.0407
     31 H           6.0565   -1.4615    1.8623 H       1  UNL1        0.0620
     32 H           7.9939   -2.3899    0.8076 H       1  UNL1        0.0618
     33 H           9.3996   -1.0633   -0.6193 H       1  UNL1        0.0618
     34 H           8.8240    1.2761   -0.9871 H       1  UNL1        0.0618
     35 H           6.8873    2.2044    0.0739 H       1  UNL1        0.0620
     36 H           4.3949    0.3660   -0.8649 H       1  UNL1        0.1728
     37 H           2.1386    0.6392   -1.6866 H       1  UNL1        0.1731
     38 H           0.7621   -2.6554   -1.7733 H       1  UNL1        0.0625
     39 H          -1.3415   -3.1314   -2.8405 H       1  UNL1        0.0618
     40 H          -3.2044   -1.6607   -2.5420 H       1  UNL1        0.0637
     41 H          -4.1631    1.7770    1.1581 H       1  UNL1        0.0444
     42 H          -4.7570    0.3235    2.0421 H       1  UNL1        0.0444
     43 H          -6.2465    2.5129    0.8284 H       1  UNL1        0.0278
     44 H          -6.4134    1.6831    2.3967 H       1  UNL1        0.0278
     45 H          -7.7135    1.1950   -0.0791 H       1  UNL1        0.0266
     46 H          -8.0714    0.6544    1.5825 H       1  UNL1        0.0266
     47 H          -7.7323   -1.1561   -0.0457 H       1  UNL1        0.0278
     48 H          -6.7011   -1.1982    1.3678 H       1  UNL1        0.0278
     49 H          -5.3474   -1.6475   -0.5246 H       1  UNL1        0.0444
     50 H          -6.0116   -0.2174   -1.3543 H       1  UNL1        0.0444
     51 H          -0.8967    0.7817   -0.0883 H       1  UNL1        0.0644
@<TRIPOS>BOND
     1     1     2    2
     2     2     3    1
     3     2    10   am
     4     3     4    1
     5     4     5   ar
     6     4     9   ar
     7     5     6   ar
     8     6     7   ar
     9     7     8   ar
    10     8     9   ar
    11    10    11    1
    12    11    12   am
    13    12    13    2
    14    12    14    1
    15    14    15   ar
    16    14    28   ar
    17    15    16   ar
    18    16    17   ar
    19    17    18   ar
    20    18    19    1
    21    18    28   ar
    22    19    20    2
    23    19    21    2
    24    19    22    1
    25    22    23    1
    26    22    27    1
    27    23    24    1
    28    24    25    1
    29    25    26    1
    30    26    27    1
    31     3    29    1
    32     3    30    1
    33     5    31    1
    34     6    32    1
    35     7    33    1
    36     8    34    1
    37     9    35    1
    38    10    36    1
    39    11    37    1
    40    15    38    1
    41    16    39    1
    42    17    40    1
    43    23    41    1
    44    23    42    1
    45    24    43    1
    46    24    44    1
    47    25    45    1
    48    25    46    1
    49    26    47    1
    50    26    48    1
    51    27    49    1
    52    27    50    1
    53    28    51    1
