@<TRIPOS>MOLECULE
../data/bude_mols_rdkit_confs/molecule_37.pdb
 28 30 0 0 0
SMALL
GASTEIGER

@<TRIPOS>ATOM
      1  O1         0.2000    2.2310    1.4840 O.2     1  UNL1       -0.1499
      2  S1         0.4980    1.8320    0.0450 S.O2    1  UNL1        0.0746
      3  O2         1.1800    3.0140   -0.5730 O.2     1  UNL1       -0.1499
      4  N1        -0.9840    1.5740   -0.7310 N.pl3   1  UNL1       -0.2134
      5  C1        -1.9640    0.6370   -0.3840 C.ar    1  UNL1        0.0832
      6  C2        -1.8210   -0.1940    0.7080 C.ar    1  UNL1       -0.0365
      7  C3        -2.7880   -1.1170    1.0510 C.ar    1  UNL1       -0.0598
      8  C4        -3.9400   -1.2390    0.3040 C.ar    1  UNL1       -0.0589
      9  C5        -4.1050   -0.4190   -0.7920 C.ar    1  UNL1       -0.0246
     10  C6        -3.1120    0.5100   -1.1210 C.ar    1  UNL1        0.1456
     11  F1        -3.2770    1.3140   -2.1980 F       1  UNL1       -0.2035
     12  C7         1.5740    0.4910    0.0490 C.ar    1  UNL1        0.1392
     13  C8         1.3360   -0.7300   -0.5140 C.ar    1  UNL1       -0.0327
     14  C9         2.2720   -1.7450   -0.4570 C.ar    1  UNL1       -0.0577
     15  C10        3.4710   -1.5660    0.1660 C.ar    1  UNL1       -0.0307
     16  C11        3.7330   -0.3440    0.7400 C.ar    1  UNL1        0.1361
     17  N2         4.7960    0.1320    1.4090 N.ar    1  UNL1       -0.0489
     18  O3         4.5490    1.3570    1.7490 O.2     1  UNL1       -0.2415
     19  N3         3.3730    1.6970    1.3290 N.ar    1  UNL1       -0.0469
     20  C12        2.8040    0.6660    0.6840 C.ar    1  UNL1        0.1606
     21 H          -1.1773    2.1442   -1.5099 H       1  UNL1        0.1738
     22 H          -0.9676   -0.1235    1.2841 H       1  UNL1        0.0637
     23 H          -2.6472   -1.7220    1.8751 H       1  UNL1        0.0618
     24 H          -4.6634   -1.9292    0.5596 H       1  UNL1        0.0618
     25 H          -4.9584   -0.4903   -1.3679 H       1  UNL1        0.0647
     26 H           0.4374   -0.8985   -0.9926 H       1  UNL1        0.0638
     27 H           2.0593   -2.6553   -0.8942 H       1  UNL1        0.0619
     28 H           4.1651   -2.3286    0.2060 H       1  UNL1        0.0640
@<TRIPOS>BOND
     1     1     2    2
     2     2     3    2
     3     2     4    1
     4     2    12    1
     5     4     5    1
     6     5     6   ar
     7     5    10   ar
     8     6     7   ar
     9     7     8   ar
    10     8     9   ar
    11     9    10   ar
    12    10    11    1
    13    12    13   ar
    14    12    20   ar
    15    13    14   ar
    16    14    15   ar
    17    15    16   ar
    18    16    17   ar
    19    16    20   ar
    20    17    18   ar
    21    18    19   ar
    22    19    20   ar
    23     4    21    1
    24     6    22    1
    25     7    23    1
    26     8    24    1
    27     9    25    1
    28    13    26    1
    29    14    27    1
    30    15    28    1
@<TRIPOS>MOLECULE
../data/bude_mols_rdkit_confs/molecule_37.pdb
 28 30 0 0 0
SMALL
GASTEIGER

@<TRIPOS>ATOM
      1  O1        -0.7830    3.4360    0.2580 O.2     1  UNL1       -0.1499
      2  S1        -0.3030    2.0850   -0.2540 S.O2    1  UNL1        0.0746
      3  O2         0.0110    2.3140   -1.7400 O.2     1  UNL1       -0.1499
      4  N1         1.0820    1.5660    0.5560 N.pl3   1  UNL1       -0.2134
      5  C1         1.8620    0.4230    0.3760 C.ar    1  UNL1        0.0832
      6  C2         1.4830   -0.8820    0.5930 C.ar    1  UNL1       -0.0365
      7  C3         2.3380   -1.9500    0.4230 C.ar    1  UNL1       -0.0598
      8  C4         3.6400   -1.7300    0.0160 C.ar    1  UNL1       -0.0589
      9  C5         4.0560   -0.4380   -0.2120 C.ar    1  UNL1       -0.0246
     10  C6         3.1880    0.6130   -0.0360 C.ar    1  UNL1        0.1456
     11  F1         3.6120    1.8600   -0.2620 F       1  UNL1       -0.2035
     12  C7        -1.6540    1.0050   -0.1250 C.ar    1  UNL1        0.1392
     13  C8        -2.7760    1.3310    0.6550 C.ar    1  UNL1       -0.0327
     14  C9        -3.8440    0.4840    0.7990 C.ar    1  UNL1       -0.0577
     15  C10       -3.8680   -0.7400    0.1770 C.ar    1  UNL1       -0.0307
     16  C11       -2.7860   -1.0940   -0.5970 C.ar    1  UNL1        0.1361
     17  N2        -2.5140   -2.1820   -1.3300 N.ar    1  UNL1       -0.0489
     18  O3        -1.3630   -2.0030   -1.8780 O.2     1  UNL1       -0.2415
     19  N3        -0.8590   -0.8580   -1.5480 N.ar    1  UNL1       -0.0469
     20  C12       -1.7210   -0.2300   -0.7300 C.ar    1  UNL1        0.1606
     21 H           1.3904    2.1670    1.2722 H       1  UNL1        0.1738
     22 H           0.5148   -1.0697    0.8968 H       1  UNL1        0.0637
     23 H           2.0065   -2.9113    0.5993 H       1  UNL1        0.0618
     24 H           4.2896   -2.5212   -0.1148 H       1  UNL1        0.0618
     25 H           5.0253   -0.2574   -0.5169 H       1  UNL1        0.0647
     26 H          -2.7969    2.2428    1.1379 H       1  UNL1        0.0638
     27 H          -4.6437    0.7710    1.3848 H       1  UNL1        0.0619
     28 H          -4.6735   -1.3758    0.2866 H       1  UNL1        0.0640
@<TRIPOS>BOND
     1     1     2    2
     2     2     3    2
     3     2     4    1
     4     2    12    1
     5     4     5    1
     6     5     6   ar
     7     5    10   ar
     8     6     7   ar
     9     7     8   ar
    10     8     9   ar
    11     9    10   ar
    12    10    11    1
    13    12    13   ar
    14    12    20   ar
    15    13    14   ar
    16    14    15   ar
    17    15    16   ar
    18    16    17   ar
    19    16    20   ar
    20    17    18   ar
    21    18    19   ar
    22    19    20   ar
    23     4    21    1
    24     6    22    1
    25     7    23    1
    26     8    24    1
    27     9    25    1
    28    13    26    1
    29    14    27    1
    30    15    28    1
@<TRIPOS>MOLECULE
../data/bude_mols_rdkit_confs/molecule_37.pdb
 28 30 0 0 0
SMALL
GASTEIGER

@<TRIPOS>ATOM
      1  O1         0.3700    1.9030    2.3250 O.2     1  UNL1       -0.1499
      2  S1        -0.3870    1.8520    1.0460 S.O2    1  UNL1        0.0746
      3  O2        -1.3920    2.9960    1.0080 O.2     1  UNL1       -0.1499
      4  N1         0.6200    1.9480   -0.3460 N.pl3   1  UNL1       -0.2134
      5  C1         1.5640    0.9230   -0.5770 C.ar    1  UNL1        0.0832
      6  C2         1.8670    0.0290    0.4190 C.ar    1  UNL1       -0.0365
      7  C3         2.8140   -0.9450    0.1080 C.ar    1  UNL1       -0.0598
      8  C4         3.4230   -1.0230   -1.1260 C.ar    1  UNL1       -0.0589
      9  C5         3.1140   -0.1290   -2.1070 C.ar    1  UNL1       -0.0246
     10  C6         2.1710    0.8500   -1.8140 C.ar    1  UNL1        0.1456
     11  F1         1.8870    1.7250   -2.8190 F       1  UNL1       -0.2035
     12  C7        -1.3650    0.3840    0.9180 C.ar    1  UNL1        0.1392
     13  C8        -1.3380   -0.6170    1.8420 C.ar    1  UNL1       -0.0327
     14  C9        -2.1360   -1.7270    1.6690 C.ar    1  UNL1       -0.0577
     15  C10       -2.9730   -1.8500    0.5690 C.ar    1  UNL1       -0.0307
     16  C11       -2.9880   -0.8310   -0.3540 C.ar    1  UNL1        0.1361
     17  N2        -3.6810   -0.6780   -1.4910 N.ar    1  UNL1       -0.0489
     18  O3        -3.3290    0.4730   -1.9990 O.2     1  UNL1       -0.2415
     19  N3        -2.4410    1.0540   -1.2290 N.ar    1  UNL1       -0.0469
     20  C12       -2.1830    0.2730   -0.1670 C.ar    1  UNL1        0.1606
     21 H           0.5395    2.7045   -0.9708 H       1  UNL1        0.1738
     22 H           1.4183    0.0754    1.3472 H       1  UNL1        0.0637
     23 H           3.0696   -1.6358    0.8309 H       1  UNL1        0.0618
     24 H           4.1180   -1.7638   -1.3084 H       1  UNL1        0.0618
     25 H           3.5639   -0.1769   -3.0345 H       1  UNL1        0.0647
     26 H          -0.7229   -0.5442    2.6674 H       1  UNL1        0.0638
     27 H          -2.1107   -2.4823    2.3718 H       1  UNL1        0.0619
     28 H          -3.5683   -2.6841    0.4470 H       1  UNL1        0.0640
@<TRIPOS>BOND
     1     1     2    2
     2     2     3    2
     3     2     4    1
     4     2    12    1
     5     4     5    1
     6     5     6   ar
     7     5    10   ar
     8     6     7   ar
     9     7     8   ar
    10     8     9   ar
    11     9    10   ar
    12    10    11    1
    13    12    13   ar
    14    12    20   ar
    15    13    14   ar
    16    14    15   ar
    17    15    16   ar
    18    16    17   ar
    19    16    20   ar
    20    17    18   ar
    21    18    19   ar
    22    19    20   ar
    23     4    21    1
    24     6    22    1
    25     7    23    1
    26     8    24    1
    27     9    25    1
    28    13    26    1
    29    14    27    1
    30    15    28    1
@<TRIPOS>MOLECULE
../data/bude_mols_rdkit_confs/molecule_37.pdb
 28 30 0 0 0
SMALL
GASTEIGER

@<TRIPOS>ATOM
      1  O1         1.0610   -3.3250   -0.4500 O.2     1  UNL1       -0.1499
      2  S1         0.4230   -2.0760    0.1360 S.O2    1  UNL1        0.0746
      3  O2         0.0060   -2.5010    1.5340 O.2     1  UNL1       -0.1499
      4  N1        -0.8960   -1.6030   -0.8070 N.pl3   1  UNL1       -0.2134
      5  C1        -1.8160   -0.5570   -0.5770 C.ar    1  UNL1        0.0832
      6  C2        -2.3620   -0.2350    0.6460 C.ar    1  UNL1       -0.0365
      7  C3        -3.2780    0.7670    0.8440 C.ar    1  UNL1       -0.0598
      8  C4        -3.7030    1.5190   -0.2210 C.ar    1  UNL1       -0.0589
      9  C5        -3.1920    1.2430   -1.4730 C.ar    1  UNL1       -0.0246
     10  C6        -2.2730    0.2310   -1.6420 C.ar    1  UNL1        0.1456
     11  F1        -1.8030    0.0020   -2.8890 F       1  UNL1       -0.2035
     12  C7         1.6740   -0.8760    0.3240 C.ar    1  UNL1        0.1392
     13  C8         2.9390   -1.1690   -0.2050 C.ar    1  UNL1       -0.0327
     14  C9         3.9960   -0.2950   -0.1270 C.ar    1  UNL1       -0.0577
     15  C10        3.8090    0.9250    0.4990 C.ar    1  UNL1       -0.0307
     16  C11        2.5720    1.2300    1.0250 C.ar    1  UNL1        0.1361
     17  N2         2.0750    2.2910    1.6800 N.ar    1  UNL1       -0.0489
     18  O3         0.8220    2.0800    1.9750 O.2     1  UNL1       -0.2415
     19  N3         0.4790    0.9080    1.5320 N.ar    1  UNL1       -0.0469
     20  C12        1.5060    0.3250    0.9350 C.ar    1  UNL1        0.1606
     21 H          -1.0431   -2.1271   -1.6273 H       1  UNL1        0.1738
     22 H          -2.0624   -0.7835    1.4672 H       1  UNL1        0.0637
     23 H          -3.6455    0.9539    1.7901 H       1  UNL1        0.0618
     24 H          -4.3914    2.2764   -0.0889 H       1  UNL1        0.0618
     25 H          -3.5001    1.7978   -2.2868 H       1  UNL1        0.0647
     26 H           3.0818   -2.0782   -0.6719 H       1  UNL1        0.0638
     27 H           4.9136   -0.5439   -0.5283 H       1  UNL1        0.0619
     28 H           4.5872    1.5990    0.5712 H       1  UNL1        0.0640
@<TRIPOS>BOND
     1     1     2    2
     2     2     3    2
     3     2     4    1
     4     2    12    1
     5     4     5    1
     6     5     6   ar
     7     5    10   ar
     8     6     7   ar
     9     7     8   ar
    10     8     9   ar
    11     9    10   ar
    12    10    11    1
    13    12    13   ar
    14    12    20   ar
    15    13    14   ar
    16    14    15   ar
    17    15    16   ar
    18    16    17   ar
    19    16    20   ar
    20    17    18   ar
    21    18    19   ar
    22    19    20   ar
    23     4    21    1
    24     6    22    1
    25     7    23    1
    26     8    24    1
    27     9    25    1
    28    13    26    1
    29    14    27    1
    30    15    28    1
@<TRIPOS>MOLECULE
../data/bude_mols_rdkit_confs/molecule_37.pdb
 28 30 0 0 0
SMALL
GASTEIGER

@<TRIPOS>ATOM
      1  O1        -0.6830   -0.7750    2.7920 O.2     1  UNL1       -0.1499
      2  S1        -0.2730   -0.0640    1.5140 S.O2    1  UNL1        0.0746
      3  O2         0.5620    1.1200    1.8980 O.2     1  UNL1       -0.1499
      4  N1         0.5980   -1.1750    0.5820 N.pl3   1  UNL1       -0.2134
      5  C1         1.8830   -0.8770    0.0870 C.ar    1  UNL1        0.0832
      6  C2         2.8390   -0.1640    0.7710 C.ar    1  UNL1       -0.0365
      7  C3         4.1020    0.0740    0.2100 C.ar    1  UNL1       -0.0598
      8  C4         4.4440   -0.3860   -1.0310 C.ar    1  UNL1       -0.0589
      9  C5         3.4980   -1.1010   -1.7290 C.ar    1  UNL1       -0.0246
     10  C6         2.2610   -1.3340   -1.1790 C.ar    1  UNL1        0.1456
     11  F1         1.3460   -2.0340   -1.8700 F       1  UNL1       -0.2035
     12  C7        -1.7060    0.5240    0.7160 C.ar    1  UNL1        0.1392
     13  C8        -1.8280    1.8670    0.4720 C.ar    1  UNL1       -0.0327
     14  C9        -2.9650    2.3730   -0.1670 C.ar    1  UNL1       -0.0577
     15  C10       -3.9650    1.5260   -0.5520 C.ar    1  UNL1       -0.0307
     16  C11       -3.8590    0.1780   -0.3150 C.ar    1  UNL1        0.1361
     17  N2        -4.6250   -0.9100   -0.5500 N.ar    1  UNL1       -0.0489
     18  O3        -4.0040   -1.9410   -0.0980 O.2     1  UNL1       -0.2415
     19  N3        -2.8590   -1.6250    0.4320 N.ar    1  UNL1       -0.0469
     20  C12       -2.7350   -0.2930    0.3120 C.ar    1  UNL1        0.1606
     21 H           0.1972   -2.0513    0.3805 H       1  UNL1        0.1738
     22 H           2.6238    0.2017    1.7117 H       1  UNL1        0.0637
     23 H           4.7954    0.6136    0.7513 H       1  UNL1        0.0618
     24 H           5.3781   -0.2036   -1.4300 H       1  UNL1        0.0618
     25 H           3.7187   -1.4637   -2.6696 H       1  UNL1        0.0647
     26 H          -1.0750    2.5103    0.7620 H       1  UNL1        0.0638
     27 H          -3.0481    3.3857   -0.3474 H       1  UNL1        0.0619
     28 H          -4.8034    1.9008   -1.0228 H       1  UNL1        0.0640
@<TRIPOS>BOND
     1     1     2    2
     2     2     3    2
     3     2     4    1
     4     2    12    1
     5     4     5    1
     6     5     6   ar
     7     5    10   ar
     8     6     7   ar
     9     7     8   ar
    10     8     9   ar
    11     9    10   ar
    12    10    11    1
    13    12    13   ar
    14    12    20   ar
    15    13    14   ar
    16    14    15   ar
    17    15    16   ar
    18    16    17   ar
    19    16    20   ar
    20    17    18   ar
    21    18    19   ar
    22    19    20   ar
    23     4    21    1
    24     6    22    1
    25     7    23    1
    26     8    24    1
    27     9    25    1
    28    13    26    1
    29    14    27    1
    30    15    28    1
@<TRIPOS>MOLECULE
../data/bude_mols_rdkit_confs/molecule_37.pdb
 28 30 0 0 0
SMALL
GASTEIGER

@<TRIPOS>ATOM
      1  O1        -1.3280   -0.0890   -3.1030 O.2     1  UNL1       -0.1499
      2  S1        -0.4750    0.2020   -1.9010 S.O2    1  UNL1        0.0746
      3  O2         0.1740    1.5660   -2.0950 O.2     1  UNL1       -0.1499
      4  N1         0.7520   -0.9650   -1.7810 N.pl3   1  UNL1       -0.2134
      5  C1         1.7430   -0.8310   -0.7640 C.ar    1  UNL1        0.0832
      6  C2         1.8140    0.2360    0.1030 C.ar    1  UNL1       -0.0365
      7  C3         2.7790    0.3550    1.0780 C.ar    1  UNL1       -0.0598
      8  C4         3.7290   -0.6130    1.2240 C.ar    1  UNL1       -0.0589
      9  C5         3.6970   -1.7000    0.3780 C.ar    1  UNL1       -0.0246
     10  C6         2.7280   -1.8100   -0.5930 C.ar    1  UNL1        0.1456
     11  F1         2.6930   -2.8730   -1.4240 F       1  UNL1       -0.2035
     12  C7        -1.4940    0.3190   -0.4930 C.ar    1  UNL1        0.1392
     13  C8        -1.3830   -0.4570    0.6260 C.ar    1  UNL1       -0.0327
     14  C9        -2.2590   -0.2850    1.7020 C.ar    1  UNL1       -0.0577
     15  C10       -3.2530    0.6630    1.6710 C.ar    1  UNL1       -0.0307
     16  C11       -3.3670    1.4470    0.5430 C.ar    1  UNL1        0.1361
     17  N2        -4.2130    2.4430    0.2010 N.ar    1  UNL1       -0.0489
     18  O3        -3.8700    2.8390   -0.9910 O.2     1  UNL1       -0.2415
     19  N3        -2.8650    2.1640   -1.4310 N.ar    1  UNL1       -0.0469
     20  C12       -2.4960    1.2670   -0.5110 C.ar    1  UNL1        0.1606
     21 H           0.7792   -1.7252   -2.4059 H       1  UNL1        0.1738
     22 H           1.1085    0.9843    0.0179 H       1  UNL1        0.0637
     23 H           2.7836    1.1786    1.6999 H       1  UNL1        0.0618
     24 H           4.4558   -0.5329    1.9522 H       1  UNL1        0.0618
     25 H           4.4087   -2.4411    0.4737 H       1  UNL1        0.0647
     26 H          -0.6455   -1.1770    0.6775 H       1  UNL1        0.0638
     27 H          -2.1568   -0.8827    2.5371 H       1  UNL1        0.0619
     28 H          -3.8957    0.7846    2.4692 H       1  UNL1        0.0640
@<TRIPOS>BOND
     1     1     2    2
     2     2     3    2
     3     2     4    1
     4     2    12    1
     5     4     5    1
     6     5     6   ar
     7     5    10   ar
     8     6     7   ar
     9     7     8   ar
    10     8     9   ar
    11     9    10   ar
    12    10    11    1
    13    12    13   ar
    14    12    20   ar
    15    13    14   ar
    16    14    15   ar
    17    15    16   ar
    18    16    17   ar
    19    16    20   ar
    20    17    18   ar
    21    18    19   ar
    22    19    20   ar
    23     4    21    1
    24     6    22    1
    25     7    23    1
    26     8    24    1
    27     9    25    1
    28    13    26    1
    29    14    27    1
    30    15    28    1
@<TRIPOS>MOLECULE
../data/bude_mols_rdkit_confs/molecule_37.pdb
 28 30 0 0 0
SMALL
GASTEIGER

@<TRIPOS>ATOM
      1  O1        -0.7170   -2.0900   -1.9650 O.2     1  UNL1       -0.1499
      2  S1        -0.3440   -0.8140   -1.2670 S.O2    1  UNL1        0.0746
      3  O2         0.2800    0.1210   -2.2560 O.2     1  UNL1       -0.1499
      4  N1         0.7690   -1.2100   -0.0230 N.pl3   1  UNL1       -0.2134
      5  C1         2.0210   -0.5520    0.0680 C.ar    1  UNL1        0.0832
      6  C2         2.7440   -0.2610   -1.0630 C.ar    1  UNL1       -0.0365
      7  C3         3.9650    0.3650   -0.9020 C.ar    1  UNL1       -0.0598
      8  C4         4.4770    0.7030    0.3220 C.ar    1  UNL1       -0.0589
      9  C5         3.7480    0.4080    1.4350 C.ar    1  UNL1       -0.0246
     10  C6         2.5280   -0.2140    1.3320 C.ar    1  UNL1        0.1456
     11  F1         1.8060   -0.5050    2.4540 F       1  UNL1       -0.2035
     12  C7        -1.7950   -0.0700   -0.6110 C.ar    1  UNL1        0.1392
     13  C8        -2.1960    1.2020   -0.9670 C.ar    1  UNL1       -0.0327
     14  C9        -3.3370    1.7820   -0.4480 C.ar    1  UNL1       -0.0577
     15  C10       -4.1340    1.1100    0.4550 C.ar    1  UNL1       -0.0307
     16  C11       -3.7360   -0.1600    0.8120 C.ar    1  UNL1        0.1361
     17  N2        -4.2740   -1.0630    1.6490 N.ar    1  UNL1       -0.0489
     18  O3        -3.5250   -2.1080    1.6430 O.2     1  UNL1       -0.2415
     19  N3        -2.5070   -1.9650    0.8480 N.ar    1  UNL1       -0.0469
     20  C12       -2.5880   -0.7470    0.2930 C.ar    1  UNL1        0.1606
     21 H           0.5351   -1.9030    0.6360 H       1  UNL1        0.1738
     22 H           2.3873   -0.5018   -2.0010 H       1  UNL1        0.0637
     23 H           4.5175    0.5885   -1.7445 H       1  UNL1        0.0618
     24 H           5.3938    1.1704    0.4000 H       1  UNL1        0.0618
     25 H           4.1172    0.6550    2.3665 H       1  UNL1        0.0647
     26 H          -1.6259    1.7359   -1.6415 H       1  UNL1        0.0638
     27 H          -3.5981    2.7363   -0.7415 H       1  UNL1        0.0619
     28 H          -4.9882    1.5382    0.8449 H       1  UNL1        0.0640
@<TRIPOS>BOND
     1     1     2    2
     2     2     3    2
     3     2     4    1
     4     2    12    1
     5     4     5    1
     6     5     6   ar
     7     5    10   ar
     8     6     7   ar
     9     7     8   ar
    10     8     9   ar
    11     9    10   ar
    12    10    11    1
    13    12    13   ar
    14    12    20   ar
    15    13    14   ar
    16    14    15   ar
    17    15    16   ar
    18    16    17   ar
    19    16    20   ar
    20    17    18   ar
    21    18    19   ar
    22    19    20   ar
    23     4    21    1
    24     6    22    1
    25     7    23    1
    26     8    24    1
    27     9    25    1
    28    13    26    1
    29    14    27    1
    30    15    28    1
@<TRIPOS>MOLECULE
../data/bude_mols_rdkit_confs/molecule_37.pdb
 28 30 0 0 0
SMALL
GASTEIGER

@<TRIPOS>ATOM
      1  O1        -0.3000    2.8030   -0.2040 O.2     1  UNL1       -0.1499
      2  S1        -0.6000    1.6260   -1.1260 S.O2    1  UNL1        0.0746
      3  O2        -1.2580    2.3000   -2.3410 O.2     1  UNL1       -0.1499
      4  N1         0.8790    0.9610   -1.5630 N.pl3   1  UNL1       -0.2134
      5  C1         1.7940    0.3660   -0.7000 C.ar    1  UNL1        0.0832
      6  C2         1.6220   -0.8400   -0.0450 C.ar    1  UNL1       -0.0365
      7  C3         2.5600   -1.4250    0.7690 C.ar    1  UNL1       -0.0598
      8  C4         3.7630   -0.7590    0.9460 C.ar    1  UNL1       -0.0589
      9  C5         3.9740    0.4460    0.3100 C.ar    1  UNL1       -0.0246
     10  C6         3.0280    1.0210   -0.5020 C.ar    1  UNL1        0.1456
     11  F1         3.2380    2.2040   -1.1250 F       1  UNL1       -0.2035
     12  C7        -1.7650    0.5630   -0.4040 C.ar    1  UNL1        0.1392
     13  C8        -2.9050    0.1680   -1.1190 C.ar    1  UNL1       -0.0327
     14  C9        -3.8290   -0.6980   -0.5810 C.ar    1  UNL1       -0.0577
     15  C10       -3.6620   -1.2070    0.6860 C.ar    1  UNL1       -0.0307
     16  C11       -2.5610   -0.8340    1.3990 C.ar    1  UNL1        0.1361
     17  N2        -2.1500   -1.1480    2.6380 N.ar    1  UNL1       -0.0489
     18  O3        -1.0390   -0.5150    2.8560 O.2     1  UNL1       -0.2415
     19  N3        -0.7080    0.1930    1.8200 N.ar    1  UNL1       -0.0469
     20  C12       -1.6190    0.0470    0.8520 C.ar    1  UNL1        0.1606
     21 H           1.1206    0.9953   -2.5168 H       1  UNL1        0.1738
     22 H           0.7260   -1.3346   -0.1774 H       1  UNL1        0.0637
     23 H           2.3762   -2.3284    1.2327 H       1  UNL1        0.0618
     24 H           4.4960   -1.1626    1.5500 H       1  UNL1        0.0618
     25 H           4.8736    0.9322    0.4491 H       1  UNL1        0.0647
     26 H          -3.0544    0.5357   -2.0716 H       1  UNL1        0.0638
     27 H          -4.6569   -0.9688   -1.1344 H       1  UNL1        0.0619
     28 H          -4.3551   -1.8572    1.0884 H       1  UNL1        0.0640
@<TRIPOS>BOND
     1     1     2    2
     2     2     3    2
     3     2     4    1
     4     2    12    1
     5     4     5    1
     6     5     6   ar
     7     5    10   ar
     8     6     7   ar
     9     7     8   ar
    10     8     9   ar
    11     9    10   ar
    12    10    11    1
    13    12    13   ar
    14    12    20   ar
    15    13    14   ar
    16    14    15   ar
    17    15    16   ar
    18    16    17   ar
    19    16    20   ar
    20    17    18   ar
    21    18    19   ar
    22    19    20   ar
    23     4    21    1
    24     6    22    1
    25     7    23    1
    26     8    24    1
    27     9    25    1
    28    13    26    1
    29    14    27    1
    30    15    28    1
@<TRIPOS>MOLECULE
../data/bude_mols_rdkit_confs/molecule_37.pdb
 28 30 0 0 0
SMALL
GASTEIGER

@<TRIPOS>ATOM
      1  O1        -0.3140   -1.6790    1.9150 O.2     1  UNL1       -0.1499
      2  S1        -0.4460   -1.6730    0.3850 S.O2    1  UNL1        0.0746
      3  O2        -1.0640   -3.0360    0.0670 O.2     1  UNL1       -0.1499
      4  N1         1.0970   -1.6470   -0.2940 N.pl3   1  UNL1       -0.2134
      5  C1         2.0590   -0.6120   -0.2150 C.ar    1  UNL1        0.0832
      6  C2         2.3010    0.2020   -1.2690 C.ar    1  UNL1       -0.0365
      7  C3         3.2670    1.1790   -1.1810 C.ar    1  UNL1       -0.0598
      8  C4         3.9750    1.3060   -0.0050 C.ar    1  UNL1       -0.0589
      9  C5         3.7590    0.4960    1.0910 C.ar    1  UNL1       -0.0246
     10  C6         2.7730   -0.4750    0.9540 C.ar    1  UNL1        0.1456
     11  F1         2.5620   -1.2770    2.0430 F       1  UNL1       -0.2035
     12  C7        -1.5820   -0.4920   -0.1240 C.ar    1  UNL1        0.1392
     13  C8        -1.4030    0.4710   -1.0820 C.ar    1  UNL1       -0.0327
     14  C9        -2.4100    1.3570   -1.4010 C.ar    1  UNL1       -0.0577
     15  C10       -3.6450    1.3340   -0.7890 C.ar    1  UNL1       -0.0307
     16  C11       -3.8370    0.3730    0.1720 C.ar    1  UNL1        0.1361
     17  N2        -4.9160    0.0830    0.9520 N.ar    1  UNL1       -0.0489
     18  O3        -4.6040   -0.9160    1.7060 O.2     1  UNL1       -0.2415
     19  N3        -3.3770   -1.2990    1.4650 N.ar    1  UNL1       -0.0469
     20  C12       -2.8480   -0.5180    0.5060 C.ar    1  UNL1        0.1606
     21 H           1.3598   -2.4459   -0.8057 H       1  UNL1        0.1738
     22 H           1.7601    0.0900   -2.1407 H       1  UNL1        0.0637
     23 H           3.4574    1.8041   -1.9798 H       1  UNL1        0.0618
     24 H           4.6985    2.0392    0.0585 H       1  UNL1        0.0618
     25 H           4.2990    0.6047    1.9637 H       1  UNL1        0.0647
     26 H          -0.4979    0.5343   -1.5738 H       1  UNL1        0.0638
     27 H          -2.2318    2.0671   -2.1283 H       1  UNL1        0.0619
     28 H          -4.3874    2.0052   -1.0406 H       1  UNL1        0.0640
@<TRIPOS>BOND
     1     1     2    2
     2     2     3    2
     3     2     4    1
     4     2    12    1
     5     4     5    1
     6     5     6   ar
     7     5    10   ar
     8     6     7   ar
     9     7     8   ar
    10     8     9   ar
    11     9    10   ar
    12    10    11    1
    13    12    13   ar
    14    12    20   ar
    15    13    14   ar
    16    14    15   ar
    17    15    16   ar
    18    16    17   ar
    19    16    20   ar
    20    17    18   ar
    21    18    19   ar
    22    19    20   ar
    23     4    21    1
    24     6    22    1
    25     7    23    1
    26     8    24    1
    27     9    25    1
    28    13    26    1
    29    14    27    1
    30    15    28    1
@<TRIPOS>MOLECULE
../data/bude_mols_rdkit_confs/molecule_37.pdb
 28 30 0 0 0
SMALL
GASTEIGER

@<TRIPOS>ATOM
      1  O1         0.1830    2.9220   -0.4770 O.2     1  UNL1       -0.1499
      2  S1        -0.6410    1.9880    0.3680 S.O2    1  UNL1        0.0746
      3  O2        -1.7480    2.7820    1.0600 O.2     1  UNL1       -0.1499
      4  N1         0.3210    1.2730    1.6020 N.pl3   1  UNL1       -0.2134
      5  C1         1.4170    0.4550    1.2410 C.ar    1  UNL1        0.0832
      6  C2         1.8810    0.4260   -0.0400 C.ar    1  UNL1       -0.0365
      7  C3         2.9550   -0.3700   -0.3890 C.ar    1  UNL1       -0.0598
      8  C4         3.5540   -1.1410    0.5860 C.ar    1  UNL1       -0.0589
      9  C5         3.0760   -1.1050    1.8820 C.ar    1  UNL1       -0.0246
     10  C6         2.0050   -0.3080    2.2180 C.ar    1  UNL1        0.1456
     11  F1         1.5650   -0.3020    3.5090 F       1  UNL1       -0.2035
     12  C7        -1.4170    0.7850   -0.6330 C.ar    1  UNL1        0.1392
     13  C8        -1.1610    0.7930   -1.9840 C.ar    1  UNL1       -0.0327
     14  C9        -1.8000   -0.1750   -2.7660 C.ar    1  UNL1       -0.0577
     15  C10       -2.6500   -1.1030   -2.2380 C.ar    1  UNL1       -0.0307
     16  C11       -2.9020   -1.1050   -0.8880 C.ar    1  UNL1        0.1361
     17  N2        -3.6730   -1.8680   -0.0630 N.ar    1  UNL1       -0.0489
     18  O3        -3.5260   -1.4100    1.1440 O.2     1  UNL1       -0.2415
     19  N3        -2.7080   -0.3990    1.1520 N.ar    1  UNL1       -0.0469
     20  C12       -2.2750   -0.1510   -0.1000 C.ar    1  UNL1        0.1606
     21 H           0.1107    1.4317    2.5506 H       1  UNL1        0.1738
     22 H           1.4235    1.0070   -0.7598 H       1  UNL1        0.0637
     23 H           3.3026   -0.3876   -1.3605 H       1  UNL1        0.0618
     24 H           4.3574   -1.7433    0.3478 H       1  UNL1        0.0618
     25 H           3.5278   -1.6832    2.6076 H       1  UNL1        0.0647
     26 H          -0.5224    1.4861   -2.4046 H       1  UNL1        0.0638
     27 H          -1.6216   -0.1879   -3.7824 H       1  UNL1        0.0619
     28 H          -3.1014   -1.8002   -2.8505 H       1  UNL1        0.0640
@<TRIPOS>BOND
     1     1     2    2
     2     2     3    2
     3     2     4    1
     4     2    12    1
     5     4     5    1
     6     5     6   ar
     7     5    10   ar
     8     6     7   ar
     9     7     8   ar
    10     8     9   ar
    11     9    10   ar
    12    10    11    1
    13    12    13   ar
    14    12    20   ar
    15    13    14   ar
    16    14    15   ar
    17    15    16   ar
    18    16    17   ar
    19    16    20   ar
    20    17    18   ar
    21    18    19   ar
    22    19    20   ar
    23     4    21    1
    24     6    22    1
    25     7    23    1
    26     8    24    1
    27     9    25    1
    28    13    26    1
    29    14    27    1
    30    15    28    1
@<TRIPOS>MOLECULE
../data/bude_mols_rdkit_confs/molecule_37.pdb
 28 30 0 0 0
SMALL
GASTEIGER

@<TRIPOS>ATOM
      1  O1        -0.2070    3.2330    0.1400 O.2     1  UNL1       -0.1499
      2  S1        -0.1050    1.7820   -0.2370 S.O2    1  UNL1        0.0746
      3  O2         0.5070    1.6980   -1.5890 O.2     1  UNL1       -0.1499
      4  N1         0.7490    0.8670    0.9170 N.pl3   1  UNL1       -0.2134
      5  C1         1.8650    0.0810    0.5980 C.ar    1  UNL1        0.0832
      6  C2         2.7630    0.4350   -0.3600 C.ar    1  UNL1       -0.0365
      7  C3         3.8450   -0.3770   -0.6120 C.ar    1  UNL1       -0.0598
      8  C4         4.0270   -1.5420    0.0940 C.ar    1  UNL1       -0.0589
      9  C5         3.1250   -1.9070    1.0640 C.ar    1  UNL1       -0.0246
     10  C6         2.0440   -1.0960    1.3160 C.ar    1  UNL1        0.1456
     11  F1         1.1380   -1.4300    2.2670 F       1  UNL1       -0.2035
     12  C7        -1.7220    1.0700   -0.3750 C.ar    1  UNL1        0.1392
     13  C8        -2.8360    1.8250   -0.0900 C.ar    1  UNL1       -0.0327
     14  C9        -4.0650    1.1760   -0.2270 C.ar    1  UNL1       -0.0577
     15  C10       -4.1530   -0.1410   -0.6240 C.ar    1  UNL1       -0.0307
     16  C11       -2.9980   -0.8480   -0.8960 C.ar    1  UNL1        0.1361
     17  N2        -2.7420   -2.1220   -1.2960 N.ar    1  UNL1       -0.0489
     18  O3        -1.4610   -2.3040   -1.4140 O.2     1  UNL1       -0.2415
     19  N3        -0.8680   -1.1870   -1.1030 N.ar    1  UNL1       -0.0469
     20  C12       -1.7770   -0.2470   -0.7730 C.ar    1  UNL1        0.1606
     21 H           0.4446    0.8910    1.8529 H       1  UNL1        0.1738
     22 H           2.6337    1.3079   -0.8951 H       1  UNL1        0.0637
     23 H           4.5268   -0.1084   -1.3386 H       1  UNL1        0.0618
     24 H           4.8419   -2.1432   -0.1046 H       1  UNL1        0.0618
     25 H           3.2576   -2.7804    1.5975 H       1  UNL1        0.0647
     26 H          -2.7677    2.8110    0.2070 H       1  UNL1        0.0638
     27 H          -4.9323    1.6976   -0.0252 H       1  UNL1        0.0619
     28 H          -5.0749   -0.5954   -0.7173 H       1  UNL1        0.0640
@<TRIPOS>BOND
     1     1     2    2
     2     2     3    2
     3     2     4    1
     4     2    12    1
     5     4     5    1
     6     5     6   ar
     7     5    10   ar
     8     6     7   ar
     9     7     8   ar
    10     8     9   ar
    11     9    10   ar
    12    10    11    1
    13    12    13   ar
    14    12    20   ar
    15    13    14   ar
    16    14    15   ar
    17    15    16   ar
    18    16    17   ar
    19    16    20   ar
    20    17    18   ar
    21    18    19   ar
    22    19    20   ar
    23     4    21    1
    24     6    22    1
    25     7    23    1
    26     8    24    1
    27     9    25    1
    28    13    26    1
    29    14    27    1
    30    15    28    1
@<TRIPOS>MOLECULE
../data/bude_mols_rdkit_confs/molecule_37.pdb
 28 30 0 0 0
SMALL
GASTEIGER

@<TRIPOS>ATOM
      1  O1         0.4370   -2.4970    1.4050 O.2     1  UNL1       -0.1499
      2  S1        -0.2230   -2.1500    0.0750 S.O2    1  UNL1        0.0746
      3  O2        -0.7900   -3.4750   -0.4110 O.2     1  UNL1       -0.1499
      4  N1         0.9180   -1.5280   -1.0100 N.pl3   1  UNL1       -0.2134
      5  C1         1.7220   -0.3910   -0.8360 C.ar    1  UNL1        0.0832
      6  C2         2.4820   -0.2430    0.2970 C.ar    1  UNL1       -0.0365
      7  C3         3.3050    0.8440    0.4730 C.ar    1  UNL1       -0.0598
      8  C4         3.3890    1.8140   -0.4840 C.ar    1  UNL1       -0.0589
      9  C5         2.6320    1.6740   -1.6200 C.ar    1  UNL1       -0.0246
     10  C6         1.8080    0.5840   -1.7920 C.ar    1  UNL1        0.1456
     11  F1         1.0840    0.4780   -2.9100 F       1  UNL1       -0.2035
     12  C7        -1.5200   -1.0490    0.3730 C.ar    1  UNL1        0.1392
     13  C8        -2.8060   -1.4070   -0.0100 C.ar    1  UNL1       -0.0327
     14  C9        -3.8450   -0.5450    0.2070 C.ar    1  UNL1       -0.0577
     15  C10       -3.6950    0.6900    0.7970 C.ar    1  UNL1       -0.0307
     16  C11       -2.4050    1.0370    1.1750 C.ar    1  UNL1        0.1361
     17  N2        -1.9270    2.1300    1.7620 N.ar    1  UNL1       -0.0489
     18  O3        -0.6550    1.9630    1.9070 O.2     1  UNL1       -0.2415
     19  N3        -0.2810    0.8180    1.4440 N.ar    1  UNL1       -0.0469
     20  C12       -1.3510    0.1690    0.9580 C.ar    1  UNL1        0.1606
     21 H           1.0299   -2.0180   -1.8565 H       1  UNL1        0.1738
     22 H           2.4346   -0.9641    1.0337 H       1  UNL1        0.0637
     23 H           3.8643    0.9275    1.3363 H       1  UNL1        0.0618
     24 H           4.0059    2.6314   -0.3564 H       1  UNL1        0.0618
     25 H           2.6809    2.3958   -2.3559 H       1  UNL1        0.0647
     26 H          -2.9770   -2.3212   -0.4572 H       1  UNL1        0.0638
     27 H          -4.7908   -0.8352   -0.0867 H       1  UNL1        0.0619
     28 H          -4.4964    1.3221    0.9496 H       1  UNL1        0.0640
@<TRIPOS>BOND
     1     1     2    2
     2     2     3    2
     3     2     4    1
     4     2    12    1
     5     4     5    1
     6     5     6   ar
     7     5    10   ar
     8     6     7   ar
     9     7     8   ar
    10     8     9   ar
    11     9    10   ar
    12    10    11    1
    13    12    13   ar
    14    12    20   ar
    15    13    14   ar
    16    14    15   ar
    17    15    16   ar
    18    16    17   ar
    19    16    20   ar
    20    17    18   ar
    21    18    19   ar
    22    19    20   ar
    23     4    21    1
    24     6    22    1
    25     7    23    1
    26     8    24    1
    27     9    25    1
    28    13    26    1
    29    14    27    1
    30    15    28    1
@<TRIPOS>MOLECULE
../data/bude_mols_rdkit_confs/molecule_37.pdb
 28 30 0 0 0
SMALL
GASTEIGER

@<TRIPOS>ATOM
      1  O1         0.4160   -1.3180    2.3570 O.2     1  UNL1       -0.1499
      2  S1        -0.4250   -1.6650    1.1330 S.O2    1  UNL1        0.0746
      3  O2        -1.2900   -2.8530    1.4800 O.2     1  UNL1       -0.1499
      4  N1         0.5860   -2.0120   -0.2140 N.pl3   1  UNL1       -0.2134
      5  C1         1.5630   -1.0980   -0.6870 C.ar    1  UNL1        0.0832
      6  C2         1.9030    0.0480    0.0250 C.ar    1  UNL1       -0.0365
      7  C3         2.8500    0.9310   -0.4200 C.ar    1  UNL1       -0.0598
      8  C4         3.4850    0.6850   -1.6000 C.ar    1  UNL1       -0.0589
      9  C5         3.1660   -0.4410   -2.3210 C.ar    1  UNL1       -0.0246
     10  C6         2.2230   -1.3190   -1.8760 C.ar    1  UNL1        0.1456
     11  F1         1.8970   -2.4390   -2.5810 F       1  UNL1       -0.2035
     12  C7        -1.4040   -0.2760    0.7970 C.ar    1  UNL1        0.1392
     13  C8        -1.3330    0.3420   -0.4180 C.ar    1  UNL1       -0.0327
     14  C9        -2.1230    1.4560   -0.7040 C.ar    1  UNL1       -0.0577
     15  C10       -2.9700    1.9030    0.2810 C.ar    1  UNL1       -0.0307
     16  C11       -3.0620    1.2990    1.5150 C.ar    1  UNL1        0.1361
     17  N2        -3.7990    1.5340    2.6370 N.ar    1  UNL1       -0.0489
     18  O3        -3.4550    0.6220    3.4980 O.2     1  UNL1       -0.2415
     19  N3        -2.5640   -0.1730    3.0230 N.ar    1  UNL1       -0.0469
     20  C12       -2.2600    0.2020    1.7460 C.ar    1  UNL1        0.1606
     21 H           0.4832   -2.8764   -0.6739 H       1  UNL1        0.1738
     22 H           1.4249    0.2390    0.9194 H       1  UNL1        0.0637
     23 H           3.0799    1.7724    0.1315 H       1  UNL1        0.0618
     24 H           4.2012    1.3401   -1.9504 H       1  UNL1        0.0618
     25 H           3.6487   -0.6248   -3.2145 H       1  UNL1        0.0647
     26 H          -0.6856   -0.0200   -1.1355 H       1  UNL1        0.0638
     27 H          -2.0729    1.9265   -1.6211 H       1  UNL1        0.0619
     28 H          -3.5621    2.7259    0.0880 H       1  UNL1        0.0640
@<TRIPOS>BOND
     1     1     2    2
     2     2     3    2
     3     2     4    1
     4     2    12    1
     5     4     5    1
     6     5     6   ar
     7     5    10   ar
     8     6     7   ar
     9     7     8   ar
    10     8     9   ar
    11     9    10   ar
    12    10    11    1
    13    12    13   ar
    14    12    20   ar
    15    13    14   ar
    16    14    15   ar
    17    15    16   ar
    18    16    17   ar
    19    16    20   ar
    20    17    18   ar
    21    18    19   ar
    22    19    20   ar
    23     4    21    1
    24     6    22    1
    25     7    23    1
    26     8    24    1
    27     9    25    1
    28    13    26    1
    29    14    27    1
    30    15    28    1
