@<TRIPOS>MOLECULE
../data/bude_mols_rdkit_confs/molecule_60.pdb
 32 34 0 0 0
SMALL
GASTEIGER

@<TRIPOS>ATOM
      1 O          -3.0600    2.0070    2.8060 O.2     1  UNL1       -0.2658
      2 C          -2.3040    1.7410    1.8310 C.ar    1  UNL1        0.2725
      3 N          -1.1920    2.4520    1.5850 N.ar    1  UNL1       -0.2425
      4 N          -0.4480    2.1330    0.5630 N.ar    1  UNL1       -0.1750
      5 C          -0.7060    1.1070   -0.3060 C.ar    1  UNL1        0.0736
      6 C           0.2860    0.8800   -1.3380 C.3     1  UNL1        0.0173
      7 C           1.3890   -0.0580   -0.9770 C.ar    1  UNL1       -0.0351
      8 C           1.4110   -1.4010   -1.2310 C.ar    1  UNL1       -0.0578
      9 C           2.4860   -2.2230   -0.8820 C.ar    1  UNL1       -0.0551
     10 C           3.5710   -1.6590   -0.2550 C.ar    1  UNL1        0.0156
     11 C           3.6070   -0.3110    0.0270 C.ar    1  UNL1        0.2734
     12 N           4.7200    0.3040    0.6770 N.pl3   1  UNL1        0.0796
     13 O           5.7020   -0.3680    1.0050 O.2     1  UNL1        0.0414
     14 O           4.7140    1.6470    0.9400 O.co2   1  UNL1       -0.5760
     15 C           2.5290    0.4530   -0.3340 C.ar    1  UNL1        0.0191
     16 C          -1.8420    0.3860   -0.0510 C.ar    1  UNL1        0.0106
     17 C          -2.1610   -0.6420   -0.9120 C.ar    1  UNL1       -0.0521
     18 C          -3.3210   -1.3810   -0.6980 C.ar    1  UNL1       -0.0611
     19 C          -4.1240   -1.0660    0.3730 C.ar    1  UNL1       -0.0610
     20 C          -3.8160   -0.0450    1.2370 C.ar    1  UNL1       -0.0487
     21 C          -2.6570    0.6840    1.0110 C.ar    1  UNL1        0.0496
     22 H          -0.9417    3.2043    2.1686 H       1  UNL1        0.1921
     23 H           0.7246    1.8239   -1.5863 H       1  UNL1        0.0377
     24 H          -0.2365    0.4187   -2.1499 H       1  UNL1        0.0377
     25 H           0.5973   -1.8270   -1.7016 H       1  UNL1        0.0620
     26 H           2.4654   -3.2334   -1.0910 H       1  UNL1        0.0620
     27 H           4.3714   -2.2546    0.0088 H       1  UNL1        0.0685
     28 H           2.5557    1.4625   -0.1214 H       1  UNL1        0.0688
     29 H          -1.5442   -0.8622   -1.7096 H       1  UNL1        0.0624
     30 H          -3.5746   -2.1536   -1.3335 H       1  UNL1        0.0618
     31 H          -4.9841   -1.6138    0.5319 H       1  UNL1        0.0618
     32 H          -4.4315    0.1753    2.0355 H       1  UNL1        0.0625
@<TRIPOS>UNITY_ATOM_ATTR
12 1
charge 1
14 1
charge -1
@<TRIPOS>BOND
     1     1     2    2
     2     2     3   ar
     3     2    21   ar
     4     3     4   ar
     5     4     5   ar
     6     5     6    1
     7     5    16   ar
     8     6     7    1
     9     7     8   ar
    10     7    15   ar
    11     8     9   ar
    12     9    10   ar
    13    10    11   ar
    14    11    12    1
    15    11    15   ar
    16    12    13    2
    17    12    14    1
    18    16    17   ar
    19    16    21   ar
    20    17    18   ar
    21    18    19   ar
    22    19    20   ar
    23    20    21   ar
    24     3    22    1
    25     6    23    1
    26     6    24    1
    27     8    25    1
    28     9    26    1
    29    10    27    1
    30    15    28    1
    31    17    29    1
    32    18    30    1
    33    19    31    1
    34    20    32    1
@<TRIPOS>MOLECULE
../data/bude_mols_rdkit_confs/molecule_60.pdb
 32 34 0 0 0
SMALL
GASTEIGER

@<TRIPOS>ATOM
      1 O          -4.3120    0.4000   -2.0800 O.2     1  UNL1       -0.2658
      2 C          -3.3140   -0.0870   -1.4940 C.ar    1  UNL1        0.2725
      3 N          -2.7100   -1.2170   -1.8900 N.ar    1  UNL1       -0.2425
      4 N          -1.6650   -1.7320   -1.2790 N.ar    1  UNL1       -0.1750
      5 C          -1.1070   -1.1460   -0.1800 C.ar    1  UNL1        0.0736
      6 C           0.1000   -1.7010    0.4060 C.3     1  UNL1        0.0173
      7 C           1.3800   -1.1960   -0.1550 C.ar    1  UNL1       -0.0351
      8 C           2.0220   -1.9360   -1.1730 C.ar    1  UNL1       -0.0578
      9 C           3.2010   -1.5350   -1.7340 C.ar    1  UNL1       -0.0551
     10 C           3.8340   -0.3840   -1.3410 C.ar    1  UNL1        0.0156
     11 C           3.2430    0.3570   -0.3610 C.ar    1  UNL1        0.2734
     12 N           3.8570    1.5670    0.0710 N.pl3   1  UNL1        0.0796
     13 O           4.9150    1.9580   -0.4040 O.2     1  UNL1        0.0414
     14 O           3.2810    2.3680    1.0590 O.co2   1  UNL1       -0.5760
     15 C           2.0360   -0.0590    0.2100 C.ar    1  UNL1        0.0191
     16 C          -1.7060    0.0090    0.2470 C.ar    1  UNL1        0.0106
     17 C          -1.2400    0.6730    1.3790 C.ar    1  UNL1       -0.0521
     18 C          -1.8410    1.8250    1.8410 C.ar    1  UNL1       -0.0611
     19 C          -2.9220    2.3360    1.1800 C.ar    1  UNL1       -0.0610
     20 C          -3.4170    1.7170    0.0650 C.ar    1  UNL1       -0.0487
     21 C          -2.7950    0.5690   -0.3690 C.ar    1  UNL1        0.0496
     22 H          -3.0672   -1.6854   -2.6788 H       1  UNL1        0.1921
     23 H           0.0756   -2.7616    0.2663 H       1  UNL1        0.0377
     24 H           0.0918   -1.3981    1.4322 H       1  UNL1        0.0377
     25 H           1.5848   -2.8101   -1.5043 H       1  UNL1        0.0620
     26 H           3.6271   -2.1143   -2.4741 H       1  UNL1        0.0620
     27 H           4.7247   -0.0895   -1.7710 H       1  UNL1        0.0685
     28 H           1.6189    0.5281    0.9492 H       1  UNL1        0.0688
     29 H          -0.4245    0.2934    1.8848 H       1  UNL1        0.0624
     30 H          -1.4760    2.2988    2.6820 H       1  UNL1        0.0618
     31 H          -3.3703    3.1988    1.5258 H       1  UNL1        0.0618
     32 H          -4.2336    2.1002   -0.4363 H       1  UNL1        0.0625
@<TRIPOS>UNITY_ATOM_ATTR
12 1
charge 1
14 1
charge -1
@<TRIPOS>BOND
     1     1     2    2
     2     2     3   ar
     3     2    21   ar
     4     3     4   ar
     5     4     5   ar
     6     5     6    1
     7     5    16   ar
     8     6     7    1
     9     7     8   ar
    10     7    15   ar
    11     8     9   ar
    12     9    10   ar
    13    10    11   ar
    14    11    12    1
    15    11    15   ar
    16    12    13    2
    17    12    14    1
    18    16    17   ar
    19    16    21   ar
    20    17    18   ar
    21    18    19   ar
    22    19    20   ar
    23    20    21   ar
    24     3    22    1
    25     6    23    1
    26     6    24    1
    27     8    25    1
    28     9    26    1
    29    10    27    1
    30    15    28    1
    31    17    29    1
    32    18    30    1
    33    19    31    1
    34    20    32    1
@<TRIPOS>MOLECULE
../data/bude_mols_rdkit_confs/molecule_60.pdb
 32 34 0 0 0
SMALL
GASTEIGER

@<TRIPOS>ATOM
      1 O          -3.1890   -2.9620    1.3820 O.2     1  UNL1       -0.2658
      2 C          -2.3950   -2.3240    0.6380 C.ar    1  UNL1        0.2725
      3 N          -1.3710   -2.9070   -0.0060 N.ar    1  UNL1       -0.2425
      4 N          -0.5550   -2.2140   -0.7770 N.ar    1  UNL1       -0.1750
      5 C          -0.6770   -0.8690   -0.9850 C.ar    1  UNL1        0.0736
      6 C           0.3250   -0.1880   -1.8040 C.3     1  UNL1        0.0173
      7 C           1.4270    0.4070   -0.9520 C.ar    1  UNL1       -0.0351
      8 C           1.5820    1.7450   -0.7210 C.ar    1  UNL1       -0.0578
      9 C           2.5720    2.2770    0.0820 C.ar    1  UNL1       -0.0551
     10 C           3.4480    1.4020    0.6770 C.ar    1  UNL1        0.0156
     11 C           3.3180    0.0480    0.4610 C.ar    1  UNL1        0.2734
     12 N           4.2430   -0.8560    1.0930 N.pl3   1  UNL1        0.0796
     13 O           5.1700   -0.4690    1.8270 O.2     1  UNL1        0.0414
     14 O           4.1200   -2.2090    0.8930 O.co2   1  UNL1       -0.5760
     15 C           2.3260   -0.4520   -0.3390 C.ar    1  UNL1        0.0191
     16 C          -1.7000   -0.2180   -0.3590 C.ar    1  UNL1        0.0106
     17 C          -1.9070    1.1440   -0.5310 C.ar    1  UNL1       -0.0521
     18 C          -2.9460    1.7820    0.0910 C.ar    1  UNL1       -0.0611
     19 C          -3.7970    1.0420    0.9020 C.ar    1  UNL1       -0.0610
     20 C          -3.6060   -0.3060    1.0810 C.ar    1  UNL1       -0.0487
     21 C          -2.5540   -0.9650    0.4530 C.ar    1  UNL1        0.0496
     22 H          -1.2257   -3.8750    0.0997 H       1  UNL1        0.1921
     23 H          -0.1508    0.5964   -2.3546 H       1  UNL1        0.0377
     24 H           0.7626   -0.9063   -2.4654 H       1  UNL1        0.0377
     25 H           0.9208    2.3959   -1.1729 H       1  UNL1        0.0620
     26 H           2.6507    3.2953    0.2297 H       1  UNL1        0.0620
     27 H           4.2021    1.7585    1.2847 H       1  UNL1        0.0685
     28 H           2.2473   -1.4704   -0.4860 H       1  UNL1        0.0688
     29 H          -1.2684    1.6831   -1.1365 H       1  UNL1        0.0624
     30 H          -3.0945    2.7948   -0.0402 H       1  UNL1        0.0618
     31 H          -4.5838    1.5119    1.3766 H       1  UNL1        0.0618
     32 H          -4.2502   -0.8363    1.6883 H       1  UNL1        0.0625
@<TRIPOS>UNITY_ATOM_ATTR
12 1
charge 1
14 1
charge -1
@<TRIPOS>BOND
     1     1     2    2
     2     2     3   ar
     3     2    21   ar
     4     3     4   ar
     5     4     5   ar
     6     5     6    1
     7     5    16   ar
     8     6     7    1
     9     7     8   ar
    10     7    15   ar
    11     8     9   ar
    12     9    10   ar
    13    10    11   ar
    14    11    12    1
    15    11    15   ar
    16    12    13    2
    17    12    14    1
    18    16    17   ar
    19    16    21   ar
    20    17    18   ar
    21    18    19   ar
    22    19    20   ar
    23    20    21   ar
    24     3    22    1
    25     6    23    1
    26     6    24    1
    27     8    25    1
    28     9    26    1
    29    10    27    1
    30    15    28    1
    31    17    29    1
    32    18    30    1
    33    19    31    1
    34    20    32    1
@<TRIPOS>MOLECULE
../data/bude_mols_rdkit_confs/molecule_60.pdb
 32 34 0 0 0
SMALL
GASTEIGER

@<TRIPOS>ATOM
      1 O          -4.4880   -0.2550   -1.8160 O.2     1  UNL1       -0.2658
      2 C          -3.3970   -0.5670   -1.2960 C.ar    1  UNL1        0.2725
      3 N          -2.6550   -1.5440   -1.8030 N.ar    1  UNL1       -0.2425
      4 N          -1.4910   -1.9190   -1.2960 N.ar    1  UNL1       -0.1750
      5 C          -0.9500   -1.3170   -0.1880 C.ar    1  UNL1        0.0736
      6 C           0.3590   -1.7180    0.3210 C.3     1  UNL1        0.0173
      7 C           1.4960   -0.8970   -0.1220 C.ar    1  UNL1       -0.0351
      8 C           1.9200   -1.0360   -1.4550 C.ar    1  UNL1       -0.0578
      9 C           2.9870   -0.3290   -1.9640 C.ar    1  UNL1       -0.0551
     10 C           3.6820    0.5430   -1.1800 C.ar    1  UNL1        0.0156
     11 C           3.3010    0.7090    0.1300 C.ar    1  UNL1        0.2734
     12 N           4.0280    1.6200    0.9450 N.pl3   1  UNL1        0.0796
     13 O           3.6650    1.7530    2.1300 O.2     1  UNL1        0.0414
     14 O           5.0830    2.3180    0.4400 O.co2   1  UNL1       -0.5760
     15 C           2.2240   -0.0110    0.6230 C.ar    1  UNL1        0.0191
     16 C          -1.6860   -0.3030    0.3680 C.ar    1  UNL1        0.0106
     17 C          -1.2610    0.3700    1.4920 C.ar    1  UNL1       -0.0521
     18 C          -1.9880    1.4010    2.0940 C.ar    1  UNL1       -0.0611
     19 C          -3.1800    1.7500    1.5310 C.ar    1  UNL1       -0.0610
     20 C          -3.6410    1.0970    0.4040 C.ar    1  UNL1       -0.0487
     21 C          -2.9180    0.0830   -0.1810 C.ar    1  UNL1        0.0496
     22 H          -2.9888   -2.0158   -2.6001 H       1  UNL1        0.1921
     23 H           0.5390   -2.7250    0.0072 H       1  UNL1        0.0377
     24 H           0.3082   -1.5960    1.3828 H       1  UNL1        0.0377
     25 H           1.4148   -1.6899   -2.0732 H       1  UNL1        0.0620
     26 H           3.2632   -0.4609   -2.9496 H       1  UNL1        0.0620
     27 H           4.4817    1.0702   -1.5641 H       1  UNL1        0.0685
     28 H           1.9560    0.1298    1.6096 H       1  UNL1        0.0688
     29 H          -0.3582    0.0988    1.9119 H       1  UNL1        0.0624
     30 H          -1.6346    1.8818    2.9360 H       1  UNL1        0.0618
     31 H          -3.7419    2.5075    1.9498 H       1  UNL1        0.0618
     32 H          -4.5457    1.3754   -0.0072 H       1  UNL1        0.0625
@<TRIPOS>UNITY_ATOM_ATTR
12 1
charge 1
14 1
charge -1
@<TRIPOS>BOND
     1     1     2    2
     2     2     3   ar
     3     2    21   ar
     4     3     4   ar
     5     4     5   ar
     6     5     6    1
     7     5    16   ar
     8     6     7    1
     9     7     8   ar
    10     7    15   ar
    11     8     9   ar
    12     9    10   ar
    13    10    11   ar
    14    11    12    1
    15    11    15   ar
    16    12    13    2
    17    12    14    1
    18    16    17   ar
    19    16    21   ar
    20    17    18   ar
    21    18    19   ar
    22    19    20   ar
    23    20    21   ar
    24     3    22    1
    25     6    23    1
    26     6    24    1
    27     8    25    1
    28     9    26    1
    29    10    27    1
    30    15    28    1
    31    17    29    1
    32    18    30    1
    33    19    31    1
    34    20    32    1
@<TRIPOS>MOLECULE
../data/bude_mols_rdkit_confs/molecule_60.pdb
 32 34 0 0 0
SMALL
GASTEIGER

@<TRIPOS>ATOM
      1 O          -3.1510    3.1800    0.9630 O.2     1  UNL1       -0.2658
      2 C          -2.4110    2.2610    0.5080 C.ar    1  UNL1        0.2725
      3 N          -1.0790    2.4950    0.4360 N.ar    1  UNL1       -0.2425
      4 N          -0.2720    1.5600   -0.0330 N.ar    1  UNL1       -0.1750
      5 C          -0.6740    0.3480   -0.4600 C.ar    1  UNL1        0.0736
      6 C           0.2750   -0.6910   -0.9240 C.3     1  UNL1        0.0173
      7 C           1.5940   -0.6400   -0.2130 C.ar    1  UNL1       -0.0351
      8 C           1.7730   -0.9080    1.1200 C.ar    1  UNL1       -0.0578
      9 C           3.0410   -0.8860    1.7070 C.ar    1  UNL1       -0.0551
     10 C           4.1460   -0.5920    0.9450 C.ar    1  UNL1        0.0156
     11 C           3.9950   -0.3170   -0.4050 C.ar    1  UNL1        0.2734
     12 N           5.1260   -0.0270   -1.2120 N.pl3   1  UNL1        0.0796
     13 O           6.2830    0.0090   -0.7570 O.2     1  UNL1        0.0414
     14 O           4.9650    0.2280   -2.5480 O.co2   1  UNL1       -0.5760
     15 C           2.7410   -0.3430   -0.9590 C.ar    1  UNL1        0.0191
     16 C          -2.0480    0.0960   -0.3910 C.ar    1  UNL1        0.0106
     17 C          -2.5620   -1.0980   -0.8250 C.ar    1  UNL1       -0.0521
     18 C          -3.9440   -1.3230   -0.7680 C.ar    1  UNL1       -0.0611
     19 C          -4.7840   -0.3490   -0.2790 C.ar    1  UNL1       -0.0610
     20 C          -4.2860    0.8770    0.1690 C.ar    1  UNL1       -0.0487
     21 C          -2.9300    1.0540    0.0950 C.ar    1  UNL1        0.0496
     22 H          -0.7130    3.3596    0.7324 H       1  UNL1        0.1921
     23 H           0.4466   -0.5528   -1.9711 H       1  UNL1        0.0377
     24 H          -0.1652   -1.6432   -0.7134 H       1  UNL1        0.0377
     25 H           0.9516   -1.1313    1.7036 H       1  UNL1        0.0620
     26 H           3.1475   -1.0906    2.7129 H       1  UNL1        0.0620
     27 H           5.0837   -0.5760    1.3758 H       1  UNL1        0.0685
     28 H           2.6387   -0.1356   -1.9648 H       1  UNL1        0.0688
     29 H          -1.9333   -1.8291   -1.1926 H       1  UNL1        0.0624
     30 H          -4.3329   -2.2217   -1.0937 H       1  UNL1        0.0618
     31 H          -5.7998   -0.5273   -0.2425 H       1  UNL1        0.0618
     32 H          -4.9090    1.6127    0.5374 H       1  UNL1        0.0625
@<TRIPOS>UNITY_ATOM_ATTR
12 1
charge 1
14 1
charge -1
@<TRIPOS>BOND
     1     1     2    2
     2     2     3   ar
     3     2    21   ar
     4     3     4   ar
     5     4     5   ar
     6     5     6    1
     7     5    16   ar
     8     6     7    1
     9     7     8   ar
    10     7    15   ar
    11     8     9   ar
    12     9    10   ar
    13    10    11   ar
    14    11    12    1
    15    11    15   ar
    16    12    13    2
    17    12    14    1
    18    16    17   ar
    19    16    21   ar
    20    17    18   ar
    21    18    19   ar
    22    19    20   ar
    23    20    21   ar
    24     3    22    1
    25     6    23    1
    26     6    24    1
    27     8    25    1
    28     9    26    1
    29    10    27    1
    30    15    28    1
    31    17    29    1
    32    18    30    1
    33    19    31    1
    34    20    32    1
@<TRIPOS>MOLECULE
../data/bude_mols_rdkit_confs/molecule_60.pdb
 32 34 0 0 0
SMALL
GASTEIGER

@<TRIPOS>ATOM
      1 O          -3.2440   -3.0850    0.8920 O.2     1  UNL1       -0.2658
      2 C          -2.4790   -2.1650    0.4810 C.ar    1  UNL1        0.2725
      3 N          -1.1790   -2.4310    0.3500 N.ar    1  UNL1       -0.2425
      4 N          -0.3560   -1.5330   -0.0650 N.ar    1  UNL1       -0.1750
      5 C          -0.6780   -0.2840   -0.4000 C.ar    1  UNL1        0.0736
      6 C           0.2670    0.7140   -0.8860 C.3     1  UNL1        0.0173
      7 C           1.6620    0.6360   -0.4920 C.ar    1  UNL1       -0.0351
      8 C           2.3790    1.8500   -0.4600 C.ar    1  UNL1       -0.0578
      9 C           3.7020    1.9080   -0.1010 C.ar    1  UNL1       -0.0551
     10 C           4.3870    0.7820    0.2450 C.ar    1  UNL1        0.0156
     11 C           3.7320   -0.4160    0.2290 C.ar    1  UNL1        0.2734
     12 N           4.4120   -1.6160    0.5960 N.pl3   1  UNL1        0.0796
     13 O           5.6000   -1.5900    0.9490 O.2     1  UNL1        0.0414
     14 O           3.7560   -2.8190    0.5740 O.co2   1  UNL1       -0.5760
     15 C           2.3940   -0.4510   -0.1390 C.ar    1  UNL1        0.0191
     16 C          -2.0180    0.0500   -0.2840 C.ar    1  UNL1        0.0106
     17 C          -2.5100    1.2930   -0.6030 C.ar    1  UNL1       -0.0521
     18 C          -3.8550    1.5950   -0.4890 C.ar    1  UNL1       -0.0611
     19 C          -4.7270    0.6290   -0.0450 C.ar    1  UNL1       -0.0610
     20 C          -4.2900   -0.6330    0.2880 C.ar    1  UNL1       -0.0487
     21 C          -2.9270   -0.9040    0.1610 C.ar    1  UNL1        0.0496
     22 H          -0.8434   -3.3289    0.5744 H       1  UNL1        0.1921
     23 H          -0.0942    1.6674   -0.5612 H       1  UNL1        0.0377
     24 H           0.2959    0.5367   -1.9408 H       1  UNL1        0.0377
     25 H           1.8925    2.7237   -0.7150 H       1  UNL1        0.0620
     26 H           4.1862    2.8193   -0.0929 H       1  UNL1        0.0620
     27 H           5.3820    0.8337    0.5140 H       1  UNL1        0.0685
     28 H           1.9223   -1.3689   -0.1446 H       1  UNL1        0.0688
     29 H          -1.8585    2.0205   -0.9365 H       1  UNL1        0.0624
     30 H          -4.2006    2.5359   -0.7347 H       1  UNL1        0.0618
     31 H          -5.7303    0.8550    0.0404 H       1  UNL1        0.0618
     32 H          -4.9484   -1.3548    0.6205 H       1  UNL1        0.0625
@<TRIPOS>UNITY_ATOM_ATTR
12 1
charge 1
14 1
charge -1
@<TRIPOS>BOND
     1     1     2    2
     2     2     3   ar
     3     2    21   ar
     4     3     4   ar
     5     4     5   ar
     6     5     6    1
     7     5    16   ar
     8     6     7    1
     9     7     8   ar
    10     7    15   ar
    11     8     9   ar
    12     9    10   ar
    13    10    11   ar
    14    11    12    1
    15    11    15   ar
    16    12    13    2
    17    12    14    1
    18    16    17   ar
    19    16    21   ar
    20    17    18   ar
    21    18    19   ar
    22    19    20   ar
    23    20    21   ar
    24     3    22    1
    25     6    23    1
    26     6    24    1
    27     8    25    1
    28     9    26    1
    29    10    27    1
    30    15    28    1
    31    17    29    1
    32    18    30    1
    33    19    31    1
    34    20    32    1
@<TRIPOS>MOLECULE
../data/bude_mols_rdkit_confs/molecule_60.pdb
 32 34 0 0 0
SMALL
GASTEIGER

@<TRIPOS>ATOM
      1 O          -3.6010    2.5850    0.6350 O.2     1  UNL1       -0.2658
      2 C          -2.6940    1.7710    0.8480 C.ar    1  UNL1        0.2725
      3 N          -1.6880    2.0500    1.6930 N.ar    1  UNL1       -0.2425
      4 N          -0.7270    1.1780    1.9120 N.ar    1  UNL1       -0.1750
      5 C          -0.7420   -0.0360    1.2720 C.ar    1  UNL1        0.0736
      6 C           0.4370   -0.8900    1.5130 C.3     1  UNL1        0.0173
      7 C           1.5150   -0.6080    0.4950 C.ar    1  UNL1       -0.0351
      8 C           1.7060   -1.2910   -0.6680 C.ar    1  UNL1       -0.0578
      9 C           2.7100   -0.9840   -1.5830 C.ar    1  UNL1       -0.0551
     10 C           3.5570    0.0470   -1.3240 C.ar    1  UNL1        0.0156
     11 C           3.4010    0.7650   -0.1590 C.ar    1  UNL1        0.2734
     12 N           4.2760    1.8630    0.1590 N.pl3   1  UNL1        0.0796
     13 O           5.1700    2.1430   -0.6510 O.2     1  UNL1        0.0414
     14 O           4.1150    2.5640    1.3130 O.co2   1  UNL1       -0.5760
     15 C           2.3980    0.4420    0.7320 C.ar    1  UNL1        0.0191
     16 C          -1.7300   -0.3750    0.4130 C.ar    1  UNL1        0.0106
     17 C          -1.7920   -1.5840   -0.2240 C.ar    1  UNL1       -0.0521
     18 C          -2.8190   -1.9120   -1.0830 C.ar    1  UNL1       -0.0611
     19 C          -3.8320   -1.0040   -1.3230 C.ar    1  UNL1       -0.0610
     20 C          -3.7740    0.2180   -0.6790 C.ar    1  UNL1       -0.0487
     21 C          -2.7440    0.5550    0.1870 C.ar    1  UNL1        0.0496
     22 H          -1.6693    2.9191    2.1551 H       1  UNL1        0.1921
     23 H           0.1471   -1.9176    1.4425 H       1  UNL1        0.0377
     24 H           0.8212   -0.6796    2.4892 H       1  UNL1        0.0377
     25 H           1.0732   -2.0776   -0.8824 H       1  UNL1        0.0620
     26 H           2.8100   -1.5345   -2.4502 H       1  UNL1        0.0620
     27 H           4.3066    0.2885   -1.9910 H       1  UNL1        0.0685
     28 H           2.2997    0.9942    1.5983 H       1  UNL1        0.0688
     29 H          -1.0438   -2.2746   -0.0556 H       1  UNL1        0.0624
     30 H          -2.8311   -2.8342   -1.5460 H       1  UNL1        0.0618
     31 H          -4.6086   -1.2310   -1.9636 H       1  UNL1        0.0618
     32 H          -4.5250    0.9051   -0.8489 H       1  UNL1        0.0625
@<TRIPOS>UNITY_ATOM_ATTR
12 1
charge 1
14 1
charge -1
@<TRIPOS>BOND
     1     1     2    2
     2     2     3   ar
     3     2    21   ar
     4     3     4   ar
     5     4     5   ar
     6     5     6    1
     7     5    16   ar
     8     6     7    1
     9     7     8   ar
    10     7    15   ar
    11     8     9   ar
    12     9    10   ar
    13    10    11   ar
    14    11    12    1
    15    11    15   ar
    16    12    13    2
    17    12    14    1
    18    16    17   ar
    19    16    21   ar
    20    17    18   ar
    21    18    19   ar
    22    19    20   ar
    23    20    21   ar
    24     3    22    1
    25     6    23    1
    26     6    24    1
    27     8    25    1
    28     9    26    1
    29    10    27    1
    30    15    28    1
    31    17    29    1
    32    18    30    1
    33    19    31    1
    34    20    32    1
@<TRIPOS>MOLECULE
../data/bude_mols_rdkit_confs/molecule_60.pdb
 32 34 0 0 0
SMALL
GASTEIGER

@<TRIPOS>ATOM
      1 O          -2.9000    2.9820    1.0680 O.2     1  UNL1       -0.2658
      2 C          -2.2130    1.9890    0.7380 C.ar    1  UNL1        0.2725
      3 N          -0.8850    2.1120    0.6980 N.ar    1  UNL1       -0.2425
      4 N          -0.1450    1.0750    0.3530 N.ar    1  UNL1       -0.1750
      5 C          -0.6300   -0.1370    0.0270 C.ar    1  UNL1        0.0736
      6 C           0.2730   -1.2770   -0.3420 C.3     1  UNL1        0.0173
      7 C           1.6160   -0.6800   -0.5380 C.ar    1  UNL1       -0.0351
      8 C           1.9590   -0.2620   -1.8080 C.ar    1  UNL1       -0.0578
      9 C           3.1670    0.3060   -2.1090 C.ar    1  UNL1       -0.0551
     10 C           4.0850    0.4710   -1.0960 C.ar    1  UNL1        0.0156
     11 C           3.7870    0.0690    0.1880 C.ar    1  UNL1        0.2734
     12 N           4.7130    0.2350    1.2450 N.pl3   1  UNL1        0.0796
     13 O           5.8200    0.7500    0.9870 O.2     1  UNL1        0.0414
     14 O           4.3830   -0.1690    2.5170 O.co2   1  UNL1       -0.5760
     15 C           2.5430   -0.5090    0.4580 C.ar    1  UNL1        0.0191
     16 C          -1.9990   -0.2780    0.0630 C.ar    1  UNL1        0.0106
     17 C          -2.6020   -1.4720   -0.2560 C.ar    1  UNL1       -0.0521
     18 C          -3.9740   -1.6330   -0.2300 C.ar    1  UNL1       -0.0611
     19 C          -4.7680   -0.5640    0.1280 C.ar    1  UNL1       -0.0610
     20 C          -4.1930    0.6330    0.4500 C.ar    1  UNL1       -0.0487
     21 C          -2.8160    0.7750    0.4170 C.ar    1  UNL1        0.0496
     22 H          -0.4599    2.9707    0.9243 H       1  UNL1        0.1921
     23 H          -0.0636   -1.7420   -1.2450 H       1  UNL1        0.0377
     24 H           0.2841   -2.0324    0.4158 H       1  UNL1        0.0377
     25 H           1.2709   -0.3838   -2.5675 H       1  UNL1        0.0620
     26 H           3.3850    0.6038   -3.0728 H       1  UNL1        0.0620
     27 H           5.0020    0.8984   -1.2996 H       1  UNL1        0.0685
     28 H           2.3194   -0.8109    1.4192 H       1  UNL1        0.0688
     29 H          -2.0104   -2.2741   -0.5236 H       1  UNL1        0.0624
     30 H          -4.3988   -2.5410   -0.4752 H       1  UNL1        0.0618
     31 H          -5.7945   -0.6678    0.1527 H       1  UNL1        0.0618
     32 H          -4.7866    1.4334    0.7185 H       1  UNL1        0.0625
@<TRIPOS>UNITY_ATOM_ATTR
12 1
charge 1
14 1
charge -1
@<TRIPOS>BOND
     1     1     2    2
     2     2     3   ar
     3     2    21   ar
     4     3     4   ar
     5     4     5   ar
     6     5     6    1
     7     5    16   ar
     8     6     7    1
     9     7     8   ar
    10     7    15   ar
    11     8     9   ar
    12     9    10   ar
    13    10    11   ar
    14    11    12    1
    15    11    15   ar
    16    12    13    2
    17    12    14    1
    18    16    17   ar
    19    16    21   ar
    20    17    18   ar
    21    18    19   ar
    22    19    20   ar
    23    20    21   ar
    24     3    22    1
    25     6    23    1
    26     6    24    1
    27     8    25    1
    28     9    26    1
    29    10    27    1
    30    15    28    1
    31    17    29    1
    32    18    30    1
    33    19    31    1
    34    20    32    1
@<TRIPOS>MOLECULE
../data/bude_mols_rdkit_confs/molecule_60.pdb
 32 34 0 0 0
SMALL
GASTEIGER

@<TRIPOS>ATOM
      1 O          -3.1730   -2.7350    1.9480 O.2     1  UNL1       -0.2658
      2 C          -2.4090   -2.1880    1.1390 C.ar    1  UNL1        0.2725
      3 N          -1.3090   -2.8220    0.6910 N.ar    1  UNL1       -0.2425
      4 N          -0.4850   -2.2770   -0.1580 N.ar    1  UNL1       -0.1750
      5 C          -0.6310   -1.0250   -0.6870 C.ar    1  UNL1        0.0736
      6 C           0.3890   -0.4730   -1.5800 C.3     1  UNL1        0.0173
      7 C           1.4290    0.3420   -0.8980 C.ar    1  UNL1       -0.0351
      8 C           1.4910    1.7040   -0.8360 C.ar    1  UNL1       -0.0578
      9 C           2.5270    2.3350   -0.1370 C.ar    1  UNL1       -0.0551
     10 C           3.4790    1.5700    0.4840 C.ar    1  UNL1        0.0156
     11 C           3.4530    0.1910    0.4450 C.ar    1  UNL1        0.2734
     12 N           4.4590   -0.6060    1.0980 N.pl3   1  UNL1        0.0796
     13 O           4.4180   -1.8460    1.0460 O.2     1  UNL1        0.0414
     14 O           5.4870   -0.0420    1.7940 O.co2   1  UNL1       -0.5760
     15 C           2.4280   -0.4010   -0.2460 C.ar    1  UNL1        0.0191
     16 C          -1.7360   -0.3290   -0.2700 C.ar    1  UNL1        0.0106
     17 C          -2.0230    0.9430   -0.7420 C.ar    1  UNL1       -0.0521
     18 C          -3.1410    1.6330   -0.3340 C.ar    1  UNL1       -0.0611
     19 C          -3.9880    1.0120    0.5750 C.ar    1  UNL1       -0.0610
     20 C          -3.7380   -0.2480    1.0610 C.ar    1  UNL1       -0.0487
     21 C          -2.6020   -0.8990    0.6220 C.ar    1  UNL1        0.0496
     22 H          -1.1204   -3.7315    1.0173 H       1  UNL1        0.1921
     23 H          -0.0995    0.1458   -2.3034 H       1  UNL1        0.0377
     24 H           0.8949   -1.3081   -2.0176 H       1  UNL1        0.0377
     25 H           0.7698    2.2722   -1.3072 H       1  UNL1        0.0620
     26 H           2.5731    3.3649   -0.0900 H       1  UNL1        0.0620
     27 H           4.2404    2.0406    0.9977 H       1  UNL1        0.0685
     28 H           2.3883   -1.4313   -0.2892 H       1  UNL1        0.0688
     29 H          -1.3801    1.3842   -1.4180 H       1  UNL1        0.0624
     30 H          -3.3435    2.5798   -0.6912 H       1  UNL1        0.0618
     31 H          -4.8315    1.5130    0.8952 H       1  UNL1        0.0618
     32 H          -4.3800   -0.6949    1.7342 H       1  UNL1        0.0625
@<TRIPOS>UNITY_ATOM_ATTR
12 1
charge 1
14 1
charge -1
@<TRIPOS>BOND
     1     1     2    2
     2     2     3   ar
     3     2    21   ar
     4     3     4   ar
     5     4     5   ar
     6     5     6    1
     7     5    16   ar
     8     6     7    1
     9     7     8   ar
    10     7    15   ar
    11     8     9   ar
    12     9    10   ar
    13    10    11   ar
    14    11    12    1
    15    11    15   ar
    16    12    13    2
    17    12    14    1
    18    16    17   ar
    19    16    21   ar
    20    17    18   ar
    21    18    19   ar
    22    19    20   ar
    23    20    21   ar
    24     3    22    1
    25     6    23    1
    26     6    24    1
    27     8    25    1
    28     9    26    1
    29    10    27    1
    30    15    28    1
    31    17    29    1
    32    18    30    1
    33    19    31    1
    34    20    32    1
@<TRIPOS>MOLECULE
../data/bude_mols_rdkit_confs/molecule_60.pdb
 32 34 0 0 0
SMALL
GASTEIGER

@<TRIPOS>ATOM
      1 O          -3.6470    2.2730    1.5030 O.2     1  UNL1       -0.2658
      2 C          -2.7100    1.5920    1.0010 C.ar    1  UNL1        0.2725
      3 N          -1.4720    2.0620    0.8290 N.ar    1  UNL1       -0.2425
      4 N          -0.5030    1.3330    0.3010 N.ar    1  UNL1       -0.1750
      5 C          -0.6930    0.0810   -0.0950 C.ar    1  UNL1        0.0736
      6 C           0.3460   -0.7900   -0.6930 C.3     1  UNL1        0.0173
      7 C           1.6460   -0.1560   -0.8230 C.ar    1  UNL1       -0.0351
      8 C           2.0070    0.5430   -1.9520 C.ar    1  UNL1       -0.0578
      9 C           3.2660    1.1430   -2.0520 C.ar    1  UNL1       -0.0551
     10 C           4.1500    1.0400   -1.0250 C.ar    1  UNL1        0.0156
     11 C           3.8210    0.3540    0.1050 C.ar    1  UNL1        0.2734
     12 N           4.7590    0.2570    1.1660 N.pl3   1  UNL1        0.0796
     13 O           5.8640    0.8040    1.0370 O.2     1  UNL1        0.0414
     14 O           4.4480   -0.4290    2.3110 O.co2   1  UNL1       -0.5760
     15 C           2.5590   -0.2460    0.2000 C.ar    1  UNL1        0.0191
     16 C          -1.9550   -0.4560    0.0600 C.ar    1  UNL1        0.0106
     17 C          -2.2660   -1.7460   -0.3170 C.ar    1  UNL1       -0.0521
     18 C          -3.5280   -2.2800   -0.1610 C.ar    1  UNL1       -0.0611
     19 C          -4.5470   -1.5240    0.3910 C.ar    1  UNL1       -0.0610
     20 C          -4.2570   -0.2320    0.7740 C.ar    1  UNL1       -0.0487
     21 C          -2.9940    0.2980    0.6160 C.ar    1  UNL1        0.0496
     22 H          -1.2731    2.9857    1.1056 H       1  UNL1        0.1921
     23 H           0.0171   -1.0857   -1.6673 H       1  UNL1        0.0377
     24 H           0.4719   -1.6208   -0.0305 H       1  UNL1        0.0377
     25 H           1.3399    0.6255   -2.7350 H       1  UNL1        0.0620
     26 H           3.5237    1.6636   -2.9050 H       1  UNL1        0.0620
     27 H           5.0779    1.4850   -1.1018 H       1  UNL1        0.0685
     28 H           2.3097   -0.7663    1.0557 H       1  UNL1        0.0688
     29 H          -1.5261   -2.3339   -0.7316 H       1  UNL1        0.0624
     30 H          -3.7137   -3.2507   -0.4582 H       1  UNL1        0.0618
     31 H          -5.4943   -1.9151    0.5121 H       1  UNL1        0.0618
     32 H          -5.0012    0.3511    1.1879 H       1  UNL1        0.0625
@<TRIPOS>UNITY_ATOM_ATTR
12 1
charge 1
14 1
charge -1
@<TRIPOS>BOND
     1     1     2    2
     2     2     3   ar
     3     2    21   ar
     4     3     4   ar
     5     4     5   ar
     6     5     6    1
     7     5    16   ar
     8     6     7    1
     9     7     8   ar
    10     7    15   ar
    11     8     9   ar
    12     9    10   ar
    13    10    11   ar
    14    11    12    1
    15    11    15   ar
    16    12    13    2
    17    12    14    1
    18    16    17   ar
    19    16    21   ar
    20    17    18   ar
    21    18    19   ar
    22    19    20   ar
    23    20    21   ar
    24     3    22    1
    25     6    23    1
    26     6    24    1
    27     8    25    1
    28     9    26    1
    29    10    27    1
    30    15    28    1
    31    17    29    1
    32    18    30    1
    33    19    31    1
    34    20    32    1
@<TRIPOS>MOLECULE
../data/bude_mols_rdkit_confs/molecule_60.pdb
 32 34 0 0 0
SMALL
GASTEIGER

@<TRIPOS>ATOM
      1 O          -3.7390   -2.0550   -1.8160 O.2     1  UNL1       -0.2658
      2 C          -2.8380   -1.6730   -1.0060 C.ar    1  UNL1        0.2725
      3 N          -1.9040   -2.5310   -0.5880 N.ar    1  UNL1       -0.2425
      4 N          -0.9300   -2.1910    0.2610 N.ar    1  UNL1       -0.1750
      5 C          -0.8220   -0.9230    0.7670 C.ar    1  UNL1        0.0736
      6 C           0.3060   -0.6120    1.6710 C.3     1  UNL1        0.0173
      7 C           1.4810   -0.0150    1.0660 C.ar    1  UNL1       -0.0351
      8 C           1.8350    1.2880    1.1960 C.ar    1  UNL1       -0.0578
      9 C           2.9750    1.7720    0.5770 C.ar    1  UNL1       -0.0551
     10 C           3.7600    0.9310   -0.1770 C.ar    1  UNL1        0.0156
     11 C           3.4340   -0.4170   -0.3370 C.ar    1  UNL1        0.2734
     12 N           4.2450   -1.2830   -1.1170 N.pl3   1  UNL1        0.0796
     13 O           3.9250   -2.4720   -1.2430 O.2     1  UNL1        0.0414
     14 O           5.3750   -0.8320   -1.7370 O.co2   1  UNL1       -0.5760
     15 C           2.2920   -0.8450    0.2990 C.ar    1  UNL1        0.0191
     16 C          -1.7700   -0.0270    0.3540 C.ar    1  UNL1        0.0106
     17 C          -1.7490    1.2490    0.8230 C.ar    1  UNL1       -0.0521
     18 C          -2.7270    2.1510    0.4110 C.ar    1  UNL1       -0.0611
     19 C          -3.7250    1.7890   -0.4680 C.ar    1  UNL1       -0.0610
     20 C          -3.7570    0.5000   -0.9490 C.ar    1  UNL1       -0.0487
     21 C          -2.7880   -0.3830   -0.5350 C.ar    1  UNL1        0.0496
     22 H          -1.9345   -3.4570   -0.9209 H       1  UNL1        0.1921
     23 H           0.6101   -1.5264    2.1362 H       1  UNL1        0.0377
     24 H          -0.0702    0.1292    2.3448 H       1  UNL1        0.0377
     25 H           1.2500    1.9235    1.7607 H       1  UNL1        0.0620
     26 H           3.2361    2.7650    0.6815 H       1  UNL1        0.0620
     27 H           4.6070    1.3040   -0.6336 H       1  UNL1        0.0685
     28 H           2.0220   -1.8363    0.2018 H       1  UNL1        0.0688
     29 H          -1.0121    1.5477    1.4809 H       1  UNL1        0.0624
     30 H          -2.7038    3.1168    0.7738 H       1  UNL1        0.0618
     31 H          -4.4382    2.4749   -0.7613 H       1  UNL1        0.0618
     32 H          -4.4938    0.2021   -1.6074 H       1  UNL1        0.0625
@<TRIPOS>UNITY_ATOM_ATTR
12 1
charge 1
14 1
charge -1
@<TRIPOS>BOND
     1     1     2    2
     2     2     3   ar
     3     2    21   ar
     4     3     4   ar
     5     4     5   ar
     6     5     6    1
     7     5    16   ar
     8     6     7    1
     9     7     8   ar
    10     7    15   ar
    11     8     9   ar
    12     9    10   ar
    13    10    11   ar
    14    11    12    1
    15    11    15   ar
    16    12    13    2
    17    12    14    1
    18    16    17   ar
    19    16    21   ar
    20    17    18   ar
    21    18    19   ar
    22    19    20   ar
    23    20    21   ar
    24     3    22    1
    25     6    23    1
    26     6    24    1
    27     8    25    1
    28     9    26    1
    29    10    27    1
    30    15    28    1
    31    17    29    1
    32    18    30    1
    33    19    31    1
    34    20    32    1
@<TRIPOS>MOLECULE
../data/bude_mols_rdkit_confs/molecule_60.pdb
 32 34 0 0 0
SMALL
GASTEIGER

@<TRIPOS>ATOM
      1 O          -3.5850    2.8850    0.1440 O.2     1  UNL1       -0.2658
      2 C          -2.6410    2.1750   -0.3020 C.ar    1  UNL1        0.2725
      3 N          -1.6130    2.6600   -0.9820 N.ar    1  UNL1       -0.2425
      4 N          -0.6570    1.9020   -1.4260 N.ar    1  UNL1       -0.1750
      5 C          -0.6470    0.5760   -1.2230 C.ar    1  UNL1        0.0736
      6 C           0.5070   -0.2040   -1.7230 C.3     1  UNL1        0.0173
      7 C           1.5500   -0.4690   -0.7110 C.ar    1  UNL1       -0.0351
      8 C           1.8060   -1.7270   -0.2650 C.ar    1  UNL1       -0.0578
      9 C           2.7760   -2.0230    0.7020 C.ar    1  UNL1       -0.0551
     10 C           3.4920   -0.9850    1.2100 C.ar    1  UNL1        0.0156
     11 C           3.2680    0.3170    0.7860 C.ar    1  UNL1        0.2734
     12 N           4.0390    1.3630    1.3460 N.pl3   1  UNL1        0.0796
     13 O           4.9030    1.1320    2.2050 O.2     1  UNL1        0.0414
     14 O           3.8460    2.6610    0.9510 O.co2   1  UNL1       -0.5760
     15 C           2.3080    0.5580   -0.1620 C.ar    1  UNL1        0.0191
     16 C          -1.6770    0.0030   -0.5300 C.ar    1  UNL1        0.0106
     17 C          -1.7230   -1.3570   -0.3070 C.ar    1  UNL1       -0.0521
     18 C          -2.7970   -1.8670    0.3920 C.ar    1  UNL1       -0.0611
     19 C          -3.8120   -1.0630    0.8650 C.ar    1  UNL1       -0.0610
     20 C          -3.7590    0.3030    0.6350 C.ar    1  UNL1       -0.0487
     21 C          -2.7030    0.8360   -0.0570 C.ar    1  UNL1        0.0496
     22 H          -1.5725    3.6280   -1.1567 H       1  UNL1        0.1921
     23 H           0.9537    0.3392   -2.5294 H       1  UNL1        0.0377
     24 H           0.1240   -1.1570   -2.0230 H       1  UNL1        0.0377
     25 H           1.2564   -2.5062   -0.6597 H       1  UNL1        0.0620
     26 H           2.9406   -2.9920    1.0165 H       1  UNL1        0.0620
     27 H           4.2147   -1.1686    1.9234 H       1  UNL1        0.0685
     28 H           2.1439    1.5272   -0.4762 H       1  UNL1        0.0688
     29 H          -0.9740   -1.9765   -0.6538 H       1  UNL1        0.0624
     30 H          -2.8422   -2.8831    0.5665 H       1  UNL1        0.0618
     31 H          -4.6031   -1.4738    1.3850 H       1  UNL1        0.0618
     32 H          -4.5121    0.9164    0.9837 H       1  UNL1        0.0625
@<TRIPOS>UNITY_ATOM_ATTR
12 1
charge 1
14 1
charge -1
@<TRIPOS>BOND
     1     1     2    2
     2     2     3   ar
     3     2    21   ar
     4     3     4   ar
     5     4     5   ar
     6     5     6    1
     7     5    16   ar
     8     6     7    1
     9     7     8   ar
    10     7    15   ar
    11     8     9   ar
    12     9    10   ar
    13    10    11   ar
    14    11    12    1
    15    11    15   ar
    16    12    13    2
    17    12    14    1
    18    16    17   ar
    19    16    21   ar
    20    17    18   ar
    21    18    19   ar
    22    19    20   ar
    23    20    21   ar
    24     3    22    1
    25     6    23    1
    26     6    24    1
    27     8    25    1
    28     9    26    1
    29    10    27    1
    30    15    28    1
    31    17    29    1
    32    18    30    1
    33    19    31    1
    34    20    32    1
@<TRIPOS>MOLECULE
../data/bude_mols_rdkit_confs/molecule_60.pdb
 32 34 0 0 0
SMALL
GASTEIGER

@<TRIPOS>ATOM
      1 O          -3.5820    0.3030    2.9770 O.2     1  UNL1       -0.2658
      2 C          -2.6500    0.1600    2.1400 C.ar    1  UNL1        0.2725
      3 N          -1.3510    0.0990    2.4850 N.ar    1  UNL1       -0.2425
      4 N          -0.3880   -0.0540    1.5660 N.ar    1  UNL1       -0.1750
      5 C          -0.6580   -0.1540    0.2700 C.ar    1  UNL1        0.0736
      6 C           0.3500   -0.3230   -0.7970 C.3     1  UNL1        0.0173
      7 C           1.7260   -0.3740   -0.2820 C.ar    1  UNL1       -0.0351
      8 C           2.2750   -1.5780    0.0640 C.ar    1  UNL1       -0.0578
      9 C           3.5860   -1.6030    0.5520 C.ar    1  UNL1       -0.0551
     10 C           4.3010   -0.4430    0.6790 C.ar    1  UNL1        0.0156
     11 C           3.7370    0.7750    0.3270 C.ar    1  UNL1        0.2734
     12 N           4.4750    1.9790    0.4580 N.pl3   1  UNL1        0.0796
     13 O           5.6440    1.9810    0.8900 O.2     1  UNL1        0.0414
     14 O           3.8670    3.1510    0.0940 O.co2   1  UNL1       -0.5760
     15 C           2.4530    0.7740   -0.1480 C.ar    1  UNL1        0.0191
     16 C          -1.9840   -0.0940   -0.1160 C.ar    1  UNL1        0.0106
     17 C          -2.3320   -0.1920   -1.4520 C.ar    1  UNL1       -0.0521
     18 C          -3.6630   -0.1350   -1.8710 C.ar    1  UNL1       -0.0611
     19 C          -4.6580    0.0230   -0.9280 C.ar    1  UNL1       -0.0610
     20 C          -4.3360    0.1220    0.4110 C.ar    1  UNL1       -0.0487
     21 C          -3.0110    0.0630    0.7940 C.ar    1  UNL1        0.0496
     22 H          -1.1022    0.1684    3.4350 H       1  UNL1        0.1921
     23 H           0.2699    0.5003   -1.4757 H       1  UNL1        0.0377
     24 H           0.1531   -1.2576   -1.2793 H       1  UNL1        0.0377
     25 H           1.7329   -2.4508   -0.0330 H       1  UNL1        0.0620
     26 H           4.0168   -2.5023    0.8180 H       1  UNL1        0.0620
     27 H           5.2675   -0.4744    1.0395 H       1  UNL1        0.0685
     28 H           2.0196    1.6720   -0.4140 H       1  UNL1        0.0688
     29 H          -1.5881   -0.3104   -2.1574 H       1  UNL1        0.0624
     30 H          -3.8993   -0.2101   -2.8728 H       1  UNL1        0.0618
     31 H          -5.6455    0.0673   -1.2244 H       1  UNL1        0.0618
     32 H          -5.0783    0.2389    1.1183 H       1  UNL1        0.0625
@<TRIPOS>UNITY_ATOM_ATTR
12 1
charge 1
14 1
charge -1
@<TRIPOS>BOND
     1     1     2    2
     2     2     3   ar
     3     2    21   ar
     4     3     4   ar
     5     4     5   ar
     6     5     6    1
     7     5    16   ar
     8     6     7    1
     9     7     8   ar
    10     7    15   ar
    11     8     9   ar
    12     9    10   ar
    13    10    11   ar
    14    11    12    1
    15    11    15   ar
    16    12    13    2
    17    12    14    1
    18    16    17   ar
    19    16    21   ar
    20    17    18   ar
    21    18    19   ar
    22    19    20   ar
    23    20    21   ar
    24     3    22    1
    25     6    23    1
    26     6    24    1
    27     8    25    1
    28     9    26    1
    29    10    27    1
    30    15    28    1
    31    17    29    1
    32    18    30    1
    33    19    31    1
    34    20    32    1
@<TRIPOS>MOLECULE
../data/bude_mols_rdkit_confs/molecule_60.pdb
 32 34 0 0 0
SMALL
GASTEIGER

@<TRIPOS>ATOM
      1 O           3.9990   -0.4390   -2.7450 O.2     1  UNL1       -0.2658
      2 C           3.0080   -0.6510   -2.0030 C.ar    1  UNL1        0.2725
      3 N           1.9710   -1.4260   -2.4270 N.ar    1  UNL1       -0.2425
      4 N           0.9810   -1.6030   -1.6160 N.ar    1  UNL1       -0.1750
      5 C           0.8450   -1.1010   -0.3680 C.ar    1  UNL1        0.0736
      6 C          -0.3610   -1.3490    0.4140 C.3     1  UNL1        0.0173
      7 C          -1.4550   -0.3640    0.2840 C.ar    1  UNL1       -0.0351
      8 C          -1.3130    1.0010    0.2480 C.ar    1  UNL1       -0.0578
      9 C          -2.4160    1.8610    0.1610 C.ar    1  UNL1       -0.0551
     10 C          -3.6820    1.3720    0.1060 C.ar    1  UNL1        0.0156
     11 C          -3.8790   -0.0130    0.1380 C.ar    1  UNL1        0.2734
     12 N          -5.1990   -0.5450    0.0870 N.pl3   1  UNL1        0.0796
     13 O          -5.3460   -1.7690    0.1280 O.2     1  UNL1        0.0414
     14 O          -6.2810    0.2770   -0.0010 O.co2   1  UNL1       -0.5760
     15 C          -2.7890   -0.8060    0.2230 C.ar    1  UNL1        0.0191
     16 C           1.8950   -0.3100    0.0760 C.ar    1  UNL1        0.0106
     17 C           1.8310    0.2180    1.3520 C.ar    1  UNL1       -0.0521
     18 C           2.8570    0.9930    1.8460 C.ar    1  UNL1       -0.0611
     19 C           3.9530    1.2250    1.0220 C.ar    1  UNL1       -0.0610
     20 C           4.0010    0.6880   -0.2510 C.ar    1  UNL1       -0.0487
     21 C           2.9690   -0.0930   -0.7510 C.ar    1  UNL1        0.0496
     22 H           1.9758   -1.8374   -3.3214 H       1  UNL1        0.1921
     23 H          -0.0768   -1.3826    1.4450 H       1  UNL1        0.0377
     24 H          -0.7610   -2.2635    0.0284 H       1  UNL1        0.0377
     25 H          -0.3647    1.4063    0.2862 H       1  UNL1        0.0620
     26 H          -2.2641    2.8815    0.1384 H       1  UNL1        0.0620
     27 H          -4.4879    2.0134    0.0415 H       1  UNL1        0.0685
     28 H          -2.9488   -1.8253    0.2451 H       1  UNL1        0.0688
     29 H           1.0050    0.0293    1.9412 H       1  UNL1        0.0624
     30 H           2.8137    1.3891    2.7980 H       1  UNL1        0.0618
     31 H           4.7369    1.8028    1.3636 H       1  UNL1        0.0618
     32 H           4.8250    0.8727   -0.8442 H       1  UNL1        0.0625
@<TRIPOS>UNITY_ATOM_ATTR
12 1
charge 1
14 1
charge -1
@<TRIPOS>BOND
     1     1     2    2
     2     2     3   ar
     3     2    21   ar
     4     3     4   ar
     5     4     5   ar
     6     5     6    1
     7     5    16   ar
     8     6     7    1
     9     7     8   ar
    10     7    15   ar
    11     8     9   ar
    12     9    10   ar
    13    10    11   ar
    14    11    12    1
    15    11    15   ar
    16    12    13    2
    17    12    14    1
    18    16    17   ar
    19    16    21   ar
    20    17    18   ar
    21    18    19   ar
    22    19    20   ar
    23    20    21   ar
    24     3    22    1
    25     6    23    1
    26     6    24    1
    27     8    25    1
    28     9    26    1
    29    10    27    1
    30    15    28    1
    31    17    29    1
    32    18    30    1
    33    19    31    1
    34    20    32    1
@<TRIPOS>MOLECULE
../data/bude_mols_rdkit_confs/molecule_60.pdb
 32 34 0 0 0
SMALL
GASTEIGER

@<TRIPOS>ATOM
      1 O          -4.1990    2.2790   -0.1910 O.2     1  UNL1       -0.2658
      2 C          -3.1580    1.6480   -0.5180 C.ar    1  UNL1        0.2725
      3 N          -2.3380    2.0570   -1.4910 N.ar    1  UNL1       -0.2425
      4 N          -1.2480    1.4290   -1.8580 N.ar    1  UNL1       -0.1750
      5 C          -0.8930    0.2930   -1.2420 C.ar    1  UNL1        0.0736
      6 C           0.3670   -0.3360   -1.6680 C.3     1  UNL1        0.0173
      7 C           1.5110    0.0280   -0.8090 C.ar    1  UNL1       -0.0351
      8 C           2.0180    1.3270   -0.8410 C.ar    1  UNL1       -0.0578
      9 C           3.1030    1.6770   -0.0730 C.ar    1  UNL1       -0.0551
     10 C           3.7390    0.7630    0.7650 C.ar    1  UNL1        0.0156
     11 C           3.2400   -0.5210    0.7980 C.ar    1  UNL1        0.2734
     12 N           3.8190   -1.5210    1.6200 N.pl3   1  UNL1        0.0796
     13 O           4.7990   -1.2250    2.3170 O.2     1  UNL1        0.0414
     14 O           3.3340   -2.7960    1.6700 O.co2   1  UNL1       -0.5760
     15 C           2.1290   -0.8670    0.0060 C.ar    1  UNL1        0.0191
     16 C          -1.6720   -0.1980   -0.2380 C.ar    1  UNL1        0.0106
     17 C          -1.3770   -1.3680    0.4280 C.ar    1  UNL1       -0.0521
     18 C          -2.1960   -1.8240    1.4180 C.ar    1  UNL1       -0.0611
     19 C          -3.3290   -1.1650    1.7970 C.ar    1  UNL1       -0.0610
     20 C          -3.6320    0.0020    1.1370 C.ar    1  UNL1       -0.0487
     21 C          -2.8090    0.4740    0.1320 C.ar    1  UNL1        0.0496
     22 H          -2.5691    2.8883   -1.9652 H       1  UNL1        0.1921
     23 H           0.5808   -0.0273   -2.6699 H       1  UNL1        0.0377
     24 H           0.2367   -1.3956   -1.5965 H       1  UNL1        0.0377
     25 H           1.5735    2.0333   -1.4481 H       1  UNL1        0.0620
     26 H           3.4571    2.6453   -0.1183 H       1  UNL1        0.0620
     27 H           4.5520    1.0371    1.3385 H       1  UNL1        0.0685
     28 H           1.7712   -1.8342    0.0456 H       1  UNL1        0.0688
     29 H          -0.5309   -1.9023    0.1757 H       1  UNL1        0.0624
     30 H          -1.9491   -2.7026    1.8999 H       1  UNL1        0.0618
     31 H          -3.9346   -1.5284    2.5495 H       1  UNL1        0.0618
     32 H          -4.4807    0.5299    1.3939 H       1  UNL1        0.0625
@<TRIPOS>UNITY_ATOM_ATTR
12 1
charge 1
14 1
charge -1
@<TRIPOS>BOND
     1     1     2    2
     2     2     3   ar
     3     2    21   ar
     4     3     4   ar
     5     4     5   ar
     6     5     6    1
     7     5    16   ar
     8     6     7    1
     9     7     8   ar
    10     7    15   ar
    11     8     9   ar
    12     9    10   ar
    13    10    11   ar
    14    11    12    1
    15    11    15   ar
    16    12    13    2
    17    12    14    1
    18    16    17   ar
    19    16    21   ar
    20    17    18   ar
    21    18    19   ar
    22    19    20   ar
    23    20    21   ar
    24     3    22    1
    25     6    23    1
    26     6    24    1
    27     8    25    1
    28     9    26    1
    29    10    27    1
    30    15    28    1
    31    17    29    1
    32    18    30    1
    33    19    31    1
    34    20    32    1
@<TRIPOS>MOLECULE
../data/bude_mols_rdkit_confs/molecule_60.pdb
 32 34 0 0 0
SMALL
GASTEIGER

@<TRIPOS>ATOM
      1 O          -3.8680   -1.4680    2.1400 O.2     1  UNL1       -0.2658
      2 C          -2.9460   -1.3680    1.3020 C.ar    1  UNL1        0.2725
      3 N          -2.1210   -2.3850    1.0250 N.ar    1  UNL1       -0.2425
      4 N          -1.1400   -2.2820    0.1390 N.ar    1  UNL1       -0.1750
      5 C          -0.9030   -1.1300   -0.5530 C.ar    1  UNL1        0.0736
      6 C           0.2650   -1.1130   -1.4300 C.3     1  UNL1        0.0173
      7 C           1.5300   -0.7100   -0.7520 C.ar    1  UNL1       -0.0351
      8 C           2.4390   -1.7090   -0.3500 C.ar    1  UNL1       -0.0578
      9 C           3.6180   -1.4730    0.2820 C.ar    1  UNL1       -0.0551
     10 C           3.9350   -0.1510    0.5420 C.ar    1  UNL1        0.0156
     11 C           3.1060    0.8820    0.1830 C.ar    1  UNL1        0.2734
     12 N           3.4210    2.2520    0.4630 N.pl3   1  UNL1        0.0796
     13 O           4.4850    2.5650    1.0380 O.2     1  UNL1        0.0414
     14 O           2.5690    3.2760    0.1150 O.co2   1  UNL1       -0.5760
     15 C           1.9020    0.5740   -0.4670 C.ar    1  UNL1        0.0191
     16 C          -1.7420   -0.0800   -0.2840 C.ar    1  UNL1        0.0106
     17 C          -1.5840    1.0880   -0.9610 C.ar    1  UNL1       -0.0521
     18 C          -2.4190    2.1620   -0.7400 C.ar    1  UNL1       -0.0611
     19 C          -3.4290    2.0500    0.1820 C.ar    1  UNL1       -0.0610
     20 C          -3.6060    0.8770    0.8730 C.ar    1  UNL1       -0.0487
     21 C          -2.7580   -0.1890    0.6360 C.ar    1  UNL1        0.0496
     22 H          -2.2472   -3.2402    1.4961 H       1  UNL1        0.1921
     23 H           0.0768   -0.4242   -2.2268 H       1  UNL1        0.0377
     24 H           0.4061   -2.1160   -1.7751 H       1  UNL1        0.0377
     25 H           2.1911   -2.6906   -0.5502 H       1  UNL1        0.0620
     26 H           4.2479   -2.2434    0.5555 H       1  UNL1        0.0620
     27 H           4.8232    0.0647    1.0212 H       1  UNL1        0.0685
     28 H           1.2735    1.3456   -0.7403 H       1  UNL1        0.0688
     29 H          -0.8240    1.1723   -1.6540 H       1  UNL1        0.0624
     30 H          -2.2859    3.0418   -1.2628 H       1  UNL1        0.0618
     31 H          -4.0574    2.8498    0.3565 H       1  UNL1        0.0618
     32 H          -4.3670    0.7915    1.5648 H       1  UNL1        0.0625
@<TRIPOS>UNITY_ATOM_ATTR
12 1
charge 1
14 1
charge -1
@<TRIPOS>BOND
     1     1     2    2
     2     2     3   ar
     3     2    21   ar
     4     3     4   ar
     5     4     5   ar
     6     5     6    1
     7     5    16   ar
     8     6     7    1
     9     7     8   ar
    10     7    15   ar
    11     8     9   ar
    12     9    10   ar
    13    10    11   ar
    14    11    12    1
    15    11    15   ar
    16    12    13    2
    17    12    14    1
    18    16    17   ar
    19    16    21   ar
    20    17    18   ar
    21    18    19   ar
    22    19    20   ar
    23    20    21   ar
    24     3    22    1
    25     6    23    1
    26     6    24    1
    27     8    25    1
    28     9    26    1
    29    10    27    1
    30    15    28    1
    31    17    29    1
    32    18    30    1
    33    19    31    1
    34    20    32    1
@<TRIPOS>MOLECULE
../data/bude_mols_rdkit_confs/molecule_60.pdb
 32 34 0 0 0
SMALL
GASTEIGER

@<TRIPOS>ATOM
      1 O          -3.6780    1.6350    2.3910 O.2     1  UNL1       -0.2658
      2 C          -2.8910    0.8300    1.8240 C.ar    1  UNL1        0.2725
      3 N          -2.3450   -0.2110    2.4790 N.ar    1  UNL1       -0.2425
      4 N          -1.5250   -1.0480    1.8860 N.ar    1  UNL1       -0.1750
      5 C          -1.1910   -0.8960    0.5780 C.ar    1  UNL1        0.0736
      6 C          -0.2040   -1.7780   -0.0660 C.3     1  UNL1        0.0173
      7 C           1.1880   -1.3550    0.0440 C.ar    1  UNL1       -0.0351
      8 C           1.9480   -1.9260    1.0760 C.ar    1  UNL1       -0.0578
      9 C           3.2570   -1.6140    1.3140 C.ar    1  UNL1       -0.0551
     10 C           3.9030   -0.6950    0.5220 C.ar    1  UNL1        0.0156
     11 C           3.1880   -0.1130   -0.5040 C.ar    1  UNL1        0.2734
     12 N           3.8670    0.8400   -1.3080 N.pl3   1  UNL1        0.0796
     13 O           3.2120    1.3740   -2.2260 O.2     1  UNL1        0.0414
     14 O           5.1580    1.1950   -1.1370 O.co2   1  UNL1       -0.5760
     15 C           1.8500   -0.4480   -0.7280 C.ar    1  UNL1        0.0191
     16 C          -1.7300    0.1520   -0.1270 C.ar    1  UNL1        0.0106
     17 C          -1.4920    0.3800   -1.4650 C.ar    1  UNL1       -0.0521
     18 C          -2.0700    1.4290   -2.1730 C.ar    1  UNL1       -0.0611
     19 C          -2.9200    2.2960   -1.5470 C.ar    1  UNL1       -0.0610
     20 C          -3.1810    2.0930   -0.2010 C.ar    1  UNL1       -0.0487
     21 C          -2.6000    1.0450    0.4940 C.ar    1  UNL1        0.0496
     22 H          -2.5662   -0.3488    3.4284 H       1  UNL1        0.1921
     23 H          -0.4477   -1.8402   -1.1060 H       1  UNL1        0.0377
     24 H          -0.2668   -2.7129    0.4506 H       1  UNL1        0.0377
     25 H           1.4932   -2.6202    1.6894 H       1  UNL1        0.0620
     26 H           3.7618   -2.0695    2.0903 H       1  UNL1        0.0620
     27 H           4.8910   -0.4484    0.6895 H       1  UNL1        0.0685
     28 H           1.3458    0.0072   -1.5049 H       1  UNL1        0.0688
     29 H          -0.8542   -0.2581   -1.9661 H       1  UNL1        0.0624
     30 H          -1.8558    1.5526   -3.1749 H       1  UNL1        0.0618
     31 H          -3.3546    3.0784   -2.0607 H       1  UNL1        0.0618
     32 H          -3.8205    2.7350    0.2929 H       1  UNL1        0.0625
@<TRIPOS>UNITY_ATOM_ATTR
12 1
charge 1
14 1
charge -1
@<TRIPOS>BOND
     1     1     2    2
     2     2     3   ar
     3     2    21   ar
     4     3     4   ar
     5     4     5   ar
     6     5     6    1
     7     5    16   ar
     8     6     7    1
     9     7     8   ar
    10     7    15   ar
    11     8     9   ar
    12     9    10   ar
    13    10    11   ar
    14    11    12    1
    15    11    15   ar
    16    12    13    2
    17    12    14    1
    18    16    17   ar
    19    16    21   ar
    20    17    18   ar
    21    18    19   ar
    22    19    20   ar
    23    20    21   ar
    24     3    22    1
    25     6    23    1
    26     6    24    1
    27     8    25    1
    28     9    26    1
    29    10    27    1
    30    15    28    1
    31    17    29    1
    32    18    30    1
    33    19    31    1
    34    20    32    1
@<TRIPOS>MOLECULE
../data/bude_mols_rdkit_confs/molecule_60.pdb
 32 34 0 0 0
SMALL
GASTEIGER

@<TRIPOS>ATOM
      1 O          -3.7260    2.4740   -1.1830 O.2     1  UNL1       -0.2658
      2 C          -2.8700    1.5540   -1.2010 C.ar    1  UNL1        0.2725
      3 N          -2.2500    1.2440   -2.3710 N.ar    1  UNL1       -0.2425
      4 N          -1.3510    0.2730   -2.3750 N.ar    1  UNL1       -0.1750
      5 C          -1.0100   -0.4310   -1.2820 C.ar    1  UNL1        0.0736
      6 C          -0.0060   -1.4900   -1.3210 C.3     1  UNL1        0.0173
      7 C           1.3180   -1.0390   -0.7730 C.ar    1  UNL1       -0.0351
      8 C           2.3420   -1.9630   -0.8010 C.ar    1  UNL1       -0.0578
      9 C           3.5970   -1.6590   -0.3410 C.ar    1  UNL1       -0.0551
     10 C           3.8120   -0.3930    0.1550 C.ar    1  UNL1        0.0156
     11 C           2.7950    0.5440    0.1900 C.ar    1  UNL1        0.2734
     12 N           3.0160    1.8420    0.6970 N.pl3   1  UNL1        0.0796
     13 O           4.1730    2.1160    1.1110 O.2     1  UNL1        0.0414
     14 O           2.0270    2.7590    0.7360 O.co2   1  UNL1       -0.5760
     15 C           1.5500    0.2120   -0.2770 C.ar    1  UNL1        0.0191
     16 C          -1.6340   -0.1230   -0.0940 C.ar    1  UNL1        0.0106
     17 C          -1.3150   -0.8260    1.0460 C.ar    1  UNL1       -0.0521
     18 C          -1.9000   -0.5770    2.2620 C.ar    1  UNL1       -0.0611
     19 C          -2.8570    0.4460    2.3040 C.ar    1  UNL1       -0.0610
     20 C          -3.1730    1.1460    1.1670 C.ar    1  UNL1       -0.0487
     21 C          -2.5920    0.8980   -0.0420 C.ar    1  UNL1        0.0496
     22 H          -2.4656    1.7321   -3.1983 H       1  UNL1        0.1921
     23 H           0.1289   -1.7993   -2.3364 H       1  UNL1        0.0377
     24 H          -0.3560   -2.2963   -0.7108 H       1  UNL1        0.0377
     25 H           2.1587   -2.9062   -1.1775 H       1  UNL1        0.0620
     26 H           4.3566   -2.3571   -0.3657 H       1  UNL1        0.0620
     27 H           4.7482   -0.1385    0.5069 H       1  UNL1        0.0685
     28 H           0.7878    0.9074   -0.2538 H       1  UNL1        0.0688
     29 H          -0.6052   -1.5725    0.9833 H       1  UNL1        0.0624
     30 H          -1.6476   -1.1168    3.1046 H       1  UNL1        0.0618
     31 H          -3.3263    0.6739    3.1944 H       1  UNL1        0.0618
     32 H          -3.8818    1.8935    1.2293 H       1  UNL1        0.0625
@<TRIPOS>UNITY_ATOM_ATTR
12 1
charge 1
14 1
charge -1
@<TRIPOS>BOND
     1     1     2    2
     2     2     3   ar
     3     2    21   ar
     4     3     4   ar
     5     4     5   ar
     6     5     6    1
     7     5    16   ar
     8     6     7    1
     9     7     8   ar
    10     7    15   ar
    11     8     9   ar
    12     9    10   ar
    13    10    11   ar
    14    11    12    1
    15    11    15   ar
    16    12    13    2
    17    12    14    1
    18    16    17   ar
    19    16    21   ar
    20    17    18   ar
    21    18    19   ar
    22    19    20   ar
    23    20    21   ar
    24     3    22    1
    25     6    23    1
    26     6    24    1
    27     8    25    1
    28     9    26    1
    29    10    27    1
    30    15    28    1
    31    17    29    1
    32    18    30    1
    33    19    31    1
    34    20    32    1
@<TRIPOS>MOLECULE
../data/bude_mols_rdkit_confs/molecule_60.pdb
 32 34 0 0 0
SMALL
GASTEIGER

@<TRIPOS>ATOM
      1 O          -3.2530   -3.2010    1.0070 O.2     1  UNL1       -0.2658
      2 C          -2.5560   -2.4270    0.3220 C.ar    1  UNL1        0.2725
      3 N          -1.9240   -2.8180   -0.7920 N.ar    1  UNL1       -0.2425
      4 N          -1.2130   -1.9310   -1.4450 N.ar    1  UNL1       -0.1750
      5 C          -1.0890   -0.6480   -1.0480 C.ar    1  UNL1        0.0736
      6 C          -0.1930    0.2380   -1.8410 C.3     1  UNL1        0.0173
      7 C           1.1650    0.2710   -1.2520 C.ar    1  UNL1       -0.0351
      8 C           1.9920   -0.8580   -1.3870 C.ar    1  UNL1       -0.0578
      9 C           3.2600   -0.9090   -0.8930 C.ar    1  UNL1       -0.0551
     10 C           3.7700    0.1930   -0.2270 C.ar    1  UNL1        0.0156
     11 C           3.0080    1.3020   -0.0740 C.ar    1  UNL1        0.2734
     12 N           3.5440    2.4300    0.6010 N.pl3   1  UNL1        0.0796
     13 O           2.8590    3.4540    0.7070 O.2     1  UNL1        0.0414
     14 O           4.8100    2.3870    1.1230 O.co2   1  UNL1       -0.5760
     15 C           1.7050    1.3320   -0.5900 C.ar    1  UNL1        0.0191
     16 C          -1.7080   -0.1790    0.0780 C.ar    1  UNL1        0.0106
     17 C          -1.6250    1.1290    0.5150 C.ar    1  UNL1       -0.0521
     18 C          -2.2910    1.5450    1.6650 C.ar    1  UNL1       -0.0611
     19 C          -3.0320    0.6130    2.3490 C.ar    1  UNL1       -0.0610
     20 C          -3.1200   -0.7030    1.9120 C.ar    1  UNL1       -0.0487
     21 C          -2.4670   -1.1120    0.7830 C.ar    1  UNL1        0.0496
     22 H          -1.9915   -3.7466   -1.1120 H       1  UNL1        0.1921
     23 H          -0.5965    1.2290   -1.8492 H       1  UNL1        0.0377
     24 H          -0.1263   -0.1439   -2.8383 H       1  UNL1        0.0377
     25 H           1.6218   -1.6843   -1.8822 H       1  UNL1        0.0620
     26 H           3.8338   -1.7583   -1.0134 H       1  UNL1        0.0620
     27 H           4.7295    0.1691    0.1522 H       1  UNL1        0.0685
     28 H           1.1371    2.1845   -0.4644 H       1  UNL1        0.0688
     29 H          -1.0607    1.8082   -0.0191 H       1  UNL1        0.0624
     30 H          -2.2297    2.5217    1.9925 H       1  UNL1        0.0618
     31 H          -3.5339    0.8958    3.2053 H       1  UNL1        0.0618
     32 H          -3.6857   -1.3805    2.4468 H       1  UNL1        0.0625
@<TRIPOS>UNITY_ATOM_ATTR
12 1
charge 1
14 1
charge -1
@<TRIPOS>BOND
     1     1     2    2
     2     2     3   ar
     3     2    21   ar
     4     3     4   ar
     5     4     5   ar
     6     5     6    1
     7     5    16   ar
     8     6     7    1
     9     7     8   ar
    10     7    15   ar
    11     8     9   ar
    12     9    10   ar
    13    10    11   ar
    14    11    12    1
    15    11    15   ar
    16    12    13    2
    17    12    14    1
    18    16    17   ar
    19    16    21   ar
    20    17    18   ar
    21    18    19   ar
    22    19    20   ar
    23    20    21   ar
    24     3    22    1
    25     6    23    1
    26     6    24    1
    27     8    25    1
    28     9    26    1
    29    10    27    1
    30    15    28    1
    31    17    29    1
    32    18    30    1
    33    19    31    1
    34    20    32    1
@<TRIPOS>MOLECULE
../data/bude_mols_rdkit_confs/molecule_60.pdb
 32 34 0 0 0
SMALL
GASTEIGER

@<TRIPOS>ATOM
      1 O          -3.5400    0.9300    3.0250 O.2     1  UNL1       -0.2658
      2 C          -2.6780    0.3400    2.3330 C.ar    1  UNL1        0.2725
      3 N          -1.6740   -0.3630    2.9030 N.ar    1  UNL1       -0.2425
      4 N          -0.7640   -0.9850    2.2160 N.ar    1  UNL1       -0.1750
      5 C          -0.7830   -0.9540    0.8480 C.ar    1  UNL1        0.0736
      6 C           0.2860   -1.6420    0.1630 C.3     1  UNL1        0.0173
      7 C           1.3580   -0.6420   -0.1820 C.ar    1  UNL1       -0.0351
      8 C           1.1760    0.7140   -0.1300 C.ar    1  UNL1       -0.0578
      9 C           2.2140    1.5780   -0.4700 C.ar    1  UNL1       -0.0551
     10 C           3.4430    1.1260   -0.8650 C.ar    1  UNL1        0.0156
     11 C           3.5960   -0.2610   -0.9070 C.ar    1  UNL1        0.2734
     12 N           4.8750   -0.7640   -1.3140 N.pl3   1  UNL1        0.0796
     13 O           5.0120   -1.9990   -1.3570 O.2     1  UNL1        0.0414
     14 O           5.8860    0.0790   -1.6370 O.co2   1  UNL1       -0.5760
     15 C           2.6010   -1.1180   -0.5800 C.ar    1  UNL1        0.0191
     16 C          -1.7720   -0.2610    0.1750 C.ar    1  UNL1        0.0106
     17 C          -1.7950   -0.2400   -1.1930 C.ar    1  UNL1       -0.0521
     18 C          -2.8030    0.4550   -1.8710 C.ar    1  UNL1       -0.0611
     19 C          -3.7440    1.0990   -1.0880 C.ar    1  UNL1       -0.0610
     20 C          -3.7200    1.0780    0.2870 C.ar    1  UNL1       -0.0487
     21 C          -2.7270    0.3910    0.9490 C.ar    1  UNL1        0.0496
     22 H          -1.6305   -0.4056    3.8856 H       1  UNL1        0.1921
     23 H          -0.0899   -2.0908   -0.7326 H       1  UNL1        0.0377
     24 H           0.6895   -2.4080    0.7917 H       1  UNL1        0.0377
     25 H           0.2641    1.0982    0.1629 H       1  UNL1        0.0620
     26 H           2.0500    2.5958   -0.4222 H       1  UNL1        0.0620
     27 H           4.2093    1.7700   -1.1163 H       1  UNL1        0.0685
     28 H           2.7673   -2.1354   -0.6268 H       1  UNL1        0.0688
     29 H          -1.0661   -0.7387   -1.7270 H       1  UNL1        0.0624
     30 H          -2.8422    0.4854   -2.9018 H       1  UNL1        0.0618
     31 H          -4.5005    1.6203   -1.5582 H       1  UNL1        0.0618
     32 H          -4.4468    1.5775    0.8230 H       1  UNL1        0.0625
@<TRIPOS>UNITY_ATOM_ATTR
12 1
charge 1
14 1
charge -1
@<TRIPOS>BOND
     1     1     2    2
     2     2     3   ar
     3     2    21   ar
     4     3     4   ar
     5     4     5   ar
     6     5     6    1
     7     5    16   ar
     8     6     7    1
     9     7     8   ar
    10     7    15   ar
    11     8     9   ar
    12     9    10   ar
    13    10    11   ar
    14    11    12    1
    15    11    15   ar
    16    12    13    2
    17    12    14    1
    18    16    17   ar
    19    16    21   ar
    20    17    18   ar
    21    18    19   ar
    22    19    20   ar
    23    20    21   ar
    24     3    22    1
    25     6    23    1
    26     6    24    1
    27     8    25    1
    28     9    26    1
    29    10    27    1
    30    15    28    1
    31    17    29    1
    32    18    30    1
    33    19    31    1
    34    20    32    1
