@<TRIPOS>MOLECULE
../data/bude_mols_rdkit_confs/molecule_48.pdb
 37 39 0 0 0
SMALL
GASTEIGER

@<TRIPOS>ATOM
      1  O1        -4.6200    1.7890    0.0040 O.2     1  UNL1       -0.2451
      2  C1        -5.0190    0.6520   -0.3560 C.2     1  UNL1        0.3369
      3  O2        -6.3400    0.4670   -0.7120 O.3     1  UNL1       -0.4771
      4  C2        -4.0390   -0.4230   -0.3750 C.ar    1  UNL1        0.0606
      5  C3        -4.3920   -1.7070   -0.7590 C.ar    1  UNL1       -0.0477
      6  C4        -3.4660   -2.7170   -0.7760 C.ar    1  UNL1       -0.0592
      7  C5        -2.1650   -2.4510   -0.4070 C.ar    1  UNL1       -0.0408
      8  C6        -1.7830   -1.1860   -0.0220 C.ar    1  UNL1        0.0282
      9  N1        -0.4070   -0.9760    0.3720 N.pl3   1  UNL1       -0.3396
     10  C7         0.0310    0.3410    0.4610 C.3     1  UNL1        0.0384
     11  C8         1.3540    0.8740    0.3980 C.ar    1  UNL1        0.0186
     12  C9         1.4370    2.2760    0.6730 C.ar    1  UNL1        0.1221
     13  O3         0.3030    2.9930    0.9480 O.3     1  UNL1       -0.5064
     14  C10        2.6140    2.9520    0.6720 C.ar    1  UNL1       -0.0193
     15  C11        3.7850    2.3090    0.4030 C.ar    1  UNL1       -0.0506
     16  C12        3.7460    0.9610    0.1290 C.ar    1  UNL1       -0.0173
     17  C13        4.9370    0.3330   -0.1780 C.ar    1  UNL1       -0.0540
     18  C14        4.9620   -1.0050   -0.5000 C.ar    1  UNL1       -0.0612
     19  C15        3.7880   -1.7190   -0.5150 C.ar    1  UNL1       -0.0612
     20  C16        2.5870   -1.0780   -0.2020 C.ar    1  UNL1       -0.0536
     21  C17        2.5290    0.2550    0.1270 C.ar    1  UNL1       -0.0097
     22  C18       -2.6960   -0.2020   -0.0070 C.ar    1  UNL1       -0.0269
     23 H          -6.6387   -0.3796   -0.9804 H       1  UNL1        0.2954
     24 H          -5.3661   -1.9053   -1.0361 H       1  UNL1        0.0626
     25 H          -3.7407   -3.6695   -1.0629 H       1  UNL1        0.0618
     26 H          -1.4672   -3.2112   -0.4196 H       1  UNL1        0.0636
     27 H           0.1927   -1.7317    0.5684 H       1  UNL1        0.1464
     28 H          -0.3410    0.6766    1.4064 H       1  UNL1        0.0512
     29 H          -0.2977    0.6646   -0.5045 H       1  UNL1        0.0512
     30 H          -0.5306    2.5653    0.9589 H       1  UNL1        0.2921
     31 H           2.6222    3.9634    0.8771 H       1  UNL1        0.0654
     32 H           4.6808    2.8214    0.4047 H       1  UNL1        0.0625
     33 H           5.8169    0.8722   -0.1659 H       1  UNL1        0.0624
     34 H           5.8554   -1.4683   -0.7284 H       1  UNL1        0.0618
     35 H           3.7936   -2.7225   -0.7560 H       1  UNL1        0.0618
     36 H           1.7120   -1.6250   -0.2184 H       1  UNL1        0.0624
     37 H          -2.4060    0.7451    0.2827 H       1  UNL1        0.0644
@<TRIPOS>BOND
     1     1     2    2
     2     2     3    1
     3     2     4    1
     4     4     5   ar
     5     4    22   ar
     6     5     6   ar
     7     6     7   ar
     8     7     8   ar
     9     8     9    1
    10     8    22   ar
    11     9    10    1
    12    10    11    1
    13    11    12   ar
    14    11    21   ar
    15    12    13    1
    16    12    14   ar
    17    14    15   ar
    18    15    16   ar
    19    16    17   ar
    20    16    21   ar
    21    17    18   ar
    22    18    19   ar
    23    19    20   ar
    24    20    21   ar
    25     3    23    1
    26     5    24    1
    27     6    25    1
    28     7    26    1
    29     9    27    1
    30    10    28    1
    31    10    29    1
    32    13    30    1
    33    14    31    1
    34    15    32    1
    35    17    33    1
    36    18    34    1
    37    19    35    1
    38    20    36    1
    39    22    37    1
@<TRIPOS>MOLECULE
../data/bude_mols_rdkit_confs/molecule_48.pdb
 37 39 0 0 0
SMALL
GASTEIGER

@<TRIPOS>ATOM
      1  O1         4.3490    3.4410   -1.0710 O.2     1  UNL1       -0.2451
      2  C1         4.8310    2.4400   -0.4980 C.2     1  UNL1        0.3369
      3  O2         6.1910    2.5560   -0.1310 O.3     1  UNL1       -0.4771
      4  C2         4.0930    1.2160   -0.2020 C.ar    1  UNL1        0.0606
      5  C3         4.7080    0.1670    0.4260 C.ar    1  UNL1       -0.0477
      6  C4         4.0170   -0.9990    0.7120 C.ar    1  UNL1       -0.0592
      7  C5         2.6710   -1.0830    0.3450 C.ar    1  UNL1       -0.0408
      8  C6         2.0290   -0.0580   -0.2810 C.ar    1  UNL1        0.0282
      9  N1         0.6300   -0.1150   -0.6610 N.pl3   1  UNL1       -0.3396
     10  C7        -0.1830   -1.1120   -0.1550 C.3     1  UNL1        0.0384
     11  C8        -1.6050   -1.1150    0.0430 C.ar    1  UNL1        0.0186
     12  C9        -2.1810   -2.3800    0.4150 C.ar    1  UNL1        0.1221
     13  O3        -1.3110   -3.4420    0.5300 O.3     1  UNL1       -0.5064
     14  C10       -3.5170   -2.5120    0.6390 C.ar    1  UNL1       -0.0193
     15  C11       -4.3700   -1.4550    0.5220 C.ar    1  UNL1       -0.0506
     16  C12       -3.8380   -0.2160    0.1670 C.ar    1  UNL1       -0.0173
     17  C13       -4.7010    0.8440    0.0950 C.ar    1  UNL1       -0.0540
     18  C14       -4.2430    2.0980   -0.2030 C.ar    1  UNL1       -0.0612
     19  C15       -2.9110    2.3090   -0.4320 C.ar    1  UNL1       -0.0612
     20  C16       -2.0580    1.2000   -0.3510 C.ar    1  UNL1       -0.0536
     21  C17       -2.4780   -0.0760   -0.0610 C.ar    1  UNL1       -0.0097
     22  C18        2.7730    1.0800   -0.5400 C.ar    1  UNL1       -0.0269
     23 H           6.6215    1.8457    0.3027 H       1  UNL1        0.2954
     24 H           5.7024    0.2459    0.6907 H       1  UNL1        0.0626
     25 H           4.4853   -1.7875    1.1852 H       1  UNL1        0.0618
     26 H           2.1480   -1.9476    0.5547 H       1  UNL1        0.0636
     27 H           0.2598    0.5561   -1.2790 H       1  UNL1        0.1464
     28 H           0.2193   -1.3135    0.8158 H       1  UNL1        0.0512
     29 H          -0.1502   -1.7706   -0.9977 H       1  UNL1        0.0512
     30 H          -0.3963   -3.3179    0.3690 H       1  UNL1        0.2921
     31 H          -3.8938   -3.4355    0.9041 H       1  UNL1        0.0654
     32 H          -5.3816   -1.5688    0.6915 H       1  UNL1        0.0625
     33 H          -5.7076    0.6956    0.2673 H       1  UNL1        0.0624
     34 H          -4.9050    2.8880   -0.2553 H       1  UNL1        0.0618
     35 H          -2.5481    3.2488   -0.6558 H       1  UNL1        0.0618
     36 H          -1.0512    1.3510   -0.5197 H       1  UNL1        0.0624
     37 H           2.3073    1.8696   -1.0140 H       1  UNL1        0.0644
@<TRIPOS>BOND
     1     1     2    2
     2     2     3    1
     3     2     4    1
     4     4     5   ar
     5     4    22   ar
     6     5     6   ar
     7     6     7   ar
     8     7     8   ar
     9     8     9    1
    10     8    22   ar
    11     9    10    1
    12    10    11    1
    13    11    12   ar
    14    11    21   ar
    15    12    13    1
    16    12    14   ar
    17    14    15   ar
    18    15    16   ar
    19    16    17   ar
    20    16    21   ar
    21    17    18   ar
    22    18    19   ar
    23    19    20   ar
    24    20    21   ar
    25     3    23    1
    26     5    24    1
    27     6    25    1
    28     7    26    1
    29     9    27    1
    30    10    28    1
    31    10    29    1
    32    13    30    1
    33    14    31    1
    34    15    32    1
    35    17    33    1
    36    18    34    1
    37    19    35    1
    38    20    36    1
    39    22    37    1
@<TRIPOS>MOLECULE
../data/bude_mols_rdkit_confs/molecule_48.pdb
 37 39 0 0 0
SMALL
GASTEIGER

@<TRIPOS>ATOM
      1  O1        -4.9740   -1.2180    2.4340 O.2     1  UNL1       -0.2451
      2  C1        -5.2710   -0.8210    1.2750 C.2     1  UNL1        0.3369
      3  O2        -6.5950   -0.5490    0.9600 O.3     1  UNL1       -0.4771
      4  C2        -4.2140   -0.6500    0.2710 C.ar    1  UNL1        0.0606
      5  C3        -4.5930   -0.2260   -0.9880 C.ar    1  UNL1       -0.0477
      6  C4        -3.5980   -0.0760   -1.9380 C.ar    1  UNL1       -0.0592
      7  C5        -2.2750   -0.3370   -1.6540 C.ar    1  UNL1       -0.0408
      8  C6        -1.9020   -0.7600   -0.3960 C.ar    1  UNL1        0.0282
      9  N1        -0.5950   -1.0200   -0.0210 N.pl3   1  UNL1       -0.3396
     10  C7         0.6160   -0.8490   -0.8560 C.3     1  UNL1        0.0384
     11  C8         1.4500    0.1760   -0.2040 C.ar    1  UNL1        0.0186
     12  C9         0.9300    1.4060    0.1430 C.ar    1  UNL1        0.1221
     13  O3        -0.4140    1.6440   -0.0570 O.3     1  UNL1       -0.5064
     14  C10        1.6820    2.4160    0.6830 C.ar    1  UNL1       -0.0193
     15  C11        3.0340    2.2460    0.9100 C.ar    1  UNL1       -0.0506
     16  C12        3.5860    1.0450    0.5810 C.ar    1  UNL1       -0.0173
     17  C13        4.9410    0.8940    0.7980 C.ar    1  UNL1       -0.0540
     18  C14        5.5780   -0.2850    0.4820 C.ar    1  UNL1       -0.0612
     19  C15        4.8180   -1.2990   -0.0570 C.ar    1  UNL1       -0.0612
     20  C16        3.4490   -1.1420   -0.2750 C.ar    1  UNL1       -0.0536
     21  C17        2.8250    0.0220    0.0370 C.ar    1  UNL1       -0.0097
     22  C18       -2.9140   -0.9120    0.5770 C.ar    1  UNL1       -0.0269
     23 H          -6.8208   -0.2537    0.0999 H       1  UNL1        0.2954
     24 H          -5.5809   -0.0286   -1.2116 H       1  UNL1        0.0626
     25 H          -3.8541    0.2404   -2.8863 H       1  UNL1        0.0618
     26 H          -1.5592   -0.2151   -2.3874 H       1  UNL1        0.0636
     27 H          -0.4563   -1.3528    0.8951 H       1  UNL1        0.1464
     28 H           0.3417   -0.5282   -1.8392 H       1  UNL1        0.0512
     29 H           1.1491   -1.7722   -0.9477 H       1  UNL1        0.0512
     30 H          -0.9585    0.9758   -0.4244 H       1  UNL1        0.2921
     31 H           1.2333    3.3139    0.9229 H       1  UNL1        0.0654
     32 H           3.6063    3.0032    1.3151 H       1  UNL1        0.0625
     33 H           5.4828    1.6740    1.2018 H       1  UNL1        0.0624
     34 H           6.5902   -0.4047    0.6435 H       1  UNL1        0.0618
     35 H           5.2702   -2.1930   -0.3046 H       1  UNL1        0.0618
     36 H           2.9044   -1.9203   -0.6783 H       1  UNL1        0.0624
     37 H          -2.6656   -1.2246    1.5287 H       1  UNL1        0.0644
@<TRIPOS>BOND
     1     1     2    2
     2     2     3    1
     3     2     4    1
     4     4     5   ar
     5     4    22   ar
     6     5     6   ar
     7     6     7   ar
     8     7     8   ar
     9     8     9    1
    10     8    22   ar
    11     9    10    1
    12    10    11    1
    13    11    12   ar
    14    11    21   ar
    15    12    13    1
    16    12    14   ar
    17    14    15   ar
    18    15    16   ar
    19    16    17   ar
    20    16    21   ar
    21    17    18   ar
    22    18    19   ar
    23    19    20   ar
    24    20    21   ar
    25     3    23    1
    26     5    24    1
    27     6    25    1
    28     7    26    1
    29     9    27    1
    30    10    28    1
    31    10    29    1
    32    13    30    1
    33    14    31    1
    34    15    32    1
    35    17    33    1
    36    18    34    1
    37    19    35    1
    38    20    36    1
    39    22    37    1
@<TRIPOS>MOLECULE
../data/bude_mols_rdkit_confs/molecule_48.pdb
 37 39 0 0 0
SMALL
GASTEIGER

@<TRIPOS>ATOM
      1  O1         6.0920    0.1790   -1.3620 O.2     1  UNL1       -0.2451
      2  C1         4.8680    0.4210   -1.2300 C.2     1  UNL1        0.3369
      3  O2         4.2850    1.4170   -2.0000 O.3     1  UNL1       -0.4771
      4  C2         4.0960   -0.3500   -0.2750 C.ar    1  UNL1        0.0606
      5  C3         4.6700   -1.3330    0.4850 C.ar    1  UNL1       -0.0477
      6  C4         3.9250   -2.0550    1.3860 C.ar    1  UNL1       -0.0592
      7  C5         2.5770   -1.7490    1.4920 C.ar    1  UNL1       -0.0408
      8  C6         1.9860   -0.7750    0.7450 C.ar    1  UNL1        0.0282
      9  N1         0.5650   -0.4740    0.8970 N.pl3   1  UNL1       -0.3396
     10  C7         0.0000    0.3130   -0.0730 C.3     1  UNL1        0.0384
     11  C8        -1.3700    0.5980   -0.3760 C.ar    1  UNL1        0.0186
     12  C9        -1.5210    1.5470   -1.4450 C.ar    1  UNL1        0.1221
     13  O3        -0.4050    2.0480   -2.0430 O.3     1  UNL1       -0.5064
     14  C10       -2.7540    1.9550   -1.8750 C.ar    1  UNL1       -0.0193
     15  C11       -3.8970    1.4820   -1.3130 C.ar    1  UNL1       -0.0506
     16  C12       -3.8040    0.5700   -0.2880 C.ar    1  UNL1       -0.0173
     17  C13       -4.9680    0.0790    0.2630 C.ar    1  UNL1       -0.0540
     18  C14       -4.8610   -0.8480    1.2700 C.ar    1  UNL1       -0.0612
     19  C15       -3.6550   -1.2900    1.7340 C.ar    1  UNL1       -0.0612
     20  C16       -2.4900   -0.7970    1.1800 C.ar    1  UNL1       -0.0536
     21  C17       -2.5450    0.1430    0.1620 C.ar    1  UNL1       -0.0097
     22  C18        2.7350   -0.0720   -0.1380 C.ar    1  UNL1       -0.0269
     23 H           3.3717    1.6054   -1.9089 H       1  UNL1        0.2954
     24 H           5.6766   -1.5348    0.3799 H       1  UNL1        0.0626
     25 H           4.3527   -2.7969    1.9619 H       1  UNL1        0.0618
     26 H           1.9990   -2.2794    2.1625 H       1  UNL1        0.0636
     27 H           0.0406   -0.8180    1.6559 H       1  UNL1        0.1464
     28 H           0.3846   -0.0913   -0.9859 H       1  UNL1        0.0512
     29 H           0.2322    1.2566    0.3748 H       1  UNL1        0.0512
     30 H           0.4437    1.7744   -1.7552 H       1  UNL1        0.2921
     31 H          -2.8175    2.6389   -2.6452 H       1  UNL1        0.0654
     32 H          -4.8188    1.8015   -1.6495 H       1  UNL1        0.0625
     33 H          -5.8909    0.3981   -0.0709 H       1  UNL1        0.0624
     34 H          -5.7241   -1.2249    1.6921 H       1  UNL1        0.0618
     35 H          -3.6145   -1.9876    2.4934 H       1  UNL1        0.0618
     36 H          -1.5757   -1.1292    1.5247 H       1  UNL1        0.0624
     37 H           2.2995    0.6689   -0.7093 H       1  UNL1        0.0644
@<TRIPOS>BOND
     1     1     2    2
     2     2     3    1
     3     2     4    1
     4     4     5   ar
     5     4    22   ar
     6     5     6   ar
     7     6     7   ar
     8     7     8   ar
     9     8     9    1
    10     8    22   ar
    11     9    10    1
    12    10    11    1
    13    11    12   ar
    14    11    21   ar
    15    12    13    1
    16    12    14   ar
    17    14    15   ar
    18    15    16   ar
    19    16    17   ar
    20    16    21   ar
    21    17    18   ar
    22    18    19   ar
    23    19    20   ar
    24    20    21   ar
    25     3    23    1
    26     5    24    1
    27     6    25    1
    28     7    26    1
    29     9    27    1
    30    10    28    1
    31    10    29    1
    32    13    30    1
    33    14    31    1
    34    15    32    1
    35    17    33    1
    36    18    34    1
    37    19    35    1
    38    20    36    1
    39    22    37    1
@<TRIPOS>MOLECULE
../data/bude_mols_rdkit_confs/molecule_48.pdb
 37 39 0 0 0
SMALL
GASTEIGER

@<TRIPOS>ATOM
      1  O1         5.4390   -1.9180    2.0710 O.2     1  UNL1       -0.2451
      2  C1         5.5470   -1.3380    0.9790 C.2     1  UNL1        0.3369
      3  O2         6.7390   -1.3780    0.3070 O.3     1  UNL1       -0.4771
      4  C2         4.4190   -0.6180    0.4120 C.ar    1  UNL1        0.0606
      5  C3         4.6170    0.0480   -0.8180 C.ar    1  UNL1       -0.0477
      6  C4         3.5950    0.7260   -1.4150 C.ar    1  UNL1       -0.0592
      7  C5         2.3260    0.7840   -0.8570 C.ar    1  UNL1       -0.0408
      8  C6         2.0980    0.1320    0.3470 C.ar    1  UNL1        0.0282
      9  N1         0.7580    0.1430    0.8230 N.pl3   1  UNL1       -0.3396
     10  C7        -0.2680   -0.1010   -0.2230 C.3     1  UNL1        0.0384
     11  C8        -1.5460    0.4080    0.2060 C.ar    1  UNL1        0.0186
     12  C9        -1.5940    1.7910    0.4700 C.ar    1  UNL1        0.1221
     13  O3        -0.4040    2.4790    0.4640 O.3     1  UNL1       -0.5064
     14  C10       -2.7720    2.4160    0.7180 C.ar    1  UNL1       -0.0193
     15  C11       -3.9620    1.7140    0.7290 C.ar    1  UNL1       -0.0506
     16  C12       -3.9410    0.3810    0.4880 C.ar    1  UNL1       -0.0173
     17  C13       -5.1730   -0.2700    0.4650 C.ar    1  UNL1       -0.0540
     18  C14       -5.1360   -1.6070    0.1570 C.ar    1  UNL1       -0.0612
     19  C15       -3.9810   -2.2980   -0.1070 C.ar    1  UNL1       -0.0612
     20  C16       -2.8100   -1.5820   -0.0580 C.ar    1  UNL1       -0.0536
     21  C17       -2.7440   -0.2660    0.2290 C.ar    1  UNL1       -0.0097
     22  C18        3.1410   -0.5430    0.9510 C.ar    1  UNL1       -0.0269
     23 H           6.8267   -0.9421   -0.5178 H       1  UNL1        0.2954
     24 H           5.5446    0.0213   -1.2696 H       1  UNL1        0.0626
     25 H           3.7710    1.2106   -2.3090 H       1  UNL1        0.0618
     26 H           1.5671    1.3014   -1.3275 H       1  UNL1        0.0636
     27 H           0.5293    0.2994    1.7677 H       1  UNL1        0.1464
     28 H          -0.3481   -1.1530   -0.4010 H       1  UNL1        0.0512
     29 H           0.0237    0.4002   -1.1222 H       1  UNL1        0.0512
     30 H           0.3979    2.0265    0.2902 H       1  UNL1        0.2921
     31 H          -2.7796    3.4316    0.9013 H       1  UNL1        0.0654
     32 H          -4.8537    2.1979    0.9180 H       1  UNL1        0.0625
     33 H          -6.0573    0.2222    0.6668 H       1  UNL1        0.0624
     34 H          -6.0294   -2.1225    0.1220 H       1  UNL1        0.0618
     35 H          -3.9913   -3.3053   -0.3312 H       1  UNL1        0.0618
     36 H          -1.9278   -2.0809   -0.2525 H       1  UNL1        0.0624
     37 H           2.9612   -1.0165    1.8501 H       1  UNL1        0.0644
@<TRIPOS>BOND
     1     1     2    2
     2     2     3    1
     3     2     4    1
     4     4     5   ar
     5     4    22   ar
     6     5     6   ar
     7     6     7   ar
     8     7     8   ar
     9     8     9    1
    10     8    22   ar
    11     9    10    1
    12    10    11    1
    13    11    12   ar
    14    11    21   ar
    15    12    13    1
    16    12    14   ar
    17    14    15   ar
    18    15    16   ar
    19    16    17   ar
    20    16    21   ar
    21    17    18   ar
    22    18    19   ar
    23    19    20   ar
    24    20    21   ar
    25     3    23    1
    26     5    24    1
    27     6    25    1
    28     7    26    1
    29     9    27    1
    30    10    28    1
    31    10    29    1
    32    13    30    1
    33    14    31    1
    34    15    32    1
    35    17    33    1
    36    18    34    1
    37    19    35    1
    38    20    36    1
    39    22    37    1
@<TRIPOS>MOLECULE
../data/bude_mols_rdkit_confs/molecule_48.pdb
 37 39 0 0 0
SMALL
GASTEIGER

@<TRIPOS>ATOM
      1  O1         4.9120    2.1810   -0.9840 O.2     1  UNL1       -0.2451
      2  C1         4.8390    1.5640    0.1290 C.2     1  UNL1        0.3369
      3  O2         5.8650    1.8100    1.0410 O.3     1  UNL1       -0.4771
      4  C2         3.7480    0.6590    0.4240 C.ar    1  UNL1        0.0606
      5  C3         3.6800    0.0060    1.6170 C.ar    1  UNL1       -0.0477
      6  C4         2.6070   -0.8550    1.8470 C.ar    1  UNL1       -0.0592
      7  C5         1.6240   -1.0390    0.8670 C.ar    1  UNL1       -0.0408
      8  C6         1.7080   -0.3730   -0.3310 C.ar    1  UNL1        0.0282
      9  N1         0.6730   -0.5800   -1.3280 N.pl3   1  UNL1       -0.3396
     10  C7        -0.4230   -1.4030   -1.1550 C.3     1  UNL1        0.0384
     11  C8        -1.6890   -1.0850   -0.5060 C.ar    1  UNL1        0.0186
     12  C9        -2.6030   -2.1800   -0.3900 C.ar    1  UNL1        0.1221
     13  O3        -2.2740   -3.4170   -0.8940 O.3     1  UNL1       -0.5064
     14  C10       -3.7960   -1.9610    0.2260 C.ar    1  UNL1       -0.0193
     15  C11       -4.1810   -0.7580    0.7400 C.ar    1  UNL1       -0.0506
     16  C12       -3.2830    0.2840    0.6120 C.ar    1  UNL1       -0.0173
     17  C13       -3.6430    1.5390    1.0960 C.ar    1  UNL1       -0.0540
     18  C14       -2.8390    2.6440    0.9940 C.ar    1  UNL1       -0.0612
     19  C15       -1.6340    2.4890    0.3870 C.ar    1  UNL1       -0.0612
     20  C16       -1.2230    1.2680   -0.1130 C.ar    1  UNL1       -0.0536
     21  C17       -2.0330    0.1400   -0.0100 C.ar    1  UNL1       -0.0097
     22  C18        2.7710    0.4700   -0.5380 C.ar    1  UNL1       -0.0269
     23 H           5.8624    1.3836    1.8753 H       1  UNL1        0.2954
     24 H           4.4072    0.1452    2.3359 H       1  UNL1        0.0626
     25 H           2.5372   -1.3593    2.7447 H       1  UNL1        0.0618
     26 H           0.8333   -1.6776    1.0457 H       1  UNL1        0.0636
     27 H           0.7579   -0.1020   -2.1845 H       1  UNL1        0.1464
     28 H          -0.0461   -2.2466   -0.6154 H       1  UNL1        0.0512
     29 H          -0.7639   -1.4343   -2.1688 H       1  UNL1        0.0512
     30 H          -1.4469   -3.5466   -1.3148 H       1  UNL1        0.2921
     31 H          -4.4504   -2.7546    0.3095 H       1  UNL1        0.0654
     32 H          -5.0959   -0.6325    1.2008 H       1  UNL1        0.0625
     33 H          -4.5617    1.6422    1.5547 H       1  UNL1        0.0624
     34 H          -3.1379    3.5596    1.3645 H       1  UNL1        0.0618
     35 H          -1.0085    3.3049    0.2967 H       1  UNL1        0.0618
     36 H          -0.3010    1.1909   -0.5701 H       1  UNL1        0.0624
     37 H           2.8438    0.9762   -1.4344 H       1  UNL1        0.0644
@<TRIPOS>BOND
     1     1     2    2
     2     2     3    1
     3     2     4    1
     4     4     5   ar
     5     4    22   ar
     6     5     6   ar
     7     6     7   ar
     8     7     8   ar
     9     8     9    1
    10     8    22   ar
    11     9    10    1
    12    10    11    1
    13    11    12   ar
    14    11    21   ar
    15    12    13    1
    16    12    14   ar
    17    14    15   ar
    18    15    16   ar
    19    16    17   ar
    20    16    21   ar
    21    17    18   ar
    22    18    19   ar
    23    19    20   ar
    24    20    21   ar
    25     3    23    1
    26     5    24    1
    27     6    25    1
    28     7    26    1
    29     9    27    1
    30    10    28    1
    31    10    29    1
    32    13    30    1
    33    14    31    1
    34    15    32    1
    35    17    33    1
    36    18    34    1
    37    19    35    1
    38    20    36    1
    39    22    37    1
@<TRIPOS>MOLECULE
../data/bude_mols_rdkit_confs/molecule_48.pdb
 37 39 0 0 0
SMALL
GASTEIGER

@<TRIPOS>ATOM
      1  O1         4.4430   -1.8800    2.3700 O.2     1  UNL1       -0.2451
      2  C1         5.0300   -1.3110    1.4090 C.2     1  UNL1        0.3369
      3  O2         6.3980   -1.3530    1.3550 O.3     1  UNL1       -0.4771
      4  C2         4.2250   -0.6460    0.4090 C.ar    1  UNL1        0.0606
      5  C3         4.8870   -0.0140   -0.6410 C.ar    1  UNL1       -0.0477
      6  C4         4.1490    0.6080   -1.5880 C.ar    1  UNL1       -0.0592
      7  C5         2.7780    0.6110   -1.5090 C.ar    1  UNL1       -0.0408
      8  C6         2.0830   -0.0190   -0.4610 C.ar    1  UNL1        0.0282
      9  N1         0.6890    0.0870   -0.5210 N.pl3   1  UNL1       -0.3396
     10  C7        -0.2090   -0.1150    0.6480 C.3     1  UNL1        0.0384
     11  C8        -1.5180    0.4580    0.2450 C.ar    1  UNL1        0.0186
     12  C9        -1.5240    1.7890   -0.2320 C.ar    1  UNL1        0.1221
     13  O3        -0.2820    2.4200   -0.3430 O.3     1  UNL1       -0.5064
     14  C10       -2.7020    2.4150   -0.5710 C.ar    1  UNL1       -0.0193
     15  C11       -3.8970    1.7550   -0.4500 C.ar    1  UNL1       -0.0506
     16  C12       -3.9190    0.4610    0.0130 C.ar    1  UNL1       -0.0173
     17  C13       -5.1460   -0.1660    0.1550 C.ar    1  UNL1       -0.0540
     18  C14       -5.1680   -1.4450    0.6470 C.ar    1  UNL1       -0.0612
     19  C15       -4.0250   -2.1020    0.9920 C.ar    1  UNL1       -0.0612
     20  C16       -2.8010   -1.4500    0.8420 C.ar    1  UNL1       -0.0536
     21  C17       -2.7150   -0.1700    0.3550 C.ar    1  UNL1       -0.0097
     22  C18        2.8250   -0.6420    0.4880 C.ar    1  UNL1       -0.0269
     23 H           6.8520   -0.9363    0.6491 H       1  UNL1        0.2954
     24 H           5.9176   -0.0203   -0.6950 H       1  UNL1        0.0626
     25 H           4.6187    1.0831   -2.3746 H       1  UNL1        0.0618
     26 H           2.2383    1.0928   -2.2450 H       1  UNL1        0.0636
     27 H           0.2782    0.3083   -1.3879 H       1  UNL1        0.1464
     28 H           0.1743    0.3953    1.5068 H       1  UNL1        0.0512
     29 H          -0.2919   -1.1487    0.9114 H       1  UNL1        0.0512
     30 H           0.4993    1.9620   -0.1026 H       1  UNL1        0.2921
     31 H          -2.6853    3.3867   -0.9182 H       1  UNL1        0.0654
     32 H          -4.7777    2.2282   -0.7058 H       1  UNL1        0.0625
     33 H          -6.0206    0.3173   -0.1029 H       1  UNL1        0.0624
     34 H          -6.0753   -1.9238    0.7593 H       1  UNL1        0.0618
     35 H          -4.0643   -3.0660    1.3582 H       1  UNL1        0.0618
     36 H          -1.9345   -1.9449    1.1051 H       1  UNL1        0.0624
     37 H           2.3554   -1.1170    1.2747 H       1  UNL1        0.0644
@<TRIPOS>BOND
     1     1     2    2
     2     2     3    1
     3     2     4    1
     4     4     5   ar
     5     4    22   ar
     6     5     6   ar
     7     6     7   ar
     8     7     8   ar
     9     8     9    1
    10     8    22   ar
    11     9    10    1
    12    10    11    1
    13    11    12   ar
    14    11    21   ar
    15    12    13    1
    16    12    14   ar
    17    14    15   ar
    18    15    16   ar
    19    16    17   ar
    20    16    21   ar
    21    17    18   ar
    22    18    19   ar
    23    19    20   ar
    24    20    21   ar
    25     3    23    1
    26     5    24    1
    27     6    25    1
    28     7    26    1
    29     9    27    1
    30    10    28    1
    31    10    29    1
    32    13    30    1
    33    14    31    1
    34    15    32    1
    35    17    33    1
    36    18    34    1
    37    19    35    1
    38    20    36    1
    39    22    37    1
@<TRIPOS>MOLECULE
../data/bude_mols_rdkit_confs/molecule_48.pdb
 37 39 0 0 0
SMALL
GASTEIGER

@<TRIPOS>ATOM
      1  O1        -4.7360    2.8660   -0.5710 O.2     1  UNL1       -0.2451
      2  C1        -5.1520    1.7480   -0.1890 C.2     1  UNL1        0.3369
      3  O2        -6.4580    1.5590    0.1710 O.3     1  UNL1       -0.4771
      4  C2        -4.2130    0.6290   -0.1310 C.ar    1  UNL1        0.0606
      5  C3        -4.6290   -0.6290    0.2850 C.ar    1  UNL1       -0.0477
      6  C4        -3.7490   -1.6860    0.3390 C.ar    1  UNL1       -0.0592
      7  C5        -2.4030   -1.5090   -0.0300 C.ar    1  UNL1       -0.0408
      8  C6        -1.9700   -0.2790   -0.4420 C.ar    1  UNL1        0.0282
      9  N1        -0.5850   -0.0900   -0.8130 N.pl3   1  UNL1       -0.3396
     10  C7         0.3750   -1.0530   -0.5560 C.3     1  UNL1        0.0384
     11  C8         1.7750   -0.8460   -0.2380 C.ar    1  UNL1        0.0186
     12  C9         2.5600   -2.0430   -0.2130 C.ar    1  UNL1        0.1221
     13  O3         1.9120   -3.2340   -0.5050 O.3     1  UNL1       -0.5064
     14  C10        3.8770   -2.0670    0.0780 C.ar    1  UNL1       -0.0193
     15  C11        4.4980   -0.8810    0.3640 C.ar    1  UNL1       -0.0506
     16  C12        3.7670    0.2940    0.3510 C.ar    1  UNL1       -0.0173
     17  C13        4.3900    1.4750    0.6790 C.ar    1  UNL1       -0.0540
     18  C14        3.7550    2.6920    0.7360 C.ar    1  UNL1       -0.0612
     19  C15        2.4150    2.6920    0.4430 C.ar    1  UNL1       -0.0612
     20  C16        1.7300    1.5440    0.1070 C.ar    1  UNL1       -0.0536
     21  C17        2.3970    0.3250    0.0520 C.ar    1  UNL1       -0.0097
     22  C18       -2.8860    0.7590   -0.4820 C.ar    1  UNL1       -0.0269
     23 H          -6.7484    0.7143    0.4539 H       1  UNL1        0.2954
     24 H          -5.6137   -0.7736    0.5580 H       1  UNL1        0.0626
     25 H          -4.0782   -2.6128    0.6517 H       1  UNL1        0.0618
     26 H          -1.7456   -2.3035    0.0100 H       1  UNL1        0.0636
     27 H          -0.3182    0.7456   -1.2601 H       1  UNL1        0.1464
     28 H           0.3825   -1.6703   -1.4300 H       1  UNL1        0.0512
     29 H           0.0331   -1.3743    0.4057 H       1  UNL1        0.0512
     30 H           0.9975   -3.2320   -0.7089 H       1  UNL1        0.2921
     31 H           4.4022   -2.9554    0.0848 H       1  UNL1        0.0654
     32 H           5.5052   -0.8633    0.5880 H       1  UNL1        0.0625
     33 H           5.3985    1.4454    0.8961 H       1  UNL1        0.0624
     34 H           4.2581    3.5579    0.9854 H       1  UNL1        0.0618
     35 H           1.9000    3.5857    0.4754 H       1  UNL1        0.0618
     36 H           0.7208    1.5892   -0.1040 H       1  UNL1        0.0624
     37 H          -2.5554    1.6857   -0.7933 H       1  UNL1        0.0644
@<TRIPOS>BOND
     1     1     2    2
     2     2     3    1
     3     2     4    1
     4     4     5   ar
     5     4    22   ar
     6     5     6   ar
     7     6     7   ar
     8     7     8   ar
     9     8     9    1
    10     8    22   ar
    11     9    10    1
    12    10    11    1
    13    11    12   ar
    14    11    21   ar
    15    12    13    1
    16    12    14   ar
    17    14    15   ar
    18    15    16   ar
    19    16    17   ar
    20    16    21   ar
    21    17    18   ar
    22    18    19   ar
    23    19    20   ar
    24    20    21   ar
    25     3    23    1
    26     5    24    1
    27     6    25    1
    28     7    26    1
    29     9    27    1
    30    10    28    1
    31    10    29    1
    32    13    30    1
    33    14    31    1
    34    15    32    1
    35    17    33    1
    36    18    34    1
    37    19    35    1
    38    20    36    1
    39    22    37    1
@<TRIPOS>MOLECULE
../data/bude_mols_rdkit_confs/molecule_48.pdb
 37 39 0 0 0
SMALL
GASTEIGER

@<TRIPOS>ATOM
      1  O1         4.5480    1.1010    2.1700 O.2     1  UNL1       -0.2451
      2  C1         4.9630    0.5920    1.0990 C.2     1  UNL1        0.3369
      3  O2         6.3140    0.7120    0.8480 O.3     1  UNL1       -0.4771
      4  C2         4.1190   -0.0930    0.1300 C.ar    1  UNL1        0.0606
      5  C3         4.6830   -0.6590   -0.9930 C.ar    1  UNL1       -0.0477
      6  C4         3.8960   -1.3090   -1.9200 C.ar    1  UNL1       -0.0592
      7  C5         2.5460   -1.3720   -1.6960 C.ar    1  UNL1       -0.0408
      8  C6         1.9290   -0.8080   -0.5510 C.ar    1  UNL1        0.0282
      9  N1         0.5590   -0.9360   -0.3920 N.pl3   1  UNL1       -0.3396
     10  C7        -0.1480   -0.1700    0.6440 C.3     1  UNL1        0.0384
     11  C8        -1.5960   -0.3690    0.5630 C.ar    1  UNL1        0.0186
     12  C9        -2.1240   -1.6340    0.8570 C.ar    1  UNL1        0.1221
     13  O3        -1.2180   -2.6320    1.1800 O.3     1  UNL1       -0.5064
     14  C10       -3.4480   -1.9050    0.8390 C.ar    1  UNL1       -0.0193
     15  C11       -4.3600   -0.9190    0.5280 C.ar    1  UNL1       -0.0506
     16  C12       -3.8560    0.3360    0.2400 C.ar    1  UNL1       -0.0173
     17  C13       -4.8110    1.3290   -0.0010 C.ar    1  UNL1       -0.0540
     18  C14       -4.3760    2.6280   -0.2300 C.ar    1  UNL1       -0.0612
     19  C15       -3.0380    2.9340   -0.2290 C.ar    1  UNL1       -0.0612
     20  C16       -2.1380    1.9120    0.0140 C.ar    1  UNL1       -0.0536
     21  C17       -2.4900    0.6090    0.2580 C.ar    1  UNL1       -0.0097
     22  C18        2.7500   -0.1610    0.3590 C.ar    1  UNL1       -0.0269
     23 H           6.6787    0.3510    0.0640 H       1  UNL1        0.2954
     24 H           5.7023   -0.5958   -1.1412 H       1  UNL1        0.0626
     25 H           4.3133   -1.7371   -2.7612 H       1  UNL1        0.0618
     26 H           1.9522   -1.8509   -2.3911 H       1  UNL1        0.0636
     27 H           0.0545   -1.5454   -0.9780 H       1  UNL1        0.1464
     28 H           0.0679    0.8701    0.5157 H       1  UNL1        0.0512
     29 H           0.1852   -0.5125    1.6014 H       1  UNL1        0.0512
     30 H          -0.2999   -2.4451    1.1927 H       1  UNL1        0.2921
     31 H          -3.7788   -2.8573    1.0597 H       1  UNL1        0.0654
     32 H          -5.3742   -1.1092    0.5109 H       1  UNL1        0.0625
     33 H          -5.8175    1.1013   -0.0085 H       1  UNL1        0.0624
     34 H          -5.0684    3.3734   -0.4033 H       1  UNL1        0.0618
     35 H          -2.7131    3.8977   -0.4043 H       1  UNL1        0.0618
     36 H          -1.1329    2.1460    0.0115 H       1  UNL1        0.0624
     37 H           2.3454    0.2695    1.2052 H       1  UNL1        0.0644
@<TRIPOS>BOND
     1     1     2    2
     2     2     3    1
     3     2     4    1
     4     4     5   ar
     5     4    22   ar
     6     5     6   ar
     7     6     7   ar
     8     7     8   ar
     9     8     9    1
    10     8    22   ar
    11     9    10    1
    12    10    11    1
    13    11    12   ar
    14    11    21   ar
    15    12    13    1
    16    12    14   ar
    17    14    15   ar
    18    15    16   ar
    19    16    17   ar
    20    16    21   ar
    21    17    18   ar
    22    18    19   ar
    23    19    20   ar
    24    20    21   ar
    25     3    23    1
    26     5    24    1
    27     6    25    1
    28     7    26    1
    29     9    27    1
    30    10    28    1
    31    10    29    1
    32    13    30    1
    33    14    31    1
    34    15    32    1
    35    17    33    1
    36    18    34    1
    37    19    35    1
    38    20    36    1
    39    22    37    1
@<TRIPOS>MOLECULE
../data/bude_mols_rdkit_confs/molecule_48.pdb
 37 39 0 0 0
SMALL
GASTEIGER

@<TRIPOS>ATOM
      1  O1         6.5990   -0.2460    0.4800 O.2     1  UNL1       -0.2451
      2  C1         5.4650    0.1740    0.8270 C.2     1  UNL1        0.3369
      3  O2         5.4200    0.8070    2.0940 O.3     1  UNL1       -0.4771
      4  C2         4.2760    0.0280    0.0190 C.ar    1  UNL1        0.0606
      5  C3         4.4250   -0.7960   -1.0930 C.ar    1  UNL1       -0.0477
      6  C4         3.3840   -0.9750   -1.9640 C.ar    1  UNL1       -0.0592
      7  C5         2.2000   -0.2860   -1.6630 C.ar    1  UNL1       -0.0408
      8  C6         2.0230    0.5390   -0.5720 C.ar    1  UNL1        0.0282
      9  N1         0.6860    1.1090   -0.3360 N.pl3   1  UNL1       -0.3396
     10  C7        -0.3610    0.3300   -0.8850 C.3     1  UNL1        0.0384
     11  C8        -1.4800   -0.3140   -0.2500 C.ar    1  UNL1        0.0186
     12  C9        -1.6320   -1.6570   -0.6710 C.ar    1  UNL1        0.1221
     13  O3        -0.5610   -2.1850   -1.3670 O.3     1  UNL1       -0.5064
     14  C10       -2.7110   -2.4330   -0.4110 C.ar    1  UNL1       -0.0193
     15  C11       -3.7390   -1.8710    0.3140 C.ar    1  UNL1       -0.0506
     16  C12       -3.6670   -0.5750    0.7560 C.ar    1  UNL1       -0.0173
     17  C13       -4.7450    0.0110    1.4040 C.ar    1  UNL1       -0.0540
     18  C14       -4.7130    1.3310    1.7620 C.ar    1  UNL1       -0.0612
     19  C15       -3.5740    2.0660    1.4530 C.ar    1  UNL1       -0.0612
     20  C16       -2.5080    1.5050    0.8180 C.ar    1  UNL1       -0.0536
     21  C17       -2.5310    0.1980    0.4680 C.ar    1  UNL1       -0.0097
     22  C18        3.0760    0.6960    0.2790 C.ar    1  UNL1       -0.0269
     23 H           4.6094    1.1456    2.4200 H       1  UNL1        0.2954
     24 H           5.3240   -1.2740   -1.2616 H       1  UNL1        0.0626
     25 H           3.4658   -1.5821   -2.7945 H       1  UNL1        0.0618
     26 H           1.4016   -0.4053   -2.3059 H       1  UNL1        0.0636
     27 H           0.5350    1.9488    0.1550 H       1  UNL1        0.1464
     28 H           0.1461   -0.4680   -1.3860 H       1  UNL1        0.0512
     29 H          -0.9053    1.1334   -1.3358 H       1  UNL1        0.0512
     30 H           0.1878   -1.6521   -1.5493 H       1  UNL1        0.2921
     31 H          -2.7613   -3.4087   -0.7434 H       1  UNL1        0.0654
     32 H          -4.5767   -2.4345    0.5278 H       1  UNL1        0.0625
     33 H          -5.5806   -0.5555    1.6184 H       1  UNL1        0.0624
     34 H          -5.5115    1.7687    2.2476 H       1  UNL1        0.0618
     35 H          -3.5354    3.0642    1.7120 H       1  UNL1        0.0618
     36 H          -1.6783    2.0796    0.6025 H       1  UNL1        0.0624
     37 H           2.9880    1.3033    1.1088 H       1  UNL1        0.0644
@<TRIPOS>BOND
     1     1     2    2
     2     2     3    1
     3     2     4    1
     4     4     5   ar
     5     4    22   ar
     6     5     6   ar
     7     6     7   ar
     8     7     8   ar
     9     8     9    1
    10     8    22   ar
    11     9    10    1
    12    10    11    1
    13    11    12   ar
    14    11    21   ar
    15    12    13    1
    16    12    14   ar
    17    14    15   ar
    18    15    16   ar
    19    16    17   ar
    20    16    21   ar
    21    17    18   ar
    22    18    19   ar
    23    19    20   ar
    24    20    21   ar
    25     3    23    1
    26     5    24    1
    27     6    25    1
    28     7    26    1
    29     9    27    1
    30    10    28    1
    31    10    29    1
    32    13    30    1
    33    14    31    1
    34    15    32    1
    35    17    33    1
    36    18    34    1
    37    19    35    1
    38    20    36    1
    39    22    37    1
@<TRIPOS>MOLECULE
../data/bude_mols_rdkit_confs/molecule_48.pdb
 37 39 0 0 0
SMALL
GASTEIGER

@<TRIPOS>ATOM
      1  O1         5.2730    2.2060    1.8440 O.2     1  UNL1       -0.2451
      2  C1         4.3710    2.3540    0.9880 C.2     1  UNL1        0.3369
      3  O2         4.1910    3.6060    0.3970 O.3     1  UNL1       -0.4771
      4  C2         3.5390    1.2210    0.6340 C.ar    1  UNL1        0.0606
      5  C3         3.7160   -0.0030    1.2230 C.ar    1  UNL1       -0.0477
      6  C4         2.9370   -1.1210    0.9090 C.ar    1  UNL1       -0.0592
      7  C5         1.9360   -0.9590   -0.0570 C.ar    1  UNL1       -0.0408
      8  C6         1.7480    0.2590   -0.6550 C.ar    1  UNL1        0.0282
      9  N1         0.7050    0.4250   -1.6560 N.pl3   1  UNL1       -0.3396
     10  C7        -0.1820   -0.5740   -2.0190 C.3     1  UNL1        0.0384
     11  C8        -1.3840   -0.8830   -1.2640 C.ar    1  UNL1        0.0186
     12  C9        -2.0780   -2.0480   -1.7260 C.ar    1  UNL1        0.1221
     13  O3        -1.5150   -2.7180   -2.7970 O.3     1  UNL1       -0.5064
     14  C10       -3.2260   -2.4570   -1.1280 C.ar    1  UNL1       -0.0193
     15  C11       -3.7660   -1.7760   -0.0660 C.ar    1  UNL1       -0.0506
     16  C12       -3.1260   -0.6470    0.4040 C.ar    1  UNL1       -0.0173
     17  C13       -3.6760    0.0510    1.4420 C.ar    1  UNL1       -0.0540
     18  C14       -3.0890    1.1990    1.9200 C.ar    1  UNL1       -0.0612
     19  C15       -1.9310    1.6530    1.3440 C.ar    1  UNL1       -0.0612
     20  C16       -1.3800    0.9300    0.2850 C.ar    1  UNL1       -0.0536
     21  C17       -1.9520   -0.2280   -0.2070 C.ar    1  UNL1       -0.0097
     22  C18        2.5260    1.3230   -0.3220 C.ar    1  UNL1       -0.0269
     23 H           3.5194    3.7290   -0.2447 H       1  UNL1        0.2954
     24 H           4.4592   -0.1048    1.9318 H       1  UNL1        0.0626
     25 H           3.0936   -2.0303    1.3712 H       1  UNL1        0.0618
     26 H           1.3388   -1.7589   -0.3188 H       1  UNL1        0.0636
     27 H           0.6254    1.2994   -2.1014 H       1  UNL1        0.1464
     28 H           0.3890   -1.4785   -2.0457 H       1  UNL1        0.0512
     29 H          -0.5953   -0.1732   -2.9209 H       1  UNL1        0.0512
     30 H          -0.7209   -2.4028   -3.1818 H       1  UNL1        0.2921
     31 H          -3.7043   -3.3007   -1.4807 H       1  UNL1        0.0654
     32 H          -4.6393   -2.1038    0.3755 H       1  UNL1        0.0625
     33 H          -4.5484   -0.2898    1.8754 H       1  UNL1        0.0624
     34 H          -3.5165    1.7142    2.7054 H       1  UNL1        0.0618
     35 H          -1.4752    2.5131    1.6869 H       1  UNL1        0.0618
     36 H          -0.5092    1.2744   -0.1488 H       1  UNL1        0.0624
     37 H           2.3638    2.2296   -0.7877 H       1  UNL1        0.0644
@<TRIPOS>BOND
     1     1     2    2
     2     2     3    1
     3     2     4    1
     4     4     5   ar
     5     4    22   ar
     6     5     6   ar
     7     6     7   ar
     8     7     8   ar
     9     8     9    1
    10     8    22   ar
    11     9    10    1
    12    10    11    1
    13    11    12   ar
    14    11    21   ar
    15    12    13    1
    16    12    14   ar
    17    14    15   ar
    18    15    16   ar
    19    16    17   ar
    20    16    21   ar
    21    17    18   ar
    22    18    19   ar
    23    19    20   ar
    24    20    21   ar
    25     3    23    1
    26     5    24    1
    27     6    25    1
    28     7    26    1
    29     9    27    1
    30    10    28    1
    31    10    29    1
    32    13    30    1
    33    14    31    1
    34    15    32    1
    35    17    33    1
    36    18    34    1
    37    19    35    1
    38    20    36    1
    39    22    37    1
@<TRIPOS>MOLECULE
../data/bude_mols_rdkit_confs/molecule_48.pdb
 37 39 0 0 0
SMALL
GASTEIGER

@<TRIPOS>ATOM
      1  O1         4.6590   -2.6310   -0.5720 O.2     1  UNL1       -0.2451
      2  C1         5.1590   -1.4480   -0.2660 C.2     1  UNL1        0.3369
      3  O2         6.4910   -1.3580   -0.0590 O.3     1  UNL1       -0.4771
      4  C2         4.2020   -0.3450   -0.1710 C.ar    1  UNL1        0.0606
      5  C3         4.6480    0.9850    0.0410 C.ar    1  UNL1       -0.0477
      6  C4         3.7440    1.9940    0.0650 C.ar    1  UNL1       -0.0592
      7  C5         2.3900    1.6780   -0.1250 C.ar    1  UNL1       -0.0408
      8  C6         1.9300    0.3860   -0.3250 C.ar    1  UNL1        0.0282
      9  N1         0.5490    0.1160   -0.3680 N.pl3   1  UNL1       -0.3396
     10  C7        -0.3820    1.0490    0.2200 C.3     1  UNL1        0.0384
     11  C8        -1.7740    0.7480   -0.1120 C.ar    1  UNL1        0.0186
     12  C9        -2.5280    1.8180   -0.6330 C.ar    1  UNL1        0.1221
     13  O3        -2.0070    3.0610   -0.9330 O.3     1  UNL1       -0.5064
     14  C10       -3.8920    1.7260   -0.8970 C.ar    1  UNL1       -0.0193
     15  C11       -4.5300    0.5580   -0.6440 C.ar    1  UNL1       -0.0506
     16  C12       -3.8360   -0.5320   -0.1200 C.ar    1  UNL1       -0.0173
     17  C13       -4.5090   -1.6670    0.2700 C.ar    1  UNL1       -0.0540
     18  C14       -3.8620   -2.7000    0.8890 C.ar    1  UNL1       -0.0612
     19  C15       -2.4860   -2.5940    1.1450 C.ar    1  UNL1       -0.0612
     20  C16       -1.7740   -1.4810    0.7950 C.ar    1  UNL1       -0.0536
     21  C17       -2.4540   -0.4440    0.1540 C.ar    1  UNL1       -0.0097
     22  C18        2.8750   -0.5800   -0.3460 C.ar    1  UNL1       -0.0269
     23 H           6.8764   -0.5324    0.1597 H       1  UNL1        0.2954
     24 H           5.6520    1.1822    0.1757 H       1  UNL1        0.0626
     25 H           4.0434    2.9695    0.2190 H       1  UNL1        0.0618
     26 H           1.7017    2.4469   -0.1153 H       1  UNL1        0.0636
     27 H           0.2195   -0.7063   -0.7976 H       1  UNL1        0.1464
     28 H          -0.1510    2.0316   -0.1349 H       1  UNL1        0.0512
     29 H          -0.2820    0.9763    1.2828 H       1  UNL1        0.0512
     30 H          -1.0966    3.2335   -0.7937 H       1  UNL1        0.2921
     31 H          -4.4082    2.5339   -1.2789 H       1  UNL1        0.0654
     32 H          -5.5395    0.4741   -0.8410 H       1  UNL1        0.0625
     33 H          -5.5228   -1.7399    0.0916 H       1  UNL1        0.0624
     34 H          -4.3799   -3.5489    1.1652 H       1  UNL1        0.0618
     35 H          -1.9993   -3.3766    1.6095 H       1  UNL1        0.0618
     36 H          -0.7648   -1.4095    0.9984 H       1  UNL1        0.0624
     37 H           2.5709   -1.5534   -0.5043 H       1  UNL1        0.0644
@<TRIPOS>BOND
     1     1     2    2
     2     2     3    1
     3     2     4    1
     4     4     5   ar
     5     4    22   ar
     6     5     6   ar
     7     6     7   ar
     8     7     8   ar
     9     8     9    1
    10     8    22   ar
    11     9    10    1
    12    10    11    1
    13    11    12   ar
    14    11    21   ar
    15    12    13    1
    16    12    14   ar
    17    14    15   ar
    18    15    16   ar
    19    16    17   ar
    20    16    21   ar
    21    17    18   ar
    22    18    19   ar
    23    19    20   ar
    24    20    21   ar
    25     3    23    1
    26     5    24    1
    27     6    25    1
    28     7    26    1
    29     9    27    1
    30    10    28    1
    31    10    29    1
    32    13    30    1
    33    14    31    1
    34    15    32    1
    35    17    33    1
    36    18    34    1
    37    19    35    1
    38    20    36    1
    39    22    37    1
@<TRIPOS>MOLECULE
../data/bude_mols_rdkit_confs/molecule_48.pdb
 37 39 0 0 0
SMALL
GASTEIGER

@<TRIPOS>ATOM
      1  O1        -5.6280    2.1580   -0.4170 O.2     1  UNL1       -0.2451
      2  C1        -4.7440    1.6350    0.3410 C.2     1  UNL1        0.3369
      3  O2        -4.7950    2.0010    1.6740 O.3     1  UNL1       -0.4771
      4  C2        -3.7450    0.7170   -0.1930 C.ar    1  UNL1        0.0606
      5  C3        -3.7470    0.3760   -1.5140 C.ar    1  UNL1       -0.0477
      6  C4        -2.8180   -0.5140   -1.9730 C.ar    1  UNL1       -0.0592
      7  C5        -1.8790   -1.0670   -1.0980 C.ar    1  UNL1       -0.0408
      8  C6        -1.8670   -0.7300    0.2290 C.ar    1  UNL1        0.0282
      9  N1        -0.9580   -1.3110    1.1190 N.pl3   1  UNL1       -0.3396
     10  C7         0.2890   -0.7960    1.5890 C.3     1  UNL1        0.0384
     11  C8         1.3770   -0.8180    0.5810 C.ar    1  UNL1        0.0186
     12  C9         1.6270   -2.0860   -0.0050 C.ar    1  UNL1        0.1221
     13  O3         0.7600   -3.1510    0.3090 O.3     1  UNL1       -0.5064
     14  C10        2.6990   -2.2190   -0.8390 C.ar    1  UNL1       -0.0193
     15  C11        3.5140   -1.1470   -1.1070 C.ar    1  UNL1       -0.0506
     16  C12        3.2720    0.1040   -0.5360 C.ar    1  UNL1       -0.0173
     17  C13        4.1430    1.1450   -0.8330 C.ar    1  UNL1       -0.0540
     18  C14        3.9020    2.3610   -0.2540 C.ar    1  UNL1       -0.0612
     19  C15        2.8360    2.5700    0.6040 C.ar    1  UNL1       -0.0612
     20  C16        1.9880    1.5060    0.8760 C.ar    1  UNL1       -0.0536
     21  C17        2.1760    0.2430    0.3200 C.ar    1  UNL1       -0.0097
     22  C18       -2.8210    0.1820    0.6730 C.ar    1  UNL1       -0.0269
     23 H          -4.1725    1.6504    2.2803 H       1  UNL1        0.2954
     24 H          -4.4416    0.7853   -2.1583 H       1  UNL1        0.0626
     25 H          -2.8095   -0.7792   -2.9703 H       1  UNL1        0.0618
     26 H          -1.1839   -1.7397   -1.4576 H       1  UNL1        0.0636
     27 H          -1.2120   -2.1953    1.4693 H       1  UNL1        0.1464
     28 H           0.5984   -1.3821    2.4290 H       1  UNL1        0.0512
     29 H           0.1222    0.2313    1.8377 H       1  UNL1        0.0512
     30 H           0.0363   -3.0110    0.8875 H       1  UNL1        0.2921
     31 H           2.8990   -3.1340   -1.2724 H       1  UNL1        0.0654
     32 H           4.3191   -1.2679   -1.7412 H       1  UNL1        0.0625
     33 H           4.9441    1.0058   -1.4685 H       1  UNL1        0.0624
     34 H           4.5356    3.1481   -0.4638 H       1  UNL1        0.0618
     35 H           2.6757    3.4956    1.0314 H       1  UNL1        0.0618
     36 H           1.1898    1.6558    1.5128 H       1  UNL1        0.0624
     37 H          -2.8346    0.4604    1.6667 H       1  UNL1        0.0644
@<TRIPOS>BOND
     1     1     2    2
     2     2     3    1
     3     2     4    1
     4     4     5   ar
     5     4    22   ar
     6     5     6   ar
     7     6     7   ar
     8     7     8   ar
     9     8     9    1
    10     8    22   ar
    11     9    10    1
    12    10    11    1
    13    11    12   ar
    14    11    21   ar
    15    12    13    1
    16    12    14   ar
    17    14    15   ar
    18    15    16   ar
    19    16    17   ar
    20    16    21   ar
    21    17    18   ar
    22    18    19   ar
    23    19    20   ar
    24    20    21   ar
    25     3    23    1
    26     5    24    1
    27     6    25    1
    28     7    26    1
    29     9    27    1
    30    10    28    1
    31    10    29    1
    32    13    30    1
    33    14    31    1
    34    15    32    1
    35    17    33    1
    36    18    34    1
    37    19    35    1
    38    20    36    1
    39    22    37    1
@<TRIPOS>MOLECULE
../data/bude_mols_rdkit_confs/molecule_48.pdb
 37 39 0 0 0
SMALL
GASTEIGER

@<TRIPOS>ATOM
      1  O1         4.4300    2.9180    1.0910 O.2     1  UNL1       -0.2451
      2  C1         4.9360    1.8140    0.6590 C.2     1  UNL1        0.3369
      3  O2         6.3390    1.8250    0.6630 O.3     1  UNL1       -0.4771
      4  C2         4.1860    0.6950    0.2280 C.ar    1  UNL1        0.0606
      5  C3         4.8450   -0.5260   -0.0240 C.ar    1  UNL1       -0.0477
      6  C4         4.0960   -1.5910   -0.5450 C.ar    1  UNL1       -0.0592
      7  C5         2.7460   -1.4170   -0.8010 C.ar    1  UNL1       -0.0408
      8  C6         2.0770   -0.2850   -0.5680 C.ar    1  UNL1        0.0282
      9  N1         0.6450   -0.0710   -0.7240 N.pl3   1  UNL1       -0.3396
     10  C7        -0.1710   -0.5590    0.3340 C.3     1  UNL1        0.0384
     11  C8        -1.5260   -0.0670    0.4870 C.ar    1  UNL1        0.0186
     12  C9        -1.7950    0.6760    1.6870 C.ar    1  UNL1        0.1221
     13  O3        -0.7040    0.9670    2.5650 O.3     1  UNL1       -0.5064
     14  C10       -3.0290    1.1020    1.9760 C.ar    1  UNL1       -0.0193
     15  C11       -4.1010    0.8570    1.1580 C.ar    1  UNL1       -0.0506
     16  C12       -3.9120    0.1580    0.0420 C.ar    1  UNL1       -0.0173
     17  C13       -4.9570   -0.2120   -0.7880 C.ar    1  UNL1       -0.0540
     18  C14       -4.8330   -1.0000   -1.8720 C.ar    1  UNL1       -0.0612
     19  C15       -3.5660   -1.4650   -2.2170 C.ar    1  UNL1       -0.0612
     20  C16       -2.5160   -1.1040   -1.4400 C.ar    1  UNL1       -0.0536
     21  C17       -2.6190   -0.3060   -0.2970 C.ar    1  UNL1       -0.0097
     22  C18        2.8110    0.7740   -0.0500 C.ar    1  UNL1       -0.0269
     23 H           6.8143    1.0730    0.3687 H       1  UNL1        0.2954
     24 H           5.8529   -0.6331    0.1701 H       1  UNL1        0.0626
     25 H           4.5479   -2.4988   -0.7365 H       1  UNL1        0.0618
     26 H           2.2233   -2.2137   -1.1974 H       1  UNL1        0.0636
     27 H           0.2659    0.3824   -1.5114 H       1  UNL1        0.1464
     28 H           0.3425   -0.3403    1.2469 H       1  UNL1        0.0512
     29 H          -0.3092   -1.5902    0.0841 H       1  UNL1        0.0512
     30 H           0.1583    0.6655    2.3566 H       1  UNL1        0.2921
     31 H          -3.1798    1.6348    2.8469 H       1  UNL1        0.0654
     32 H          -5.0395    1.2090    1.4038 H       1  UNL1        0.0625
     33 H          -5.8989    0.1421   -0.5588 H       1  UNL1        0.0624
     34 H          -5.6591   -1.2544   -2.4357 H       1  UNL1        0.0618
     35 H          -3.4305   -2.0688   -3.0429 H       1  UNL1        0.0618
     36 H          -1.5785   -1.4405   -1.7100 H       1  UNL1        0.0624
     37 H           2.3224    1.6629    0.1401 H       1  UNL1        0.0644
@<TRIPOS>BOND
     1     1     2    2
     2     2     3    1
     3     2     4    1
     4     4     5   ar
     5     4    22   ar
     6     5     6   ar
     7     6     7   ar
     8     7     8   ar
     9     8     9    1
    10     8    22   ar
    11     9    10    1
    12    10    11    1
    13    11    12   ar
    14    11    21   ar
    15    12    13    1
    16    12    14   ar
    17    14    15   ar
    18    15    16   ar
    19    16    17   ar
    20    16    21   ar
    21    17    18   ar
    22    18    19   ar
    23    19    20   ar
    24    20    21   ar
    25     3    23    1
    26     5    24    1
    27     6    25    1
    28     7    26    1
    29     9    27    1
    30    10    28    1
    31    10    29    1
    32    13    30    1
    33    14    31    1
    34    15    32    1
    35    17    33    1
    36    18    34    1
    37    19    35    1
    38    20    36    1
    39    22    37    1
@<TRIPOS>MOLECULE
../data/bude_mols_rdkit_confs/molecule_48.pdb
 37 39 0 0 0
SMALL
GASTEIGER

@<TRIPOS>ATOM
      1  O1        -4.6140    0.7680   -2.9120 O.2     1  UNL1       -0.2451
      2  C1        -5.0380    0.5810   -1.7610 C.2     1  UNL1        0.3369
      3  O2        -6.4330    0.6050   -1.6280 O.3     1  UNL1       -0.4771
      4  C2        -4.1770    0.3440   -0.6270 C.ar    1  UNL1        0.0606
      5  C3        -4.7230    0.1220    0.6140 C.ar    1  UNL1       -0.0477
      6  C4        -3.8890   -0.1260    1.6630 C.ar    1  UNL1       -0.0592
      7  C5        -2.5110   -0.1640    1.5140 C.ar    1  UNL1       -0.0408
      8  C6        -1.9230    0.0490    0.2740 C.ar    1  UNL1        0.0282
      9  N1        -0.5760   -0.0760    0.0370 N.pl3   1  UNL1       -0.3396
     10  C7         0.4100   -0.4170    1.0320 C.3     1  UNL1        0.0384
     11  C8         1.6700   -0.7810    0.3890 C.ar    1  UNL1        0.0186
     12  C9         2.1400   -2.0960    0.3540 C.ar    1  UNL1        0.1221
     13  O3         1.2940   -3.1160    0.8150 O.3     1  UNL1       -0.5064
     14  C10        3.3830   -2.4520   -0.1140 C.ar    1  UNL1       -0.0193
     15  C11        4.2080   -1.4250   -0.5780 C.ar    1  UNL1       -0.0506
     16  C12        3.7830   -0.1320   -0.5470 C.ar    1  UNL1       -0.0173
     17  C13        4.6540    0.8680   -0.9560 C.ar    1  UNL1       -0.0540
     18  C14        4.3100    2.1820   -0.9040 C.ar    1  UNL1       -0.0612
     19  C15        3.1010    2.5510   -0.4520 C.ar    1  UNL1       -0.0612
     20  C16        2.2160    1.5630   -0.0380 C.ar    1  UNL1       -0.0536
     21  C17        2.5040    0.2110   -0.0650 C.ar    1  UNL1       -0.0097
     22  C18       -2.7840    0.3070   -0.7660 C.ar    1  UNL1       -0.0269
     23 H          -6.8259    0.4713   -0.7879 H       1  UNL1        0.2954
     24 H          -5.7459    0.1427    0.7494 H       1  UNL1        0.0626
     25 H          -4.2957   -0.2906    2.5971 H       1  UNL1        0.0618
     26 H          -1.9148   -0.3529    2.3349 H       1  UNL1        0.0636
     27 H          -0.2597    0.0791   -0.8823 H       1  UNL1        0.1464
     28 H           0.0565   -1.2446    1.6109 H       1  UNL1        0.0512
     29 H           0.5732    0.4291    1.6663 H       1  UNL1        0.0512
     30 H           0.4407   -2.9058    1.1401 H       1  UNL1        0.2921
     31 H           3.6931   -3.4363   -0.1220 H       1  UNL1        0.0654
     32 H           5.1458   -1.6477   -0.9467 H       1  UNL1        0.0625
     33 H           5.5879    0.6070   -1.3091 H       1  UNL1        0.0624
     34 H           4.9826    2.9007   -1.2140 H       1  UNL1        0.0618
     35 H           2.8345    3.5472   -0.4128 H       1  UNL1        0.0618
     36 H           1.2895    1.8555    0.3100 H       1  UNL1        0.0624
     37 H          -2.3820    0.4830   -1.7000 H       1  UNL1        0.0644
@<TRIPOS>BOND
     1     1     2    2
     2     2     3    1
     3     2     4    1
     4     4     5   ar
     5     4    22   ar
     6     5     6   ar
     7     6     7   ar
     8     7     8   ar
     9     8     9    1
    10     8    22   ar
    11     9    10    1
    12    10    11    1
    13    11    12   ar
    14    11    21   ar
    15    12    13    1
    16    12    14   ar
    17    14    15   ar
    18    15    16   ar
    19    16    17   ar
    20    16    21   ar
    21    17    18   ar
    22    18    19   ar
    23    19    20   ar
    24    20    21   ar
    25     3    23    1
    26     5    24    1
    27     6    25    1
    28     7    26    1
    29     9    27    1
    30    10    28    1
    31    10    29    1
    32    13    30    1
    33    14    31    1
    34    15    32    1
    35    17    33    1
    36    18    34    1
    37    19    35    1
    38    20    36    1
    39    22    37    1
@<TRIPOS>MOLECULE
../data/bude_mols_rdkit_confs/molecule_48.pdb
 37 39 0 0 0
SMALL
GASTEIGER

@<TRIPOS>ATOM
      1  O1         6.3310   -1.4460    0.5960 O.2     1  UNL1       -0.2451
      2  C1         5.1850   -1.5470    0.1890 C.2     1  UNL1        0.3369
      3  O2         4.7000   -2.8010   -0.2190 O.3     1  UNL1       -0.4771
      4  C2         4.2710   -0.3990    0.1010 C.ar    1  UNL1        0.0606
      5  C3         4.7050    0.8750    0.3330 C.ar    1  UNL1       -0.0477
      6  C4         3.8470    1.9640    0.3020 C.ar    1  UNL1       -0.0592
      7  C5         2.4970    1.7100    0.0200 C.ar    1  UNL1       -0.0408
      8  C6         2.0300    0.4430   -0.2180 C.ar    1  UNL1        0.0282
      9  N1         0.6680    0.2050   -0.4550 N.pl3   1  UNL1       -0.3396
     10  C7        -0.2850    0.9770    0.3780 C.3     1  UNL1        0.0384
     11  C8        -1.6240    0.7180   -0.1970 C.ar    1  UNL1        0.0186
     12  C9        -2.1100    1.7790   -0.9860 C.ar    1  UNL1        0.1221
     13  O3        -1.2560    2.8400   -1.2220 O.3     1  UNL1       -0.5064
     14  C10       -3.3830    1.7290   -1.4690 C.ar    1  UNL1       -0.0193
     15  C11       -4.1740    0.6500   -1.1760 C.ar    1  UNL1       -0.0506
     16  C12       -3.7220   -0.3890   -0.3950 C.ar    1  UNL1       -0.0173
     17  C13       -4.5520   -1.4140   -0.0480 C.ar    1  UNL1       -0.0540
     18  C14       -4.0680   -2.4120    0.8070 C.ar    1  UNL1       -0.0612
     19  C15       -2.7920   -2.3780    1.2990 C.ar    1  UNL1       -0.0612
     20  C16       -1.9430   -1.3250    0.9390 C.ar    1  UNL1       -0.0536
     21  C17       -2.4030   -0.3410    0.1020 C.ar    1  UNL1       -0.0097
     22  C18        2.9340   -0.5820   -0.1720 C.ar    1  UNL1       -0.0269
     23 H           3.8208   -2.8840   -0.5323 H       1  UNL1        0.2954
     24 H           5.7041    1.0324    0.5381 H       1  UNL1        0.0626
     25 H           4.1879    2.9218    0.4791 H       1  UNL1        0.0618
     26 H           1.8347    2.5009   -0.0093 H       1  UNL1        0.0636
     27 H           0.3625   -0.4377   -1.1353 H       1  UNL1        0.1464
     28 H          -0.0565    2.0214    0.3348 H       1  UNL1        0.0512
     29 H          -0.2348    0.6859    1.4064 H       1  UNL1        0.0512
     30 H          -0.3881    2.8304   -0.8689 H       1  UNL1        0.2921
     31 H          -3.7485    2.4986   -2.0514 H       1  UNL1        0.0654
     32 H          -5.1348    0.6152   -1.5510 H       1  UNL1        0.0625
     33 H          -5.5182   -1.4534   -0.4085 H       1  UNL1        0.0624
     34 H          -4.6892   -3.1922    1.0724 H       1  UNL1        0.0618
     35 H          -2.4580   -3.1228    1.9305 H       1  UNL1        0.0618
     36 H          -0.9773   -1.2894    1.3011 H       1  UNL1        0.0624
     37 H           2.5971   -1.5409   -0.3509 H       1  UNL1        0.0644
@<TRIPOS>BOND
     1     1     2    2
     2     2     3    1
     3     2     4    1
     4     4     5   ar
     5     4    22   ar
     6     5     6   ar
     7     6     7   ar
     8     7     8   ar
     9     8     9    1
    10     8    22   ar
    11     9    10    1
    12    10    11    1
    13    11    12   ar
    14    11    21   ar
    15    12    13    1
    16    12    14   ar
    17    14    15   ar
    18    15    16   ar
    19    16    17   ar
    20    16    21   ar
    21    17    18   ar
    22    18    19   ar
    23    19    20   ar
    24    20    21   ar
    25     3    23    1
    26     5    24    1
    27     6    25    1
    28     7    26    1
    29     9    27    1
    30    10    28    1
    31    10    29    1
    32    13    30    1
    33    14    31    1
    34    15    32    1
    35    17    33    1
    36    18    34    1
    37    19    35    1
    38    20    36    1
    39    22    37    1
@<TRIPOS>MOLECULE
../data/bude_mols_rdkit_confs/molecule_48.pdb
 37 39 0 0 0
SMALL
GASTEIGER

@<TRIPOS>ATOM
      1  O1         6.4360    0.3880    0.8700 O.2     1  UNL1       -0.2451
      2  C1         5.3630   -0.3160    0.9510 C.2     1  UNL1        0.3369
      3  O2         5.4600   -1.5440    1.5330 O.3     1  UNL1       -0.4771
      4  C2         4.0820    0.2290    0.4160 C.ar    1  UNL1        0.0606
      5  C3         4.1300    1.4320   -0.2650 C.ar    1  UNL1       -0.0477
      6  C4         3.0310    1.9760   -0.8520 C.ar    1  UNL1       -0.0592
      7  C5         1.8550    1.2810   -0.7230 C.ar    1  UNL1       -0.0408
      8  C6         1.7470    0.0630   -0.0430 C.ar    1  UNL1        0.0282
      9  N1         0.5480   -0.5930   -0.1320 N.pl3   1  UNL1       -0.3396
     10  C7        -0.4350   -1.5350    0.3200 C.3     1  UNL1        0.0384
     11  C8        -1.7000   -1.1580   -0.3830 C.ar    1  UNL1        0.0186
     12  C9        -2.2680   -2.0580   -1.2870 C.ar    1  UNL1        0.1221
     13  O3        -1.7110   -3.2800   -1.5970 O.3     1  UNL1       -0.5064
     14  C10       -3.4470   -1.7750   -1.9480 C.ar    1  UNL1       -0.0193
     15  C11       -4.0250   -0.5760   -1.6750 C.ar    1  UNL1       -0.0506
     16  C12       -3.4810    0.3320   -0.7730 C.ar    1  UNL1       -0.0173
     17  C13       -4.1590    1.4830   -0.4730 C.ar    1  UNL1       -0.0540
     18  C14       -3.6180    2.3100    0.5100 C.ar    1  UNL1       -0.0612
     19  C15       -2.4420    1.9890    1.1570 C.ar    1  UNL1       -0.0612
     20  C16       -1.7620    0.8330    0.8420 C.ar    1  UNL1       -0.0536
     21  C17       -2.3010    0.0330   -0.1180 C.ar    1  UNL1       -0.0097
     22  C18        2.8870   -0.4700    0.5380 C.ar    1  UNL1       -0.0269
     23 H           4.7003   -2.0870    1.6107 H       1  UNL1        0.2954
     24 H           5.0298    1.9332   -0.3296 H       1  UNL1        0.0626
     25 H           3.0789    2.8678   -1.3692 H       1  UNL1        0.0618
     26 H           1.0040    1.6782   -1.1508 H       1  UNL1        0.0636
     27 H           0.1415   -0.2133   -0.9443 H       1  UNL1        0.1464
     28 H          -0.5609   -1.4649    1.3803 H       1  UNL1        0.0512
     29 H          -0.1470   -2.5433    0.1071 H       1  UNL1        0.0512
     30 H          -0.9100   -3.5465   -1.1904 H       1  UNL1        0.2921
     31 H          -3.8677   -2.4403   -2.6154 H       1  UNL1        0.0654
     32 H          -4.9036   -0.3290   -2.1567 H       1  UNL1        0.0625
     33 H          -5.0371    1.7289   -0.9562 H       1  UNL1        0.0624
     34 H          -4.1084    3.1830    0.7599 H       1  UNL1        0.0618
     35 H          -2.0688    2.6204    1.8830 H       1  UNL1        0.0618
     36 H          -0.8793    0.5837    1.3150 H       1  UNL1        0.0624
     37 H           2.8493   -1.3655    1.0495 H       1  UNL1        0.0644
@<TRIPOS>BOND
     1     1     2    2
     2     2     3    1
     3     2     4    1
     4     4     5   ar
     5     4    22   ar
     6     5     6   ar
     7     6     7   ar
     8     7     8   ar
     9     8     9    1
    10     8    22   ar
    11     9    10    1
    12    10    11    1
    13    11    12   ar
    14    11    21   ar
    15    12    13    1
    16    12    14   ar
    17    14    15   ar
    18    15    16   ar
    19    16    17   ar
    20    16    21   ar
    21    17    18   ar
    22    18    19   ar
    23    19    20   ar
    24    20    21   ar
    25     3    23    1
    26     5    24    1
    27     6    25    1
    28     7    26    1
    29     9    27    1
    30    10    28    1
    31    10    29    1
    32    13    30    1
    33    14    31    1
    34    15    32    1
    35    17    33    1
    36    18    34    1
    37    19    35    1
    38    20    36    1
    39    22    37    1
@<TRIPOS>MOLECULE
../data/bude_mols_rdkit_confs/molecule_48.pdb
 37 39 0 0 0
SMALL
GASTEIGER

@<TRIPOS>ATOM
      1  O1         6.3160    0.8730    0.0850 O.2     1  UNL1       -0.2451
      2  C1         5.0760    1.0550    0.1450 C.2     1  UNL1        0.3369
      3  O2         4.6210    2.3590    0.1200 O.3     1  UNL1       -0.4771
      4  C2         4.2260   -0.1230    0.2370 C.ar    1  UNL1        0.0606
      5  C3         4.7560   -1.3870    0.3260 C.ar    1  UNL1       -0.0477
      6  C4         3.9400   -2.5260    0.4110 C.ar    1  UNL1       -0.0592
      7  C5         2.5720   -2.3960    0.4050 C.ar    1  UNL1       -0.0408
      8  C6         2.0110   -1.1200    0.3160 C.ar    1  UNL1        0.0282
      9  N1         0.5930   -1.0560    0.3110 N.pl3   1  UNL1       -0.3396
     10  C7        -0.1110   -0.0660   -0.4950 C.3     1  UNL1        0.0384
     11  C8        -1.5570   -0.2300   -0.3600 C.ar    1  UNL1        0.0186
     12  C9        -2.0610   -1.5220   -0.5880 C.ar    1  UNL1        0.1221
     13  O3        -1.1780   -2.5760   -0.8650 O.3     1  UNL1       -0.5064
     14  C10       -3.4130   -1.7090   -0.5350 C.ar    1  UNL1       -0.0193
     15  C11       -4.2590   -0.6690   -0.2660 C.ar    1  UNL1       -0.0506
     16  C12       -3.7740    0.6240   -0.0340 C.ar    1  UNL1       -0.0173
     17  C13       -4.6400    1.6570    0.2040 C.ar    1  UNL1       -0.0540
     18  C14       -4.2220    2.9530    0.4040 C.ar    1  UNL1       -0.0612
     19  C15       -2.8590    3.1630    0.3560 C.ar    1  UNL1       -0.0612
     20  C16       -1.9780    2.1250    0.1170 C.ar    1  UNL1       -0.0536
     21  C17       -2.4080    0.8140   -0.0860 C.ar    1  UNL1       -0.0097
     22  C18        2.8350   -0.0450    0.2350 C.ar    1  UNL1       -0.0269
     23 H           3.7017    2.5354    0.1629 H       1  UNL1        0.2954
     24 H           5.7815   -1.5024    0.3305 H       1  UNL1        0.0626
     25 H           4.3682   -3.4626    0.4781 H       1  UNL1        0.0618
     26 H           1.9672   -3.2300    0.4654 H       1  UNL1        0.0636
     27 H           0.0771   -1.6897    0.8601 H       1  UNL1        0.1464
     28 H           0.1629   -0.1890   -1.5220 H       1  UNL1        0.0512
     29 H           0.1594    0.9120   -0.1555 H       1  UNL1        0.0512
     30 H          -0.2549   -2.4182   -0.8950 H       1  UNL1        0.2921
     31 H          -3.8022   -2.6503   -0.7006 H       1  UNL1        0.0654
     32 H          -5.2761   -0.8406   -0.2333 H       1  UNL1        0.0625
     33 H          -5.6516    1.4550    0.2349 H       1  UNL1        0.0624
     34 H          -4.8880    3.7216    0.5793 H       1  UNL1        0.0618
     35 H          -2.4894    4.1155    0.5017 H       1  UNL1        0.0618
     36 H          -0.9664    2.3273    0.0878 H       1  UNL1        0.0624
     37 H           2.4038    0.8902    0.1676 H       1  UNL1        0.0644
@<TRIPOS>BOND
     1     1     2    2
     2     2     3    1
     3     2     4    1
     4     4     5   ar
     5     4    22   ar
     6     5     6   ar
     7     6     7   ar
     8     7     8   ar
     9     8     9    1
    10     8    22   ar
    11     9    10    1
    12    10    11    1
    13    11    12   ar
    14    11    21   ar
    15    12    13    1
    16    12    14   ar
    17    14    15   ar
    18    15    16   ar
    19    16    17   ar
    20    16    21   ar
    21    17    18   ar
    22    18    19   ar
    23    19    20   ar
    24    20    21   ar
    25     3    23    1
    26     5    24    1
    27     6    25    1
    28     7    26    1
    29     9    27    1
    30    10    28    1
    31    10    29    1
    32    13    30    1
    33    14    31    1
    34    15    32    1
    35    17    33    1
    36    18    34    1
    37    19    35    1
    38    20    36    1
    39    22    37    1
@<TRIPOS>MOLECULE
../data/bude_mols_rdkit_confs/molecule_48.pdb
 37 39 0 0 0
SMALL
GASTEIGER

@<TRIPOS>ATOM
      1  O1         4.3560    2.9660    1.7140 O.2     1  UNL1       -0.2451
      2  C1         4.5480    2.4000    0.6090 C.2     1  UNL1        0.3369
      3  O2         5.6020    2.7990   -0.1670 O.3     1  UNL1       -0.4771
      4  C2         3.6360    1.3440    0.2040 C.ar    1  UNL1        0.0606
      5  C3         3.8420    0.7220   -1.0040 C.ar    1  UNL1       -0.0477
      6  C4         2.9700   -0.2790   -1.3750 C.ar    1  UNL1       -0.0592
      7  C5         1.9150   -0.6490   -0.5530 C.ar    1  UNL1       -0.0408
      8  C6         1.7070   -0.0410    0.6370 C.ar    1  UNL1        0.0282
      9  N1         0.6140   -0.4300    1.4850 N.pl3   1  UNL1       -0.3396
     10  C7        -0.3110   -1.4230    1.2160 C.3     1  UNL1        0.0384
     11  C8        -1.5020   -1.3190    0.4120 C.ar    1  UNL1        0.0186
     12  C9        -2.2010   -2.5390    0.2100 C.ar    1  UNL1        0.1221
     13  O3        -1.6330   -3.6530    0.8070 O.3     1  UNL1       -0.5064
     14  C10       -3.3530   -2.6200   -0.5210 C.ar    1  UNL1       -0.0193
     15  C11       -3.8760   -1.4910   -1.0910 C.ar    1  UNL1       -0.0506
     16  C12       -3.2400   -0.2840   -0.9240 C.ar    1  UNL1       -0.0173
     17  C13       -3.8020    0.8500   -1.4880 C.ar    1  UNL1       -0.0540
     18  C14       -3.1940    2.0740   -1.3070 C.ar    1  UNL1       -0.0612
     19  C15       -2.0340    2.1680   -0.5680 C.ar    1  UNL1       -0.0612
     20  C16       -1.4720    1.0260   -0.0030 C.ar    1  UNL1       -0.0536
     21  C17       -2.0530   -0.2130   -0.1680 C.ar    1  UNL1       -0.0097
     22  C18        2.5760    0.9600    1.0120 C.ar    1  UNL1       -0.0269
     23 H           5.7579    2.3862   -0.9936 H       1  UNL1        0.2954
     24 H           4.6267    0.9964   -1.6156 H       1  UNL1        0.0626
     25 H           3.1038   -0.7606   -2.2779 H       1  UNL1        0.0618
     26 H           1.2774   -1.4020   -0.8553 H       1  UNL1        0.0636
     27 H           0.5142    0.0549    2.3360 H       1  UNL1        0.1464
     28 H          -0.6573   -1.7411    2.1771 H       1  UNL1        0.0512
     29 H           0.2800   -2.0274    0.5601 H       1  UNL1        0.0512
     30 H          -0.8424   -3.5671    1.3025 H       1  UNL1        0.2921
     31 H          -3.8266   -3.5288   -0.6427 H       1  UNL1        0.0654
     32 H          -4.7453   -1.5457   -1.6445 H       1  UNL1        0.0625
     33 H          -4.6708    0.7788   -2.0404 H       1  UNL1        0.0624
     34 H          -3.6081    2.9216   -1.7255 H       1  UNL1        0.0618
     35 H          -1.5816    3.0857   -0.4334 H       1  UNL1        0.0618
     36 H          -0.6043    1.1089    0.5495 H       1  UNL1        0.0624
     37 H           2.4348    1.4361    1.9167 H       1  UNL1        0.0644
@<TRIPOS>BOND
     1     1     2    2
     2     2     3    1
     3     2     4    1
     4     4     5   ar
     5     4    22   ar
     6     5     6   ar
     7     6     7   ar
     8     7     8   ar
     9     8     9    1
    10     8    22   ar
    11     9    10    1
    12    10    11    1
    13    11    12   ar
    14    11    21   ar
    15    12    13    1
    16    12    14   ar
    17    14    15   ar
    18    15    16   ar
    19    16    17   ar
    20    16    21   ar
    21    17    18   ar
    22    18    19   ar
    23    19    20   ar
    24    20    21   ar
    25     3    23    1
    26     5    24    1
    27     6    25    1
    28     7    26    1
    29     9    27    1
    30    10    28    1
    31    10    29    1
    32    13    30    1
    33    14    31    1
    34    15    32    1
    35    17    33    1
    36    18    34    1
    37    19    35    1
    38    20    36    1
    39    22    37    1
@<TRIPOS>MOLECULE
../data/bude_mols_rdkit_confs/molecule_48.pdb
 37 39 0 0 0
SMALL
GASTEIGER

@<TRIPOS>ATOM
      1  O1         5.2540   -0.1600    2.7050 O.2     1  UNL1       -0.2451
      2  C1         5.4500   -0.2980    1.4740 C.2     1  UNL1        0.3369
      3  O2         6.7150   -0.6840    1.0220 O.3     1  UNL1       -0.4771
      4  C2         4.3490   -0.0530    0.5500 C.ar    1  UNL1        0.0606
      5  C3         4.6040   -0.2340   -0.8010 C.ar    1  UNL1       -0.0477
      6  C4         3.5800   -0.0400   -1.7140 C.ar    1  UNL1       -0.0592
      7  C5         2.3550    0.3260   -1.2260 C.ar    1  UNL1       -0.0408
      8  C6         2.0700    0.5170    0.1190 C.ar    1  UNL1        0.0282
      9  N1         0.7570    0.8620    0.5350 N.pl3   1  UNL1       -0.3396
     10  C7        -0.2970   -0.0340    0.0490 C.3     1  UNL1        0.0384
     11  C8        -1.6480    0.3200    0.4800 C.ar    1  UNL1        0.0186
     12  C9        -1.9330    0.5150    1.8390 C.ar    1  UNL1        0.1221
     13  O3        -0.9620    0.4170    2.8000 O.3     1  UNL1       -0.5064
     14  C10       -3.2500    0.8120    2.2270 C.ar    1  UNL1       -0.0193
     15  C11       -4.2290    0.9000    1.2740 C.ar    1  UNL1       -0.0506
     16  C12       -3.9730    0.7090   -0.0610 C.ar    1  UNL1       -0.0173
     17  C13       -4.9880    0.7750   -0.9950 C.ar    1  UNL1       -0.0540
     18  C14       -4.7880    0.5620   -2.3430 C.ar    1  UNL1       -0.0612
     19  C15       -3.5120    0.2720   -2.7310 C.ar    1  UNL1       -0.0612
     20  C16       -2.4850    0.2030   -1.8150 C.ar    1  UNL1       -0.0536
     21  C17       -2.6680    0.4180   -0.4510 C.ar    1  UNL1       -0.0097
     22  C18        3.1140    0.3160    1.0250 C.ar    1  UNL1       -0.0269
     23 H           6.8724   -0.7900    0.1044 H       1  UNL1        0.2954
     24 H           5.5450   -0.5098   -1.1225 H       1  UNL1        0.0626
     25 H           3.7356   -0.1670   -2.7263 H       1  UNL1        0.0618
     26 H           1.5908    0.4699   -1.9044 H       1  UNL1        0.0636
     27 H           0.5689    1.6421    1.1054 H       1  UNL1        0.1464
     28 H          -0.0831   -1.0215    0.4010 H       1  UNL1        0.0512
     29 H          -0.2907    0.0438   -1.0181 H       1  UNL1        0.0512
     30 H          -0.0793    0.2195    2.5557 H       1  UNL1        0.2921
     31 H          -3.4777    0.9626    3.2222 H       1  UNL1        0.0654
     32 H          -5.1935    1.1176    1.5698 H       1  UNL1        0.0625
     33 H          -5.9422    0.9943   -0.6687 H       1  UNL1        0.0624
     34 H          -5.5626    0.6189   -3.0226 H       1  UNL1        0.0618
     35 H          -3.3127    0.1012   -3.7291 H       1  UNL1        0.0618
     36 H          -1.5362   -0.0182   -2.1553 H       1  UNL1        0.0624
     37 H           2.9596    0.4430    2.0375 H       1  UNL1        0.0644
@<TRIPOS>BOND
     1     1     2    2
     2     2     3    1
     3     2     4    1
     4     4     5   ar
     5     4    22   ar
     6     5     6   ar
     7     6     7   ar
     8     7     8   ar
     9     8     9    1
    10     8    22   ar
    11     9    10    1
    12    10    11    1
    13    11    12   ar
    14    11    21   ar
    15    12    13    1
    16    12    14   ar
    17    14    15   ar
    18    15    16   ar
    19    16    17   ar
    20    16    21   ar
    21    17    18   ar
    22    18    19   ar
    23    19    20   ar
    24    20    21   ar
    25     3    23    1
    26     5    24    1
    27     6    25    1
    28     7    26    1
    29     9    27    1
    30    10    28    1
    31    10    29    1
    32    13    30    1
    33    14    31    1
    34    15    32    1
    35    17    33    1
    36    18    34    1
    37    19    35    1
    38    20    36    1
    39    22    37    1
@<TRIPOS>MOLECULE
../data/bude_mols_rdkit_confs/molecule_48.pdb
 37 39 0 0 0
SMALL
GASTEIGER

@<TRIPOS>ATOM
      1  O1         4.5250    2.3330    1.2260 O.2     1  UNL1       -0.2451
      2  C1         4.9700    1.3560    0.5870 C.2     1  UNL1        0.3369
      3  O2         6.2980    1.4480    0.1980 O.3     1  UNL1       -0.4771
      4  C2         4.1630    0.1890    0.2620 C.ar    1  UNL1        0.0606
      5  C3         4.7840   -0.8620   -0.3650 C.ar    1  UNL1       -0.0477
      6  C4         4.0190   -1.9720   -0.6930 C.ar    1  UNL1       -0.0592
      7  C5         2.6730   -2.0360   -0.4050 C.ar    1  UNL1       -0.0408
      8  C6         2.0190   -0.9700    0.2370 C.ar    1  UNL1        0.0282
      9  N1         0.6410   -1.0220    0.5070 N.pl3   1  UNL1       -0.3396
     10  C7        -0.2190   -0.2680   -0.4180 C.3     1  UNL1        0.0384
     11  C8        -1.6440   -0.4080   -0.1500 C.ar    1  UNL1        0.0186
     12  C9        -2.1840   -1.7030   -0.0720 C.ar    1  UNL1        0.1221
     13  O3        -1.2960   -2.7610   -0.1580 O.3     1  UNL1       -0.5064
     14  C10       -3.5330   -1.9150    0.0790 C.ar    1  UNL1       -0.0193
     15  C11       -4.3880   -0.8180    0.1550 C.ar    1  UNL1       -0.0506
     16  C12       -3.8590    0.4550    0.0790 C.ar    1  UNL1       -0.0173
     17  C13       -4.7530    1.5290    0.1310 C.ar    1  UNL1       -0.0540
     18  C14       -4.3180    2.8170    0.0310 C.ar    1  UNL1       -0.0612
     19  C15       -2.9710    3.0420   -0.1200 C.ar    1  UNL1       -0.0612
     20  C16       -2.0720    1.9730   -0.1690 C.ar    1  UNL1       -0.0536
     21  C17       -2.4930    0.6580   -0.0720 C.ar    1  UNL1       -0.0097
     22  C18        2.8090    0.1240    0.5500 C.ar    1  UNL1       -0.0269
     23 H           6.6943    0.7494   -0.2845 H       1  UNL1        0.2954
     24 H           5.7914   -0.8277   -0.5862 H       1  UNL1        0.0626
     25 H           4.4701   -2.7711   -1.1653 H       1  UNL1        0.0618
     26 H           2.1371   -2.8789   -0.6644 H       1  UNL1        0.0636
     27 H           0.2747   -1.5303    1.2664 H       1  UNL1        0.1464
     28 H          -0.0281   -0.6139   -1.4124 H       1  UNL1        0.0512
     29 H           0.0200    0.7669   -0.2886 H       1  UNL1        0.0512
     30 H          -0.3794   -2.5961   -0.2608 H       1  UNL1        0.2921
     31 H          -3.9081   -2.8748    0.1354 H       1  UNL1        0.0654
     32 H          -5.4047   -0.9551    0.2668 H       1  UNL1        0.0625
     33 H          -5.7614    1.3429    0.2473 H       1  UNL1        0.0624
     34 H          -4.9844    3.6042    0.0678 H       1  UNL1        0.0618
     35 H          -2.6198    4.0093   -0.1980 H       1  UNL1        0.0618
     36 H          -1.0651    2.1698   -0.2807 H       1  UNL1        0.0624
     37 H           2.3679    0.9297    1.0205 H       1  UNL1        0.0644
@<TRIPOS>BOND
     1     1     2    2
     2     2     3    1
     3     2     4    1
     4     4     5   ar
     5     4    22   ar
     6     5     6   ar
     7     6     7   ar
     8     7     8   ar
     9     8     9    1
    10     8    22   ar
    11     9    10    1
    12    10    11    1
    13    11    12   ar
    14    11    21   ar
    15    12    13    1
    16    12    14   ar
    17    14    15   ar
    18    15    16   ar
    19    16    17   ar
    20    16    21   ar
    21    17    18   ar
    22    18    19   ar
    23    19    20   ar
    24    20    21   ar
    25     3    23    1
    26     5    24    1
    27     6    25    1
    28     7    26    1
    29     9    27    1
    30    10    28    1
    31    10    29    1
    32    13    30    1
    33    14    31    1
    34    15    32    1
    35    17    33    1
    36    18    34    1
    37    19    35    1
    38    20    36    1
    39    22    37    1
@<TRIPOS>MOLECULE
../data/bude_mols_rdkit_confs/molecule_48.pdb
 37 39 0 0 0
SMALL
GASTEIGER

@<TRIPOS>ATOM
      1  O1         6.0910    1.0290    0.4840 O.2     1  UNL1       -0.2451
      2  C1         4.8840    1.3310    0.5100 C.2     1  UNL1        0.3369
      3  O2         4.4490    2.3260    1.3120 O.3     1  UNL1       -0.4771
      4  C2         3.9920    0.4720   -0.3160 C.ar    1  UNL1        0.0606
      5  C3         4.5690   -0.5200   -1.0200 C.ar    1  UNL1       -0.0477
      6  C4         3.7870   -1.5220   -1.5910 C.ar    1  UNL1       -0.0592
      7  C5         2.4420   -1.4020   -1.3970 C.ar    1  UNL1       -0.0408
      8  C6         1.8530   -0.3840   -0.7110 C.ar    1  UNL1        0.0282
      9  N1         0.4150   -0.3330   -0.6440 N.pl3   1  UNL1       -0.3396
     10  C7        -0.3490   -1.3130    0.0690 C.3     1  UNL1        0.0384
     11  C8        -1.7320   -1.0360    0.4110 C.ar    1  UNL1        0.0186
     12  C9        -2.5880   -2.1160    0.5500 C.ar    1  UNL1        0.1221
     13  O3        -2.1030   -3.3820    0.8590 O.3     1  UNL1       -0.5064
     14  C10       -3.9430   -1.8470    0.4060 C.ar    1  UNL1       -0.0193
     15  C11       -4.4460   -0.6240    0.1580 C.ar    1  UNL1       -0.0506
     16  C12       -3.5830    0.4960   -0.0220 C.ar    1  UNL1       -0.0173
     17  C13       -4.1020    1.7520   -0.0690 C.ar    1  UNL1       -0.0540
     18  C14       -3.2660    2.8220    0.1310 C.ar    1  UNL1       -0.0612
     19  C15       -1.9190    2.5870    0.3110 C.ar    1  UNL1       -0.0612
     20  C16       -1.4060    1.3520    0.2940 C.ar    1  UNL1       -0.0536
     21  C17       -2.2570    0.1800    0.1300 C.ar    1  UNL1       -0.0097
     22  C18        2.6310    0.6140   -0.1260 C.ar    1  UNL1       -0.0269
     23 H           3.5394    2.5505    1.3288 H       1  UNL1        0.2954
     24 H           5.5942   -0.5383   -1.1372 H       1  UNL1        0.0626
     25 H           4.1981   -2.3033   -2.1254 H       1  UNL1        0.0618
     26 H           1.8305   -2.1310   -1.7966 H       1  UNL1        0.0636
     27 H          -0.0578    0.3986   -1.1028 H       1  UNL1        0.1464
     28 H           0.1665   -1.5003    0.9878 H       1  UNL1        0.0512
     29 H          -0.4211   -2.1254   -0.6236 H       1  UNL1        0.0512
     30 H          -1.1807   -3.5216    0.9475 H       1  UNL1        0.2921
     31 H          -4.6049   -2.6338    0.4947 H       1  UNL1        0.0654
     32 H          -5.4682   -0.4954    0.0974 H       1  UNL1        0.0625
     33 H          -5.1071    1.8981   -0.2519 H       1  UNL1        0.0624
     34 H          -3.6384    3.7844    0.1464 H       1  UNL1        0.0618
     35 H          -1.2875    3.3888    0.4635 H       1  UNL1        0.0618
     36 H          -0.3871    1.2263    0.3991 H       1  UNL1        0.0624
     37 H           2.2223    1.3974    0.4072 H       1  UNL1        0.0644
@<TRIPOS>BOND
     1     1     2    2
     2     2     3    1
     3     2     4    1
     4     4     5   ar
     5     4    22   ar
     6     5     6   ar
     7     6     7   ar
     8     7     8   ar
     9     8     9    1
    10     8    22   ar
    11     9    10    1
    12    10    11    1
    13    11    12   ar
    14    11    21   ar
    15    12    13    1
    16    12    14   ar
    17    14    15   ar
    18    15    16   ar
    19    16    17   ar
    20    16    21   ar
    21    17    18   ar
    22    18    19   ar
    23    19    20   ar
    24    20    21   ar
    25     3    23    1
    26     5    24    1
    27     6    25    1
    28     7    26    1
    29     9    27    1
    30    10    28    1
    31    10    29    1
    32    13    30    1
    33    14    31    1
    34    15    32    1
    35    17    33    1
    36    18    34    1
    37    19    35    1
    38    20    36    1
    39    22    37    1
@<TRIPOS>MOLECULE
../data/bude_mols_rdkit_confs/molecule_48.pdb
 37 39 0 0 0
SMALL
GASTEIGER

@<TRIPOS>ATOM
      1  O1         4.8530   -2.3450    1.9210 O.2     1  UNL1       -0.2451
      2  C1         5.1920   -1.5190    1.0240 C.2     1  UNL1        0.3369
      3  O2         6.4970   -1.6320    0.5350 O.3     1  UNL1       -0.4771
      4  C2         4.3050   -0.5160    0.5130 C.ar    1  UNL1        0.0606
      5  C3         4.7640    0.3810   -0.4380 C.ar    1  UNL1       -0.0477
      6  C4         3.8700    1.2770   -0.9350 C.ar    1  UNL1       -0.0592
      7  C5         2.5590    1.3430   -0.5520 C.ar    1  UNL1       -0.0408
      8  C6         2.1150    0.4290    0.4080 C.ar    1  UNL1        0.0282
      9  N1         0.7210    0.4550    0.8260 N.pl3   1  UNL1       -0.3396
     10  C7        -0.2240    0.3310   -0.2870 C.3     1  UNL1        0.0384
     11  C8        -1.6200    0.6080   -0.0080 C.ar    1  UNL1        0.0186
     12  C9        -1.9310    1.9820    0.0320 C.ar    1  UNL1        0.1221
     13  O3        -0.8870    2.9160    0.1410 O.3     1  UNL1       -0.5064
     14  C10       -3.2090    2.3990   -0.0090 C.ar    1  UNL1       -0.0193
     15  C11       -4.2460    1.4850   -0.0900 C.ar    1  UNL1       -0.0506
     16  C12       -3.9610    0.1220   -0.1250 C.ar    1  UNL1       -0.0173
     17  C13       -5.0330   -0.7220   -0.2360 C.ar    1  UNL1       -0.0540
     18  C14       -4.8790   -2.0830   -0.3220 C.ar    1  UNL1       -0.0612
     19  C15       -3.5320   -2.5290   -0.2880 C.ar    1  UNL1       -0.0612
     20  C16       -2.4550   -1.6870   -0.1750 C.ar    1  UNL1       -0.0536
     21  C17       -2.6310   -0.3090   -0.0840 C.ar    1  UNL1       -0.0097
     22  C18        2.9740   -0.4870    0.9320 C.ar    1  UNL1       -0.0269
     23 H           6.8005   -1.0458   -0.1300 H       1  UNL1        0.2954
     24 H           5.7455    0.3696   -0.7566 H       1  UNL1        0.0626
     25 H           4.2014    1.9486   -1.6450 H       1  UNL1        0.0618
     26 H           1.9192    2.0437   -0.9578 H       1  UNL1        0.0636
     27 H           0.4403    0.5470    1.7652 H       1  UNL1        0.1464
     28 H          -0.1621   -0.6733   -0.6509 H       1  UNL1        0.0512
     29 H           0.0721    1.0866   -0.9843 H       1  UNL1        0.0512
     30 H           0.0026    2.6231    0.1694 H       1  UNL1        0.2921
     31 H          -3.4186    3.4091    0.0202 H       1  UNL1        0.0654
     32 H          -5.2243    1.8117   -0.1242 H       1  UNL1        0.0625
     33 H          -5.9847   -0.3233   -0.2556 H       1  UNL1        0.0624
     34 H          -5.6785   -2.7303   -0.4048 H       1  UNL1        0.0618
     35 H          -3.3529   -3.5433   -0.3519 H       1  UNL1        0.0618
     36 H          -1.5011   -2.0805   -0.1572 H       1  UNL1        0.0624
     37 H           2.6412   -1.1606    1.6395 H       1  UNL1        0.0644
@<TRIPOS>BOND
     1     1     2    2
     2     2     3    1
     3     2     4    1
     4     4     5   ar
     5     4    22   ar
     6     5     6   ar
     7     6     7   ar
     8     7     8   ar
     9     8     9    1
    10     8    22   ar
    11     9    10    1
    12    10    11    1
    13    11    12   ar
    14    11    21   ar
    15    12    13    1
    16    12    14   ar
    17    14    15   ar
    18    15    16   ar
    19    16    17   ar
    20    16    21   ar
    21    17    18   ar
    22    18    19   ar
    23    19    20   ar
    24    20    21   ar
    25     3    23    1
    26     5    24    1
    27     6    25    1
    28     7    26    1
    29     9    27    1
    30    10    28    1
    31    10    29    1
    32    13    30    1
    33    14    31    1
    34    15    32    1
    35    17    33    1
    36    18    34    1
    37    19    35    1
    38    20    36    1
    39    22    37    1
@<TRIPOS>MOLECULE
../data/bude_mols_rdkit_confs/molecule_48.pdb
 37 39 0 0 0
SMALL
GASTEIGER

@<TRIPOS>ATOM
      1  O1         6.5280   -0.4050    0.7800 O.2     1  UNL1       -0.2451
      2  C1         5.4740   -0.5990    0.0320 C.2     1  UNL1        0.3369
      3  O2         5.4410   -1.6320   -0.8530 O.3     1  UNL1       -0.4771
      4  C2         4.3490    0.3530    0.2180 C.ar    1  UNL1        0.0606
      5  C3         4.4450    1.4230    1.0410 C.ar    1  UNL1       -0.0477
      6  C4         3.3700    2.2450    1.2730 C.ar    1  UNL1       -0.0592
      7  C5         2.1220    2.0180    0.6670 C.ar    1  UNL1       -0.0408
      8  C6         2.0400    0.9010   -0.1870 C.ar    1  UNL1        0.0282
      9  N1         0.7790    0.5360   -0.7500 N.pl3   1  UNL1       -0.3396
     10  C7        -0.2720    0.2540    0.2800 C.3     1  UNL1        0.0384
     11  C8        -1.3990   -0.5510   -0.1940 C.ar    1  UNL1        0.0186
     12  C9        -1.1640   -1.9410   -0.2470 C.ar    1  UNL1        0.1221
     13  O3         0.1150   -2.4080   -0.1150 O.3     1  UNL1       -0.5064
     14  C10       -2.2170   -2.7910   -0.4300 C.ar    1  UNL1       -0.0193
     15  C11       -3.4740   -2.3210   -0.5580 C.ar    1  UNL1       -0.0506
     16  C12       -3.7320   -0.9400   -0.5080 C.ar    1  UNL1       -0.0173
     17  C13       -5.0100   -0.4790   -0.5470 C.ar    1  UNL1       -0.0540
     18  C14       -5.3470    0.8420   -0.4280 C.ar    1  UNL1       -0.0612
     19  C15       -4.3000    1.7620   -0.2590 C.ar    1  UNL1       -0.0612
     20  C16       -2.9970    1.3330   -0.2110 C.ar    1  UNL1       -0.0536
     21  C17       -2.6770   -0.0160   -0.3260 C.ar    1  UNL1       -0.0097
     22  C18        3.1300    0.1120   -0.3920 C.ar    1  UNL1       -0.0269
     23 H           4.6832   -1.7672   -1.3872 H       1  UNL1        0.2954
     24 H           5.3449    1.6253    1.5038 H       1  UNL1        0.0626
     25 H           3.4810    3.0503    1.9087 H       1  UNL1        0.0618
     26 H           1.3123    2.6345    0.8381 H       1  UNL1        0.0636
     27 H           0.6165    0.4757   -1.7191 H       1  UNL1        0.1464
     28 H          -0.6555    1.1901    0.6285 H       1  UNL1        0.0512
     29 H           0.2054   -0.3199    1.0466 H       1  UNL1        0.0512
     30 H           0.8227   -1.8068    0.0098 H       1  UNL1        0.2921
     31 H          -2.0480   -3.8082   -0.4709 H       1  UNL1        0.0654
     32 H          -4.2549   -2.9818   -0.6941 H       1  UNL1        0.0625
     33 H          -5.7705   -1.1650   -0.6737 H       1  UNL1        0.0624
     34 H          -6.3315    1.1497   -0.4612 H       1  UNL1        0.0618
     35 H          -4.5116    2.7682   -0.1702 H       1  UNL1        0.0618
     36 H          -2.2406    2.0241   -0.0873 H       1  UNL1        0.0624
     37 H           3.0443   -0.6972   -1.0267 H       1  UNL1        0.0644
@<TRIPOS>BOND
     1     1     2    2
     2     2     3    1
     3     2     4    1
     4     4     5   ar
     5     4    22   ar
     6     5     6   ar
     7     6     7   ar
     8     7     8   ar
     9     8     9    1
    10     8    22   ar
    11     9    10    1
    12    10    11    1
    13    11    12   ar
    14    11    21   ar
    15    12    13    1
    16    12    14   ar
    17    14    15   ar
    18    15    16   ar
    19    16    17   ar
    20    16    21   ar
    21    17    18   ar
    22    18    19   ar
    23    19    20   ar
    24    20    21   ar
    25     3    23    1
    26     5    24    1
    27     6    25    1
    28     7    26    1
    29     9    27    1
    30    10    28    1
    31    10    29    1
    32    13    30    1
    33    14    31    1
    34    15    32    1
    35    17    33    1
    36    18    34    1
    37    19    35    1
    38    20    36    1
    39    22    37    1
@<TRIPOS>MOLECULE
../data/bude_mols_rdkit_confs/molecule_48.pdb
 37 39 0 0 0
SMALL
GASTEIGER

@<TRIPOS>ATOM
      1  O1         4.5940    2.0060   -1.2140 O.2     1  UNL1       -0.2451
      2  C1         4.9330    1.0420   -0.5040 C.2     1  UNL1        0.3369
      3  O2         6.1850    1.1190    0.1040 O.3     1  UNL1       -0.4771
      4  C2         4.0250   -0.0890   -0.3190 C.ar    1  UNL1        0.0606
      5  C3         4.4150   -1.2920    0.2200 C.ar    1  UNL1       -0.0477
      6  C4         3.5900   -2.3580    0.5020 C.ar    1  UNL1       -0.0592
      7  C5         2.2230   -2.1690    0.2080 C.ar    1  UNL1       -0.0408
      8  C6         1.8050   -0.9960   -0.3250 C.ar    1  UNL1        0.0282
      9  N1         0.3540   -0.7620   -0.4820 N.pl3   1  UNL1       -0.3396
     10  C7        -0.0570    0.1460    0.6110 C.3     1  UNL1        0.0384
     11  C8        -1.3400    0.7640    0.3330 C.ar    1  UNL1        0.0186
     12  C9        -1.3500    2.1640    0.4840 C.ar    1  UNL1        0.1221
     13  O3        -0.2180    2.9230    0.7360 O.3     1  UNL1       -0.5064
     14  C10       -2.5640    2.8010    0.3560 C.ar    1  UNL1       -0.0193
     15  C11       -3.6890    2.0420    0.0850 C.ar    1  UNL1       -0.0506
     16  C12       -3.6760    0.6820   -0.0530 C.ar    1  UNL1       -0.0173
     17  C13       -4.9020    0.0260   -0.2720 C.ar    1  UNL1       -0.0540
     18  C14       -4.8500   -1.3280   -0.3560 C.ar    1  UNL1       -0.0612
     19  C15       -3.6720   -2.0380   -0.2350 C.ar    1  UNL1       -0.0612
     20  C16       -2.4840   -1.3450   -0.0190 C.ar    1  UNL1       -0.0536
     21  C17       -2.4670    0.0320    0.0740 C.ar    1  UNL1       -0.0097
     22  C18        2.6760    0.0320   -0.5880 C.ar    1  UNL1       -0.0269
     23 H           6.4854    0.4180    0.6483 H       1  UNL1        0.2954
     24 H           5.4183   -1.4068    0.4329 H       1  UNL1        0.0626
     25 H           3.9487   -3.2388    0.9027 H       1  UNL1        0.0618
     26 H           1.5437   -2.9222    0.3985 H       1  UNL1        0.0636
     27 H          -0.2281   -1.1387   -1.1809 H       1  UNL1        0.1464
     28 H           0.6813    0.9123    0.7229 H       1  UNL1        0.0512
     29 H          -0.1480   -0.4284    1.5091 H       1  UNL1        0.0512
     30 H           0.6158    2.5051    0.8258 H       1  UNL1        0.2921
     31 H          -2.6336    3.8254    0.4602 H       1  UNL1        0.0654
     32 H          -4.5914    2.5318   -0.0191 H       1  UNL1        0.0625
     33 H          -5.7895    0.5446   -0.3635 H       1  UNL1        0.0624
     34 H          -5.7269   -1.8479   -0.5169 H       1  UNL1        0.0618
     35 H          -3.6722   -3.0677   -0.3037 H       1  UNL1        0.0618
     36 H          -1.6004   -1.8702    0.0732 H       1  UNL1        0.0624
     37 H           2.3165    0.9102   -0.9937 H       1  UNL1        0.0644
@<TRIPOS>BOND
     1     1     2    2
     2     2     3    1
     3     2     4    1
     4     4     5   ar
     5     4    22   ar
     6     5     6   ar
     7     6     7   ar
     8     7     8   ar
     9     8     9    1
    10     8    22   ar
    11     9    10    1
    12    10    11    1
    13    11    12   ar
    14    11    21   ar
    15    12    13    1
    16    12    14   ar
    17    14    15   ar
    18    15    16   ar
    19    16    17   ar
    20    16    21   ar
    21    17    18   ar
    22    18    19   ar
    23    19    20   ar
    24    20    21   ar
    25     3    23    1
    26     5    24    1
    27     6    25    1
    28     7    26    1
    29     9    27    1
    30    10    28    1
    31    10    29    1
    32    13    30    1
    33    14    31    1
    34    15    32    1
    35    17    33    1
    36    18    34    1
    37    19    35    1
    38    20    36    1
    39    22    37    1
@<TRIPOS>MOLECULE
../data/bude_mols_rdkit_confs/molecule_48.pdb
 37 39 0 0 0
SMALL
GASTEIGER

@<TRIPOS>ATOM
      1  O1         3.6050    2.8740    0.3250 O.2     1  UNL1       -0.2451
      2  C1         4.3140    1.8810    0.2540 C.2     1  UNL1        0.3369
      3  O2         5.6940    2.0770    0.3240 O.3     1  UNL1       -0.4771
      4  C2         3.7890    0.5040    0.1130 C.ar    1  UNL1        0.0606
      5  C3         4.6400   -0.5370   -0.0690 C.ar    1  UNL1       -0.0477
      6  C4         4.0480   -1.8110   -0.2290 C.ar    1  UNL1       -0.0592
      7  C5         2.6630   -2.0110   -0.1980 C.ar    1  UNL1       -0.0408
      8  C6         1.8380   -0.9610    0.0000 C.ar    1  UNL1        0.0282
      9  N1         0.4540   -0.9780    0.1360 N.pl3   1  UNL1       -0.3396
     10  C7        -0.6110   -1.5510   -0.6500 C.3     1  UNL1        0.0384
     11  C8        -1.8460   -1.0040    0.0420 C.ar    1  UNL1        0.0186
     12  C9        -2.5170   -1.8500    0.8790 C.ar    1  UNL1        0.1221
     13  O3        -2.0440   -3.1470    1.1620 O.3     1  UNL1       -0.5064
     14  C10       -3.7000   -1.3950    1.4770 C.ar    1  UNL1       -0.0193
     15  C11       -4.1690   -0.1140    1.2130 C.ar    1  UNL1       -0.0506
     16  C12       -3.4310    0.6810    0.3570 C.ar    1  UNL1       -0.0173
     17  C13       -3.9350    1.9480    0.0610 C.ar    1  UNL1       -0.0540
     18  C14       -3.3290    2.7970   -0.8110 C.ar    1  UNL1       -0.0612
     19  C15       -2.1750    2.3580   -1.4000 C.ar    1  UNL1       -0.0612
     20  C16       -1.6260    1.1020   -1.1320 C.ar    1  UNL1       -0.0536
     21  C17       -2.2450    0.2510   -0.2510 C.ar    1  UNL1       -0.0097
     22  C18        2.4430    0.3070    0.1510 C.ar    1  UNL1       -0.0269
     23 H           6.2746    1.3433    0.2736 H       1  UNL1        0.2954
     24 H           5.6635   -0.4060   -0.0895 H       1  UNL1        0.0626
     25 H           4.6625   -2.6272   -0.3747 H       1  UNL1        0.0618
     26 H           2.2738   -2.9582   -0.3261 H       1  UNL1        0.0636
     27 H           0.1349   -0.4994    0.9349 H       1  UNL1        0.1464
     28 H          -0.5876   -2.6202   -0.6151 H       1  UNL1        0.0512
     29 H          -0.5571   -1.3078   -1.6906 H       1  UNL1        0.0512
     30 H          -1.2534   -3.4546    0.7640 H       1  UNL1        0.2921
     31 H          -4.2244   -2.0133    2.1155 H       1  UNL1        0.0654
     32 H          -5.0409    0.2327    1.6426 H       1  UNL1        0.0625
     33 H          -4.8052    2.2538    0.5239 H       1  UNL1        0.0624
     34 H          -3.7211    3.7287   -1.0188 H       1  UNL1        0.0618
     35 H          -1.6916    2.9786   -2.0679 H       1  UNL1        0.0618
     36 H          -0.7518    0.8129   -1.5981 H       1  UNL1        0.0624
     37 H           1.8326    1.1261    0.2977 H       1  UNL1        0.0644
@<TRIPOS>BOND
     1     1     2    2
     2     2     3    1
     3     2     4    1
     4     4     5   ar
     5     4    22   ar
     6     5     6   ar
     7     6     7   ar
     8     7     8   ar
     9     8     9    1
    10     8    22   ar
    11     9    10    1
    12    10    11    1
    13    11    12   ar
    14    11    21   ar
    15    12    13    1
    16    12    14   ar
    17    14    15   ar
    18    15    16   ar
    19    16    17   ar
    20    16    21   ar
    21    17    18   ar
    22    18    19   ar
    23    19    20   ar
    24    20    21   ar
    25     3    23    1
    26     5    24    1
    27     6    25    1
    28     7    26    1
    29     9    27    1
    30    10    28    1
    31    10    29    1
    32    13    30    1
    33    14    31    1
    34    15    32    1
    35    17    33    1
    36    18    34    1
    37    19    35    1
    38    20    36    1
    39    22    37    1
