@<TRIPOS>MOLECULE
../data/bude_mols_rdkit_confs/molecule_43.pdb
 37 39 0 0 0
SMALL
GASTEIGER

@<TRIPOS>ATOM
      1  O1        -0.4010   -1.1670   -0.9220 O.2     1  UNL1       -0.2754
      2  C1         0.0410   -0.0170   -0.6760 C.2     1  UNL1        0.2192
      3  C2        -0.7950    1.1990   -0.7420 C.3     1  UNL1        0.0685
      4  C3        -2.1870    0.9250   -1.1240 C.ar    1  UNL1        0.0780
      5  N1        -2.6800    1.1710   -2.3570 N.ar    1  UNL1       -0.1748
      6  N2        -3.9350    0.9230   -2.6990 N.ar    1  UNL1       -0.2425
      7  C4        -4.8300    0.4010   -1.8420 C.ar    1  UNL1        0.2725
      8  O2        -6.0330    0.1760   -2.2130 O.2     1  UNL1       -0.2658
      9  C5        -4.3970    0.1230   -0.5620 C.ar    1  UNL1        0.0496
     10  C6        -5.2790   -0.4110    0.3510 C.ar    1  UNL1       -0.0487
     11  C7        -4.8260   -0.6790    1.6240 C.ar    1  UNL1       -0.0610
     12  C8        -3.5360   -0.4280    1.9900 C.ar    1  UNL1       -0.0611
     13  C9        -2.6600    0.1080    1.0650 C.ar    1  UNL1       -0.0521
     14  C10       -3.0810    0.3890   -0.2180 C.ar    1  UNL1        0.0108
     15  N3         1.4080    0.1300   -0.3160 N.am    1  UNL1       -0.3109
     16  C11        2.2650   -1.0560   -0.2440 C.3     1  UNL1        0.0369
     17  C12        3.6280   -0.6560    0.1750 C.ar    1  UNL1       -0.0289
     18  C13        4.5300   -0.2350   -0.7790 C.ar    1  UNL1       -0.0570
     19  C14        5.8020    0.1440   -0.4530 C.ar    1  UNL1       -0.0601
     20  C15        6.2060    0.1080    0.8650 C.ar    1  UNL1       -0.0434
     21  C16        5.3030   -0.3160    1.8350 C.ar    1  UNL1        0.0413
     22 CL1         5.8670   -0.3430    3.4930 Cl      1  UNL1       -0.0835
     23  C17        4.0370   -0.6900    1.4910 C.ar    1  UNL1       -0.0387
     24 H          -0.3695    1.8654   -1.4630 H       1  UNL1        0.0423
     25 H          -0.8129    1.6259    0.2390 H       1  UNL1        0.0423
     26 H          -4.2242    1.1290   -3.6172 H       1  UNL1        0.1921
     27 H          -6.2575   -0.6060    0.0873 H       1  UNL1        0.0625
     28 H          -5.4777   -1.0790    2.3170 H       1  UNL1        0.0618
     29 H          -3.2170   -0.6365    2.9491 H       1  UNL1        0.0618
     30 H          -1.6830    0.2995    1.3365 H       1  UNL1        0.0624
     31 H           1.7759    1.0212   -0.1167 H       1  UNL1        0.1490
     32 H           2.3101   -1.5223   -1.2060 H       1  UNL1        0.0512
     33 H           1.8610   -1.7450    0.4680 H       1  UNL1        0.0512
     34 H           4.2362   -0.2052   -1.7678 H       1  UNL1        0.0621
     35 H           6.4558    0.4551   -1.1884 H       1  UNL1        0.0618
     36 H           7.1630    0.3911    1.1278 H       1  UNL1        0.0632
     37 H           3.3793   -1.0013    2.2228 H       1  UNL1        0.0635
@<TRIPOS>BOND
     1     1     2    2
     2     2     3    1
     3     2    15   am
     4     3     4    1
     5     4     5   ar
     6     4    14   ar
     7     5     6   ar
     8     6     7   ar
     9     7     8    2
    10     7     9   ar
    11     9    10   ar
    12     9    14   ar
    13    10    11   ar
    14    11    12   ar
    15    12    13   ar
    16    13    14   ar
    17    15    16    1
    18    16    17    1
    19    17    18   ar
    20    17    23   ar
    21    18    19   ar
    22    19    20   ar
    23    20    21   ar
    24    21    22    1
    25    21    23   ar
    26     3    24    1
    27     3    25    1
    28     6    26    1
    29    10    27    1
    30    11    28    1
    31    12    29    1
    32    13    30    1
    33    15    31    1
    34    16    32    1
    35    16    33    1
    36    18    34    1
    37    19    35    1
    38    20    36    1
    39    23    37    1
@<TRIPOS>MOLECULE
../data/bude_mols_rdkit_confs/molecule_43.pdb
 37 39 0 0 0
SMALL
GASTEIGER

@<TRIPOS>ATOM
      1  O1         0.9970    0.8590   -1.8920 O.2     1  UNL1       -0.2754
      2  C1         0.5400    0.2610   -0.8950 C.2     1  UNL1        0.2192
      3  C2        -0.6470   -0.6250   -0.9680 C.3     1  UNL1        0.0685
      4  C3        -1.8590    0.2210   -0.8740 C.ar    1  UNL1        0.0780
      5  N1        -1.7880    1.5260   -1.1660 N.ar    1  UNL1       -0.1748
      6  N2        -2.8550    2.3100   -1.0540 N.ar    1  UNL1       -0.2425
      7  C4        -4.0470    1.8550   -0.6490 C.ar    1  UNL1        0.2725
      8  O2        -5.0430    2.6470   -0.5580 O.2     1  UNL1       -0.2658
      9  C5        -4.1770    0.5340   -0.3360 C.ar    1  UNL1        0.0496
     10  C6        -5.3830    0.0050    0.0950 C.ar    1  UNL1       -0.0487
     11  C7        -5.5270   -1.3130    0.4140 C.ar    1  UNL1       -0.0610
     12  C8        -4.3970   -2.1110    0.2850 C.ar    1  UNL1       -0.0611
     13  C9        -3.1700   -1.6010   -0.1470 C.ar    1  UNL1       -0.0521
     14  C10       -3.0730   -0.2840   -0.4520 C.ar    1  UNL1        0.0108
     15  N3         1.1670    0.4350    0.3600 N.am    1  UNL1       -0.3109
     16  C11        2.3240    1.2310    0.6090 C.3     1  UNL1        0.0369
     17  C12        3.5960    0.4850    0.4300 C.ar    1  UNL1       -0.0289
     18  C13        4.0810   -0.1990    1.5660 C.ar    1  UNL1       -0.0570
     19  C14        5.2560   -0.9130    1.5140 C.ar    1  UNL1       -0.0601
     20  C15        5.9840   -0.9710    0.3360 C.ar    1  UNL1       -0.0434
     21  C16        5.5080   -0.2930   -0.7910 C.ar    1  UNL1        0.0413
     22 CL1         6.4120   -0.3540   -2.2800 Cl      1  UNL1       -0.0835
     23  C17        4.3130    0.4300   -0.7290 C.ar    1  UNL1       -0.0387
     24 H          -0.6286   -1.3236   -0.1577 H       1  UNL1        0.0423
     25 H          -0.6463   -1.1707   -1.8884 H       1  UNL1        0.0423
     26 H          -2.7652    3.2645   -1.2780 H       1  UNL1        0.1921
     27 H          -6.2002    0.6298    0.1774 H       1  UNL1        0.0625
     28 H          -6.4292   -1.6980    0.7348 H       1  UNL1        0.0618
     29 H          -4.4663   -3.1144    0.5161 H       1  UNL1        0.0618
     30 H          -2.3481   -2.2192   -0.2327 H       1  UNL1        0.0624
     31 H           0.7704   -0.0342    1.1293 H       1  UNL1        0.1490
     32 H           2.2793    1.5907    1.6157 H       1  UNL1        0.0512
     33 H           2.3203    2.0296   -0.1032 H       1  UNL1        0.0512
     34 H           3.5465   -0.1629    2.4480 H       1  UNL1        0.0621
     35 H           5.5961   -1.4065    2.3541 H       1  UNL1        0.0618
     36 H           6.8648   -1.5069    0.2910 H       1  UNL1        0.0632
     37 H           3.9707    0.9260   -1.5668 H       1  UNL1        0.0635
@<TRIPOS>BOND
     1     1     2    2
     2     2     3    1
     3     2    15   am
     4     3     4    1
     5     4     5   ar
     6     4    14   ar
     7     5     6   ar
     8     6     7   ar
     9     7     8    2
    10     7     9   ar
    11     9    10   ar
    12     9    14   ar
    13    10    11   ar
    14    11    12   ar
    15    12    13   ar
    16    13    14   ar
    17    15    16    1
    18    16    17    1
    19    17    18   ar
    20    17    23   ar
    21    18    19   ar
    22    19    20   ar
    23    20    21   ar
    24    21    22    1
    25    21    23   ar
    26     3    24    1
    27     3    25    1
    28     6    26    1
    29    10    27    1
    30    11    28    1
    31    12    29    1
    32    13    30    1
    33    15    31    1
    34    16    32    1
    35    16    33    1
    36    18    34    1
    37    19    35    1
    38    20    36    1
    39    23    37    1
@<TRIPOS>MOLECULE
../data/bude_mols_rdkit_confs/molecule_43.pdb
 37 39 0 0 0
SMALL
GASTEIGER

@<TRIPOS>ATOM
      1  O1        -0.3700    0.1320   -1.2580 O.2     1  UNL1       -0.2754
      2  C1        -0.0270    0.5870   -0.1330 C.2     1  UNL1        0.2192
      3  C2        -1.0730    1.2240    0.7390 C.3     1  UNL1        0.0685
      4  C3        -2.3930    1.2170    0.1220 C.ar    1  UNL1        0.0780
      5  N1        -2.9010    2.3360   -0.4110 N.ar    1  UNL1       -0.1748
      6  N2        -4.1050    2.3400   -0.9770 N.ar    1  UNL1       -0.2425
      7  C4        -4.8810    1.2450   -1.0530 C.ar    1  UNL1        0.2725
      8  O2        -6.0200    1.2770   -1.5960 O.2     1  UNL1       -0.2658
      9  C5        -4.3970    0.0690   -0.5150 C.ar    1  UNL1        0.0496
     10  C6        -5.1780   -1.0780   -0.5790 C.ar    1  UNL1       -0.0487
     11  C7        -4.6790   -2.2330   -0.0410 C.ar    1  UNL1       -0.0610
     12  C8        -3.4410   -2.2580    0.5460 C.ar    1  UNL1       -0.0611
     13  C9        -2.6540   -1.1280    0.6180 C.ar    1  UNL1       -0.0521
     14  C10       -3.1390    0.0630    0.0760 C.ar    1  UNL1        0.0108
     15  N3         1.3000    0.5320    0.3630 N.am    1  UNL1       -0.3109
     16  C11        2.3280   -0.0640   -0.4280 C.3     1  UNL1        0.0369
     17  C12        3.6710   -0.0720    0.1520 C.ar    1  UNL1       -0.0289
     18  C13        4.0980    0.5700    1.2780 C.ar    1  UNL1       -0.0570
     19  C14        5.3980    0.4960    1.7500 C.ar    1  UNL1       -0.0601
     20  C15        6.3160   -0.2500    1.0750 C.ar    1  UNL1       -0.0434
     21  C16        5.9290   -0.9170   -0.0690 C.ar    1  UNL1        0.0413
     22 CL1         7.1480   -1.8700   -0.9130 Cl      1  UNL1       -0.0835
     23  C17        4.6310   -0.8290   -0.5210 C.ar    1  UNL1       -0.0387
     24 H          -0.7891    2.2377    0.9308 H       1  UNL1        0.0423
     25 H          -1.1335    0.6549    1.6431 H       1  UNL1        0.0423
     26 H          -4.4428    3.1829   -1.3573 H       1  UNL1        0.1921
     27 H          -6.1104   -1.0595   -1.0209 H       1  UNL1        0.0625
     28 H          -5.2425   -3.0968   -0.0778 H       1  UNL1        0.0618
     29 H          -3.0895   -3.1431    0.9434 H       1  UNL1        0.0618
     30 H          -1.7241   -1.1624    1.0642 H       1  UNL1        0.0624
     31 H           1.5117    0.9035    1.2498 H       1  UNL1        0.1490
     32 H           2.3764    0.4689   -1.3546 H       1  UNL1        0.0512
     33 H           2.0529   -1.0936   -0.5238 H       1  UNL1        0.0512
     34 H           3.4175    1.1397    1.8047 H       1  UNL1        0.0621
     35 H           5.6692    1.0026    2.6072 H       1  UNL1        0.0618
     36 H           7.2883   -0.3155    1.4148 H       1  UNL1        0.0632
     37 H           4.3616   -1.3355   -1.3788 H       1  UNL1        0.0635
@<TRIPOS>BOND
     1     1     2    2
     2     2     3    1
     3     2    15   am
     4     3     4    1
     5     4     5   ar
     6     4    14   ar
     7     5     6   ar
     8     6     7   ar
     9     7     8    2
    10     7     9   ar
    11     9    10   ar
    12     9    14   ar
    13    10    11   ar
    14    11    12   ar
    15    12    13   ar
    16    13    14   ar
    17    15    16    1
    18    16    17    1
    19    17    18   ar
    20    17    23   ar
    21    18    19   ar
    22    19    20   ar
    23    20    21   ar
    24    21    22    1
    25    21    23   ar
    26     3    24    1
    27     3    25    1
    28     6    26    1
    29    10    27    1
    30    11    28    1
    31    12    29    1
    32    13    30    1
    33    15    31    1
    34    16    32    1
    35    16    33    1
    36    18    34    1
    37    19    35    1
    38    20    36    1
    39    23    37    1
@<TRIPOS>MOLECULE
../data/bude_mols_rdkit_confs/molecule_43.pdb
 37 39 0 0 0
SMALL
GASTEIGER

@<TRIPOS>ATOM
      1  O1         1.0600   -1.2050   -2.0640 O.2     1  UNL1       -0.2754
      2  C1         0.2590   -0.2010   -2.1960 C.2     1  UNL1        0.2192
      3  C2        -1.1790   -0.4700   -2.3960 C.3     1  UNL1        0.0685
      4  C3        -1.7850   -1.1080   -1.2040 C.ar    1  UNL1        0.0780
      5  N1        -1.8980   -2.4620   -1.1000 N.ar    1  UNL1       -0.1748
      6  N2        -2.3870   -3.0240   -0.0150 N.ar    1  UNL1       -0.2425
      7  C4        -2.8020   -2.3280    1.0460 C.ar    1  UNL1        0.2725
      8  O2        -3.2680   -2.8650    2.0860 O.2     1  UNL1       -0.2658
      9  C5        -2.7250   -0.9590    1.0240 C.ar    1  UNL1        0.0496
     10  C6        -3.1540   -0.1980    2.0810 C.ar    1  UNL1       -0.0487
     11  C7        -3.0680    1.1670    1.9930 C.ar    1  UNL1       -0.0610
     12  C8        -2.5570    1.7490    0.8560 C.ar    1  UNL1       -0.0611
     13  C9        -2.1190    0.9990   -0.2200 C.ar    1  UNL1       -0.0521
     14  C10       -2.2030   -0.3670   -0.1340 C.ar    1  UNL1        0.0108
     15  N3         0.8920    1.0610   -2.1260 N.am    1  UNL1       -0.3109
     16  C11        2.3430    1.1570   -1.9220 C.3     1  UNL1        0.0369
     17  C12        2.7130    0.7990   -0.5520 C.ar    1  UNL1       -0.0289
     18  C13        1.7490    0.5260    0.3920 C.ar    1  UNL1       -0.0570
     19  C14        2.1440    0.1700    1.6660 C.ar    1  UNL1       -0.0601
     20  C15        3.4760    0.0750    2.0370 C.ar    1  UNL1       -0.0434
     21  C16        4.4250    0.3510    1.0830 C.ar    1  UNL1        0.0413
     22 CL1         6.1190    0.2290    1.5430 Cl      1  UNL1       -0.0835
     23  C17        4.0250    0.7060   -0.1870 C.ar    1  UNL1       -0.0387
     24 H          -1.2968   -1.1217   -3.2364 H       1  UNL1        0.0423
     25 H          -1.6741    0.4635   -2.5643 H       1  UNL1        0.0423
     26 H          -2.4499   -4.0060    0.0157 H       1  UNL1        0.1921
     27 H          -3.5354   -0.6458    2.9289 H       1  UNL1        0.0625
     28 H          -3.3858    1.7569    2.7779 H       1  UNL1        0.0618
     29 H          -2.4987    2.7781    0.8045 H       1  UNL1        0.0618
     30 H          -1.7394    1.4547   -1.0645 H       1  UNL1        0.0624
     31 H           0.3559    1.8819   -2.2147 H       1  UNL1        0.1490
     32 H           2.6565    2.1614   -2.1164 H       1  UNL1        0.0512
     33 H           2.8237    0.4739   -2.5907 H       1  UNL1        0.0512
     34 H           0.7473    0.5865    0.1512 H       1  UNL1        0.0621
     35 H           1.4181   -0.0336    2.3707 H       1  UNL1        0.0618
     36 H           3.7454   -0.1937    2.9963 H       1  UNL1        0.0632
     37 H           4.7492    0.9105   -0.8932 H       1  UNL1        0.0635
@<TRIPOS>BOND
     1     1     2    2
     2     2     3    1
     3     2    15   am
     4     3     4    1
     5     4     5   ar
     6     4    14   ar
     7     5     6   ar
     8     6     7   ar
     9     7     8    2
    10     7     9   ar
    11     9    10   ar
    12     9    14   ar
    13    10    11   ar
    14    11    12   ar
    15    12    13   ar
    16    13    14   ar
    17    15    16    1
    18    16    17    1
    19    17    18   ar
    20    17    23   ar
    21    18    19   ar
    22    19    20   ar
    23    20    21   ar
    24    21    22    1
    25    21    23   ar
    26     3    24    1
    27     3    25    1
    28     6    26    1
    29    10    27    1
    30    11    28    1
    31    12    29    1
    32    13    30    1
    33    15    31    1
    34    16    32    1
    35    16    33    1
    36    18    34    1
    37    19    35    1
    38    20    36    1
    39    23    37    1
@<TRIPOS>MOLECULE
../data/bude_mols_rdkit_confs/molecule_43.pdb
 37 39 0 0 0
SMALL
GASTEIGER

@<TRIPOS>ATOM
      1  O1         0.2340    0.3260   -0.2810 O.2     1  UNL1       -0.2754
      2  C1         0.1520    0.1190    0.9770 C.2     1  UNL1        0.2192
      3  C2        -1.0620   -0.5300    1.5030 C.3     1  UNL1        0.0685
      4  C3        -2.0390   -0.8600    0.4610 C.ar    1  UNL1        0.0780
      5  N1        -2.2440   -2.1110    0.0040 N.ar    1  UNL1       -0.1748
      6  N2        -3.1170   -2.4320   -0.9280 N.ar    1  UNL1       -0.2425
      7  C4        -3.8950   -1.5070   -1.5130 C.ar    1  UNL1        0.2725
      8  O2        -4.7420   -1.7520   -2.4030 O.2     1  UNL1       -0.2658
      9  C5        -3.7460   -0.1950   -1.0990 C.ar    1  UNL1        0.0496
     10  C6        -4.5120    0.8000   -1.6590 C.ar    1  UNL1       -0.0487
     11  C7        -4.3630    2.1020   -1.2470 C.ar    1  UNL1       -0.0610
     12  C8        -3.4330    2.4320   -0.2580 C.ar    1  UNL1       -0.0611
     13  C9        -2.6570    1.4490    0.3140 C.ar    1  UNL1       -0.0521
     14  C10       -2.8150    0.1450   -0.1060 C.ar    1  UNL1        0.0108
     15  N3         1.2500    0.5380    1.7660 N.am    1  UNL1       -0.3109
     16  C11        2.4300    1.1710    1.2460 C.3     1  UNL1        0.0369
     17  C12        3.3470    0.2470    0.5690 C.ar    1  UNL1       -0.0289
     18  C13        3.0670   -1.0870    0.3540 C.ar    1  UNL1       -0.0570
     19  C14        3.9730   -1.9030   -0.2890 C.ar    1  UNL1       -0.0601
     20  C15        5.1890   -1.3930   -0.7340 C.ar    1  UNL1       -0.0434
     21  C16        5.4820   -0.0580   -0.5250 C.ar    1  UNL1        0.0413
     22 CL1         6.9970    0.6360   -1.0610 Cl      1  UNL1       -0.0835
     23  C17        4.5570    0.7330    0.1210 C.ar    1  UNL1       -0.0387
     24 H          -1.5243    0.1320    2.2051 H       1  UNL1        0.0423
     25 H          -0.7589   -1.4502    1.9571 H       1  UNL1        0.0423
     26 H          -3.2014   -3.3736   -1.2028 H       1  UNL1        0.1921
     27 H          -5.2012    0.5680   -2.3913 H       1  UNL1        0.0625
     28 H          -4.9429    2.8426   -1.6716 H       1  UNL1        0.0618
     29 H          -3.3276    3.4132    0.0440 H       1  UNL1        0.0618
     30 H          -1.9680    1.6843    1.0454 H       1  UNL1        0.0624
     31 H           1.2017    0.3852    2.7374 H       1  UNL1        0.1490
     32 H           2.9528    1.6303    2.0588 H       1  UNL1        0.0512
     33 H           2.1064    1.8815    0.5143 H       1  UNL1        0.0512
     34 H           2.1688   -1.4783    0.6784 H       1  UNL1        0.0621
     35 H           3.7481   -2.8986   -0.4414 H       1  UNL1        0.0618
     36 H           5.8657   -2.0055   -1.2155 H       1  UNL1        0.0632
     37 H           4.7787    1.7290    0.2757 H       1  UNL1        0.0635
@<TRIPOS>BOND
     1     1     2    2
     2     2     3    1
     3     2    15   am
     4     3     4    1
     5     4     5   ar
     6     4    14   ar
     7     5     6   ar
     8     6     7   ar
     9     7     8    2
    10     7     9   ar
    11     9    10   ar
    12     9    14   ar
    13    10    11   ar
    14    11    12   ar
    15    12    13   ar
    16    13    14   ar
    17    15    16    1
    18    16    17    1
    19    17    18   ar
    20    17    23   ar
    21    18    19   ar
    22    19    20   ar
    23    20    21   ar
    24    21    22    1
    25    21    23   ar
    26     3    24    1
    27     3    25    1
    28     6    26    1
    29    10    27    1
    30    11    28    1
    31    12    29    1
    32    13    30    1
    33    15    31    1
    34    16    32    1
    35    16    33    1
    36    18    34    1
    37    19    35    1
    38    20    36    1
    39    23    37    1
@<TRIPOS>MOLECULE
../data/bude_mols_rdkit_confs/molecule_43.pdb
 37 39 0 0 0
SMALL
GASTEIGER

@<TRIPOS>ATOM
      1  O1         0.2570    0.8060    0.0900 O.2     1  UNL1       -0.2754
      2  C1         0.2270   -0.3610   -0.3140 C.2     1  UNL1        0.2192
      3  C2        -0.7920   -0.6950   -1.3850 C.3     1  UNL1        0.0685
      4  C3        -2.0890   -0.7010   -0.7440 C.ar    1  UNL1        0.0780
      5  N1        -2.5360   -1.9050   -0.2790 N.ar    1  UNL1       -0.1748
      6  N2        -3.6710   -2.0100    0.3840 N.ar    1  UNL1       -0.2425
      7  C4        -4.4520   -0.9530    0.6410 C.ar    1  UNL1        0.2725
      8  O2        -5.5210   -1.0960    1.2740 O.2     1  UNL1       -0.2658
      9  C5        -4.0550    0.2890    0.1950 C.ar    1  UNL1        0.0496
     10  C6        -4.8440    1.4110    0.4310 C.ar    1  UNL1       -0.0487
     11  C7        -4.4330    2.6280   -0.0370 C.ar    1  UNL1       -0.0610
     12  C8        -3.2470    2.7350   -0.7340 C.ar    1  UNL1       -0.0611
     13  C9        -2.4440    1.6390   -0.9820 C.ar    1  UNL1       -0.0521
     14  C10       -2.8460    0.4100   -0.5130 C.ar    1  UNL1        0.0108
     15  N3         1.0900   -1.3500    0.1930 N.am    1  UNL1       -0.3109
     16  C11        2.0570   -1.0920    1.1890 C.3     1  UNL1        0.0369
     17  C12        3.3080   -0.5550    0.6460 C.ar    1  UNL1       -0.0289
     18  C13        4.3690   -1.4610    0.4470 C.ar    1  UNL1       -0.0570
     19  C14        5.5800   -1.0970   -0.0390 C.ar    1  UNL1       -0.0601
     20  C15        5.8360    0.2300   -0.3740 C.ar    1  UNL1       -0.0434
     21  C16        4.8160    1.1340   -0.1890 C.ar    1  UNL1        0.0413
     22 CL1         5.0980    2.8100   -0.6000 Cl      1  UNL1       -0.0835
     23  C17        3.5750    0.7420    0.3130 C.ar    1  UNL1       -0.0387
     24 H          -0.5839   -1.6576   -1.8034 H       1  UNL1        0.0423
     25 H          -0.7609    0.0208   -2.1797 H       1  UNL1        0.0423
     26 H          -3.9545   -2.8977    0.7016 H       1  UNL1        0.1921
     27 H          -5.7297    1.3252    0.9536 H       1  UNL1        0.0625
     28 H          -5.0100    3.4669    0.1311 H       1  UNL1        0.0618
     29 H          -2.9513    3.6611   -1.0802 H       1  UNL1        0.0618
     30 H          -1.5617    1.7399   -1.5077 H       1  UNL1        0.0624
     31 H           1.0161   -2.2647   -0.1634 H       1  UNL1        0.1490
     32 H           2.2721   -2.0068    1.7007 H       1  UNL1        0.0512
     33 H           1.6499   -0.3529    1.8470 H       1  UNL1        0.0512
     34 H           4.2154   -2.4536    0.6839 H       1  UNL1        0.0621
     35 H           6.3178   -1.8081   -0.1618 H       1  UNL1        0.0618
     36 H           6.7530    0.5231   -0.7457 H       1  UNL1        0.0632
     37 H           2.8372    1.4530    0.4363 H       1  UNL1        0.0635
@<TRIPOS>BOND
     1     1     2    2
     2     2     3    1
     3     2    15   am
     4     3     4    1
     5     4     5   ar
     6     4    14   ar
     7     5     6   ar
     8     6     7   ar
     9     7     8    2
    10     7     9   ar
    11     9    10   ar
    12     9    14   ar
    13    10    11   ar
    14    11    12   ar
    15    12    13   ar
    16    13    14   ar
    17    15    16    1
    18    16    17    1
    19    17    18   ar
    20    17    23   ar
    21    18    19   ar
    22    19    20   ar
    23    20    21   ar
    24    21    22    1
    25    21    23   ar
    26     3    24    1
    27     3    25    1
    28     6    26    1
    29    10    27    1
    30    11    28    1
    31    12    29    1
    32    13    30    1
    33    15    31    1
    34    16    32    1
    35    16    33    1
    36    18    34    1
    37    19    35    1
    38    20    36    1
    39    23    37    1
@<TRIPOS>MOLECULE
../data/bude_mols_rdkit_confs/molecule_43.pdb
 37 39 0 0 0
SMALL
GASTEIGER

@<TRIPOS>ATOM
      1  O1        -0.3930   -2.3470    0.6790 O.2     1  UNL1       -0.2754
      2  C1        -0.0070   -1.4840   -0.0950 C.2     1  UNL1        0.2192
      3  C2        -0.8950   -0.8660   -1.1500 C.3     1  UNL1        0.0685
      4  C3        -1.7480    0.1010   -0.3990 C.ar    1  UNL1        0.0780
      5  N1        -1.0550    1.0950    0.2630 N.ar    1  UNL1       -0.1748
      6  N2        -1.5910    1.9300    1.0800 N.ar    1  UNL1       -0.2425
      7  C4        -2.9150    1.8530    1.3220 C.ar    1  UNL1        0.2725
      8  O2        -3.4920    2.6400    2.1160 O.2     1  UNL1       -0.2658
      9  C5        -3.6540    0.8880    0.6910 C.ar    1  UNL1        0.0496
     10  C6        -5.0310    0.7940    0.8730 C.ar    1  UNL1       -0.0487
     11  C7        -5.7830   -0.1520    0.2010 C.ar    1  UNL1       -0.0610
     12  C8        -5.1990   -1.0350   -0.6720 C.ar    1  UNL1       -0.0611
     13  C9        -3.8310   -0.9470   -0.8570 C.ar    1  UNL1       -0.0521
     14  C10       -3.0690   -0.0110   -0.1920 C.ar    1  UNL1        0.0108
     15  N3         1.3400   -1.0120   -0.0280 N.am    1  UNL1       -0.3109
     16  C11        2.3720   -1.4130    0.9080 C.3     1  UNL1        0.0369
     17  C12        3.5120   -0.4940    0.6350 C.ar    1  UNL1       -0.0289
     18  C13        3.2840    0.8150    0.2560 C.ar    1  UNL1       -0.0570
     19  C14        4.3450    1.6660   -0.0660 C.ar    1  UNL1       -0.0601
     20  C15        5.6460    1.2280   -0.0100 C.ar    1  UNL1       -0.0434
     21  C16        5.8690   -0.0780    0.3700 C.ar    1  UNL1        0.0413
     22 CL1         7.5250   -0.6670    0.4540 Cl      1  UNL1       -0.0835
     23  C17        4.8130   -0.9180    0.6850 C.ar    1  UNL1       -0.0387
     24 H          -1.4969   -1.6134   -1.6232 H       1  UNL1        0.0423
     25 H          -0.3339   -0.3943   -1.9294 H       1  UNL1        0.0423
     26 H          -1.0420    2.6166    1.5231 H       1  UNL1        0.1921
     27 H          -5.5003    1.4439    1.5230 H       1  UNL1        0.0625
     28 H          -6.8020   -0.1947    0.3589 H       1  UNL1        0.0618
     29 H          -5.7611   -1.7405   -1.1733 H       1  UNL1        0.0618
     30 H          -3.3691   -1.5992   -1.5099 H       1  UNL1        0.0624
     31 H           1.5973   -0.3355   -0.6954 H       1  UNL1        0.1490
     32 H           2.6591   -2.4299    0.7395 H       1  UNL1        0.0512
     33 H           2.0406   -1.3545    1.9237 H       1  UNL1        0.0512
     34 H           2.3159    1.1696    0.2100 H       1  UNL1        0.0621
     35 H           4.1481    2.6384   -0.3502 H       1  UNL1        0.0618
     36 H           6.4304    1.8562   -0.2447 H       1  UNL1        0.0632
     37 H           5.0127   -1.8909    0.9653 H       1  UNL1        0.0635
@<TRIPOS>BOND
     1     1     2    2
     2     2     3    1
     3     2    15   am
     4     3     4    1
     5     4     5   ar
     6     4    14   ar
     7     5     6   ar
     8     6     7   ar
     9     7     8    2
    10     7     9   ar
    11     9    10   ar
    12     9    14   ar
    13    10    11   ar
    14    11    12   ar
    15    12    13   ar
    16    13    14   ar
    17    15    16    1
    18    16    17    1
    19    17    18   ar
    20    17    23   ar
    21    18    19   ar
    22    19    20   ar
    23    20    21   ar
    24    21    22    1
    25    21    23   ar
    26     3    24    1
    27     3    25    1
    28     6    26    1
    29    10    27    1
    30    11    28    1
    31    12    29    1
    32    13    30    1
    33    15    31    1
    34    16    32    1
    35    16    33    1
    36    18    34    1
    37    19    35    1
    38    20    36    1
    39    23    37    1
@<TRIPOS>MOLECULE
../data/bude_mols_rdkit_confs/molecule_43.pdb
 37 39 0 0 0
SMALL
GASTEIGER

@<TRIPOS>ATOM
      1  O1        -0.1350    0.0880    0.4190 O.2     1  UNL1       -0.2754
      2  C1        -0.1730   -0.6270   -0.6160 C.2     1  UNL1        0.2192
      3  C2         0.7800   -0.3980   -1.7360 C.3     1  UNL1        0.0685
      4  C3         1.7300    0.6980   -1.4230 C.ar    1  UNL1        0.0780
      5  N1         1.6830    1.9330   -1.9150 N.ar    1  UNL1       -0.1748
      6  N2         2.5760    2.8740   -1.5870 N.ar    1  UNL1       -0.2425
      7  C4         3.5760    2.6170   -0.7350 C.ar    1  UNL1        0.2725
      8  O2         4.4320    3.4830   -0.4070 O.2     1  UNL1       -0.2658
      9  C5         3.6880    1.3670   -0.1890 C.ar    1  UNL1        0.0496
     10  C6         4.7150    1.0700    0.6990 C.ar    1  UNL1       -0.0487
     11  C7         4.8080   -0.2050    1.2410 C.ar    1  UNL1       -0.0610
     12  C8         3.8760   -1.1390    0.8800 C.ar    1  UNL1       -0.0611
     13  C9         2.8430   -0.8680   -0.0010 C.ar    1  UNL1       -0.0521
     14  C10        2.7590    0.4090   -0.5370 C.ar    1  UNL1        0.0108
     15  N3        -1.1150   -1.6730   -0.7570 N.am    1  UNL1       -0.3109
     16  C11       -2.0780   -1.9810    0.2610 C.3     1  UNL1        0.0369
     17  C12       -3.2350   -1.0500    0.2920 C.ar    1  UNL1       -0.0289
     18  C13       -4.3040   -1.3900    1.1180 C.ar    1  UNL1       -0.0570
     19  C14       -5.4130   -0.5820    1.1940 C.ar    1  UNL1       -0.0601
     20  C15       -5.4670    0.5760    0.4480 C.ar    1  UNL1       -0.0434
     21  C16       -4.3980    0.8990   -0.3660 C.ar    1  UNL1        0.0413
     22 CL1        -4.4400    2.3700   -1.3290 Cl      1  UNL1       -0.0835
     23  C17       -3.2610    0.1000   -0.4650 C.ar    1  UNL1       -0.0387
     24 H           0.2280   -0.1397   -2.6155 H       1  UNL1        0.0423
     25 H           1.3409   -1.2961   -1.8899 H       1  UNL1        0.0423
     26 H           2.4960    3.7731   -1.9800 H       1  UNL1        0.1921
     27 H           5.4051    1.7936    0.9543 H       1  UNL1        0.0625
     28 H           5.5640   -0.4429    1.9020 H       1  UNL1        0.0618
     29 H           3.9460   -2.0870    1.2819 H       1  UNL1        0.0618
     30 H           2.1550   -1.5951   -0.2519 H       1  UNL1        0.0624
     31 H          -1.1096   -2.2086   -1.5830 H       1  UNL1        0.1490
     32 H          -1.5883   -1.9425    1.2116 H       1  UNL1        0.0512
     33 H          -2.4658   -2.9534    0.0396 H       1  UNL1        0.0512
     34 H          -4.2628   -2.2561    1.6776 H       1  UNL1        0.0621
     35 H          -6.2019   -0.8410    1.8068 H       1  UNL1        0.0618
     36 H          -6.2933    1.1924    0.4967 H       1  UNL1        0.0632
     37 H          -2.4727    0.3587   -1.0788 H       1  UNL1        0.0635
@<TRIPOS>BOND
     1     1     2    2
     2     2     3    1
     3     2    15   am
     4     3     4    1
     5     4     5   ar
     6     4    14   ar
     7     5     6   ar
     8     6     7   ar
     9     7     8    2
    10     7     9   ar
    11     9    10   ar
    12     9    14   ar
    13    10    11   ar
    14    11    12   ar
    15    12    13   ar
    16    13    14   ar
    17    15    16    1
    18    16    17    1
    19    17    18   ar
    20    17    23   ar
    21    18    19   ar
    22    19    20   ar
    23    20    21   ar
    24    21    22    1
    25    21    23   ar
    26     3    24    1
    27     3    25    1
    28     6    26    1
    29    10    27    1
    30    11    28    1
    31    12    29    1
    32    13    30    1
    33    15    31    1
    34    16    32    1
    35    16    33    1
    36    18    34    1
    37    19    35    1
    38    20    36    1
    39    23    37    1
@<TRIPOS>MOLECULE
../data/bude_mols_rdkit_confs/molecule_43.pdb
 37 39 0 0 0
SMALL
GASTEIGER

@<TRIPOS>ATOM
      1  O1         0.5480    0.7070    1.1500 O.2     1  UNL1       -0.2754
      2  C1         0.3190   -0.4050    0.5730 C.2     1  UNL1        0.2192
      3  C2        -0.6320   -1.3120    1.2480 C.3     1  UNL1        0.0685
      4  C3        -1.9130   -0.5440    1.4380 C.ar    1  UNL1        0.0780
      5  N1        -2.2680    0.0100    2.6080 N.ar    1  UNL1       -0.1748
      6  N2        -3.3680    0.6990    2.8040 N.ar    1  UNL1       -0.2425
      7  C4        -4.2450    0.9050    1.8160 C.ar    1  UNL1        0.2725
      8  O2        -5.2790    1.5680    2.0530 O.2     1  UNL1       -0.2658
      9  C5        -3.9480    0.3630    0.5770 C.ar    1  UNL1        0.0496
     10  C6        -4.8570    0.5710   -0.4400 C.ar    1  UNL1       -0.0487
     11  C7        -4.5900    0.0370   -1.6880 C.ar    1  UNL1       -0.0610
     12  C8        -3.4400   -0.6780   -1.8750 C.ar    1  UNL1       -0.0611
     13  C9        -2.5100   -0.9000   -0.8610 C.ar    1  UNL1       -0.0521
     14  C10       -2.7870   -0.3630    0.3760 C.ar    1  UNL1        0.0108
     15  N3         0.9910   -0.6500   -0.6380 N.am    1  UNL1       -0.3109
     16  C11        1.9030    0.3060   -1.2120 C.3     1  UNL1        0.0369
     17  C12        3.2280    0.3030   -0.5720 C.ar    1  UNL1       -0.0289
     18  C13        4.0260    1.4170   -0.7060 C.ar    1  UNL1       -0.0570
     19  C14        5.2870    1.5150   -0.1600 C.ar    1  UNL1       -0.0601
     20  C15        5.7890    0.4470    0.5620 C.ar    1  UNL1       -0.0434
     21  C16        5.0110   -0.6740    0.7100 C.ar    1  UNL1        0.0413
     22 CL1         5.6520   -2.0280    1.6240 Cl      1  UNL1       -0.0835
     23  C17        3.7510   -0.7550    0.1560 C.ar    1  UNL1       -0.0387
     24 H          -0.2408   -1.6147    2.1968 H       1  UNL1        0.0423
     25 H          -0.7982   -2.1938    0.6651 H       1  UNL1        0.0423
     26 H          -3.5510    1.0717    3.6967 H       1  UNL1        0.1921
     27 H          -5.7186    1.1139   -0.2731 H       1  UNL1        0.0625
     28 H          -5.2509    0.1767   -2.4682 H       1  UNL1        0.0618
     29 H          -3.2518   -1.0716   -2.8102 H       1  UNL1        0.0618
     30 H          -1.6497   -1.4442   -1.0304 H       1  UNL1        0.0624
     31 H           0.8333   -1.5007   -1.1077 H       1  UNL1        0.1490
     32 H           1.4790    1.2832   -1.1106 H       1  UNL1        0.0512
     33 H           2.0453    0.0327   -2.2367 H       1  UNL1        0.0512
     34 H           3.6609    2.2193   -1.2427 H       1  UNL1        0.0621
     35 H           5.8483    2.3716   -0.2876 H       1  UNL1        0.0618
     36 H           6.7308    0.4923    0.9815 H       1  UNL1        0.0632
     37 H           3.1911   -1.6123    0.2845 H       1  UNL1        0.0635
@<TRIPOS>BOND
     1     1     2    2
     2     2     3    1
     3     2    15   am
     4     3     4    1
     5     4     5   ar
     6     4    14   ar
     7     5     6   ar
     8     6     7   ar
     9     7     8    2
    10     7     9   ar
    11     9    10   ar
    12     9    14   ar
    13    10    11   ar
    14    11    12   ar
    15    12    13   ar
    16    13    14   ar
    17    15    16    1
    18    16    17    1
    19    17    18   ar
    20    17    23   ar
    21    18    19   ar
    22    19    20   ar
    23    20    21   ar
    24    21    22    1
    25    21    23   ar
    26     3    24    1
    27     3    25    1
    28     6    26    1
    29    10    27    1
    30    11    28    1
    31    12    29    1
    32    13    30    1
    33    15    31    1
    34    16    32    1
    35    16    33    1
    36    18    34    1
    37    19    35    1
    38    20    36    1
    39    23    37    1
@<TRIPOS>MOLECULE
../data/bude_mols_rdkit_confs/molecule_43.pdb
 37 39 0 0 0
SMALL
GASTEIGER

@<TRIPOS>ATOM
      1  O1         0.0970    0.5620    0.2260 O.2     1  UNL1       -0.2754
      2  C1         0.1520   -0.6670    0.3980 C.2     1  UNL1        0.2192
      3  C2        -0.8840   -1.5290   -0.2700 C.3     1  UNL1        0.0685
      4  C3        -1.8490   -0.7030   -0.9940 C.ar    1  UNL1        0.0780
      5  N1        -1.7720   -0.5350   -2.3130 N.ar    1  UNL1       -0.1748
      6  N2        -2.6230    0.2180   -2.9880 N.ar    1  UNL1       -0.2425
      7  C4        -3.6170    0.8580   -2.3660 C.ar    1  UNL1        0.2725
      8  O2        -4.4230    1.5720   -2.9950 O.2     1  UNL1       -0.2658
      9  C5        -3.7660    0.7330   -0.9790 C.ar    1  UNL1        0.0496
     10  C6        -4.7820    1.3710   -0.3020 C.ar    1  UNL1       -0.0487
     11  C7        -4.8730    1.1960    1.0700 C.ar    1  UNL1       -0.0610
     12  C8        -3.9830    0.4100    1.7530 C.ar    1  UNL1       -0.0611
     13  C9        -2.9780   -0.2190    1.0760 C.ar    1  UNL1       -0.0521
     14  C10       -2.8580   -0.0630   -0.3080 C.ar    1  UNL1        0.0108
     15  N3         1.1700   -1.2140    1.2030 N.am    1  UNL1       -0.3109
     16  C11        2.2110   -0.4610    1.8670 C.3     1  UNL1        0.0369
     17  C12        3.3330   -0.1200    0.9360 C.ar    1  UNL1       -0.0289
     18  C13        4.4310   -0.9900    0.8960 C.ar    1  UNL1       -0.0570
     19  C14        5.4960   -0.7550    0.0730 C.ar    1  UNL1       -0.0601
     20  C15        5.5330    0.3470   -0.7490 C.ar    1  UNL1       -0.0434
     21  C16        4.4430    1.1900   -0.6940 C.ar    1  UNL1        0.0413
     22 CL1         4.4980    2.6040   -1.7610 Cl      1  UNL1       -0.0835
     23  C17        3.3570    0.9780    0.1250 C.ar    1  UNL1       -0.0387
     24 H          -1.3984   -2.1012    0.4736 H       1  UNL1        0.0423
     25 H          -0.3961   -2.1801   -0.9649 H       1  UNL1        0.0423
     26 H          -2.5229    0.3085   -3.9632 H       1  UNL1        0.1921
     27 H          -5.4596    1.9654   -0.8046 H       1  UNL1        0.0625
     28 H          -5.6291    1.6690    1.5892 H       1  UNL1        0.0618
     29 H          -4.0717    0.2938    2.7746 H       1  UNL1        0.0618
     30 H          -2.3051   -0.8112    1.5874 H       1  UNL1        0.0624
     31 H           1.1732   -2.1910    1.3239 H       1  UNL1        0.1490
     32 H           2.5979   -1.0447    2.6760 H       1  UNL1        0.0512
     33 H           1.7842    0.4539    2.2215 H       1  UNL1        0.0512
     34 H           4.4352   -1.8260    1.5011 H       1  UNL1        0.0621
     35 H           6.2877   -1.4170    0.0681 H       1  UNL1        0.0618
     36 H           6.3334    0.5331   -1.3734 H       1  UNL1        0.0632
     37 H           2.5680    1.6432    0.1259 H       1  UNL1        0.0635
@<TRIPOS>BOND
     1     1     2    2
     2     2     3    1
     3     2    15   am
     4     3     4    1
     5     4     5   ar
     6     4    14   ar
     7     5     6   ar
     8     6     7   ar
     9     7     8    2
    10     7     9   ar
    11     9    10   ar
    12     9    14   ar
    13    10    11   ar
    14    11    12   ar
    15    12    13   ar
    16    13    14   ar
    17    15    16    1
    18    16    17    1
    19    17    18   ar
    20    17    23   ar
    21    18    19   ar
    22    19    20   ar
    23    20    21   ar
    24    21    22    1
    25    21    23   ar
    26     3    24    1
    27     3    25    1
    28     6    26    1
    29    10    27    1
    30    11    28    1
    31    12    29    1
    32    13    30    1
    33    15    31    1
    34    16    32    1
    35    16    33    1
    36    18    34    1
    37    19    35    1
    38    20    36    1
    39    23    37    1
@<TRIPOS>MOLECULE
../data/bude_mols_rdkit_confs/molecule_43.pdb
 37 39 0 0 0
SMALL
GASTEIGER

@<TRIPOS>ATOM
      1  O1         1.7960    0.4690    0.9310 O.2     1  UNL1       -0.2754
      2  C1         0.7690    0.1150    0.2530 C.2     1  UNL1        0.2192
      3  C2        -0.5330    0.1780    0.9590 C.3     1  UNL1        0.0685
      4  C3        -1.6970    0.4280    0.1120 C.ar    1  UNL1        0.0780
      5  N1        -1.6320    0.9290   -1.1260 N.ar    1  UNL1       -0.1748
      6  N2        -2.7010    1.0900   -1.8470 N.ar    1  UNL1       -0.2425
      7  C4        -3.9370    0.7760   -1.4160 C.ar    1  UNL1        0.2725
      8  O2        -4.9860    0.9230   -2.0950 O.2     1  UNL1       -0.2658
      9  C5        -4.0860    0.2530   -0.1490 C.ar    1  UNL1        0.0496
     10  C6        -5.3380   -0.1020    0.3140 C.ar    1  UNL1       -0.0487
     11  C7        -5.4640   -0.6440    1.5810 C.ar    1  UNL1       -0.0610
     12  C8        -4.3580   -0.8260    2.3790 C.ar    1  UNL1       -0.0611
     13  C9        -3.1370   -0.4580    1.8750 C.ar    1  UNL1       -0.0521
     14  C10       -2.9490    0.0840    0.6110 C.ar    1  UNL1        0.0108
     15  N3         0.9800   -0.2890   -1.0790 N.am    1  UNL1       -0.3109
     16  C11        2.2340   -0.3580   -1.7750 C.3     1  UNL1        0.0369
     17  C12        3.4350   -0.1140   -0.9710 C.ar    1  UNL1       -0.0289
     18  C13        3.9890    1.1240   -0.7540 C.ar    1  UNL1       -0.0570
     19  C14        5.1370    1.3540   -0.0370 C.ar    1  UNL1       -0.0601
     20  C15        5.8040    0.2850    0.5180 C.ar    1  UNL1       -0.0434
     21  C16        5.2940   -0.9980    0.3360 C.ar    1  UNL1        0.0413
     22 CL1         6.1770   -2.3440    1.0430 Cl      1  UNL1       -0.0835
     23  C17        4.1360   -1.1790   -0.3920 C.ar    1  UNL1       -0.0387
     24 H          -0.4775    0.9638    1.6831 H       1  UNL1        0.0423
     25 H          -0.6830   -0.7919    1.3852 H       1  UNL1        0.0423
     26 H          -2.6020    1.4602   -2.7539 H       1  UNL1        0.1921
     27 H          -6.1712    0.0356   -0.2791 H       1  UNL1        0.0625
     28 H          -6.3965   -0.9143    1.9307 H       1  UNL1        0.0618
     29 H          -4.4446   -1.2265    3.3262 H       1  UNL1        0.0618
     30 H          -2.3063   -0.5923    2.4725 H       1  UNL1        0.0624
     31 H           0.1804   -0.5531   -1.5890 H       1  UNL1        0.1490
     32 H           2.2126    0.3699   -2.5590 H       1  UNL1        0.0512
     33 H           2.3175   -1.3692   -2.1147 H       1  UNL1        0.0512
     34 H           3.5069    1.9413   -1.1597 H       1  UNL1        0.0621
     35 H           5.4948    2.3144    0.0842 H       1  UNL1        0.0618
     36 H           6.6692    0.4324    1.0609 H       1  UNL1        0.0632
     37 H           3.7722   -2.1369   -0.5146 H       1  UNL1        0.0635
@<TRIPOS>BOND
     1     1     2    2
     2     2     3    1
     3     2    15   am
     4     3     4    1
     5     4     5   ar
     6     4    14   ar
     7     5     6   ar
     8     6     7   ar
     9     7     8    2
    10     7     9   ar
    11     9    10   ar
    12     9    14   ar
    13    10    11   ar
    14    11    12   ar
    15    12    13   ar
    16    13    14   ar
    17    15    16    1
    18    16    17    1
    19    17    18   ar
    20    17    23   ar
    21    18    19   ar
    22    19    20   ar
    23    20    21   ar
    24    21    22    1
    25    21    23   ar
    26     3    24    1
    27     3    25    1
    28     6    26    1
    29    10    27    1
    30    11    28    1
    31    12    29    1
    32    13    30    1
    33    15    31    1
    34    16    32    1
    35    16    33    1
    36    18    34    1
    37    19    35    1
    38    20    36    1
    39    23    37    1
@<TRIPOS>MOLECULE
../data/bude_mols_rdkit_confs/molecule_43.pdb
 37 39 0 0 0
SMALL
GASTEIGER

@<TRIPOS>ATOM
      1  O1         0.2470    0.2550    0.4960 O.2     1  UNL1       -0.2754
      2  C1         0.2550    0.4600   -0.7250 C.2     1  UNL1        0.2192
      3  C2        -0.7880   -0.0160   -1.6860 C.3     1  UNL1        0.0685
      4  C3        -1.8580   -0.7530   -1.0200 C.ar    1  UNL1        0.0780
      5  N1        -1.9120   -2.0910   -1.0780 N.ar    1  UNL1       -0.1748
      6  N2        -2.8630   -2.7940   -0.4800 N.ar    1  UNL1       -0.2425
      7  C4        -3.8520   -2.2190    0.2350 C.ar    1  UNL1        0.2725
      8  O2        -4.7520   -2.8860    0.8000 O.2     1  UNL1       -0.2658
      9  C5        -3.8290   -0.8310    0.3170 C.ar    1  UNL1        0.0496
     10  C6        -4.8040   -0.1980    1.0230 C.ar    1  UNL1       -0.0487
     11  C7        -4.7830    1.1920    1.1040 C.ar    1  UNL1       -0.0610
     12  C8        -3.7960    1.9280    0.4840 C.ar    1  UNL1       -0.0611
     13  C9        -2.7990    1.2960   -0.2370 C.ar    1  UNL1       -0.0521
     14  C10       -2.8280   -0.0860   -0.3120 C.ar    1  UNL1        0.0108
     15  N3         1.3370    1.2080   -1.2730 N.am    1  UNL1       -0.3109
     16  C11        2.4100    1.7180   -0.4440 C.3     1  UNL1        0.0369
     17  C12        3.3780    0.7040   -0.0590 C.ar    1  UNL1       -0.0289
     18  C13        3.2360   -0.5950   -0.4780 C.ar    1  UNL1       -0.0570
     19  C14        4.1410   -1.5630   -0.1250 C.ar    1  UNL1       -0.0601
     20  C15        5.2150   -1.2210    0.6690 C.ar    1  UNL1       -0.0434
     21  C16        5.3990    0.0740    1.1140 C.ar    1  UNL1        0.0413
     22 CL1         6.7770    0.5040    2.1300 Cl      1  UNL1       -0.0835
     23  C17        4.4540    1.0230    0.7290 C.ar    1  UNL1       -0.0387
     24 H          -0.3252   -0.6572   -2.4068 H       1  UNL1        0.0423
     25 H          -1.2224    0.8442   -2.1511 H       1  UNL1        0.0423
     26 H          -2.8471   -3.7751   -0.5608 H       1  UNL1        0.1921
     27 H          -5.5476   -0.7392    1.4912 H       1  UNL1        0.0625
     28 H          -5.5194    1.6798    1.6377 H       1  UNL1        0.0618
     29 H          -3.8010    2.9573    0.5583 H       1  UNL1        0.0618
     30 H          -2.0560    1.8383   -0.7049 H       1  UNL1        0.0624
     31 H           1.3559    1.3830   -2.2416 H       1  UNL1        0.1490
     32 H           1.9830    2.1333    0.4449 H       1  UNL1        0.0512
     33 H           2.9341    2.4495   -1.0228 H       1  UNL1        0.0512
     34 H           2.4308   -0.8489   -1.0715 H       1  UNL1        0.0621
     35 H           4.0197   -2.5351   -0.4496 H       1  UNL1        0.0618
     36 H           5.8964   -1.9483    0.9368 H       1  UNL1        0.0632
     37 H           4.5677    1.9980    1.0474 H       1  UNL1        0.0635
@<TRIPOS>BOND
     1     1     2    2
     2     2     3    1
     3     2    15   am
     4     3     4    1
     5     4     5   ar
     6     4    14   ar
     7     5     6   ar
     8     6     7   ar
     9     7     8    2
    10     7     9   ar
    11     9    10   ar
    12     9    14   ar
    13    10    11   ar
    14    11    12   ar
    15    12    13   ar
    16    13    14   ar
    17    15    16    1
    18    16    17    1
    19    17    18   ar
    20    17    23   ar
    21    18    19   ar
    22    19    20   ar
    23    20    21   ar
    24    21    22    1
    25    21    23   ar
    26     3    24    1
    27     3    25    1
    28     6    26    1
    29    10    27    1
    30    11    28    1
    31    12    29    1
    32    13    30    1
    33    15    31    1
    34    16    32    1
    35    16    33    1
    36    18    34    1
    37    19    35    1
    38    20    36    1
    39    23    37    1
@<TRIPOS>MOLECULE
../data/bude_mols_rdkit_confs/molecule_43.pdb
 37 39 0 0 0
SMALL
GASTEIGER

@<TRIPOS>ATOM
      1  O1        -0.1180    0.7710    1.1600 O.2     1  UNL1       -0.2754
      2  C1        -0.0600    1.6040    0.2270 C.2     1  UNL1        0.2192
      3  C2        -1.2690    1.8160   -0.6010 C.3     1  UNL1        0.0685
      4  C3        -2.4210    1.0210   -0.1500 C.ar    1  UNL1        0.0780
      5  N1        -3.4590    1.5830    0.5180 N.ar    1  UNL1       -0.1748
      6  N2        -4.5150    0.8840    0.9290 N.ar    1  UNL1       -0.2425
      7  C4        -4.6200   -0.4390    0.7050 C.ar    1  UNL1        0.2725
      8  O2        -5.6120   -1.1280    1.0840 O.2     1  UNL1       -0.2658
      9  C5        -3.6170   -1.0730    0.0410 C.ar    1  UNL1        0.0496
     10  C6        -3.6620   -2.4240   -0.2190 C.ar    1  UNL1       -0.0487
     11  C7        -2.6580   -3.0770   -0.8860 C.ar    1  UNL1       -0.0610
     12  C8        -1.5670   -2.3680   -1.3140 C.ar    1  UNL1       -0.0611
     13  C9        -1.5210   -1.0160   -1.0550 C.ar    1  UNL1       -0.0521
     14  C10       -2.5120   -0.3320   -0.3870 C.ar    1  UNL1        0.0108
     15  N3         1.1550    2.2920    0.0170 N.am    1  UNL1       -0.3109
     16  C11        2.3620    2.1350    0.7730 C.3     1  UNL1        0.0369
     17  C12        3.1270    0.9190    0.4110 C.ar    1  UNL1       -0.0289
     18  C13        2.9690   -0.2840    1.0640 C.ar    1  UNL1       -0.0570
     19  C14        3.7120   -1.3790    0.6730 C.ar    1  UNL1       -0.0601
     20  C15        4.6210   -1.2700   -0.3780 C.ar    1  UNL1       -0.0434
     21  C16        4.7550   -0.0550   -1.0090 C.ar    1  UNL1        0.0413
     22 CL1         5.9190    0.0530   -2.3370 Cl      1  UNL1       -0.0835
     23  C17        4.0320    1.0460   -0.6440 C.ar    1  UNL1       -0.0387
     24 H          -1.0423    1.5452   -1.6110 H       1  UNL1        0.0423
     25 H          -1.5389    2.8478   -0.5150 H       1  UNL1        0.0423
     26 H          -5.2385    1.3473    1.4097 H       1  UNL1        0.1921
     27 H          -4.4811   -2.9648    0.0997 H       1  UNL1        0.0625
     28 H          -2.7235   -4.0915   -1.0637 H       1  UNL1        0.0618
     29 H          -0.7978   -2.8357   -1.8185 H       1  UNL1        0.0618
     30 H          -0.6974   -0.4857   -1.3799 H       1  UNL1        0.0624
     31 H           1.1748    2.9433   -0.7210 H       1  UNL1        0.1490
     32 H           2.1077    2.0797    1.8109 H       1  UNL1        0.0512
     33 H           2.9844    2.9774    0.5543 H       1  UNL1        0.0512
     34 H           2.2971   -0.3658    1.8430 H       1  UNL1        0.0621
     35 H           3.5943   -2.2812    1.1601 H       1  UNL1        0.0618
     36 H           5.1816   -2.0835   -0.6764 H       1  UNL1        0.0632
     37 H           4.1519    1.9459   -1.1347 H       1  UNL1        0.0635
@<TRIPOS>BOND
     1     1     2    2
     2     2     3    1
     3     2    15   am
     4     3     4    1
     5     4     5   ar
     6     4    14   ar
     7     5     6   ar
     8     6     7   ar
     9     7     8    2
    10     7     9   ar
    11     9    10   ar
    12     9    14   ar
    13    10    11   ar
    14    11    12   ar
    15    12    13   ar
    16    13    14   ar
    17    15    16    1
    18    16    17    1
    19    17    18   ar
    20    17    23   ar
    21    18    19   ar
    22    19    20   ar
    23    20    21   ar
    24    21    22    1
    25    21    23   ar
    26     3    24    1
    27     3    25    1
    28     6    26    1
    29    10    27    1
    30    11    28    1
    31    12    29    1
    32    13    30    1
    33    15    31    1
    34    16    32    1
    35    16    33    1
    36    18    34    1
    37    19    35    1
    38    20    36    1
    39    23    37    1
@<TRIPOS>MOLECULE
../data/bude_mols_rdkit_confs/molecule_43.pdb
 37 39 0 0 0
SMALL
GASTEIGER

@<TRIPOS>ATOM
      1  O1         0.3350   -1.0190    0.2430 O.2     1  UNL1       -0.2754
      2  C1         0.3200    0.1390   -0.3090 C.2     1  UNL1        0.2192
      3  C2        -0.6140    0.4690   -1.3810 C.3     1  UNL1        0.0685
      4  C3        -1.9680    0.8870   -0.9570 C.ar    1  UNL1        0.0780
      5  N1        -2.2600    2.2000   -0.8770 N.ar    1  UNL1       -0.1748
      6  N2        -3.4310    2.6080   -0.4610 N.ar    1  UNL1       -0.2425
      7  C4        -4.4070    1.7780   -0.0900 C.ar    1  UNL1        0.2725
      8  O2        -5.5330    2.2180    0.3130 O.2     1  UNL1       -0.2658
      9  C5        -4.1820    0.4110   -0.1460 C.ar    1  UNL1        0.0496
     10  C6        -5.1800   -0.4660    0.2250 C.ar    1  UNL1       -0.0487
     11  C7        -4.9380   -1.8180    0.1600 C.ar    1  UNL1       -0.0610
     12  C8        -3.7270   -2.2830   -0.2710 C.ar    1  UNL1       -0.0611
     13  C9        -2.7260   -1.3910   -0.6460 C.ar    1  UNL1       -0.0521
     14  C10       -2.9390   -0.0100   -0.5890 C.ar    1  UNL1        0.0108
     15  N3         1.2890    1.0660    0.2150 N.am    1  UNL1       -0.3109
     16  C11        2.2060    0.7220    1.2610 C.3     1  UNL1        0.0369
     17  C12        3.4600    0.0960    0.8080 C.ar    1  UNL1       -0.0289
     18  C13        4.5610    0.9350    0.5760 C.ar    1  UNL1       -0.0570
     19  C14        5.7680    0.4690    0.1520 C.ar    1  UNL1       -0.0601
     20  C15        5.9430   -0.8870   -0.0650 C.ar    1  UNL1       -0.0434
     21  C16        4.8850   -1.7350    0.1530 C.ar    1  UNL1        0.0413
     22 CL1         5.1260   -3.4450   -0.1320 Cl      1  UNL1       -0.0835
     23  C17        3.6540   -1.2260    0.5890 C.ar    1  UNL1       -0.0387
     24 H          -0.7182   -0.3961   -2.0020 H       1  UNL1        0.0423
     25 H          -0.1932    1.3177   -1.8784 H       1  UNL1        0.0423
     26 H          -3.6006    3.5769   -0.4196 H       1  UNL1        0.1921
     27 H          -6.0947   -0.1126    0.5466 H       1  UNL1        0.0625
     28 H          -5.6746   -2.4852    0.4381 H       1  UNL1        0.0618
     29 H          -3.5540   -3.2993   -0.3186 H       1  UNL1        0.0618
     30 H          -1.8156   -1.7533   -0.9700 H       1  UNL1        0.0624
     31 H           1.3230    1.9751   -0.1614 H       1  UNL1        0.1490
     32 H           1.7143    0.0396    1.9224 H       1  UNL1        0.0512
     33 H           2.4836    1.6426    1.7303 H       1  UNL1        0.0512
     34 H           4.4509    1.9489    0.7336 H       1  UNL1        0.0621
     35 H           6.5494    1.1241   -0.0070 H       1  UNL1        0.0618
     36 H           6.8528   -1.2543   -0.3851 H       1  UNL1        0.0632
     37 H           2.8711   -1.8792    0.7481 H       1  UNL1        0.0635
@<TRIPOS>BOND
     1     1     2    2
     2     2     3    1
     3     2    15   am
     4     3     4    1
     5     4     5   ar
     6     4    14   ar
     7     5     6   ar
     8     6     7   ar
     9     7     8    2
    10     7     9   ar
    11     9    10   ar
    12     9    14   ar
    13    10    11   ar
    14    11    12   ar
    15    12    13   ar
    16    13    14   ar
    17    15    16    1
    18    16    17    1
    19    17    18   ar
    20    17    23   ar
    21    18    19   ar
    22    19    20   ar
    23    20    21   ar
    24    21    22    1
    25    21    23   ar
    26     3    24    1
    27     3    25    1
    28     6    26    1
    29    10    27    1
    30    11    28    1
    31    12    29    1
    32    13    30    1
    33    15    31    1
    34    16    32    1
    35    16    33    1
    36    18    34    1
    37    19    35    1
    38    20    36    1
    39    23    37    1
@<TRIPOS>MOLECULE
../data/bude_mols_rdkit_confs/molecule_43.pdb
 37 39 0 0 0
SMALL
GASTEIGER

@<TRIPOS>ATOM
      1  O1         0.0010    0.0820    1.0510 O.2     1  UNL1       -0.2754
      2  C1         0.1950   -0.5460   -0.0130 C.2     1  UNL1        0.2192
      3  C2        -0.8250   -0.7260   -1.0880 C.3     1  UNL1        0.0685
      4  C3        -2.1440   -1.0130   -0.5040 C.ar    1  UNL1        0.0780
      5  N1        -2.3940   -2.3560   -0.3240 N.ar    1  UNL1       -0.1748
      6  N2        -3.5280   -2.7090    0.2240 N.ar    1  UNL1       -0.2425
      7  C4        -4.4420   -1.8130    0.6090 C.ar    1  UNL1        0.2725
      8  O2        -5.5380   -2.1390    1.1370 O.2     1  UNL1       -0.2658
      9  C5        -4.2340   -0.4550    0.4460 C.ar    1  UNL1        0.0496
     10  C6        -5.1880    0.4850    0.8050 C.ar    1  UNL1       -0.0487
     11  C7        -4.9230    1.8130    0.5720 C.ar    1  UNL1       -0.0610
     12  C8        -3.7430    2.2360   -0.0060 C.ar    1  UNL1       -0.0611
     13  C9        -2.7910    1.2970   -0.3600 C.ar    1  UNL1       -0.0521
     14  C10       -3.0450   -0.0550   -0.1280 C.ar    1  UNL1        0.0108
     15  N3         1.4820   -1.1500   -0.2260 N.am    1  UNL1       -0.3109
     16  C11        2.6070   -1.1520    0.6130 C.3     1  UNL1        0.0369
     17  C12        3.6170   -0.0860    0.4360 C.ar    1  UNL1       -0.0289
     18  C13        3.3600    1.1760   -0.0070 C.ar    1  UNL1       -0.0570
     19  C14        4.3680    2.1330   -0.1760 C.ar    1  UNL1       -0.0601
     20  C15        5.6790    1.7790    0.1130 C.ar    1  UNL1       -0.0434
     21  C16        5.9870    0.5110    0.5630 C.ar    1  UNL1        0.0413
     22 CL1         7.6620    0.0720    0.9240 Cl      1  UNL1       -0.0835
     23  C17        4.9620   -0.3740    0.7100 C.ar    1  UNL1       -0.0387
     24 H          -0.5335   -1.5411   -1.7170 H       1  UNL1        0.0423
     25 H          -0.8885    0.1765   -1.6593 H       1  UNL1        0.0423
     26 H          -3.7145   -3.6664    0.3573 H       1  UNL1        0.1921
     27 H          -6.0782    0.1934    1.2380 H       1  UNL1        0.0625
     28 H          -5.6292    2.5171    0.8378 H       1  UNL1        0.0618
     29 H          -3.5732    3.2403   -0.1720 H       1  UNL1        0.0618
     30 H          -1.9017    1.5936   -0.7914 H       1  UNL1        0.0624
     31 H           1.5891   -1.6290   -1.0794 H       1  UNL1        0.1490
     32 H           3.1061   -2.0877    0.4710 H       1  UNL1        0.0512
     33 H           2.2074   -0.9769    1.5900 H       1  UNL1        0.0512
     34 H           2.3858    1.4367   -0.2263 H       1  UNL1        0.0621
     35 H           4.1409    3.0831   -0.5089 H       1  UNL1        0.0618
     36 H           6.4329    2.4729   -0.0102 H       1  UNL1        0.0632
     37 H           5.1910   -1.3224    1.0464 H       1  UNL1        0.0635
@<TRIPOS>BOND
     1     1     2    2
     2     2     3    1
     3     2    15   am
     4     3     4    1
     5     4     5   ar
     6     4    14   ar
     7     5     6   ar
     8     6     7   ar
     9     7     8    2
    10     7     9   ar
    11     9    10   ar
    12     9    14   ar
    13    10    11   ar
    14    11    12   ar
    15    12    13   ar
    16    13    14   ar
    17    15    16    1
    18    16    17    1
    19    17    18   ar
    20    17    23   ar
    21    18    19   ar
    22    19    20   ar
    23    20    21   ar
    24    21    22    1
    25    21    23   ar
    26     3    24    1
    27     3    25    1
    28     6    26    1
    29    10    27    1
    30    11    28    1
    31    12    29    1
    32    13    30    1
    33    15    31    1
    34    16    32    1
    35    16    33    1
    36    18    34    1
    37    19    35    1
    38    20    36    1
    39    23    37    1
@<TRIPOS>MOLECULE
../data/bude_mols_rdkit_confs/molecule_43.pdb
 37 39 0 0 0
SMALL
GASTEIGER

@<TRIPOS>ATOM
      1  O1        -0.3160    0.9760   -0.9730 O.2     1  UNL1       -0.2754
      2  C1        -0.3190   -0.0340   -0.2720 C.2     1  UNL1        0.2192
      3  C2         0.5600   -1.1900   -0.5970 C.3     1  UNL1        0.0685
      4  C3         1.9070   -1.1360   -0.0900 C.ar    1  UNL1        0.0780
      5  N1         2.1430   -1.7800    1.0970 N.ar    1  UNL1       -0.1748
      6  N2         3.3350   -1.7730    1.6810 N.ar    1  UNL1       -0.2425
      7  C4         4.3870   -1.1360    1.1510 C.ar    1  UNL1        0.2725
      8  O2         5.5060   -1.1440    1.7250 O.2     1  UNL1       -0.2658
      9  C5         4.2140   -0.4740   -0.0380 C.ar    1  UNL1        0.0496
     10  C6         5.2840    0.1710   -0.5940 C.ar    1  UNL1       -0.0487
     11  C7         5.1260    0.8340   -1.7920 C.ar    1  UNL1       -0.0610
     12  C8         3.9010    0.8360   -2.4060 C.ar    1  UNL1       -0.0611
     13  C9         2.8090    0.1810   -1.8430 C.ar    1  UNL1       -0.0521
     14  C10        2.9590   -0.4870   -0.6430 C.ar    1  UNL1        0.0108
     15  N3        -1.1750   -0.0970    0.8710 N.am    1  UNL1       -0.3109
     16  C11       -2.0870    0.8850    1.3140 C.3     1  UNL1        0.0369
     17  C12       -3.4560    0.7220    0.7910 C.ar    1  UNL1       -0.0289
     18  C13       -3.8770   -0.4950    0.2500 C.ar    1  UNL1       -0.0570
     19  C14       -5.1550   -0.6660   -0.2140 C.ar    1  UNL1       -0.0601
     20  C15       -6.0480    0.3710   -0.1540 C.ar    1  UNL1       -0.0434
     21  C16       -5.6690    1.5720    0.3650 C.ar    1  UNL1        0.0413
     22 CL1        -6.8020    2.8970    0.4500 Cl      1  UNL1       -0.0835
     23  C17       -4.3620    1.7440    0.8410 C.ar    1  UNL1       -0.0387
     24 H           0.6167   -1.2657   -1.6628 H       1  UNL1        0.0423
     25 H           0.1097   -2.0323   -0.1148 H       1  UNL1        0.0423
     26 H           3.4496   -2.2526    2.5331 H       1  UNL1        0.1921
     27 H           6.2012    0.1614   -0.1210 H       1  UNL1        0.0625
     28 H           5.9244    1.3253   -2.2234 H       1  UNL1        0.0618
     29 H           3.7856    1.3327   -3.3032 H       1  UNL1        0.0618
     30 H           1.8934    0.1944   -2.3190 H       1  UNL1        0.0624
     31 H          -1.1225   -0.9188    1.4106 H       1  UNL1        0.1490
     32 H          -1.7229    1.8432    1.0071 H       1  UNL1        0.0512
     33 H          -2.1515    0.7857    2.3774 H       1  UNL1        0.0512
     34 H          -3.2115   -1.2821    0.1986 H       1  UNL1        0.0621
     35 H          -5.4443   -1.5748   -0.6081 H       1  UNL1        0.0618
     36 H          -7.0106    0.2420   -0.5030 H       1  UNL1        0.0632
     37 H          -4.0798    2.6552    1.2348 H       1  UNL1        0.0635
@<TRIPOS>BOND
     1     1     2    2
     2     2     3    1
     3     2    15   am
     4     3     4    1
     5     4     5   ar
     6     4    14   ar
     7     5     6   ar
     8     6     7   ar
     9     7     8    2
    10     7     9   ar
    11     9    10   ar
    12     9    14   ar
    13    10    11   ar
    14    11    12   ar
    15    12    13   ar
    16    13    14   ar
    17    15    16    1
    18    16    17    1
    19    17    18   ar
    20    17    23   ar
    21    18    19   ar
    22    19    20   ar
    23    20    21   ar
    24    21    22    1
    25    21    23   ar
    26     3    24    1
    27     3    25    1
    28     6    26    1
    29    10    27    1
    30    11    28    1
    31    12    29    1
    32    13    30    1
    33    15    31    1
    34    16    32    1
    35    16    33    1
    36    18    34    1
    37    19    35    1
    38    20    36    1
    39    23    37    1
@<TRIPOS>MOLECULE
../data/bude_mols_rdkit_confs/molecule_43.pdb
 37 39 0 0 0
SMALL
GASTEIGER

@<TRIPOS>ATOM
      1  O1         0.6310    1.8530   -0.0080 O.2     1  UNL1       -0.2754
      2  C1         0.3880    0.6210   -0.2690 C.2     1  UNL1        0.2192
      3  C2        -0.6490    0.4680   -1.3440 C.3     1  UNL1        0.0685
      4  C3        -1.9530    0.6590   -0.7180 C.ar    1  UNL1        0.0780
      5  N1        -2.1210    1.7620    0.0310 N.ar    1  UNL1       -0.1748
      6  N2        -3.1930    1.9710    0.7380 N.ar    1  UNL1       -0.2425
      7  C4        -4.1900    1.0860    0.7500 C.ar    1  UNL1        0.2725
      8  O2        -5.2120    1.3100    1.4400 O.2     1  UNL1       -0.2658
      9  C5        -4.0960   -0.0600    0.0130 C.ar    1  UNL1        0.0496
     10  C6        -5.1590   -0.9600   -0.0270 C.ar    1  UNL1       -0.0487
     11  C7        -5.0530   -2.0820   -0.8330 C.ar    1  UNL1       -0.0610
     12  C8        -3.9370   -2.2920   -1.5640 C.ar    1  UNL1       -0.0611
     13  C9        -2.8880   -1.3850   -1.5100 C.ar    1  UNL1       -0.0521
     14  C10       -2.9430   -0.2780   -0.7410 C.ar    1  UNL1        0.0108
     15  N3         1.0770   -0.3400    0.4280 N.am    1  UNL1       -0.3109
     16  C11        2.0900   -0.0790    1.4340 C.3     1  UNL1        0.0369
     17  C12        3.4400    0.1480    0.8410 C.ar    1  UNL1       -0.0289
     18  C13        4.3820   -0.8890    0.8450 C.ar    1  UNL1       -0.0570
     19  C14        5.6230   -0.7710    0.2920 C.ar    1  UNL1       -0.0601
     20  C15        5.9610    0.4270   -0.2980 C.ar    1  UNL1       -0.0434
     21  C16        5.0670    1.4550   -0.3140 C.ar    1  UNL1        0.0413
     22 CL1         5.5440    2.9810   -1.0920 Cl      1  UNL1       -0.0835
     23  C17        3.7990    1.3210    0.2550 C.ar    1  UNL1       -0.0387
     24 H          -0.5890   -0.5098   -1.7744 H       1  UNL1        0.0423
     25 H          -0.4946    1.1835   -2.1244 H       1  UNL1        0.0423
     26 H          -3.2690    2.7947    1.2719 H       1  UNL1        0.1921
     27 H          -6.0096   -0.7939    0.5334 H       1  UNL1        0.0625
     28 H          -5.8300   -2.7599   -0.8749 H       1  UNL1        0.0618
     29 H          -3.8641   -3.1286   -2.1639 H       1  UNL1        0.0618
     30 H          -2.0421   -1.5624   -2.0740 H       1  UNL1        0.0624
     31 H           0.8673   -1.2813    0.2297 H       1  UNL1        0.1490
     32 H           2.1423   -0.9194    2.0942 H       1  UNL1        0.0512
     33 H           1.8093    0.8132    1.9537 H       1  UNL1        0.0512
     34 H           4.1245   -1.7850    1.2876 H       1  UNL1        0.0621
     35 H           6.2906   -1.5577    0.3149 H       1  UNL1        0.0618
     36 H           6.8916    0.5459   -0.7280 H       1  UNL1        0.0632
     37 H           3.1355    2.1110    0.2308 H       1  UNL1        0.0635
@<TRIPOS>BOND
     1     1     2    2
     2     2     3    1
     3     2    15   am
     4     3     4    1
     5     4     5   ar
     6     4    14   ar
     7     5     6   ar
     8     6     7   ar
     9     7     8    2
    10     7     9   ar
    11     9    10   ar
    12     9    14   ar
    13    10    11   ar
    14    11    12   ar
    15    12    13   ar
    16    13    14   ar
    17    15    16    1
    18    16    17    1
    19    17    18   ar
    20    17    23   ar
    21    18    19   ar
    22    19    20   ar
    23    20    21   ar
    24    21    22    1
    25    21    23   ar
    26     3    24    1
    27     3    25    1
    28     6    26    1
    29    10    27    1
    30    11    28    1
    31    12    29    1
    32    13    30    1
    33    15    31    1
    34    16    32    1
    35    16    33    1
    36    18    34    1
    37    19    35    1
    38    20    36    1
    39    23    37    1
@<TRIPOS>MOLECULE
../data/bude_mols_rdkit_confs/molecule_43.pdb
 37 39 0 0 0
SMALL
GASTEIGER

@<TRIPOS>ATOM
      1  O1         0.0810   -0.3990   -0.3050 O.2     1  UNL1       -0.2754
      2  C1         0.2470    0.8350   -0.4980 C.2     1  UNL1        0.2192
      3  C2        -0.7540    1.7710    0.0570 C.3     1  UNL1        0.0685
      4  C3        -1.8030    1.0070    0.7360 C.ar    1  UNL1        0.0780
      5  N1        -1.7830    0.9520    2.1030 N.ar    1  UNL1       -0.1748
      6  N2        -2.6860    0.2900    2.8110 N.ar    1  UNL1       -0.2425
      7  C4        -3.6700   -0.3590    2.1410 C.ar    1  UNL1        0.2725
      8  O2        -4.5360   -0.9930    2.8140 O.2     1  UNL1       -0.2658
      9  C5        -3.7370   -0.3360    0.7670 C.ar    1  UNL1        0.0496
     10  C6        -4.7350   -0.9860    0.0580 C.ar    1  UNL1       -0.0487
     11  C7        -4.7550   -0.9240   -1.3370 C.ar    1  UNL1       -0.0610
     12  C8        -3.8120   -0.2350   -2.0480 C.ar    1  UNL1       -0.0611
     13  C9        -2.8170    0.4130   -1.3280 C.ar    1  UNL1       -0.0521
     14  C10       -2.7910    0.3570    0.0440 C.ar    1  UNL1        0.0108
     15  N3         1.3870    1.2080   -1.2340 N.am    1  UNL1       -0.3109
     16  C11        2.3530    0.2640   -1.7570 C.3     1  UNL1        0.0369
     17  C12        3.3190   -0.1980   -0.7320 C.ar    1  UNL1       -0.0289
     18  C13        4.0420   -1.3400   -0.9930 C.ar    1  UNL1       -0.0570
     19  C14        4.9550   -1.8070   -0.0990 C.ar    1  UNL1       -0.0601
     20  C15        5.1960   -1.1610    1.0970 C.ar    1  UNL1       -0.0434
     21  C16        4.4620   -0.0160    1.3430 C.ar    1  UNL1        0.0413
     22 CL1         4.7350    0.8300    2.8380 Cl      1  UNL1       -0.0835
     23  C17        3.5270    0.4810    0.4540 C.ar    1  UNL1       -0.0387
     24 H          -1.1857    2.3450   -0.7361 H       1  UNL1        0.0423
     25 H          -0.2814    2.4310    0.7541 H       1  UNL1        0.0423
     26 H          -2.6438    0.2699    3.7944 H       1  UNL1        0.1921
     27 H          -5.4636   -1.5160    0.5612 H       1  UNL1        0.0625
     28 H          -5.5059   -1.4141   -1.8478 H       1  UNL1        0.0618
     29 H          -3.8386   -0.1980   -3.0790 H       1  UNL1        0.0618
     30 H          -2.0879    0.9433   -1.8302 H       1  UNL1        0.0624
     31 H           1.5366    2.1662   -1.4032 H       1  UNL1        0.1490
     32 H           2.8954    0.7343   -2.5504 H       1  UNL1        0.0512
     33 H           1.8122   -0.5935   -2.0992 H       1  UNL1        0.0512
     34 H           3.8895   -1.8483   -1.8781 H       1  UNL1        0.0621
     35 H           5.4812   -2.6667   -0.3207 H       1  UNL1        0.0618
     36 H           5.8898   -1.5154    1.7738 H       1  UNL1        0.0632
     37 H           2.9965    1.3392    0.6709 H       1  UNL1        0.0635
@<TRIPOS>BOND
     1     1     2    2
     2     2     3    1
     3     2    15   am
     4     3     4    1
     5     4     5   ar
     6     4    14   ar
     7     5     6   ar
     8     6     7   ar
     9     7     8    2
    10     7     9   ar
    11     9    10   ar
    12     9    14   ar
    13    10    11   ar
    14    11    12   ar
    15    12    13   ar
    16    13    14   ar
    17    15    16    1
    18    16    17    1
    19    17    18   ar
    20    17    23   ar
    21    18    19   ar
    22    19    20   ar
    23    20    21   ar
    24    21    22    1
    25    21    23   ar
    26     3    24    1
    27     3    25    1
    28     6    26    1
    29    10    27    1
    30    11    28    1
    31    12    29    1
    32    13    30    1
    33    15    31    1
    34    16    32    1
    35    16    33    1
    36    18    34    1
    37    19    35    1
    38    20    36    1
    39    23    37    1
@<TRIPOS>MOLECULE
../data/bude_mols_rdkit_confs/molecule_43.pdb
 37 39 0 0 0
SMALL
GASTEIGER

@<TRIPOS>ATOM
      1  O1         0.4440    1.1270    0.4160 O.2     1  UNL1       -0.2754
      2  C1         0.3570   -0.0680    0.1570 C.2     1  UNL1        0.2192
      3  C2        -0.6450   -0.9280    0.8010 C.3     1  UNL1        0.0685
      4  C3        -1.9670   -1.0510    0.2450 C.ar    1  UNL1        0.0780
      5  N1        -2.2530   -2.1660   -0.5150 N.ar    1  UNL1       -0.1748
      6  N2        -3.4190   -2.3700   -1.0760 N.ar    1  UNL1       -0.2425
      7  C4        -4.4680   -1.5260   -0.9800 C.ar    1  UNL1        0.2725
      8  O2        -5.5910   -1.7400   -1.5330 O.2     1  UNL1       -0.2658
      9  C5        -4.2460   -0.3690   -0.2130 C.ar    1  UNL1        0.0496
     10  C6        -5.2990    0.5070   -0.0810 C.ar    1  UNL1       -0.0487
     11  C7        -5.1070    1.6410    0.6730 C.ar    1  UNL1       -0.0610
     12  C8        -3.8720    1.8860    1.2860 C.ar    1  UNL1       -0.0611
     13  C9        -2.8380    0.9920    1.1360 C.ar    1  UNL1       -0.0521
     14  C10       -3.0010   -0.1720    0.3730 C.ar    1  UNL1        0.0108
     15  N3         1.2790   -0.6140   -0.8070 N.am    1  UNL1       -0.3109
     16  C11        2.3020    0.1700   -1.4500 C.3     1  UNL1        0.0369
     17  C12        3.5340    0.3260   -0.6650 C.ar    1  UNL1       -0.0289
     18  C13        3.7430    1.3450    0.2310 C.ar    1  UNL1       -0.0570
     19  C14        4.9280    1.4590    0.9460 C.ar    1  UNL1       -0.0601
     20  C15        5.9450    0.5410    0.7730 C.ar    1  UNL1       -0.0434
     21  C16        5.7460   -0.4870   -0.1270 C.ar    1  UNL1        0.0413
     22 CL1         7.0240   -1.6670   -0.3750 Cl      1  UNL1       -0.0835
     23  C17        4.5620   -0.6010   -0.8380 C.ar    1  UNL1       -0.0387
     24 H          -0.7651   -0.5639    1.8000 H       1  UNL1        0.0423
     25 H          -0.2378   -1.9093    0.6737 H       1  UNL1        0.0423
     26 H          -3.5381   -3.1933   -1.6025 H       1  UNL1        0.1921
     27 H          -6.2065    0.3185   -0.5347 H       1  UNL1        0.0625
     28 H          -5.8788    2.3164    0.7879 H       1  UNL1        0.0618
     29 H          -3.7377    2.7389    1.8513 H       1  UNL1        0.0618
     30 H          -1.9310    1.1806    1.5908 H       1  UNL1        0.0624
     31 H           1.2060   -1.5685   -1.0370 H       1  UNL1        0.1490
     32 H           1.9039    1.1440   -1.6442 H       1  UNL1        0.0512
     33 H           2.5737   -0.3564   -2.3411 H       1  UNL1        0.0512
     34 H           2.9992    2.0453    0.3771 H       1  UNL1        0.0621
     35 H           5.0497    2.2371    1.6129 H       1  UNL1        0.0618
     36 H           6.8281    0.6210    1.3010 H       1  UNL1        0.0632
     37 H           4.4394   -1.3806   -1.5030 H       1  UNL1        0.0635
@<TRIPOS>BOND
     1     1     2    2
     2     2     3    1
     3     2    15   am
     4     3     4    1
     5     4     5   ar
     6     4    14   ar
     7     5     6   ar
     8     6     7   ar
     9     7     8    2
    10     7     9   ar
    11     9    10   ar
    12     9    14   ar
    13    10    11   ar
    14    11    12   ar
    15    12    13   ar
    16    13    14   ar
    17    15    16    1
    18    16    17    1
    19    17    18   ar
    20    17    23   ar
    21    18    19   ar
    22    19    20   ar
    23    20    21   ar
    24    21    22    1
    25    21    23   ar
    26     3    24    1
    27     3    25    1
    28     6    26    1
    29    10    27    1
    30    11    28    1
    31    12    29    1
    32    13    30    1
    33    15    31    1
    34    16    32    1
    35    16    33    1
    36    18    34    1
    37    19    35    1
    38    20    36    1
    39    23    37    1
@<TRIPOS>MOLECULE
../data/bude_mols_rdkit_confs/molecule_43.pdb
 37 39 0 0 0
SMALL
GASTEIGER

@<TRIPOS>ATOM
      1  O1        -0.5170   -0.5680    0.9690 O.2     1  UNL1       -0.2754
      2  C1         0.0080   -0.1460   -0.1010 C.2     1  UNL1        0.2192
      3  C2        -0.8500    0.0150   -1.2920 C.3     1  UNL1        0.0685
      4  C3        -2.1740   -0.5230   -1.0110 C.ar    1  UNL1        0.0780
      5  N1        -2.4780   -1.7530   -1.5420 N.ar    1  UNL1       -0.1748
      6  N2        -3.6190   -2.3480   -1.3480 N.ar    1  UNL1       -0.2425
      7  C4        -4.6080   -1.8060   -0.6080 C.ar    1  UNL1        0.2725
      8  O2        -5.6980   -2.4250   -0.4490 O.2     1  UNL1       -0.2658
      9  C5        -4.3930   -0.5610   -0.0320 C.ar    1  UNL1        0.0496
     10  C6        -5.3480    0.0570    0.7370 C.ar    1  UNL1       -0.0487
     11  C7        -5.0780    1.3040    1.2930 C.ar    1  UNL1       -0.0610
     12  C8        -3.8620    1.9270    1.0830 C.ar    1  UNL1       -0.0611
     13  C9        -2.9050    1.2890    0.3020 C.ar    1  UNL1       -0.0521
     14  C10       -3.1560    0.0430   -0.2640 C.ar    1  UNL1        0.0108
     15  N3         1.3880    0.1400   -0.0850 N.am    1  UNL1       -0.3109
     16  C11        2.2580   -0.0180    1.0940 C.3     1  UNL1        0.0369
     17  C12        3.6660    0.0950    0.7060 C.ar    1  UNL1       -0.0289
     18  C13        4.5160   -0.9740    0.8930 C.ar    1  UNL1       -0.0570
     19  C14        5.8460   -0.9450    0.5190 C.ar    1  UNL1       -0.0601
     20  C15        6.3690    0.1730   -0.0620 C.ar    1  UNL1       -0.0434
     21  C16        5.5280    1.2650   -0.2600 C.ar    1  UNL1        0.0413
     22 CL1         6.1490    2.7170   -1.0140 Cl      1  UNL1       -0.0835
     23  C17        4.1980    1.2220    0.1200 C.ar    1  UNL1       -0.0387
     24 H          -0.4182   -0.5122   -2.1169 H       1  UNL1        0.0423
     25 H          -0.9308    1.0536   -1.5364 H       1  UNL1        0.0423
     26 H          -3.7665   -3.2306   -1.7585 H       1  UNL1        0.1921
     27 H          -6.2588   -0.3996    0.9014 H       1  UNL1        0.0625
     28 H          -5.7956    1.7700    1.8700 H       1  UNL1        0.0618
     29 H          -3.6676    2.8511    1.4994 H       1  UNL1        0.0618
     30 H          -1.9944    1.7467    0.1396 H       1  UNL1        0.0624
     31 H           1.7985    0.4675   -0.9177 H       1  UNL1        0.1490
     32 H           2.0885   -0.9797    1.5313 H       1  UNL1        0.0512
     33 H           2.0291    0.7518    1.8010 H       1  UNL1        0.0512
     34 H           4.1437   -1.8314    1.3304 H       1  UNL1        0.0621
     35 H           6.4445   -1.7703    0.6794 H       1  UNL1        0.0618
     36 H           7.3603    0.2085   -0.3468 H       1  UNL1        0.0632
     37 H           3.5967    2.0457   -0.0379 H       1  UNL1        0.0635
@<TRIPOS>BOND
     1     1     2    2
     2     2     3    1
     3     2    15   am
     4     3     4    1
     5     4     5   ar
     6     4    14   ar
     7     5     6   ar
     8     6     7   ar
     9     7     8    2
    10     7     9   ar
    11     9    10   ar
    12     9    14   ar
    13    10    11   ar
    14    11    12   ar
    15    12    13   ar
    16    13    14   ar
    17    15    16    1
    18    16    17    1
    19    17    18   ar
    20    17    23   ar
    21    18    19   ar
    22    19    20   ar
    23    20    21   ar
    24    21    22    1
    25    21    23   ar
    26     3    24    1
    27     3    25    1
    28     6    26    1
    29    10    27    1
    30    11    28    1
    31    12    29    1
    32    13    30    1
    33    15    31    1
    34    16    32    1
    35    16    33    1
    36    18    34    1
    37    19    35    1
    38    20    36    1
    39    23    37    1
@<TRIPOS>MOLECULE
../data/bude_mols_rdkit_confs/molecule_43.pdb
 37 39 0 0 0
SMALL
GASTEIGER

@<TRIPOS>ATOM
      1  O1        -0.0960    0.0940    0.5330 O.2     1  UNL1       -0.2754
      2  C1        -0.2290    0.6990   -0.5670 C.2     1  UNL1        0.2192
      3  C2         0.7110    0.4370   -1.7070 C.3     1  UNL1        0.0685
      4  C3         1.7290   -0.5790   -1.3190 C.ar    1  UNL1        0.0780
      5  N1         1.6880   -1.8550   -1.7400 N.ar    1  UNL1       -0.1748
      6  N2         2.5780   -2.7760   -1.4140 N.ar    1  UNL1       -0.2425
      7  C4         3.6070   -2.4550   -0.6090 C.ar    1  UNL1        0.2725
      8  O2         4.4410   -3.3510   -0.3140 O.2     1  UNL1       -0.2658
      9  C5         3.7430   -1.1730   -0.1210 C.ar    1  UNL1        0.0496
     10  C6         4.7940   -0.8130    0.7110 C.ar    1  UNL1       -0.0487
     11  C7         4.8920    0.4770    1.1760 C.ar    1  UNL1       -0.0610
     12  C8         3.9520    1.4330    0.8270 C.ar    1  UNL1       -0.0611
     13  C9         2.9160    1.0300   -0.0080 C.ar    1  UNL1       -0.0521
     14  C10        2.7950   -0.2400   -0.4830 C.ar    1  UNL1        0.0108
     15  N3        -1.2940    1.6280   -0.6770 N.am    1  UNL1       -0.3109
     16  C11       -2.2390    1.9460    0.3520 C.3     1  UNL1        0.0369
     17  C12       -3.2830    0.9120    0.5550 C.ar    1  UNL1       -0.0289
     18  C13       -3.1420   -0.0530    1.5300 C.ar    1  UNL1       -0.0570
     19  C14       -4.1200   -1.0240    1.7210 C.ar    1  UNL1       -0.0601
     20  C15       -5.2570   -1.0390    0.9330 C.ar    1  UNL1       -0.0434
     21  C16       -5.4090   -0.0830   -0.0400 C.ar    1  UNL1        0.0413
     22 CL1        -6.8500   -0.1090   -1.0300 Cl      1  UNL1       -0.0835
     23  C17       -4.4320    0.8690   -0.2150 C.ar    1  UNL1       -0.0387
     24 H           1.2056    1.3479   -1.9723 H       1  UNL1        0.0423
     25 H           0.1509    0.0661   -2.5399 H       1  UNL1        0.0423
     26 H           2.4883   -3.6937   -1.7590 H       1  UNL1        0.1921
     27 H           5.5020   -1.5138    0.9806 H       1  UNL1        0.0625
     28 H           5.6768    0.7369    1.7937 H       1  UNL1        0.0618
     29 H           4.0180    2.4033    1.1723 H       1  UNL1        0.0618
     30 H           2.2051    1.7266   -0.2806 H       1  UNL1        0.0624
     31 H          -1.3932    2.0965   -1.5372 H       1  UNL1        0.1490
     32 H          -2.7219    2.8649    0.0926 H       1  UNL1        0.0512
     33 H          -1.6884    2.0129    1.2670 H       1  UNL1        0.0512
     34 H          -2.2996   -0.0550    2.1261 H       1  UNL1        0.0621
     35 H          -3.9964   -1.7381    2.4557 H       1  UNL1        0.0618
     36 H          -5.9817   -1.7599    1.0750 H       1  UNL1        0.0632
     37 H          -4.5611    1.5808   -0.9510 H       1  UNL1        0.0635
@<TRIPOS>BOND
     1     1     2    2
     2     2     3    1
     3     2    15   am
     4     3     4    1
     5     4     5   ar
     6     4    14   ar
     7     5     6   ar
     8     6     7   ar
     9     7     8    2
    10     7     9   ar
    11     9    10   ar
    12     9    14   ar
    13    10    11   ar
    14    11    12   ar
    15    12    13   ar
    16    13    14   ar
    17    15    16    1
    18    16    17    1
    19    17    18   ar
    20    17    23   ar
    21    18    19   ar
    22    19    20   ar
    23    20    21   ar
    24    21    22    1
    25    21    23   ar
    26     3    24    1
    27     3    25    1
    28     6    26    1
    29    10    27    1
    30    11    28    1
    31    12    29    1
    32    13    30    1
    33    15    31    1
    34    16    32    1
    35    16    33    1
    36    18    34    1
    37    19    35    1
    38    20    36    1
    39    23    37    1
@<TRIPOS>MOLECULE
../data/bude_mols_rdkit_confs/molecule_43.pdb
 37 39 0 0 0
SMALL
GASTEIGER

@<TRIPOS>ATOM
      1  O1         0.4060    0.9630   -0.0590 O.2     1  UNL1       -0.2754
      2  C1         0.3780   -0.2660    0.1380 C.2     1  UNL1        0.2192
      3  C2        -0.6170   -0.9040    1.0110 C.3     1  UNL1        0.0685
      4  C3        -1.9560   -1.0780    0.4170 C.ar    1  UNL1        0.0780
      5  N1        -2.2560   -2.2800   -0.1540 N.ar    1  UNL1       -0.1748
      6  N2        -3.3990   -2.5310   -0.7550 N.ar    1  UNL1       -0.2425
      7  C4        -4.3710   -1.5940   -0.8450 C.ar    1  UNL1        0.2725
      8  O2        -5.4710   -1.8400   -1.4230 O.2     1  UNL1       -0.2658
      9  C5        -4.1500   -0.3660   -0.2980 C.ar    1  UNL1        0.0496
     10  C6        -5.1400    0.5860   -0.3780 C.ar    1  UNL1       -0.0487
     11  C7        -4.9180    1.8120    0.1840 C.ar    1  UNL1       -0.0610
     12  C8        -3.7110    2.0960    0.8300 C.ar    1  UNL1       -0.0611
     13  C9        -2.7240    1.1130    0.8950 C.ar    1  UNL1       -0.0521
     14  C10       -2.9300   -0.1140    0.3380 C.ar    1  UNL1        0.0108
     15  N3         1.3610   -1.0630   -0.5290 N.am    1  UNL1       -0.3109
     16  C11        2.3340   -0.4240   -1.3700 C.3     1  UNL1        0.0369
     17  C12        3.4970    0.0860   -0.5810 C.ar    1  UNL1       -0.0289
     18  C13        4.0360    1.3040   -0.9010 C.ar    1  UNL1       -0.0570
     19  C14        5.1290    1.8370   -0.2240 C.ar    1  UNL1       -0.0601
     20  C15        5.6810    1.1060    0.8050 C.ar    1  UNL1       -0.0434
     21  C16        5.1320   -0.1210    1.1170 C.ar    1  UNL1        0.0413
     22 CL1         5.8290   -1.0650    2.4250 Cl      1  UNL1       -0.0835
     23  C17        4.0430   -0.6540    0.4420 C.ar    1  UNL1       -0.0387
     24 H          -0.7206   -0.3021    1.8896 H       1  UNL1        0.0423
     25 H          -0.2499   -1.8895    1.2080 H       1  UNL1        0.0423
     26 H          -3.5506   -3.4208   -1.1482 H       1  UNL1        0.1921
     27 H          -6.0325    0.3786   -0.8529 H       1  UNL1        0.0625
     28 H          -5.6504    2.5371    0.1308 H       1  UNL1        0.0618
     29 H          -3.5522    3.0233    1.2542 H       1  UNL1        0.0618
     30 H          -1.8300    1.3162    1.3688 H       1  UNL1        0.0624
     31 H           1.3704   -2.0405   -0.4126 H       1  UNL1        0.1490
     32 H           1.8701    0.3977   -1.8745 H       1  UNL1        0.0512
     33 H           2.6971   -1.1477   -2.0695 H       1  UNL1        0.0512
     34 H           3.6163    1.8462   -1.6723 H       1  UNL1        0.0621
     35 H           5.5163    2.7569   -0.4863 H       1  UNL1        0.0618
     36 H           6.4901    1.4693    1.3327 H       1  UNL1        0.0632
     37 H           3.6555   -1.5753    0.6990 H       1  UNL1        0.0635
@<TRIPOS>BOND
     1     1     2    2
     2     2     3    1
     3     2    15   am
     4     3     4    1
     5     4     5   ar
     6     4    14   ar
     7     5     6   ar
     8     6     7   ar
     9     7     8    2
    10     7     9   ar
    11     9    10   ar
    12     9    14   ar
    13    10    11   ar
    14    11    12   ar
    15    12    13   ar
    16    13    14   ar
    17    15    16    1
    18    16    17    1
    19    17    18   ar
    20    17    23   ar
    21    18    19   ar
    22    19    20   ar
    23    20    21   ar
    24    21    22    1
    25    21    23   ar
    26     3    24    1
    27     3    25    1
    28     6    26    1
    29    10    27    1
    30    11    28    1
    31    12    29    1
    32    13    30    1
    33    15    31    1
    34    16    32    1
    35    16    33    1
    36    18    34    1
    37    19    35    1
    38    20    36    1
    39    23    37    1
@<TRIPOS>MOLECULE
../data/bude_mols_rdkit_confs/molecule_43.pdb
 37 39 0 0 0
SMALL
GASTEIGER

@<TRIPOS>ATOM
      1  O1         0.3380    0.7280    0.0990 O.2     1  UNL1       -0.2754
      2  C1         0.4010   -0.1740   -0.7690 C.2     1  UNL1        0.2192
      3  C2        -0.6980   -1.1550   -0.9290 C.3     1  UNL1        0.0685
      4  C3        -1.8290   -0.9130   -0.0150 C.ar    1  UNL1        0.0780
      5  N1        -1.9760   -1.6220    1.1430 N.ar    1  UNL1       -0.1748
      6  N2        -2.9800   -1.4030    1.9630 N.ar    1  UNL1       -0.2425
      7  C4        -3.9060   -0.4690    1.6920 C.ar    1  UNL1        0.2725
      8  O2        -4.8660   -0.2580    2.4750 O.2     1  UNL1       -0.2658
      9  C5        -3.8280    0.2940    0.5350 C.ar    1  UNL1        0.0496
     10  C6        -4.8060    1.2390    0.2850 C.ar    1  UNL1       -0.0487
     11  C7        -4.6850    1.9610   -0.8820 C.ar    1  UNL1       -0.0610
     12  C8        -3.6260    1.7340   -1.7500 C.ar    1  UNL1       -0.0611
     13  C9        -2.6570    0.7880   -1.4910 C.ar    1  UNL1       -0.0521
     14  C10       -2.7680    0.0570   -0.3220 C.ar    1  UNL1        0.0108
     15  N3         1.5170   -0.3130   -1.6430 N.am    1  UNL1       -0.3109
     16  C11        2.6240    0.5990   -1.5200 C.3     1  UNL1        0.0369
     17  C12        3.4160    0.1160   -0.3430 C.ar    1  UNL1       -0.0289
     18  C13        3.1560   -1.1160    0.2430 C.ar    1  UNL1       -0.0570
     19  C14        3.8820   -1.5600    1.3230 C.ar    1  UNL1       -0.0601
     20  C15        4.9010   -0.7800    1.8560 C.ar    1  UNL1       -0.0434
     21  C16        5.1480    0.4490    1.2590 C.ar    1  UNL1        0.0413
     22 CL1         6.4150    1.4850    1.8750 Cl      1  UNL1       -0.0835
     23  C17        4.4160    0.9070    0.1630 C.ar    1  UNL1       -0.0387
     24 H          -0.3105   -2.1341   -0.7389 H       1  UNL1        0.0423
     25 H          -1.0692   -1.0570   -1.9277 H       1  UNL1        0.0423
     26 H          -3.0542   -1.9326    2.7896 H       1  UNL1        0.1921
     27 H          -5.5878    1.3957    0.9402 H       1  UNL1        0.0625
     28 H          -5.3896    2.6786   -1.1134 H       1  UNL1        0.0618
     29 H          -3.5619    2.2908   -2.6165 H       1  UNL1        0.0618
     30 H          -1.8758    0.6307   -2.1467 H       1  UNL1        0.0624
     31 H           1.5312   -1.0245   -2.3233 H       1  UNL1        0.1490
     32 H           2.2705    1.5944   -1.3491 H       1  UNL1        0.0512
     33 H           3.2157    0.6255   -2.4111 H       1  UNL1        0.0512
     34 H           2.4035   -1.7096   -0.1395 H       1  UNL1        0.0621
     35 H           3.6686   -2.4792    1.7408 H       1  UNL1        0.0618
     36 H           5.4538   -1.1023    2.6657 H       1  UNL1        0.0632
     37 H           4.6234    1.8253   -0.2598 H       1  UNL1        0.0635
@<TRIPOS>BOND
     1     1     2    2
     2     2     3    1
     3     2    15   am
     4     3     4    1
     5     4     5   ar
     6     4    14   ar
     7     5     6   ar
     8     6     7   ar
     9     7     8    2
    10     7     9   ar
    11     9    10   ar
    12     9    14   ar
    13    10    11   ar
    14    11    12   ar
    15    12    13   ar
    16    13    14   ar
    17    15    16    1
    18    16    17    1
    19    17    18   ar
    20    17    23   ar
    21    18    19   ar
    22    19    20   ar
    23    20    21   ar
    24    21    22    1
    25    21    23   ar
    26     3    24    1
    27     3    25    1
    28     6    26    1
    29    10    27    1
    30    11    28    1
    31    12    29    1
    32    13    30    1
    33    15    31    1
    34    16    32    1
    35    16    33    1
    36    18    34    1
    37    19    35    1
    38    20    36    1
    39    23    37    1
@<TRIPOS>MOLECULE
../data/bude_mols_rdkit_confs/molecule_43.pdb
 37 39 0 0 0
SMALL
GASTEIGER

@<TRIPOS>ATOM
      1  O1         0.1760   -0.4820   -0.1910 O.2     1  UNL1       -0.2754
      2  C1         0.3310    0.4080   -1.0780 C.2     1  UNL1        0.2192
      3  C2        -0.6680    1.5190   -1.2080 C.3     1  UNL1        0.0685
      4  C3        -1.7600    1.3750   -0.2260 C.ar    1  UNL1        0.0780
      5  N1        -1.8410    2.1160    0.8900 N.ar    1  UNL1       -0.1748
      6  N2        -2.8340    1.9630    1.7690 N.ar    1  UNL1       -0.2425
      7  C4        -3.8230    1.0690    1.6140 C.ar    1  UNL1        0.2725
      8  O2        -4.7570    0.9300    2.4490 O.2     1  UNL1       -0.2658
      9  C5        -3.8120    0.2680    0.4920 C.ar    1  UNL1        0.0496
     10  C6        -4.8150   -0.6630    0.2990 C.ar    1  UNL1       -0.0487
     11  C7        -4.7510   -1.4350   -0.8450 C.ar    1  UNL1       -0.0610
     12  C8        -3.7050   -1.2670   -1.7610 C.ar    1  UNL1       -0.0611
     13  C9        -2.7240   -0.3290   -1.5330 C.ar    1  UNL1       -0.0521
     14  C10       -2.7780    0.4400   -0.4060 C.ar    1  UNL1        0.0108
     15  N3         1.4710    0.2950   -1.9120 N.am    1  UNL1       -0.3109
     16  C11        2.4350   -0.8010   -1.7660 C.3     1  UNL1        0.0369
     17  C12        3.3500   -0.6040   -0.6280 C.ar    1  UNL1       -0.0289
     18  C13        3.7340    0.6430   -0.2080 C.ar    1  UNL1       -0.0570
     19  C14        4.5930    0.7690    0.8560 C.ar    1  UNL1       -0.0601
     20  C15        5.0740   -0.3470    1.5060 C.ar    1  UNL1       -0.0434
     21  C16        4.6930   -1.6230    1.0910 C.ar    1  UNL1        0.0413
     22 CL1         5.3170   -2.9990    1.9340 Cl      1  UNL1       -0.0835
     23  C17        3.8350   -1.7030    0.0270 C.ar    1  UNL1       -0.0387
     24 H          -1.0818    1.5021   -2.1946 H       1  UNL1        0.0423
     25 H          -0.1677    2.4467   -1.0235 H       1  UNL1        0.0423
     26 H          -2.8412    2.5343    2.5708 H       1  UNL1        0.1921
     27 H          -5.5806   -0.7769    0.9816 H       1  UNL1        0.0625
     28 H          -5.4807   -2.1419   -1.0262 H       1  UNL1        0.0618
     29 H          -3.6696   -1.8499   -2.6119 H       1  UNL1        0.0618
     30 H          -1.9534   -0.2078   -2.2087 H       1  UNL1        0.0624
     31 H           1.6206    0.9725   -2.6105 H       1  UNL1        0.1490
     32 H           3.0140   -0.8697   -2.6632 H       1  UNL1        0.0512
     33 H           1.8805   -1.6978   -1.5841 H       1  UNL1        0.0512
     34 H           3.3790    1.4839   -0.6895 H       1  UNL1        0.0621
     35 H           4.8811    1.7083    1.1719 H       1  UNL1        0.0618
     36 H           5.7194   -0.2381    2.3039 H       1  UNL1        0.0632
     37 H           3.5398   -2.6374   -0.2966 H       1  UNL1        0.0635
@<TRIPOS>BOND
     1     1     2    2
     2     2     3    1
     3     2    15   am
     4     3     4    1
     5     4     5   ar
     6     4    14   ar
     7     5     6   ar
     8     6     7   ar
     9     7     8    2
    10     7     9   ar
    11     9    10   ar
    12     9    14   ar
    13    10    11   ar
    14    11    12   ar
    15    12    13   ar
    16    13    14   ar
    17    15    16    1
    18    16    17    1
    19    17    18   ar
    20    17    23   ar
    21    18    19   ar
    22    19    20   ar
    23    20    21   ar
    24    21    22    1
    25    21    23   ar
    26     3    24    1
    27     3    25    1
    28     6    26    1
    29    10    27    1
    30    11    28    1
    31    12    29    1
    32    13    30    1
    33    15    31    1
    34    16    32    1
    35    16    33    1
    36    18    34    1
    37    19    35    1
    38    20    36    1
    39    23    37    1
@<TRIPOS>MOLECULE
../data/bude_mols_rdkit_confs/molecule_43.pdb
 37 39 0 0 0
SMALL
GASTEIGER

@<TRIPOS>ATOM
      1  O1         0.2120    0.5120    0.3350 O.2     1  UNL1       -0.2754
      2  C1         0.2740   -0.7360    0.4860 C.2     1  UNL1        0.2192
      3  C2        -0.8200   -1.6610    0.0190 C.3     1  UNL1        0.0685
      4  C3        -1.9210   -0.9350   -0.6080 C.ar    1  UNL1        0.0780
      5  N1        -2.0860   -0.9140   -1.9430 N.ar    1  UNL1       -0.1748
      6  N2        -3.0770   -0.2660   -2.5310 N.ar    1  UNL1       -0.2425
      7  C4        -4.0030    0.4280   -1.8480 C.ar    1  UNL1        0.2725
      8  O2        -4.9360    1.0360   -2.4370 O.2     1  UNL1       -0.2658
      9  C5        -3.8960    0.4500   -0.4760 C.ar    1  UNL1        0.0496
     10  C6        -4.8380    1.1570    0.2460 C.ar    1  UNL1       -0.0487
     11  C7        -4.7140    1.1670    1.6200 C.ar    1  UNL1       -0.0610
     12  C8        -3.6770    0.4870    2.2210 C.ar    1  UNL1       -0.0611
     13  C9        -2.7320   -0.2210    1.5080 C.ar    1  UNL1       -0.0521
     14  C10       -2.8580   -0.2300    0.1270 C.ar    1  UNL1        0.0108
     15  N3         1.4350   -1.2530    1.1260 N.am    1  UNL1       -0.3109
     16  C11        2.5310   -0.4810    1.6060 C.3     1  UNL1        0.0369
     17  C12        3.4400    0.0040    0.5630 C.ar    1  UNL1       -0.0289
     18  C13        4.5670    0.6950    0.9400 C.ar    1  UNL1       -0.0570
     19  C14        5.4770    1.1880    0.0430 C.ar    1  UNL1       -0.0601
     20  C15        5.2530    0.9840   -1.3000 C.ar    1  UNL1       -0.0434
     21  C16        4.1370    0.2990   -1.7050 C.ar    1  UNL1        0.0413
     22 CL1         3.8950    0.0630   -3.4390 Cl      1  UNL1       -0.0835
     23  C17        3.2400   -0.1860   -0.7850 C.ar    1  UNL1       -0.0387
     24 H          -1.1982   -2.2015    0.8615 H       1  UNL1        0.0423
     25 H          -0.4032   -2.3232   -0.7109 H       1  UNL1        0.0423
     26 H          -3.1393   -0.2931   -3.5132 H       1  UNL1        0.1921
     27 H          -5.6065    1.6594   -0.2253 H       1  UNL1        0.0625
     28 H          -5.3968    1.6829    2.1968 H       1  UNL1        0.0618
     29 H          -3.6042    0.5084    3.2502 H       1  UNL1        0.0618
     30 H          -1.9644   -0.7223    1.9818 H       1  UNL1        0.0624
     31 H           1.4848   -2.2287    1.2474 H       1  UNL1        0.1490
     32 H           3.0945   -1.0873    2.2841 H       1  UNL1        0.0512
     33 H           2.1103    0.3872    2.0689 H       1  UNL1        0.0512
     34 H           4.7353    0.8496    1.9464 H       1  UNL1        0.0621
     35 H           6.3120    1.7010    0.3666 H       1  UNL1        0.0618
     36 H           5.9219    1.3449   -1.9981 H       1  UNL1        0.0632
     37 H           2.4054   -0.6994   -1.1088 H       1  UNL1        0.0635
@<TRIPOS>BOND
     1     1     2    2
     2     2     3    1
     3     2    15   am
     4     3     4    1
     5     4     5   ar
     6     4    14   ar
     7     5     6   ar
     8     6     7   ar
     9     7     8    2
    10     7     9   ar
    11     9    10   ar
    12     9    14   ar
    13    10    11   ar
    14    11    12   ar
    15    12    13   ar
    16    13    14   ar
    17    15    16    1
    18    16    17    1
    19    17    18   ar
    20    17    23   ar
    21    18    19   ar
    22    19    20   ar
    23    20    21   ar
    24    21    22    1
    25    21    23   ar
    26     3    24    1
    27     3    25    1
    28     6    26    1
    29    10    27    1
    30    11    28    1
    31    12    29    1
    32    13    30    1
    33    15    31    1
    34    16    32    1
    35    16    33    1
    36    18    34    1
    37    19    35    1
    38    20    36    1
    39    23    37    1
@<TRIPOS>MOLECULE
../data/bude_mols_rdkit_confs/molecule_43.pdb
 37 39 0 0 0
SMALL
GASTEIGER

@<TRIPOS>ATOM
      1  O1         0.2520   -0.2460   -1.0750 O.2     1  UNL1       -0.2754
      2  C1         0.3140   -0.0940    0.1550 C.2     1  UNL1        0.2192
      3  C2        -0.5500   -0.8120    1.1240 C.3     1  UNL1        0.0685
      4  C3        -1.9270   -0.3070    1.1800 C.ar    1  UNL1        0.0780
      5  N1        -2.2060    0.5980    2.1580 N.ar    1  UNL1       -0.1748
      6  N2        -3.3810    1.1700    2.3280 N.ar    1  UNL1       -0.2425
      7  C4        -4.4140    0.8820    1.5150 C.ar    1  UNL1        0.2725
      8  O2        -5.5540    1.4230    1.6620 O.2     1  UNL1       -0.2658
      9  C5        -4.2280   -0.0350    0.4800 C.ar    1  UNL1        0.0496
     10  C6        -5.2560   -0.3800   -0.3670 C.ar    1  UNL1       -0.0487
     11  C7        -5.0680   -1.3190   -1.3900 C.ar    1  UNL1       -0.0610
     12  C8        -3.8150   -1.8720   -1.5020 C.ar    1  UNL1       -0.0611
     13  C9        -2.7830   -1.5340   -0.6640 C.ar    1  UNL1       -0.0521
     14  C10       -2.9670   -0.6070    0.3480 C.ar    1  UNL1        0.0108
     15  N3         1.2710    0.8280    0.6790 N.am    1  UNL1       -0.3109
     16  C11        2.2090    1.6060   -0.0790 C.3     1  UNL1        0.0369
     17  C12        3.4650    0.9210   -0.3290 C.ar    1  UNL1       -0.0289
     18  C13        4.6490    1.6840   -0.2790 C.ar    1  UNL1       -0.0570
     19  C14        5.8790    1.1310   -0.4800 C.ar    1  UNL1       -0.0601
     20  C15        5.9730   -0.2380   -0.7460 C.ar    1  UNL1       -0.0434
     21  C16        4.8350   -1.0060   -0.8010 C.ar    1  UNL1        0.0413
     22 CL1         4.9690   -2.7370   -1.1360 Cl      1  UNL1       -0.0835
     23  C17        3.5970   -0.4070   -0.5900 C.ar    1  UNL1       -0.0387
     24 H          -0.1162   -0.7166    2.0975 H       1  UNL1        0.0423
     25 H          -0.6050   -1.8293    0.7970 H       1  UNL1        0.0423
     26 H          -3.5048    1.8169    3.0598 H       1  UNL1        0.1921
     27 H          -6.1815    0.0604   -0.2468 H       1  UNL1        0.0625
     28 H          -5.8342   -1.5827   -2.0290 H       1  UNL1        0.0618
     29 H          -3.6440   -2.5679   -2.2446 H       1  UNL1        0.0618
     30 H          -1.8587   -1.9757   -0.7892 H       1  UNL1        0.0624
     31 H           1.2889    0.9409    1.6568 H       1  UNL1        0.1490
     32 H           2.4163    2.5061    0.4610 H       1  UNL1        0.0512
     33 H           1.7608    1.7969   -1.0317 H       1  UNL1        0.0512
     34 H           4.5827    2.6952   -0.0837 H       1  UNL1        0.0621
     35 H           6.7287    1.7151   -0.4363 H       1  UNL1        0.0618
     36 H           6.8966   -0.6716   -0.9010 H       1  UNL1        0.0632
     37 H           2.7479   -0.9920   -0.6332 H       1  UNL1        0.0635
@<TRIPOS>BOND
     1     1     2    2
     2     2     3    1
     3     2    15   am
     4     3     4    1
     5     4     5   ar
     6     4    14   ar
     7     5     6   ar
     8     6     7   ar
     9     7     8    2
    10     7     9   ar
    11     9    10   ar
    12     9    14   ar
    13    10    11   ar
    14    11    12   ar
    15    12    13   ar
    16    13    14   ar
    17    15    16    1
    18    16    17    1
    19    17    18   ar
    20    17    23   ar
    21    18    19   ar
    22    19    20   ar
    23    20    21   ar
    24    21    22    1
    25    21    23   ar
    26     3    24    1
    27     3    25    1
    28     6    26    1
    29    10    27    1
    30    11    28    1
    31    12    29    1
    32    13    30    1
    33    15    31    1
    34    16    32    1
    35    16    33    1
    36    18    34    1
    37    19    35    1
    38    20    36    1
    39    23    37    1
