cs_R1_output_folder/data/smiles/0.pdb


 21 23  0  0  0  0  0  0  0  0999 V2000
   71.6692   49.8367   54.7559 N   0  0  0  0  0  0  0  0  0  0  0  0
   70.8335   50.0158   53.6556 C   0  0  0  0  0  0  0  0  0  0  0  0
   70.5456   51.2216   53.2996 O   0  0  0  0  0  0  0  0  0  0  0  0
   70.2552   48.9456   52.8800 C   0  0  0  0  0  0  0  0  0  0  0  0
   70.5378   48.7078   51.5499 N   0  0  0  0  0  0  0  0  0  0  0  0
   69.8951   47.6529   51.1202 N   0  0  0  0  0  0  0  0  0  0  0  0
   69.1514   47.1174   52.1090 C   0  0  0  0  0  0  0  0  0  0  0  0
   68.3226   46.0212   52.1758 C   0  0  0  0  0  0  0  0  0  0  0  0
   67.6934   45.7008   53.3568 C   0  0  0  0  0  0  0  0  0  0  0  0
   67.9211   46.4986   54.4436 C   0  0  0  0  0  0  0  0  0  0  0  0
   68.7474   47.6011   54.3950 C   0  0  0  0  0  0  0  0  0  0  0  0
   69.3855   47.9398   53.2183 C   0  0  0  0  0  0  0  0  0  0  0  0
   72.1910   50.9979   55.4412 C   0  0  0  0  0  0  0  0  0  0  0  0
   71.8334   50.9926   56.8776 C   0  0  0  0  0  0  0  0  0  0  0  0
   66.1998   50.9988   57.5281 N   0  0  0  0  0  0  0  0  0  0  0  0
   67.6072   50.9956   57.3712 C   0  0  0  0  0  0  0  0  0  0  0  0
   68.2803   52.1002   56.9077 C   0  0  0  0  0  0  0  0  0  0  0  0
   69.6318   52.0705   56.7669 C   0  0  0  0  0  0  0  0  0  0  0  0
   70.3718   50.9306   57.0848 C   0  0  0  0  0  0  0  0  0  0  0  0
   69.6929   49.8278   57.5472 C   0  0  0  0  0  0  0  0  0  0  0  0
   68.3095   49.8750   57.6866 C   0  0  0  0  0  0  0  0  0  0  0  0
 15 16  1  0  0  0
 16 17  2  0  0  0
 16 21  1  0  0  0
 17 18  1  0  0  0
 18 19  2  0  0  0
 19 14  1  0  0  0
 19 20  1  0  0  0
 14 13  1  0  0  0
 13  1  1  0  0  0
  1  2  1  0  0  0
  2  3  2  0  0  0
  2  4  1  0  0  0
  4  5  1  0  0  0
  4 12  2  0  0  0
  5  6  1  0  0  0
  6  7  2  0  0  0
  7  8  1  0  0  0
  7 12  1  0  0  0
  8  9  2  0  0  0
  9 10  1  0  0  0
 10 11  2  0  0  0
 11 12  1  0  0  0
 20 21  2  0  0  0
M  END
> <minimizedAffinity>
-8.43070

$$$$
cs_R1_output_folder/data/smiles/1.pdb


 20 22  0  0  0  0  0  0  0  0999 V2000
   70.6453   42.3679   57.4109 N   0  0  0  0  0  0  0  0  0  0  0  0
   70.7242   43.7011   57.9027 C   0  0  0  0  0  0  0  0  0  0  0  0
   70.2107   44.7819   57.2128 C   0  0  0  0  0  0  0  0  0  0  0  0
   70.2553   46.0866   57.6300 C   0  0  0  0  0  0  0  0  0  0  0  0
   70.8983   46.2617   58.8841 C   0  0  0  0  0  0  0  0  0  0  0  0
   71.1293   47.3620   59.5983 N   0  0  0  0  0  0  0  0  0  0  0  0
   71.7611   47.0024   60.6950 N   0  0  0  0  0  0  0  0  0  0  0  0
   71.9484   45.6785   60.7090 N   0  0  0  0  0  0  0  0  0  0  0  0
   71.4102   45.1971   59.5740 C   0  0  0  0  0  0  0  0  0  0  0  0
   71.3198   43.9420   59.0842 N   0  0  0  0  0  0  0  0  0  0  0  0
   69.7716   47.1781   56.9945 O   0  0  0  0  0  0  0  0  0  0  0  0
   68.5787   47.3783   56.3713 C   0  0  0  0  0  0  0  0  0  0  0  0
   68.5188   47.0663   54.9052 C   0  0  0  0  0  0  0  0  0  0  0  0
   67.8576   45.9961   54.3660 C   0  0  0  0  0  0  0  0  0  0  0  0
   67.9020   45.7887   53.0116 C   0  0  0  0  0  0  0  0  0  0  0  0
   68.5895   46.6170   52.1531 C   0  0  0  0  0  0  0  0  0  0  0  0
   69.2643   47.7019   52.6667 C   0  0  0  0  0  0  0  0  0  0  0  0
   70.1599   48.7911   51.6003 Cl  0  0  0  0  0  0  0  0  0  0  0  0
   69.2152   47.9031   54.0218 C   0  0  0  0  0  0  0  0  0  0  0  0
   70.0823   49.2918   54.6599 Cl  0  0  0  0  0  0  0  0  0  0  0  0
  1  2  1  0  0  0
  2  3  2  0  0  0
  2 10  1  0  0  0
  3  4  1  0  0  0
  4 11  1  0  0  0
  4  5  2  0  0  0
 11 12  1  0  0  0
 12 13  1  0  0  0
 13 14  2  0  0  0
 13 19  1  0  0  0
 14 15  1  0  0  0
 15 16  2  0  0  0
 16 17  1  0  0  0
 17 18  1  0  0  0
 17 19  2  0  0  0
 19 20  1  0  0  0
  5  6  1  0  0  0
  5  9  1  0  0  0
  6  7  2  0  0  0
  7  8  1  0  0  0
  8  9  1  0  0  0
  9 10  2  0  0  0
M  END
> <minimizedAffinity>
-7.27137

$$$$
cs_R1_output_folder/data/smiles/2.pdb


 25 28  0  0  0  0  0  0  0  0999 V2000
   68.7850   46.6217   54.5833 C   0  0  0  0  0  0  0  0  0  0  0  0
   68.1907   45.7674   53.6439 C   0  0  0  0  0  0  0  0  0  0  0  0
   68.0872   46.1356   52.3270 C   0  0  0  0  0  0  0  0  0  0  0  0
   68.5664   47.3665   51.8746 C   0  0  0  0  0  0  0  0  0  0  0  0
   69.1515   48.2221   52.7714 C   0  0  0  0  0  0  0  0  0  0  0  0
   69.2450   47.8263   54.0985 C   0  0  0  0  0  0  0  0  0  0  0  0
   68.2782   45.1515   56.3362 O   0  0  0  0  0  0  0  0  0  0  0  0
   68.8908   46.2044   55.9678 C   0  0  0  0  0  0  0  0  0  0  0  0
   69.6384   46.8779   57.0036 C   0  0  0  0  0  0  0  0  0  0  0  0
   69.7686   48.1782   57.3322 C   0  0  0  0  0  0  0  0  0  0  0  0
   70.5638   48.4333   58.3602 N   0  0  0  0  0  0  0  0  0  0  0  0
   71.1516   47.7392   59.0078 C   0  0  0  0  0  0  0  0  0  0  0  0
   70.7059   46.0598   58.2373 S   0  0  0  0  0  0  0  0  0  0  0  0
   69.6840   49.5705   52.4054 C   0  0  0  0  0  0  0  0  0  0  0  0
   70.4655   50.1704   53.4988 C   0  0  0  0  0  0  0  0  0  0  0  0
   71.7706   49.7685   53.6246 N   0  0  0  0  0  0  0  0  0  0  0  0
   72.5547   50.2193   54.5892 N   0  0  0  0  0  0  0  0  0  0  0  0
   72.1449   51.1077   55.5275 C   0  0  0  0  0  0  0  0  0  0  0  0
   72.9010   51.5222   56.4323 O   0  0  0  0  0  0  0  0  0  0  0  0
   70.8420   51.5430   55.4432 C   0  0  0  0  0  0  0  0  0  0  0  0
   70.0419   51.0580   54.4262 C   0  0  0  0  0  0  0  0  0  0  0  0
   68.6695   51.6136   54.4119 C   0  0  0  0  0  0  0  0  0  0  0  0
   68.1342   51.3279   55.8117 C   0  0  0  0  0  0  0  0  0  0  0  0
   68.8595   52.1985   56.8013 C   0  0  0  0  0  0  0  0  0  0  0  0
   70.2720   52.5271   56.4379 C   0  0  0  0  0  0  0  0  0  0  0  0
  7  8  2  0  0  0
  8  1  1  0  0  0
  8  9  1  0  0  0
  1  2  2  0  0  0
  1  6  1  0  0  0
  2  3  1  0  0  0
  3  4  2  0  0  0
  4  5  1  0  0  0
  5 14  1  0  0  0
  5  6  2  0  0  0
 14 15  1  0  0  0
 15 16  2  0  0  0
 15 21  1  0  0  0
 16 17  1  0  0  0
 17 18  1  0  0  0
 18 19  2  0  0  0
 18 20  1  0  0  0
 20 21  2  0  0  0
 20 25  1  0  0  0
 21 22  1  0  0  0
 22 23  1  0  0  0
 23 24  1  0  0  0
 24 25  1  0  0  0
  9 10  2  0  0  0
  9 13  1  0  0  0
 10 11  1  0  0  0
 11 12  2  0  0  0
 12 13  1  0  0  0
M  END
> <minimizedAffinity>
-8.29803

$$$$
cs_R1_output_folder/data/smiles/3.pdb


 22 24  0  0  0  0  0  0  0  0999 V2000
   69.0057   45.3630   56.5754 C   0  0  0  0  0  0  0  0  0  0  0  0
   70.1427   45.8494   57.1799 N   0  0  0  0  0  0  0  0  0  0  0  0
   70.9460   45.0450   57.8745 C   0  0  0  0  0  0  0  0  0  0  0  0
   70.6672   43.6855   58.0155 C   0  0  0  0  0  0  0  0  0  0  0  0
   69.5318   43.1758   57.4164 C   0  0  0  0  0  0  0  0  0  0  0  0
   68.7823   44.0580   56.7379 N   0  0  0  0  0  0  0  0  0  0  0  0
   69.1657   41.7767   57.5002 C   0  0  0  0  0  0  0  0  0  0  0  0
   69.8212   40.9454   58.3641 C   0  0  0  0  0  0  0  0  0  0  0  0
   69.4478   39.6008   58.4201 C   0  0  0  0  0  0  0  0  0  0  0  0
   68.4252   39.1013   57.6159 C   0  0  0  0  0  0  0  0  0  0  0  0
   67.8171   39.9457   56.7914 N   0  0  0  0  0  0  0  0  0  0  0  0
   68.1667   41.2707   56.7183 C   0  0  0  0  0  0  0  0  0  0  0  0
   68.1899   46.2498   55.8253 N   0  0  0  0  0  0  0  0  0  0  0  0
   69.3622   47.6984   52.5855 C   0  0  0  0  0  0  0  0  0  0  0  0
   68.6822   46.9267   51.6725 C   0  0  0  0  0  0  0  0  0  0  0  0
   67.8444   45.9471   52.1543 C   0  0  0  0  0  0  0  0  0  0  0  0
   67.6962   45.7508   53.5060 C   0  0  0  0  0  0  0  0  0  0  0  0
   68.3794   46.5257   54.4626 C   0  0  0  0  0  0  0  0  0  0  0  0
   69.2034   47.4894   53.9668 C   0  0  0  0  0  0  0  0  0  0  0  0
   70.0563   49.3078   50.9810 O   0  0  0  0  0  0  0  0  0  0  0  0
   70.2567   48.7406   52.0940 C   0  0  0  0  0  0  0  0  0  0  0  0
   71.3530   49.1392   52.8328 O   0  0  0  0  0  0  0  0  0  0  0  0
 20 21  2  0  0  0
 21 22  1  0  0  0
 21 14  1  0  0  0
 14 15  2  0  0  0
 14 19  1  0  0  0
 15 16  1  0  0  0
 16 17  2  0  0  0
 17 18  1  0  0  0
 18 13  1  0  0  0
 18 19  2  0  0  0
 13  1  1  0  0  0
  1  2  2  0  0  0
  1  6  1  0  0  0
  2  3  1  0  0  0
  3  4  2  0  0  0
  4  5  1  0  0  0
  5  7  1  0  0  0
  5  6  2  0  0  0
  7  8  2  0  0  0
  7 12  1  0  0  0
  8  9  1  0  0  0
  9 10  2  0  0  0
 10 11  1  0  0  0
 11 12  2  0  0  0
M  END
> <minimizedAffinity>
-9.34315

$$$$
cs_R1_output_folder/data/smiles/4.pdb


 20 22  0  0  0  0  0  0  0  0999 V2000
   69.4476   48.2550   54.0105 C   0  0  0  0  0  0  0  0  0  0  0  0
   69.2675   48.0366   55.3973 C   0  0  0  0  0  0  0  0  0  0  0  0
   68.4390   47.0445   55.7845 C   0  0  0  0  0  0  0  0  0  0  0  0
   68.2874   46.8588   57.0341 O   0  0  0  0  0  0  0  0  0  0  0  0
   67.7930   46.2759   54.9550 O   0  0  0  0  0  0  0  0  0  0  0  0
   67.8952   46.4053   53.6497 C   0  0  0  0  0  0  0  0  0  0  0  0
   67.1922   45.5783   52.8333 N   0  0  0  0  0  0  0  0  0  0  0  0
   67.3006   45.7285   51.5081 C   0  0  0  0  0  0  0  0  0  0  0  0
   66.6464   44.9590   50.7257 O   0  0  0  0  0  0  0  0  0  0  0  0
   68.0991   46.6907   51.0270 N   0  0  0  0  0  0  0  0  0  0  0  0
   68.8177   47.5347   51.7967 C   0  0  0  0  0  0  0  0  0  0  0  0
   69.5406   48.4148   51.3199 O   0  0  0  0  0  0  0  0  0  0  0  0
   68.7320   47.4059   53.1657 C   0  0  0  0  0  0  0  0  0  0  0  0
   70.3884   49.2636   53.5700 C   0  0  0  0  0  0  0  0  0  0  0  0
   70.0644   50.6550   53.8237 C   0  0  0  0  0  0  0  0  0  0  0  0
   69.6634   51.3582   55.0115 C   0  0  0  0  0  0  0  0  0  0  0  0
   68.4920   51.5825   55.7766 C   0  0  0  0  0  0  0  0  0  0  0  0
   68.8412   52.6650   54.7396 C   0  0  0  0  0  0  0  0  0  0  0  0
   71.1670   50.9872   57.0170 C   0  0  0  0  0  0  0  0  0  0  0  0
   70.9916   51.7959   55.7816 C   0  0  0  0  0  0  0  0  0  0  0  0
 19 20  1  0  0  0
 20 16  1  0  0  0
 16 15  1  0  0  0
 16 17  1  0  0  0
 16 18  1  0  0  0
 15 14  1  0  0  0
 14  1  1  0  0  0
  1  2  2  0  0  0
  1 13  1  0  0  0
  2  3  1  0  0  0
  3  4  2  0  0  0
  3  5  1  0  0  0
  5  6  1  0  0  0
  6  7  1  0  0  0
  6 13  2  0  0  0
  7  8  1  0  0  0
  8  9  2  0  0  0
  8 10  1  0  0  0
 10 11  1  0  0  0
 11 12  2  0  0  0
 11 13  1  0  0  0
 17 18  1  0  0  0
M  END
> <minimizedAffinity>
-8.17755

$$$$
cs_R1_output_folder/data/smiles/5.pdb


 20 21  0  0  0  0  0  0  0  0999 V2000
   70.2870   44.0770   57.7833 C   0  0  0  0  0  0  0  0  0  0  0  0
   71.5367   43.8502   58.3036 C   0  0  0  0  0  0  0  0  0  0  0  0
   72.0068   42.5510   58.5316 C   0  0  0  0  0  0  0  0  0  0  0  0
   71.2501   41.4403   58.2511 C   0  0  0  0  0  0  0  0  0  0  0  0
   69.9844   41.6860   57.7235 C   0  0  0  0  0  0  0  0  0  0  0  0
   69.5211   42.9637   57.4980 C   0  0  0  0  0  0  0  0  0  0  0  0
   71.7080   40.0680   58.4755 C   0  0  0  0  0  0  0  0  0  0  0  0
   72.8458   39.9283   58.9785 O   0  0  0  0  0  0  0  0  0  0  0  0
   70.9765   38.9193   58.1716 N   0  0  0  0  0  0  0  0  0  0  0  0
   71.3375   37.5677   58.3518 C   0  0  0  0  0  0  0  0  0  0  0  0
   70.7721   36.8666   59.4268 C   0  0  0  0  0  0  0  0  0  0  0  0
   71.0503   35.5512   59.6981 C   0  0  0  0  0  0  0  0  0  0  0  0
   71.9213   34.8341   58.9088 C   0  0  0  0  0  0  0  0  0  0  0  0
   72.2224   33.5342   59.1427 F   0  0  0  0  0  0  0  0  0  0  0  0
   72.4858   35.5029   57.8500 C   0  0  0  0  0  0  0  0  0  0  0  0
   72.1961   36.8549   57.5753 C   0  0  0  0  0  0  0  0  0  0  0  0
   70.4036   46.5206   58.0075 C   0  0  0  0  0  0  0  0  0  0  0  0
   69.7919   45.3538   57.5459 O   0  0  0  0  0  0  0  0  0  0  0  0
   68.2500   43.2012   56.9681 O   0  0  0  0  0  0  0  0  0  0  0  0
   67.5985   42.1146   56.3443 C   0  0  0  0  0  0  0  0  0  0  0  0
 17 18  1  0  0  0
 18  1  1  0  0  0
  1  2  2  0  0  0
  1  6  1  0  0  0
  2  3  1  0  0  0
  3  4  2  0  0  0
  4  7  1  0  0  0
  4  5  1  0  0  0
  7  8  2  0  0  0
  7  9  1  0  0  0
  9 10  1  0  0  0
 10 11  2  0  0  0
 10 16  1  0  0  0
 11 12  1  0  0  0
 12 13  2  0  0  0
 13 14  1  0  0  0
 13 15  1  0  0  0
 15 16  2  0  0  0
  5  6  2  0  0  0
  6 19  1  0  0  0
 19 20  1  0  0  0
M  END
> <minimizedAffinity>
-6.35657

$$$$
cs_R1_output_folder/data/smiles/6.pdb


 28 30  0  0  0  0  0  0  0  0999 V2000
   68.2782   45.8927   54.1134 C   0  0  0  0  0  0  0  0  0  0  0  0
   67.7490   45.3247   53.0071 C   0  0  0  0  0  0  0  0  0  0  0  0
   67.8576   45.9292   51.7439 C   0  0  0  0  0  0  0  0  0  0  0  0
   68.5307   47.1243   51.7131 C   0  0  0  0  0  0  0  0  0  0  0  0
   69.0919   47.7494   52.8031 C   0  0  0  0  0  0  0  0  0  0  0  0
   68.9423   47.0913   54.0301 C   0  0  0  0  0  0  0  0  0  0  0  0
   67.8228   43.8359   55.4986 N   0  0  0  0  0  0  0  0  0  0  0  0
   68.2122   45.2291   55.4031 C   0  0  0  0  0  0  0  0  0  0  0  0
   68.4729   45.7658   56.5086 O   0  0  0  0  0  0  0  0  0  0  0  0
   68.8639   42.5924   57.3821 C   0  0  0  0  0  0  0  0  0  0  0  0
   69.9736   42.7670   56.8022 O   0  0  0  0  0  0  0  0  0  0  0  0
   67.7315   43.1554   56.7060 N   0  0  0  0  0  0  0  0  0  0  0  0
   68.2186   39.8339   57.3344 C   0  0  0  0  0  0  0  0  0  0  0  0
   68.4854   40.5152   58.6465 C   0  0  0  0  0  0  0  0  0  0  0  0
   68.4070   39.8023   59.8212 C   0  0  0  0  0  0  0  0  0  0  0  0
   68.6326   40.3789   61.0493 C   0  0  0  0  0  0  0  0  0  0  0  0
   68.9473   41.7237   61.0587 C   0  0  0  0  0  0  0  0  0  0  0  0
   69.0249   42.4335   59.8629 C   0  0  0  0  0  0  0  0  0  0  0  0
   68.8010   41.8692   58.6280 C   0  0  0  0  0  0  0  0  0  0  0  0
   69.9725   49.2264   52.6063 S   0  0  0  0  0  0  0  0  0  0  0  0
   71.4352   49.0798   52.8275 O   0  0  0  0  0  0  0  0  0  0  0  0
   69.8492   49.6829   51.1366 O   0  0  0  0  0  0  0  0  0  0  0  0
   69.3250   50.5692   53.5005 N   0  0  0  0  0  0  0  0  0  0  0  0
   68.9664   50.1933   54.8309 C   0  0  0  0  0  0  0  0  0  0  0  0
   70.1629   49.9157   55.7055 C   0  0  0  0  0  0  0  0  0  0  0  0
   70.8776   51.2418   55.8807 C   0  0  0  0  0  0  0  0  0  0  0  0
   70.3945   52.2722   54.8930 C   0  0  0  0  0  0  0  0  0  0  0  0
   70.3149   51.6376   53.5341 C   0  0  0  0  0  0  0  0  0  0  0  0
 13 14  1  0  0  0
 14 15  2  0  0  0
 14 19  1  0  0  0
 15 16  1  0  0  0
 16 17  2  0  0  0
 17 18  1  0  0  0
 18 19  2  0  0  0
 19 10  1  0  0  0
 10 11  2  0  0  0
 10 12  1  0  0  0
 12  7  1  0  0  0
  7  8  1  0  0  0
  8  9  2  0  0  0
  8  1  1  0  0  0
  1  2  2  0  0  0
  1  6  1  0  0  0
  2  3  1  0  0  0
  3  4  2  0  0  0
  4  5  1  0  0  0
  5 20  1  0  0  0
  5  6  2  0  0  0
 20 21  2  0  0  0
 20 22  2  0  0  0
 20 23  1  0  0  0
 23 24  1  0  0  0
 23 28  1  0  0  0
 24 25  1  0  0  0
 25 26  1  0  0  0
 26 27  1  0  0  0
 27 28  1  0  0  0
M  END
> <minimizedAffinity>
-8.32278

$$$$
cs_R1_output_folder/data/smiles/7.pdb


 21 23  0  0  0  0  0  0  0  0999 V2000
   69.4166   47.0503   57.6094 C   0  0  0  0  0  0  0  0  0  0  0  0
   69.8388   46.4709   58.7498 N   0  0  0  0  0  0  0  0  0  0  0  0
   69.9950   45.1643   58.5621 N   0  0  0  0  0  0  0  0  0  0  0  0
   69.6715   44.8708   57.2769 C   0  0  0  0  0  0  0  0  0  0  0  0
   69.3062   46.0505   56.6692 C   0  0  0  0  0  0  0  0  0  0  0  0
   68.3085   52.5883   56.9997 O   0  0  0  0  0  0  0  0  0  0  0  0
   68.5996   51.2389   57.1463 C   0  0  0  0  0  0  0  0  0  0  0  0
   69.8873   50.7360   57.0626 C   0  0  0  0  0  0  0  0  0  0  0  0
   70.1558   49.3904   57.2107 C   0  0  0  0  0  0  0  0  0  0  0  0
   69.1444   48.4748   57.4523 C   0  0  0  0  0  0  0  0  0  0  0  0
   67.8569   48.9820   57.5343 C   0  0  0  0  0  0  0  0  0  0  0  0
   66.8457   48.0769   57.7734 O   0  0  0  0  0  0  0  0  0  0  0  0
   67.5885   50.3216   57.3868 C   0  0  0  0  0  0  0  0  0  0  0  0
   66.2722   50.8108   57.4750 O   0  0  0  0  0  0  0  0  0  0  0  0
   68.8824   46.1902   55.2865 C   0  0  0  0  0  0  0  0  0  0  0  0
   68.1339   45.1798   54.7141 C   0  0  0  0  0  0  0  0  0  0  0  0
   67.6973   45.2512   53.3996 C   0  0  0  0  0  0  0  0  0  0  0  0
   68.0136   46.3589   52.6303 C   0  0  0  0  0  0  0  0  0  0  0  0
   67.4540   46.4392   50.9592 Cl  0  0  0  0  0  0  0  0  0  0  0  0
   68.7510   47.3531   53.1958 C   0  0  0  0  0  0  0  0  0  0  0  0
   69.1859   47.2858   54.5003 C   0  0  0  0  0  0  0  0  0  0  0  0
  6  7  1  0  0  0
  7  8  2  0  0  0
  7 13  1  0  0  0
  8  9  1  0  0  0
  9 10  2  0  0  0
 10  1  1  0  0  0
 10 11  1  0  0  0
  1  2  2  0  0  0
  1  5  1  0  0  0
  2  3  1  0  0  0
  3  4  1  0  0  0
  4  5  2  0  0  0
  5 15  1  0  0  0
 15 16  2  0  0  0
 15 21  1  0  0  0
 16 17  1  0  0  0
 17 18  2  0  0  0
 18 19  1  0  0  0
 18 20  1  0  0  0
 20 21  2  0  0  0
 11 12  1  0  0  0
 11 13  2  0  0  0
 13 14  1  0  0  0
M  END
> <minimizedAffinity>
-7.34709

$$$$
cs_R1_output_folder/data/smiles/8.pdb


 19 21  0  0  0  0  0  0  0  0999 V2000
   69.2831   48.4939   57.5436 C   0  0  0  0  0  0  0  0  0  0  0  0
   69.5138   47.9501   56.1679 C   0  0  0  0  0  0  0  0  0  0  0  0
   68.2975   47.1548   55.6743 C   0  0  0  0  0  0  0  0  0  0  0  0
   68.5519   47.1339   54.1914 C   0  0  0  0  0  0  0  0  0  0  0  0
   68.1790   46.2561   53.2044 C   0  0  0  0  0  0  0  0  0  0  0  0
   68.5619   46.4905   51.9026 C   0  0  0  0  0  0  0  0  0  0  0  0
   69.3171   47.6131   51.6344 C   0  0  0  0  0  0  0  0  0  0  0  0
   69.7060   48.5185   52.6263 C   0  0  0  0  0  0  0  0  0  0  0  0
   69.3114   48.2619   53.9137 C   0  0  0  0  0  0  0  0  0  0  0  0
   69.5385   48.9890   55.1431 N   0  0  0  0  0  0  0  0  0  0  0  0
   69.7155   50.3945   55.2610 C   0  0  0  0  0  0  0  0  0  0  0  0
   68.5889   51.2250   55.4093 C   0  0  0  0  0  0  0  0  0  0  0  0
   68.6431   52.5697   55.5557 C   0  0  0  0  0  0  0  0  0  0  0  0
   69.8676   53.2025   55.5667 C   0  0  0  0  0  0  0  0  0  0  0  0
   70.9784   52.4344   55.4258 C   0  0  0  0  0  0  0  0  0  0  0  0
   70.9254   51.0425   55.2730 C   0  0  0  0  0  0  0  0  0  0  0  0
   72.1767   50.3265   55.0993 C   0  0  0  0  0  0  0  0  0  0  0  0
   72.8544   49.7973   55.9904 O   0  0  0  0  0  0  0  0  0  0  0  0
   72.7064   50.1981   53.7999 O   0  0  0  0  0  0  0  0  0  0  0  0
  2  1  1  0  0  0
  2  3  1  0  0  0
  2 10  1  0  0  0
  3  4  1  0  0  0
  4  5  2  0  0  0
  4  9  1  0  0  0
  5  6  1  0  0  0
  6  7  2  0  0  0
  7  8  1  0  0  0
  8  9  2  0  0  0
  9 10  1  0  0  0
 10 11  1  0  0  0
 11 12  2  0  0  0
 11 16  1  0  0  0
 12 13  1  0  0  0
 13 14  2  0  0  0
 14 15  1  0  0  0
 15 16  2  0  0  0
 16 17  1  0  0  0
 17 18  2  0  0  0
 17 19  1  0  0  0
M  END
> <minimizedAffinity>
-6.62170

$$$$
cs_R1_output_folder/data/smiles/9.pdb


 22 23  0  0  0  0  0  0  0  0999 V2000
   70.5374   47.5380   56.6881 O   0  0  0  0  0  0  0  0  0  0  0  0
   69.2796   46.7154   56.5082 S   0  0  0  0  0  0  0  0  0  0  0  0
   69.5867   45.3305   57.0049 O   0  0  0  0  0  0  0  0  0  0  0  0
   68.8871   46.7095   54.8047 C   0  0  0  0  0  0  0  0  0  0  0  0
   69.3270   47.7010   53.9887 C   0  0  0  0  0  0  0  0  0  0  0  0
   70.0707   48.7305   54.4805 F   0  0  0  0  0  0  0  0  0  0  0  0
   69.0000   47.6551   52.6418 C   0  0  0  0  0  0  0  0  0  0  0  0
   69.4493   48.6523   51.8459 F   0  0  0  0  0  0  0  0  0  0  0  0
   68.2440   46.6363   52.1091 C   0  0  0  0  0  0  0  0  0  0  0  0
   67.9156   46.5746   50.7965 F   0  0  0  0  0  0  0  0  0  0  0  0
   67.7843   45.6125   52.9296 C   0  0  0  0  0  0  0  0  0  0  0  0
   67.0364   44.5945   52.4300 F   0  0  0  0  0  0  0  0  0  0  0  0
   68.1164   45.6726   54.2616 C   0  0  0  0  0  0  0  0  0  0  0  0
   67.6829   44.6888   55.0856 F   0  0  0  0  0  0  0  0  0  0  0  0
   67.9819   47.4310   57.3626 N   0  0  0  0  0  0  0  0  0  0  0  0
   67.7354   48.8214   57.3100 C   0  0  0  0  0  0  0  0  0  0  0  0
   66.5674   49.3509   57.8747 C   0  0  0  0  0  0  0  0  0  0  0  0
   66.2800   50.6988   57.8494 C   0  0  0  0  0  0  0  0  0  0  0  0
   67.1438   51.5974   57.2594 C   0  0  0  0  0  0  0  0  0  0  0  0
   68.2979   51.0811   56.7017 C   0  0  0  0  0  0  0  0  0  0  0  0
   69.6381   52.4411   55.7895 I   0  0  0  0  0  0  0  0  0  0  0  0
   68.5873   49.7329   56.7248 C   0  0  0  0  0  0  0  0  0  0  0  0
  1  2  2  0  0  0
  2  3  2  0  0  0
  2 15  1  0  0  0
  2  4  1  0  0  0
 15 16  1  0  0  0
 16 17  2  0  0  0
 16 22  1  0  0  0
 17 18  1  0  0  0
 18 19  2  0  0  0
 19 20  1  0  0  0
 20 21  1  0  0  0
 20 22  2  0  0  0
  4  5  2  0  0  0
  4 13  1  0  0  0
  5  6  1  0  0  0
  5  7  1  0  0  0
  7  8  1  0  0  0
  7  9  2  0  0  0
  9 10  1  0  0  0
  9 11  1  0  0  0
 11 12  1  0  0  0
 11 13  2  0  0  0
 13 14  1  0  0  0
M  END
> <minimizedAffinity>
-8.61014

$$$$
cs_R1_output_folder/data/smiles/10.pdb


 22 24  0  0  0  0  0  0  0  0999 V2000
   69.1730   48.9011   56.2964 C   0  0  0  0  0  0  0  0  0  0  0  0
   69.5016   48.7522   54.8651 C   0  0  0  0  0  0  0  0  0  0  0  0
   70.3779   49.6210   54.2722 N   0  0  0  0  0  0  0  0  0  0  0  0
   70.7105   49.5641   53.0016 N   0  0  0  0  0  0  0  0  0  0  0  0
   70.2192   48.6435   52.1598 C   0  0  0  0  0  0  0  0  0  0  0  0
   70.5516   48.6163   50.9651 O   0  0  0  0  0  0  0  0  0  0  0  0
   69.3141   47.7201   52.6993 C   0  0  0  0  0  0  0  0  0  0  0  0
   68.9788   47.7925   54.0249 C   0  0  0  0  0  0  0  0  0  0  0  0
   68.0403   46.8112   54.5852 C   0  0  0  0  0  0  0  0  0  0  0  0
   68.0926   45.5586   53.7369 C   0  0  0  0  0  0  0  0  0  0  0  0
   67.6019   45.9798   52.3463 C   0  0  0  0  0  0  0  0  0  0  0  0
   68.7923   46.7231   51.7368 C   0  0  0  0  0  0  0  0  0  0  0  0
   72.0698   47.0970   58.9709 C   0  0  0  0  0  0  0  0  0  0  0  0
   70.9021   46.4704   58.6206 C   0  0  0  0  0  0  0  0  0  0  0  0
   69.9580   47.0411   57.7530 C   0  0  0  0  0  0  0  0  0  0  0  0
   70.1811   48.2873   57.2069 C   0  0  0  0  0  0  0  0  0  0  0  0
   71.3602   48.8932   57.5758 C   0  0  0  0  0  0  0  0  0  0  0  0
   72.2464   48.3252   58.4074 N   0  0  0  0  0  0  0  0  0  0  0  0
   74.3953   46.2768   61.9909 C   0  0  0  0  0  0  0  0  0  0  0  0
   73.3194   46.9087   61.1584 C   0  0  0  0  0  0  0  0  0  0  0  0
   72.6433   47.7918   61.7175 O   0  0  0  0  0  0  0  0  0  0  0  0
   73.0519   46.5660   59.8381 N   0  0  0  0  0  0  0  0  0  0  0  0
 19 20  1  0  0  0
 20 21  2  0  0  0
 20 22  1  0  0  0
 22 13  1  0  0  0
 13 14  2  0  0  0
 13 18  1  0  0  0
 14 15  1  0  0  0
 15 16  2  0  0  0
 16  1  1  0  0  0
 16 17  1  0  0  0
  1  2  1  0  0  0
  2  3  2  0  0  0
  2  8  1  0  0  0
  3  4  1  0  0  0
  4  5  1  0  0  0
  5  6  2  0  0  0
  5  7  1  0  0  0
  7  8  2  0  0  0
  7 12  1  0  0  0
  8  9  1  0  0  0
  9 10  1  0  0  0
 10 11  1  0  0  0
 11 12  1  0  0  0
 17 18  2  0  0  0
M  END
> <minimizedAffinity>
-8.04188

$$$$
cs_R1_output_folder/data/smiles/11.pdb


 30 33  0  0  0  0  0  0  0  0999 V2000
   70.8003   45.9148   58.2512 C   0  0  0  0  0  0  0  0  0  0  0  0
   71.8124   46.6266   58.8567 C   0  0  0  0  0  0  0  0  0  0  0  0
   72.0149   47.9579   58.6477 C   0  0  0  0  0  0  0  0  0  0  0  0
   71.1697   48.6625   57.7792 C   0  0  0  0  0  0  0  0  0  0  0  0
   70.1307   47.9913   57.1392 C   0  0  0  0  0  0  0  0  0  0  0  0
   69.9713   46.6148   57.3957 C   0  0  0  0  0  0  0  0  0  0  0  0
   71.1383   43.4333   57.8653 N   0  0  0  0  0  0  0  0  0  0  0  0
   70.5593   44.5039   58.5335 C   0  0  0  0  0  0  0  0  0  0  0  0
   69.7570   44.2106   59.4851 O   0  0  0  0  0  0  0  0  0  0  0  0
   70.8595   39.2783   58.5364 C   0  0  0  0  0  0  0  0  0  0  0  0
   72.0338   40.0000   58.7203 C   0  0  0  0  0  0  0  0  0  0  0  0
   72.1480   41.3343   58.5198 C   0  0  0  0  0  0  0  0  0  0  0  0
   71.0162   42.0426   58.0987 C   0  0  0  0  0  0  0  0  0  0  0  0
   69.8702   41.3378   57.9206 C   0  0  0  0  0  0  0  0  0  0  0  0
   69.7224   39.9905   58.1164 C   0  0  0  0  0  0  0  0  0  0  0  0
   68.5493   39.3645   57.9089 F   0  0  0  0  0  0  0  0  0  0  0  0
   71.1629   36.7914   58.9766 C   0  0  0  0  0  0  0  0  0  0  0  0
   70.7881   37.9839   58.7265 O   0  0  0  0  0  0  0  0  0  0  0  0
   69.1856   48.7314   56.2608 C   0  0  0  0  0  0  0  0  0  0  0  0
   69.5836   48.5653   54.8627 C   0  0  0  0  0  0  0  0  0  0  0  0
   70.5750   49.2900   54.3273 N   0  0  0  0  0  0  0  0  0  0  0  0
   70.9666   49.2675   53.0876 N   0  0  0  0  0  0  0  0  0  0  0  0
   70.3570   48.4654   52.2393 C   0  0  0  0  0  0  0  0  0  0  0  0
   70.6908   48.3979   51.0235 O   0  0  0  0  0  0  0  0  0  0  0  0
   69.2904   47.6460   52.6909 C   0  0  0  0  0  0  0  0  0  0  0  0
   68.9090   47.6981   53.9993 C   0  0  0  0  0  0  0  0  0  0  0  0
   67.8532   46.8109   54.5106 C   0  0  0  0  0  0  0  0  0  0  0  0
   67.9685   45.5241   53.6860 C   0  0  0  0  0  0  0  0  0  0  0  0
   67.6720   45.8630   52.2346 C   0  0  0  0  0  0  0  0  0  0  0  0
   68.6829   46.7886   51.6597 C   0  0  0  0  0  0  0  0  0  0  0  0
 17 18  1  0  0  0
 18 10  1  0  0  0
 10 11  2  0  0  0
 10 15  1  0  0  0
 11 12  1  0  0  0
 12 13  2  0  0  0
 13  7  1  0  0  0
 13 14  1  0  0  0
  7  8  1  0  0  0
  8  9  2  0  0  0
  8  1  1  0  0  0
  1  2  2  0  0  0
  1  6  1  0  0  0
  2  3  1  0  0  0
  3  4  2  0  0  0
  4  5  1  0  0  0
  5 19  1  0  0  0
  5  6  2  0  0  0
 19 20  1  0  0  0
 20 21  2  0  0  0
 20 26  1  0  0  0
 21 22  1  0  0  0
 22 23  1  0  0  0
 23 24  2  0  0  0
 23 25  1  0  0  0
 25 26  2  0  0  0
 25 30  1  0  0  0
 26 27  1  0  0  0
 27 28  1  0  0  0
 28 29  1  0  0  0
 29 30  1  0  0  0
 14 15  2  0  0  0
 15 16  1  0  0  0
M  END
> <minimizedAffinity>
-10.16362

$$$$
cs_R1_output_folder/data/smiles/12.pdb


 31 33  0  0  0  0  0  0  0  0999 V2000
   72.9704   48.2052   57.7798 C   0  0  0  0  0  0  0  0  0  0  0  0
   73.8520   48.7177   57.0431 O   0  0  0  0  0  0  0  0  0  0  0  0
   73.3323   47.0885   58.5596 N   0  0  0  0  0  0  0  0  0  0  0  0
   74.6500   46.4803   58.5793 C   0  0  0  0  0  0  0  0  0  0  0  0
   75.2283   46.7742   59.9154 C   0  0  0  0  0  0  0  0  0  0  0  0
   74.5286   47.3864   60.7639 O   0  0  0  0  0  0  0  0  0  0  0  0
   76.5445   46.4262   60.3663 N   0  0  0  0  0  0  0  0  0  0  0  0
   77.0370   47.2135   61.4521 C   0  0  0  0  0  0  0  0  0  0  0  0
   77.3519   45.3921   59.8256 N   0  0  0  0  0  0  0  0  0  0  0  0
   77.0149   44.3900   59.0621 C   0  0  0  0  0  0  0  0  0  0  0  0
   75.6452   44.1444   58.5978 C   0  0  0  0  0  0  0  0  0  0  0  0
   75.4984   42.7714   58.3739 C   0  0  0  0  0  0  0  0  0  0  0  0
   74.2996   42.2996   57.9353 C   0  0  0  0  0  0  0  0  0  0  0  0
   73.2614   43.1812   57.7222 C   0  0  0  0  0  0  0  0  0  0  0  0
   73.4011   44.5356   57.9408 C   0  0  0  0  0  0  0  0  0  0  0  0
   74.6104   45.0314   58.3859 C   0  0  0  0  0  0  0  0  0  0  0  0
   71.1708   49.0847   59.1736 C   0  0  0  0  0  0  0  0  0  0  0  0
   71.6286   48.8237   57.7607 C   0  0  0  0  0  0  0  0  0  0  0  0
   70.6472   47.9261   57.1588 N   0  0  0  0  0  0  0  0  0  0  0  0
   69.4920   48.3593   56.4974 C   0  0  0  0  0  0  0  0  0  0  0  0
   69.3399   49.6304   56.4451 O   0  0  0  0  0  0  0  0  0  0  0  0
   68.4853   47.4876   55.8841 C   0  0  0  0  0  0  0  0  0  0  0  0
   68.4552   46.2460   56.5246 O   0  0  0  0  0  0  0  0  0  0  0  0
   68.6369   47.2898   54.4295 C   0  0  0  0  0  0  0  0  0  0  0  0
   69.4281   48.0065   53.5908 C   0  0  0  0  0  0  0  0  0  0  0  0
   69.4782   47.7216   52.2211 C   0  0  0  0  0  0  0  0  0  0  0  0
   70.2731   48.4467   51.3912 F   0  0  0  0  0  0  0  0  0  0  0  0
   68.7259   46.7096   51.6944 C   0  0  0  0  0  0  0  0  0  0  0  0
   67.9256   45.9796   52.5253 C   0  0  0  0  0  0  0  0  0  0  0  0
   67.1730   44.9647   51.9956 F   0  0  0  0  0  0  0  0  0  0  0  0
   67.8803   46.2629   53.8721 C   0  0  0  0  0  0  0  0  0  0  0  0
 18 17  1  0  0  0
 18 19  1  0  0  0
 18  1  1  0  0  0
 19 20  1  0  0  0
 20 21  2  0  0  0
 20 22  1  0  0  0
 22 23  1  0  0  0
 22 24  1  0  0  0
 24 25  2  0  0  0
 24 31  1  0  0  0
 25 26  1  0  0  0
 26 27  1  0  0  0
 26 28  2  0  0  0
 28 29  1  0  0  0
 29 30  1  0  0  0
 29 31  2  0  0  0
  1  2  2  0  0  0
  1  3  1  0  0  0
  4  3  1  0  0  0
  4  5  1  0  0  0
  4 16  1  0  0  0
  5  6  2  0  0  0
  5  7  1  0  0  0
  7  8  1  0  0  0
  7  9  1  0  0  0
  9 10  2  0  0  0
 10 11  1  0  0  0
 11 12  1  0  0  0
 11 16  2  0  0  0
 12 13  2  0  0  0
 13 14  1  0  0  0
 14 15  2  0  0  0
 15 16  1  0  0  0
M  END
> <minimizedAffinity>
-8.03318

$$$$
cs_R1_output_folder/data/smiles/13.pdb


 23 25  0  0  0  0  0  0  0  0999 V2000
   66.1572   38.2524   61.5146 C   0  0  0  0  0  0  0  0  0  0  0  0
   66.5250   38.5152   62.8164 N   0  0  0  0  0  0  0  0  0  0  0  0
   66.0156   37.8285   63.8491 C   0  0  0  0  0  0  0  0  0  0  0  0
   66.3887   38.0944   65.1593 C   0  0  0  0  0  0  0  0  0  0  0  0
   65.8770   37.3996   66.2340 C   0  0  0  0  0  0  0  0  0  0  0  0
   64.9530   36.3902   66.0427 C   0  0  0  0  0  0  0  0  0  0  0  0
   64.5850   36.1297   64.7400 C   0  0  0  0  0  0  0  0  0  0  0  0
   65.0935   36.8223   63.6545 C   0  0  0  0  0  0  0  0  0  0  0  0
   64.7278   36.5600   62.3977 N   0  0  0  0  0  0  0  0  0  0  0  0
   65.2459   37.2617   61.3292 C   0  0  0  0  0  0  0  0  0  0  0  0
   67.7522   40.6856   58.3625 C   0  0  0  0  0  0  0  0  0  0  0  0
   68.2249   39.4066   58.5643 C   0  0  0  0  0  0  0  0  0  0  0  0
   67.7265   38.6200   59.5780 C   0  0  0  0  0  0  0  0  0  0  0  0
   66.7463   39.0373   60.4427 C   0  0  0  0  0  0  0  0  0  0  0  0
   66.2743   40.3375   60.2290 C   0  0  0  0  0  0  0  0  0  0  0  0
   66.7684   41.1310   59.2161 C   0  0  0  0  0  0  0  0  0  0  0  0
   68.2935   41.5373   57.2623 C   0  0  0  0  0  0  0  0  0  0  0  0
   66.6712   42.3659   55.6708 O   0  0  0  0  0  0  0  0  0  0  0  0
   67.4413   41.4523   56.0454 C   0  0  0  0  0  0  0  0  0  0  0  0
   67.5154   40.2958   55.2979 O   0  0  0  0  0  0  0  0  0  0  0  0
   64.7275   36.9706   59.9983 C   0  0  0  0  0  0  0  0  0  0  0  0
   65.0535   36.0252   59.2634 O   0  0  0  0  0  0  0  0  0  0  0  0
   63.7454   37.8217   59.4274 O   0  0  0  0  0  0  0  0  0  0  0  0
 18 19  2  0  0  0
 19 20  1  0  0  0
 19 17  1  0  0  0
 17 11  1  0  0  0
 11 12  2  0  0  0
 11 16  1  0  0  0
 12 13  1  0  0  0
 13 14  2  0  0  0
 14  1  1  0  0  0
 14 15  1  0  0  0
  1  2  2  0  0  0
  1 10  1  0  0  0
  2  3  1  0  0  0
  3  4  2  0  0  0
  3  8  1  0  0  0
  4  5  1  0  0  0
  5  6  2  0  0  0
  6  7  1  0  0  0
  7  8  2  0  0  0
  8  9  1  0  0  0
  9 10  2  0  0  0
 10 21  1  0  0  0
 21 22  2  0  0  0
 21 23  1  0  0  0
 15 16  2  0  0  0
M  END
> <minimizedAffinity>
-6.46084

$$$$
cs_R1_output_folder/data/smiles/14.pdb


 26 29  0  0  0  0  0  0  0  0999 V2000
   70.4211   45.3919   57.8021 C   0  0  0  0  0  0  0  0  0  0  0  0
   71.6643   45.7460   58.3510 C   0  0  0  0  0  0  0  0  0  0  0  0
   72.1178   47.0401   58.3040 C   0  0  0  0  0  0  0  0  0  0  0  0
   71.3656   48.0272   57.7176 C   0  0  0  0  0  0  0  0  0  0  0  0
   70.1274   47.7226   57.1626 C   0  0  0  0  0  0  0  0  0  0  0  0
   69.7040   46.4180   57.2271 C   0  0  0  0  0  0  0  0  0  0  0  0
   68.3577   44.0629   56.2690 O   0  0  0  0  0  0  0  0  0  0  0  0
   69.0140   43.4196   57.1112 C   0  0  0  0  0  0  0  0  0  0  0  0
   70.0164   44.0240   57.8745 N   0  0  0  0  0  0  0  0  0  0  0  0
   68.7387   41.9534   57.3238 C   0  0  0  0  0  0  0  0  0  0  0  0
   68.0291   41.2239   56.5432 C   0  0  0  0  0  0  0  0  0  0  0  0
   67.7481   39.9046   56.6829 N   0  0  0  0  0  0  0  0  0  0  0  0
   68.4231   39.1148   58.0655 S   0  0  0  0  0  0  0  0  0  0  0  0
   69.4046   41.0955   58.7315 S   0  0  0  0  0  0  0  0  0  0  0  0
   69.3403   48.8239   56.5211 C   0  0  0  0  0  0  0  0  0  0  0  0
   69.6108   48.7472   55.0620 C   0  0  0  0  0  0  0  0  0  0  0  0
   70.6884   49.4446   54.5958 N   0  0  0  0  0  0  0  0  0  0  0  0
   71.1035   49.3897   53.3502 N   0  0  0  0  0  0  0  0  0  0  0  0
   70.4556   48.6153   52.4634 C   0  0  0  0  0  0  0  0  0  0  0  0
   70.8656   48.5639   51.2528 O   0  0  0  0  0  0  0  0  0  0  0  0
   69.3648   47.8939   52.8780 C   0  0  0  0  0  0  0  0  0  0  0  0
   68.9343   47.9553   54.1775 C   0  0  0  0  0  0  0  0  0  0  0  0
   67.7078   47.2466   54.5421 C   0  0  0  0  0  0  0  0  0  0  0  0
   67.5585   45.9022   53.8752 C   0  0  0  0  0  0  0  0  0  0  0  0
   68.4318   45.7029   52.6743 C   0  0  0  0  0  0  0  0  0  0  0  0
   68.6262   47.0204   51.9219 C   0  0  0  0  0  0  0  0  0  0  0  0
  7  8  2  0  0  0
  8  9  1  0  0  0
  8 10  1  0  0  0
  9  1  1  0  0  0
  1  2  2  0  0  0
  1  6  1  0  0  0
  2  3  1  0  0  0
  3  4  2  0  0  0
  4  5  1  0  0  0
  5 15  1  0  0  0
  5  6  2  0  0  0
 15 16  1  0  0  0
 16 17  2  0  0  0
 16 22  1  0  0  0
 17 18  1  0  0  0
 18 19  1  0  0  0
 19 20  2  0  0  0
 19 21  1  0  0  0
 21 22  2  0  0  0
 21 26  1  0  0  0
 22 23  1  0  0  0
 23 24  1  0  0  0
 24 25  1  0  0  0
 25 26  1  0  0  0
 10 11  2  0  0  0
 10 14  1  0  0  0
 11 12  1  0  0  0
 12 13  2  0  0  0
 13 14  1  0  0  0
M  END
> <minimizedAffinity>
-8.00490

$$$$
cs_R1_output_folder/data/smiles/15.pdb


 23 24  0  0  0  0  0  0  0  0999 V2000
   69.6601   47.8190   54.8085 C   0  0  0  0  0  0  0  0  0  0  0  0
   69.1686   47.6310   52.3678 C   0  0  0  0  0  0  0  0  0  0  0  0
   68.4481   47.0393   51.3581 N   0  0  0  0  0  0  0  0  0  0  0  0
   67.5036   46.1446   51.5721 C   0  0  0  0  0  0  0  0  0  0  0  0
   66.8667   45.6268   50.6311 O   0  0  0  0  0  0  0  0  0  0  0  0
   67.2370   45.7975   52.8436 N   0  0  0  0  0  0  0  0  0  0  0  0
   67.9083   46.3418   53.8636 C   0  0  0  0  0  0  0  0  0  0  0  0
   67.6215   45.9854   55.0306 O   0  0  0  0  0  0  0  0  0  0  0  0
   68.9266   47.3021   53.6606 C   0  0  0  0  0  0  0  0  0  0  0  0
   71.3106   48.6231   52.3174 O   0  0  0  0  0  0  0  0  0  0  0  0
   70.1331   48.6131   51.9248 C   0  0  0  0  0  0  0  0  0  0  0  0
   69.8033   49.6163   51.0233 O   0  0  0  0  0  0  0  0  0  0  0  0
   69.5503   49.2917   55.0485 C   0  0  0  0  0  0  0  0  0  0  0  0
   68.6018   49.7272   56.0775 C   0  0  0  0  0  0  0  0  0  0  0  0
   67.9288   48.7310   56.8391 C   0  0  0  0  0  0  0  0  0  0  0  0
   67.0182   49.0368   57.8018 C   0  0  0  0  0  0  0  0  0  0  0  0
   66.7097   50.3470   58.0781 C   0  0  0  0  0  0  0  0  0  0  0  0
   67.3608   51.3130   57.3419 C   0  0  0  0  0  0  0  0  0  0  0  0
   68.2997   51.0111   56.3484 C   0  0  0  0  0  0  0  0  0  0  0  0
   68.8983   52.1629   55.6421 C   0  0  0  0  0  0  0  0  0  0  0  0
   70.2541   52.1596   55.6277 F   0  0  0  0  0  0  0  0  0  0  0  0
   68.6245   53.3023   56.4673 F   0  0  0  0  0  0  0  0  0  0  0  0
   68.2623   52.5027   54.4827 F   0  0  0  0  0  0  0  0  0  0  0  0
 10 11  2  0  0  0
 11 12  1  0  0  0
 11  2  1  0  0  0
  2  3  1  0  0  0
  2  9  2  0  0  0
  3  4  1  0  0  0
  4  5  2  0  0  0
  4  6  1  0  0  0
  6  7  1  0  0  0
  7  8  2  0  0  0
  7  9  1  0  0  0
  9  1  1  0  0  0
  1 13  1  0  0  0
 13 14  1  0  0  0
 14 15  2  0  0  0
 14 19  1  0  0  0
 15 16  1  0  0  0
 16 17  2  0  0  0
 17 18  1  0  0  0
 18 19  2  0  0  0
 19 20  1  0  0  0
 20 21  1  0  0  0
 20 22  1  0  0  0
 20 23  1  0  0  0
M  END
> <minimizedAffinity>
-9.18093

$$$$
cs_R1_output_folder/data/smiles/16.pdb


 22 24  0  0  0  0  0  0  0  0999 V2000
   73.4224   42.7085   57.3796 C   0  0  0  0  0  0  0  0  0  0  0  0
   72.8744   41.6429   58.2625 C   0  0  0  0  0  0  0  0  0  0  0  0
   71.5826   41.2700   58.2208 N   0  0  0  0  0  0  0  0  0  0  0  0
   71.1197   40.2863   59.0498 C   0  0  0  0  0  0  0  0  0  0  0  0
   71.9769   39.6724   59.9317 C   0  0  0  0  0  0  0  0  0  0  0  0
   73.2854   40.0519   59.9713 C   0  0  0  0  0  0  0  0  0  0  0  0
   74.0573   39.4827   60.7828 O   0  0  0  0  0  0  0  0  0  0  0  0
   73.7051   41.0421   59.1228 N   0  0  0  0  0  0  0  0  0  0  0  0
   71.3759   38.5934   60.8056 C   0  0  0  0  0  0  0  0  0  0  0  0
   70.6470   37.7554   59.9014 N   0  0  0  0  0  0  0  0  0  0  0  0
   69.5794   38.3297   59.1260 C   0  0  0  0  0  0  0  0  0  0  0  0
   69.7110   39.8321   59.0573 C   0  0  0  0  0  0  0  0  0  0  0  0
   70.9671   36.3852   59.7508 C   0  0  0  0  0  0  0  0  0  0  0  0
   70.4141   35.4625   60.6742 C   0  0  0  0  0  0  0  0  0  0  0  0
   70.6864   34.1463   60.5501 C   0  0  0  0  0  0  0  0  0  0  0  0
   71.4989   33.6988   59.5308 C   0  0  0  0  0  0  0  0  0  0  0  0
   72.0392   34.5884   58.6308 C   0  0  0  0  0  0  0  0  0  0  0  0
   71.7724   35.9654   58.7360 C   0  0  0  0  0  0  0  0  0  0  0  0
   72.4059   36.8490   57.7387 C   0  0  0  0  0  0  0  0  0  0  0  0
   72.9670   36.0793   56.6991 F   0  0  0  0  0  0  0  0  0  0  0  0
   73.4947   37.4552   58.3372 F   0  0  0  0  0  0  0  0  0  0  0  0
   71.6082   37.8213   57.2192 F   0  0  0  0  0  0  0  0  0  0  0  0
  1  2  1  0  0  0
  2  3  2  0  0  0
  2  8  1  0  0  0
  3  4  1  0  0  0
  4  5  2  0  0  0
  4 12  1  0  0  0
  5  6  1  0  0  0
  5  9  1  0  0  0
  6  7  2  0  0  0
  6  8  1  0  0  0
  9 10  1  0  0  0
 10 13  1  0  0  0
 10 11  1  0  0  0
 13 14  2  0  0  0
 13 18  1  0  0  0
 14 15  1  0  0  0
 15 16  2  0  0  0
 16 17  1  0  0  0
 17 18  2  0  0  0
 18 19  1  0  0  0
 19 20  1  0  0  0
 19 21  1  0  0  0
 19 22  1  0  0  0
 11 12  1  0  0  0
M  END
> <minimizedAffinity>
-5.38193

$$$$
cs_R1_output_folder/data/smiles/17.pdb


 30 32  0  0  0  0  0  0  0  0999 V2000
   68.3179   45.8088   54.1405 C   0  0  0  0  0  0  0  0  0  0  0  0
   67.6817   45.3119   53.0216 C   0  0  0  0  0  0  0  0  0  0  0  0
   67.6905   45.9639   51.8094 C   0  0  0  0  0  0  0  0  0  0  0  0
   68.3471   47.1522   51.6772 C   0  0  0  0  0  0  0  0  0  0  0  0
   69.0012   47.6914   52.7722 C   0  0  0  0  0  0  0  0  0  0  0  0
   68.9740   47.0098   53.9844 C   0  0  0  0  0  0  0  0  0  0  0  0
   68.6302   45.6240   56.4531 O   0  0  0  0  0  0  0  0  0  0  0  0
   68.2685   45.0682   55.3946 C   0  0  0  0  0  0  0  0  0  0  0  0
   67.8248   43.7246   55.4975 N   0  0  0  0  0  0  0  0  0  0  0  0
   67.7875   43.0363   56.7228 N   0  0  0  0  0  0  0  0  0  0  0  0
   67.6610   41.6314   56.7027 C   0  0  0  0  0  0  0  0  0  0  0  0
   67.5899   41.0834   55.5349 O   0  0  0  0  0  0  0  0  0  0  0  0
   67.6030   40.7342   57.8148 C   0  0  0  0  0  0  0  0  0  0  0  0
   68.3681   39.5715   57.8440 C   0  0  0  0  0  0  0  0  0  0  0  0
   68.3365   38.6989   58.8860 C   0  0  0  0  0  0  0  0  0  0  0  0
   67.5189   38.9634   59.9618 C   0  0  0  0  0  0  0  0  0  0  0  0
   66.7431   40.0910   59.9912 C   0  0  0  0  0  0  0  0  0  0  0  0
   66.8062   40.9554   58.9043 C   0  0  0  0  0  0  0  0  0  0  0  0
   65.9998   42.0481   59.0215 F   0  0  0  0  0  0  0  0  0  0  0  0
   69.8419   49.2161   52.6040 S   0  0  0  0  0  0  0  0  0  0  0  0
   70.1772   49.4408   51.1580 O   0  0  0  0  0  0  0  0  0  0  0  0
   71.1584   49.1768   53.3445 O   0  0  0  0  0  0  0  0  0  0  0  0
   68.9198   50.5172   53.2542 N   0  0  0  0  0  0  0  0  0  0  0  0
   68.9457   50.8664   54.6374 C   0  0  0  0  0  0  0  0  0  0  0  0
   68.9079   49.8854   55.6234 C   0  0  0  0  0  0  0  0  0  0  0  0
   68.9362   50.2926   56.9375 C   0  0  0  0  0  0  0  0  0  0  0  0
   69.0005   51.6294   57.2617 C   0  0  0  0  0  0  0  0  0  0  0  0
   69.0378   52.5896   56.2880 C   0  0  0  0  0  0  0  0  0  0  0  0
   69.1010   53.9229   56.5647 F   0  0  0  0  0  0  0  0  0  0  0  0
   69.0096   52.1837   54.9710 C   0  0  0  0  0  0  0  0  0  0  0  0
  7  8  2  0  0  0
  8  9  1  0  0  0
  8  1  1  0  0  0
  9 10  1  0  0  0
 10 11  1  0  0  0
 11 12  2  0  0  0
 11 13  1  0  0  0
 13 14  2  0  0  0
 13 18  1  0  0  0
 14 15  1  0  0  0
 15 16  2  0  0  0
 16 17  1  0  0  0
 17 18  2  0  0  0
 18 19  1  0  0  0
  1  2  2  0  0  0
  1  6  1  0  0  0
  2  3  1  0  0  0
  3  4  2  0  0  0
  4  5  1  0  0  0
  5 20  1  0  0  0
  5  6  2  0  0  0
 20 21  2  0  0  0
 20 22  2  0  0  0
 20 23  1  0  0  0
 23 24  1  0  0  0
 24 25  2  0  0  0
 24 30  1  0  0  0
 25 26  1  0  0  0
 26 27  2  0  0  0
 27 28  1  0  0  0
 28 29  1  0  0  0
 28 30  2  0  0  0
M  END
> <minimizedAffinity>
-10.55177

$$$$
cs_R1_output_folder/data/smiles/18.pdb


 27 29  0  0  0  0  0  0  0  0999 V2000
   70.6580   41.9101   58.9008 C   0  0  0  0  0  0  0  0  0  0  0  0
   69.5884   41.5385   57.9482 C   0  0  0  0  0  0  0  0  0  0  0  0
   68.8994   42.3974   57.1362 C   0  0  0  0  0  0  0  0  0  0  0  0
   68.0064   41.5662   56.4384 C   0  0  0  0  0  0  0  0  0  0  0  0
   68.1945   40.3168   56.8450 N   0  0  0  0  0  0  0  0  0  0  0  0
   69.1677   40.2820   57.7766 N   0  0  0  0  0  0  0  0  0  0  0  0
   69.6169   39.1049   58.4352 C   0  0  0  0  0  0  0  0  0  0  0  0
   70.8299   38.5444   58.0815 C   0  0  0  0  0  0  0  0  0  0  0  0
   71.3146   37.3992   58.6983 C   0  0  0  0  0  0  0  0  0  0  0  0
   70.6047   36.7698   59.6917 C   0  0  0  0  0  0  0  0  0  0  0  0
   71.1673   35.3237   60.5213 Cl  0  0  0  0  0  0  0  0  0  0  0  0
   69.3775   37.3284   60.0571 C   0  0  0  0  0  0  0  0  0  0  0  0
   68.6634   36.6658   61.0906 N   0  0  0  0  0  0  0  0  0  0  0  0
   68.9027   38.4752   59.4332 C   0  0  0  0  0  0  0  0  0  0  0  0
   69.0031   43.8287   56.9696 C   0  0  0  0  0  0  0  0  0  0  0  0
   69.7228   44.4649   57.8184 O   0  0  0  0  0  0  0  0  0  0  0  0
   68.4041   44.6174   55.9798 N   0  0  0  0  0  0  0  0  0  0  0  0
   68.5205   46.0686   55.8388 C   0  0  0  0  0  0  0  0  0  0  0  0
   68.5185   46.3513   54.3697 C   0  0  0  0  0  0  0  0  0  0  0  0
   67.7918   45.6203   53.4607 C   0  0  0  0  0  0  0  0  0  0  0  0
   67.8143   45.8867   52.0979 C   0  0  0  0  0  0  0  0  0  0  0  0
   68.6091   46.9416   51.6367 C   0  0  0  0  0  0  0  0  0  0  0  0
   69.3484   47.6883   52.5258 C   0  0  0  0  0  0  0  0  0  0  0  0
   69.2965   47.3915   53.8628 C   0  0  0  0  0  0  0  0  0  0  0  0
   70.1887   48.7752   52.0698 C   0  0  0  0  0  0  0  0  0  0  0  0
   69.7596   49.6518   51.0191 N   0  0  0  0  0  0  0  0  0  0  0  0
   71.3022   48.9545   52.5925 O   0  0  0  0  0  0  0  0  0  0  0  0
  1  2  1  0  0  0
  2  3  2  0  0  0
  2  6  1  0  0  0
  3 15  1  0  0  0
  3  4  1  0  0  0
 15 16  2  0  0  0
 15 17  1  0  0  0
 17 18  1  0  0  0
 18 19  1  0  0  0
 19 20  2  0  0  0
 19 24  1  0  0  0
 20 21  1  0  0  0
 21 22  2  0  0  0
 22 23  1  0  0  0
 23 25  1  0  0  0
 23 24  2  0  0  0
 25 26  1  0  0  0
 25 27  2  0  0  0
  4  5  2  0  0  0
  5  6  1  0  0  0
  6  7  1  0  0  0
  7  8  2  0  0  0
  7 14  1  0  0  0
  8  9  1  0  0  0
  9 10  2  0  0  0
 10 11  1  0  0  0
 10 12  1  0  0  0
 12 13  1  0  0  0
 12 14  2  0  0  0
M  END
> <minimizedAffinity>
-9.72101

$$$$
cs_R1_output_folder/data/smiles/19.pdb


 21 22  0  0  0  0  0  0  0  0999 V2000
   69.6508   46.0693   56.9028 N   0  0  0  0  0  0  0  0  0  0  0  0
   68.6291   46.6904   56.1281 C   0  0  0  0  0  0  0  0  0  0  0  0
   67.6757   47.2137   56.7518 O   0  0  0  0  0  0  0  0  0  0  0  0
   68.6303   46.7512   54.6760 C   0  0  0  0  0  0  0  0  0  0  0  0
   67.8877   45.9268   53.8592 C   0  0  0  0  0  0  0  0  0  0  0  0
   67.9502   46.0550   52.4655 C   0  0  0  0  0  0  0  0  0  0  0  0
   68.7416   46.9951   51.8511 C   0  0  0  0  0  0  0  0  0  0  0  0
   69.4873   47.8240   52.6647 C   0  0  0  0  0  0  0  0  0  0  0  0
   69.4210   47.6911   54.0381 C   0  0  0  0  0  0  0  0  0  0  0  0
   70.3117   48.8039   52.0388 N   0  0  0  0  0  0  0  0  0  0  0  0
   71.4566   49.0370   52.5204 O   0  0  0  0  0  0  0  0  0  0  0  0
   69.9021   49.4893   50.9468 O   0  0  0  0  0  0  0  0  0  0  0  0
   69.6075   46.0370   58.2533 O   0  0  0  0  0  0  0  0  0  0  0  0
   70.9048   45.9982   58.7447 C   0  0  0  0  0  0  0  0  0  0  0  0
   73.7375   45.8180   58.2831 C   0  0  0  0  0  0  0  0  0  0  0  0
   72.8924   44.6264   58.0949 C   0  0  0  0  0  0  0  0  0  0  0  0
   73.5098   43.4596   57.7057 C   0  0  0  0  0  0  0  0  0  0  0  0
   72.7360   42.3383   57.5229 C   0  0  0  0  0  0  0  0  0  0  0  0
   71.3721   42.3779   57.7237 C   0  0  0  0  0  0  0  0  0  0  0  0
   70.7875   43.5693   58.1152 C   0  0  0  0  0  0  0  0  0  0  0  0
   71.5237   44.7197   58.3112 C   0  0  0  0  0  0  0  0  0  0  0  0
 15 16  1  0  0  0
 16 17  2  0  0  0
 16 21  1  0  0  0
 17 18  1  0  0  0
 18 19  2  0  0  0
 19 20  1  0  0  0
 20 21  2  0  0  0
 21 14  1  0  0  0
 14 13  1  0  0  0
 13  1  1  0  0  0
  1  2  1  0  0  0
  2  3  2  0  0  0
  2  4  1  0  0  0
  4  5  2  0  0  0
  4  9  1  0  0  0
  5  6  1  0  0  0
  6  7  2  0  0  0
  7  8  1  0  0  0
  8 10  1  0  0  0
  8  9  2  0  0  0
 10 11  2  0  0  0
 10 12  1  0  0  0
M  CHG 1  10   1
M  CHG 1  12  -1
M  END
> <minimizedAffinity>
-8.73504

$$$$
cs_R1_output_folder/data/smiles/20.pdb


 25 28  0  0  0  0  0  0  0  0999 V2000
   70.1418   48.2950   57.0397 C   0  0  0  0  0  0  0  0  0  0  0  0
   70.0619   47.0741   57.6529 C   0  0  0  0  0  0  0  0  0  0  0  0
   71.1018   46.5987   58.4431 C   0  0  0  0  0  0  0  0  0  0  0  0
   72.2550   47.3375   58.6436 C   0  0  0  0  0  0  0  0  0  0  0  0
   73.2623   46.8752   59.4057 F   0  0  0  0  0  0  0  0  0  0  0  0
   72.3637   48.5801   58.0360 C   0  0  0  0  0  0  0  0  0  0  0  0
   71.3357   49.0058   57.2758 C   0  0  0  0  0  0  0  0  0  0  0  0
   73.4815   49.4306   58.2026 N   0  0  0  0  0  0  0  0  0  0  0  0
   74.6303   49.3624   57.2880 C   0  0  0  0  0  0  0  0  0  0  0  0
   75.7744   48.8258   58.1128 C   0  0  0  0  0  0  0  0  0  0  0  0
   75.9903   49.4743   59.4214 C   0  0  0  0  0  0  0  0  0  0  0  0
   74.8435   50.1260   60.0894 C   0  0  0  0  0  0  0  0  0  0  0  0
   73.6391   50.4138   59.2462 C   0  0  0  0  0  0  0  0  0  0  0  0
   69.0761   48.9064   56.2110 C   0  0  0  0  0  0  0  0  0  0  0  0
   70.4874   48.7638   50.9398 O   0  0  0  0  0  0  0  0  0  0  0  0
   70.1301   48.7801   52.1595 C   0  0  0  0  0  0  0  0  0  0  0  0
   70.5424   49.7524   52.9931 N   0  0  0  0  0  0  0  0  0  0  0  0
   70.1723   49.7709   54.2650 N   0  0  0  0  0  0  0  0  0  0  0  0
   69.3559   48.8141   54.8080 C   0  0  0  0  0  0  0  0  0  0  0  0
   68.9399   47.8238   53.9466 C   0  0  0  0  0  0  0  0  0  0  0  0
   68.0909   46.8455   54.4150 C   0  0  0  0  0  0  0  0  0  0  0  0
   67.6105   45.8363   53.6042 C   0  0  0  0  0  0  0  0  0  0  0  0
   67.9997   45.8075   52.2584 C   0  0  0  0  0  0  0  0  0  0  0  0
   68.8475   46.7710   51.7556 C   0  0  0  0  0  0  0  0  0  0  0  0
   69.3031   47.7616   52.6008 C   0  0  0  0  0  0  0  0  0  0  0  0
 15 16  2  0  0  0
 16 17  1  0  0  0
 16 25  1  0  0  0
 17 18  1  0  0  0
 18 19  2  0  0  0
 19 14  1  0  0  0
 19 20  1  0  0  0
 14  1  1  0  0  0
  1  2  2  0  0  0
  1  7  1  0  0  0
  2  3  1  0  0  0
  3  4  2  0  0  0
  4  5  1  0  0  0
  4  6  1  0  0  0
  6  8  1  0  0  0
  6  7  2  0  0  0
  8  9  1  0  0  0
  8 13  1  0  0  0
  9 10  1  0  0  0
 10 11  1  0  0  0
 11 12  1  0  0  0
 12 13  1  0  0  0
 20 21  1  0  0  0
 20 25  2  0  0  0
 21 22  2  0  0  0
 22 23  1  0  0  0
 23 24  2  0  0  0
 24 25  1  0  0  0
M  END
> <minimizedAffinity>
-8.13267

$$$$
cs_R1_output_folder/data/smiles/21.pdb


 19 21  0  0  0  0  0  0  0  0999 V2000
   70.6680   50.6083   53.3953 N   0  0  0  0  0  0  0  0  0  0  0  0
   69.9693   49.4167   53.0623 C   0  0  0  0  0  0  0  0  0  0  0  0
   69.5727   48.4920   54.0147 C   0  0  0  0  0  0  0  0  0  0  0  0
   68.8953   47.3384   53.6840 C   0  0  0  0  0  0  0  0  0  0  0  0
   68.4912   46.4027   54.6157 C   0  0  0  0  0  0  0  0  0  0  0  0
   67.8126   45.2553   54.2514 C   0  0  0  0  0  0  0  0  0  0  0  0
   67.5205   45.0185   52.9177 C   0  0  0  0  0  0  0  0  0  0  0  0
   67.9268   45.9564   51.9902 C   0  0  0  0  0  0  0  0  0  0  0  0
   68.6109   47.1148   52.3532 C   0  0  0  0  0  0  0  0  0  0  0  0
   68.9864   47.9919   51.4461 O   0  0  0  0  0  0  0  0  0  0  0  0
   69.6319   49.0950   51.7456 C   0  0  0  0  0  0  0  0  0  0  0  0
   69.9892   49.9333   50.8636 O   0  0  0  0  0  0  0  0  0  0  0  0
   69.8775   48.7443   55.3815 N   0  0  0  0  0  0  0  0  0  0  0  0
   68.8919   49.4088   56.1551 C   0  0  0  0  0  0  0  0  0  0  0  0
   68.1027   48.6768   57.0258 C   0  0  0  0  0  0  0  0  0  0  0  0
   67.1318   49.2835   57.7977 C   0  0  0  0  0  0  0  0  0  0  0  0
   66.9681   50.6579   57.6769 C   0  0  0  0  0  0  0  0  0  0  0  0
   67.7394   51.4202   56.8164 C   0  0  0  0  0  0  0  0  0  0  0  0
   68.7045   50.7939   56.0542 C   0  0  0  0  0  0  0  0  0  0  0  0
  1  2  1  0  0  0
  2  3  2  0  0  0
  2 11  1  0  0  0
  3 13  1  0  0  0
  3  4  1  0  0  0
 13 14  1  0  0  0
 14 15  2  0  0  0
 14 19  1  0  0  0
 15 16  1  0  0  0
 16 17  2  0  0  0
 17 18  1  0  0  0
 18 19  2  0  0  0
  4  5  2  0  0  0
  4  9  1  0  0  0
  5  6  1  0  0  0
  6  7  2  0  0  0
  7  8  1  0  0  0
  8  9  2  0  0  0
  9 10  1  0  0  0
 10 11  1  0  0  0
 11 12  2  0  0  0
M  END
> <minimizedAffinity>
-8.51511

$$$$
cs_R1_output_folder/data/smiles/22.pdb


 24 27  0  0  0  0  0  0  0  0999 V2000
   66.6768   44.8513   53.0705 O   0  0  0  0  0  0  0  0  0  0  0  0
   67.3671   45.6727   52.4515 C   0  0  0  0  0  0  0  0  0  0  0  0
   67.3033   45.9511   51.1219 N   0  0  0  0  0  0  0  0  0  0  0  0
   68.1902   46.8864   50.8268 N   0  0  0  0  0  0  0  0  0  0  0  0
   68.8353   47.2319   51.9224 C   0  0  0  0  0  0  0  0  0  0  0  0
   68.3160   46.4669   52.9375 N   0  0  0  0  0  0  0  0  0  0  0  0
   68.7113   46.4816   54.3049 C   0  0  0  0  0  0  0  0  0  0  0  0
   68.5677   45.2363   54.8674 C   0  0  0  0  0  0  0  0  0  0  0  0
   68.9204   45.1513   56.2041 C   0  0  0  0  0  0  0  0  0  0  0  0
   69.3861   46.1970   56.9640 C   0  0  0  0  0  0  0  0  0  0  0  0
   69.5021   47.4345   56.3036 C   0  0  0  0  0  0  0  0  0  0  0  0
   69.1702   47.5807   54.9897 C   0  0  0  0  0  0  0  0  0  0  0  0
   69.3915   48.9395   54.5378 C   0  0  0  0  0  0  0  0  0  0  0  0
   69.4444   49.2672   53.1230 C   0  0  0  0  0  0  0  0  0  0  0  0
   69.9046   48.2472   52.1366 C   0  0  0  0  0  0  0  0  0  0  0  0
   69.7421   46.1492   58.2862 O   0  0  0  0  0  0  0  0  0  0  0  0
   70.9137   45.7376   58.8755 C   0  0  0  0  0  0  0  0  0  0  0  0
   71.3343   44.3352   58.5948 C   0  0  0  0  0  0  0  0  0  0  0  0
   70.5889   43.3170   58.9324 C   0  0  0  0  0  0  0  0  0  0  0  0
   70.9055   41.8865   58.7041 C   0  0  0  0  0  0  0  0  0  0  0  0
   72.1659   41.7252   58.0462 N   0  0  0  0  0  0  0  0  0  0  0  0
   72.9921   42.8243   57.6712 C   0  0  0  0  0  0  0  0  0  0  0  0
   74.1866   42.5596   57.0431 F   0  0  0  0  0  0  0  0  0  0  0  0
   72.6157   44.0618   57.9221 C   0  0  0  0  0  0  0  0  0  0  0  0
  1  2  2  0  0  0
  2  3  1  0  0  0
  2  6  1  0  0  0
  3  4  1  0  0  0
  4  5  2  0  0  0
  5  6  1  0  0  0
  5 15  1  0  0  0
  6  7  1  0  0  0
  7  8  2  0  0  0
  7 12  1  0  0  0
  8  9  1  0  0  0
  9 10  2  0  0  0
 10 16  1  0  0  0
 10 11  1  0  0  0
 16 17  1  0  0  0
 17 18  1  0  0  0
 18 19  2  0  0  0
 18 24  1  0  0  0
 19 20  1  0  0  0
 20 21  1  0  0  0
 21 22  1  0  0  0
 22 23  1  0  0  0
 22 24  2  0  0  0
 11 12  2  0  0  0
 12 13  1  0  0  0
 13 14  1  0  0  0
 14 15  1  0  0  0
M  END
> <minimizedAffinity>
-7.75195

$$$$
cs_R1_output_folder/data/smiles/23.pdb


 21 22  0  0  0  0  0  0  0  0999 V2000
   70.3539   50.8850   53.3474 N   0  0  0  0  0  0  0  0  0  0  0  0
   69.0498   47.5593   54.4816 C   0  0  0  0  0  0  0  0  0  0  0  0
   68.9369   46.9157   53.2676 C   0  0  0  0  0  0  0  0  0  0  0  0
   69.2841   47.5633   52.0914 C   0  0  0  0  0  0  0  0  0  0  0  0
   69.7490   48.8658   52.1262 C   0  0  0  0  0  0  0  0  0  0  0  0
   69.8749   49.5469   53.3439 C   0  0  0  0  0  0  0  0  0  0  0  0
   69.5150   48.8526   54.4781 C   0  0  0  0  0  0  0  0  0  0  0  0
   68.3097   45.0652   55.7077 N   0  0  0  0  0  0  0  0  0  0  0  0
   68.6089   46.7390   55.9824 S   0  0  0  0  0  0  0  0  0  0  0  0
   67.4243   47.4410   56.5755 O   0  0  0  0  0  0  0  0  0  0  0  0
   69.7747   46.9353   56.9285 O   0  0  0  0  0  0  0  0  0  0  0  0
   71.5958   51.3234   54.4577 S   0  0  0  0  0  0  0  0  0  0  0  0
   72.2239   50.0869   55.0294 O   0  0  0  0  0  0  0  0  0  0  0  0
   72.6643   52.0566   53.7168 O   0  0  0  0  0  0  0  0  0  0  0  0
   70.8604   52.3236   55.7078 C   0  0  0  0  0  0  0  0  0  0  0  0
   69.8076   51.6655   56.4676 C   0  0  0  0  0  0  0  0  0  0  0  0
   68.4986   51.9660   56.1469 C   0  0  0  0  0  0  0  0  0  0  0  0
   67.4405   51.3847   56.8199 C   0  0  0  0  0  0  0  0  0  0  0  0
   67.6489   50.4902   57.8294 C   0  0  0  0  0  0  0  0  0  0  0  0
   68.9599   50.1798   58.1615 C   0  0  0  0  0  0  0  0  0  0  0  0
   70.0055   50.7622   57.4866 C   0  0  0  0  0  0  0  0  0  0  0  0
  8  9  1  0  0  0
  9 10  2  0  0  0
  9 11  2  0  0  0
  9  2  1  0  0  0
  2  3  2  0  0  0
  2  7  1  0  0  0
  3  4  1  0  0  0
  4  5  2  0  0  0
  5  6  1  0  0  0
  6  1  1  0  0  0
  6  7  2  0  0  0
  1 12  1  0  0  0
 12 13  2  0  0  0
 12 14  2  0  0  0
 12 15  1  0  0  0
 15 16  1  0  0  0
 16 17  2  0  0  0
 16 21  1  0  0  0
 17 18  1  0  0  0
 18 19  2  0  0  0
 19 20  1  0  0  0
 20 21  2  0  0  0
M  END
> <minimizedAffinity>
-7.52698

$$$$
cs_R1_output_folder/data/smiles/24.pdb


 20 21  0  0  0  0  0  0  0  0999 V2000
   69.2697   47.8063   53.0721 C   0  0  0  0  0  0  0  0  0  0  0  0
   68.6006   46.9877   52.1736 C   0  0  0  0  0  0  0  0  0  0  0  0
   67.9324   45.8977   52.6402 C   0  0  0  0  0  0  0  0  0  0  0  0
   67.9316   45.6283   53.9925 C   0  0  0  0  0  0  0  0  0  0  0  0
   68.5846   46.4146   54.9318 C   0  0  0  0  0  0  0  0  0  0  0  0
   69.2623   47.5282   54.4193 C   0  0  0  0  0  0  0  0  0  0  0  0
   69.3573   50.6506   53.0196 N   0  0  0  0  0  0  0  0  0  0  0  0
   70.1362   49.2159   52.4784 S   0  0  0  0  0  0  0  0  0  0  0  0
   70.1257   49.2080   50.9744 O   0  0  0  0  0  0  0  0  0  0  0  0
   71.5476   49.2175   52.9930 O   0  0  0  0  0  0  0  0  0  0  0  0
   68.5709   46.1221   56.3087 N   0  0  0  0  0  0  0  0  0  0  0  0
   69.4135   47.1153   57.4277 S   0  0  0  0  0  0  0  0  0  0  0  0
   70.8014   47.4172   56.9894 O   0  0  0  0  0  0  0  0  0  0  0  0
   69.3806   46.5294   58.8161 O   0  0  0  0  0  0  0  0  0  0  0  0
   68.5429   48.6518   57.4929 C   0  0  0  0  0  0  0  0  0  0  0  0
   69.2277   49.7984   57.2284 C   0  0  0  0  0  0  0  0  0  0  0  0
   68.5762   51.0133   57.2707 C   0  0  0  0  0  0  0  0  0  0  0  0
   67.2304   51.0910   57.5791 C   0  0  0  0  0  0  0  0  0  0  0  0
   66.5263   49.9343   57.8493 C   0  0  0  0  0  0  0  0  0  0  0  0
   67.2008   48.7152   57.8025 C   0  0  0  0  0  0  0  0  0  0  0  0
  7  8  1  0  0  0
  8  9  2  0  0  0
  8 10  2  0  0  0
  8  1  1  0  0  0
  1  2  2  0  0  0
  1  6  1  0  0  0
  2  3  1  0  0  0
  3  4  2  0  0  0
  4  5  1  0  0  0
  5 11  1  0  0  0
  5  6  2  0  0  0
 11 12  1  0  0  0
 12 13  2  0  0  0
 12 14  2  0  0  0
 12 15  1  0  0  0
 15 16  2  0  0  0
 15 20  1  0  0  0
 16 17  1  0  0  0
 17 18  2  0  0  0
 18 19  1  0  0  0
 19 20  2  0  0  0
M  END
> <minimizedAffinity>
-8.09002

$$$$
cs_R1_output_folder/data/smiles/25.pdb


 27 30  0  0  0  0  0  0  0  0999 V2000
   74.9928   35.4202   53.6643 C   0  0  0  0  0  0  0  0  0  0  0  0
   73.6196   35.4142   53.7702 C   0  0  0  0  0  0  0  0  0  0  0  0
   72.9630   35.1900   54.9591 C   0  0  0  0  0  0  0  0  0  0  0  0
   73.7007   34.9539   56.1304 C   0  0  0  0  0  0  0  0  0  0  0  0
   75.0653   34.9694   55.9761 C   0  0  0  0  0  0  0  0  0  0  0  0
   75.6816   35.1924   54.7931 N   0  0  0  0  0  0  0  0  0  0  0  0
   75.6091   33.4411   51.9228 O   0  0  0  0  0  0  0  0  0  0  0  0
   75.9217   34.6062   51.4993 C   0  0  0  0  0  0  0  0  0  0  0  0
   75.6112   35.6632   52.3893 N   0  0  0  0  0  0  0  0  0  0  0  0
   76.5482   34.7789   50.1921 C   0  0  0  0  0  0  0  0  0  0  0  0
   76.1199   34.0877   49.0822 C   0  0  0  0  0  0  0  0  0  0  0  0
   76.7548   34.2875   47.8494 C   0  0  0  0  0  0  0  0  0  0  0  0
   77.8059   35.1594   47.6962 C   0  0  0  0  0  0  0  0  0  0  0  0
   78.2321   35.8495   48.8058 C   0  0  0  0  0  0  0  0  0  0  0  0
   77.6085   35.6519   50.0090 C   0  0  0  0  0  0  0  0  0  0  0  0
   73.0114   34.6786   57.4123 C   0  0  0  0  0  0  0  0  0  0  0  0
   72.2480   35.7842   57.9524 C   0  0  0  0  0  0  0  0  0  0  0  0
   72.2861   36.9707   57.3291 N   0  0  0  0  0  0  0  0  0  0  0  0
   71.6459   38.0355   57.7150 N   0  0  0  0  0  0  0  0  0  0  0  0
   70.8740   37.9976   58.8103 C   0  0  0  0  0  0  0  0  0  0  0  0
   70.2318   38.9888   59.2330 O   0  0  0  0  0  0  0  0  0  0  0  0
   70.7850   36.7837   59.5148 C   0  0  0  0  0  0  0  0  0  0  0  0
   71.4678   35.6733   59.0985 C   0  0  0  0  0  0  0  0  0  0  0  0
   71.4345   34.4365   59.8832 C   0  0  0  0  0  0  0  0  0  0  0  0
   70.3311   34.3271   60.8491 C   0  0  0  0  0  0  0  0  0  0  0  0
   69.6634   35.5695   61.2322 C   0  0  0  0  0  0  0  0  0  0  0  0
   69.8412   36.7190   60.6438 C   0  0  0  0  0  0  0  0  0  0  0  0
  7  8  2  0  0  0
  8  9  1  0  0  0
  8 10  1  0  0  0
  9  1  1  0  0  0
  1  2  2  0  0  0
  1  6  1  0  0  0
  2  3  1  0  0  0
  3  4  2  0  0  0
  4 16  1  0  0  0
  4  5  1  0  0  0
 16 17  1  0  0  0
 17 18  2  0  0  0
 17 23  1  0  0  0
 18 19  1  0  0  0
 19 20  1  0  0  0
 20 21  2  0  0  0
 20 22  1  0  0  0
 22 23  2  0  0  0
 22 27  1  0  0  0
 23 24  1  0  0  0
 24 25  1  0  0  0
 25 26  1  0  0  0
 26 27  2  0  0  0
  5  6  2  0  0  0
 10 11  2  0  0  0
 10 15  1  0  0  0
 11 12  1  0  0  0
 12 13  2  0  0  0
 13 14  1  0  0  0
 14 15  2  0  0  0
M  END
> <minimizedAffinity>
-8.99569

$$$$
cs_R1_output_folder/data/smiles/26.pdb


 19 20  0  0  0  0  0  0  0  0999 V2000
   70.4214   50.1283   53.7610 C   0  0  0  0  0  0  0  0  0  0  0  0
   70.3789   51.0692   52.9283 O   0  0  0  0  0  0  0  0  0  0  0  0
   71.1338   50.3813   54.9613 N   0  0  0  0  0  0  0  0  0  0  0  0
   67.8618   46.1419   55.2058 N   0  0  0  0  0  0  0  0  0  0  0  0
   68.5015   46.8863   54.1960 C   0  0  0  0  0  0  0  0  0  0  0  0
   68.4980   46.3788   52.9144 C   0  0  0  0  0  0  0  0  0  0  0  0
   69.1274   47.1157   51.9354 C   0  0  0  0  0  0  0  0  0  0  0  0
   69.7470   48.3214   52.2012 C   0  0  0  0  0  0  0  0  0  0  0  0
   69.7574   48.8402   53.4820 C   0  0  0  0  0  0  0  0  0  0  0  0
   69.1307   48.1075   54.4616 C   0  0  0  0  0  0  0  0  0  0  0  0
   71.7641   51.6561   55.1877 C   0  0  0  0  0  0  0  0  0  0  0  0
   71.0510   52.7576   55.5562 C   0  0  0  0  0  0  0  0  0  0  0  0
   71.6921   53.9592   55.7639 C   0  0  0  0  0  0  0  0  0  0  0  0
   73.0449   54.0411   55.5986 C   0  0  0  0  0  0  0  0  0  0  0  0
   73.7587   52.9346   55.2288 C   0  0  0  0  0  0  0  0  0  0  0  0
   73.1383   51.7310   55.0181 C   0  0  0  0  0  0  0  0  0  0  0  0
   73.9035   50.5671   54.6269 C   0  0  0  0  0  0  0  0  0  0  0  0
   74.5609   49.9282   55.4883 O   0  0  0  0  0  0  0  0  0  0  0  0
   73.9585   50.0997   53.3251 O   0  0  0  0  0  0  0  0  0  0  0  0
  4  5  1  0  0  0
  5  6  2  0  0  0
  5 10  1  0  0  0
  6  7  1  0  0  0
  7  8  2  0  0  0
  8  9  1  0  0  0
  9  1  1  0  0  0
  9 10  2  0  0  0
  1  2  2  0  0  0
  1  3  1  0  0  0
  3 11  1  0  0  0
 11 12  2  0  0  0
 11 16  1  0  0  0
 12 13  1  0  0  0
 13 14  2  0  0  0
 14 15  1  0  0  0
 15 16  2  0  0  0
 16 17  1  0  0  0
 17 18  2  0  0  0
 17 19  1  0  0  0
M  END
> <minimizedAffinity>
-7.23273

$$$$
cs_R1_output_folder/data/smiles/27.pdb


 20 22  0  0  0  0  0  0  0  0999 V2000
   70.4558   49.2280   54.0304 C   0  0  0  0  0  0  0  0  0  0  0  0
   71.6270   49.5555   53.4440 N   0  0  0  0  0  0  0  0  0  0  0  0
   72.1698   50.6014   54.0849 N   0  0  0  0  0  0  0  0  0  0  0  0
   71.3551   50.9672   55.0984 C   0  0  0  0  0  0  0  0  0  0  0  0
   70.2791   50.1084   55.0683 C   0  0  0  0  0  0  0  0  0  0  0  0
   66.9302   45.0511   52.6731 O   0  0  0  0  0  0  0  0  0  0  0  0
   67.8053   46.0830   53.0430 C   0  0  0  0  0  0  0  0  0  0  0  0
   68.1632   46.3121   54.3398 C   0  0  0  0  0  0  0  0  0  0  0  0
   69.0407   47.3562   54.6508 C   0  0  0  0  0  0  0  0  0  0  0  0
   69.5488   48.1603   53.6570 C   0  0  0  0  0  0  0  0  0  0  0  0
   69.1681   47.9036   52.3596 C   0  0  0  0  0  0  0  0  0  0  0  0
   69.6965   48.7303   51.3699 O   0  0  0  0  0  0  0  0  0  0  0  0
   68.2960   46.8657   52.0442 C   0  0  0  0  0  0  0  0  0  0  0  0
   67.9474   46.6547   50.7182 O   0  0  0  0  0  0  0  0  0  0  0  0
   69.1451   50.1276   55.9750 C   0  0  0  0  0  0  0  0  0  0  0  0
   68.2667   51.2142   55.9781 C   0  0  0  0  0  0  0  0  0  0  0  0
   67.1841   51.2523   56.8300 C   0  0  0  0  0  0  0  0  0  0  0  0
   66.9126   50.2337   57.7154 C   0  0  0  0  0  0  0  0  0  0  0  0
   67.7756   49.1608   57.7159 C   0  0  0  0  0  0  0  0  0  0  0  0
   68.8612   49.1101   56.8690 C   0  0  0  0  0  0  0  0  0  0  0  0
  6  7  1  0  0  0
  7  8  2  0  0  0
  7 13  1  0  0  0
  8  9  1  0  0  0
  9 10  2  0  0  0
 10  1  1  0  0  0
 10 11  1  0  0  0
  1  2  2  0  0  0
  1  5  1  0  0  0
  2  3  1  0  0  0
  3  4  1  0  0  0
  4  5  2  0  0  0
  5 15  1  0  0  0
 15 16  2  0  0  0
 15 20  1  0  0  0
 16 17  1  0  0  0
 17 18  2  0  0  0
 18 19  1  0  0  0
 19 20  2  0  0  0
 11 12  1  0  0  0
 11 13  2  0  0  0
 13 14  1  0  0  0
M  END
> <minimizedAffinity>
-8.60911

$$$$
cs_R1_output_folder/data/smiles/28.pdb


 20 22  0  0  0  0  0  0  0  0999 V2000
   69.9967   50.5566   52.0776 O   0  0  0  0  0  0  0  0  0  0  0  0
   69.6746   50.1442   53.2698 C   0  0  0  0  0  0  0  0  0  0  0  0
   69.5479   48.7681   53.4663 N   0  0  0  0  0  0  0  0  0  0  0  0
   69.2681   47.9069   52.3119 C   0  0  0  0  0  0  0  0  0  0  0  0
   68.7374   46.5687   52.7107 C   0  0  0  0  0  0  0  0  0  0  0  0
   67.8657   46.6986   53.9669 C   0  0  0  0  0  0  0  0  0  0  0  0
   68.7884   47.0930   55.0622 C   0  0  0  0  0  0  0  0  0  0  0  0
   68.8380   46.4633   56.2709 C   0  0  0  0  0  0  0  0  0  0  0  0
   69.7662   46.9268   57.1907 C   0  0  0  0  0  0  0  0  0  0  0  0
   69.8419   46.3185   58.4094 F   0  0  0  0  0  0  0  0  0  0  0  0
   70.5989   47.9840   56.8795 C   0  0  0  0  0  0  0  0  0  0  0  0
   70.5381   48.6073   55.6614 C   0  0  0  0  0  0  0  0  0  0  0  0
   69.6251   48.1587   54.7452 C   0  0  0  0  0  0  0  0  0  0  0  0
   69.4664   51.1338   54.3104 C   0  0  0  0  0  0  0  0  0  0  0  0
   68.2949   51.3381   54.9942 C   0  0  0  0  0  0  0  0  0  0  0  0
   68.1628   52.3721   55.9361 C   0  0  0  0  0  0  0  0  0  0  0  0
   69.2134   53.2251   56.2054 C   0  0  0  0  0  0  0  0  0  0  0  0
   70.4017   53.0393   55.5281 C   0  0  0  0  0  0  0  0  0  0  0  0
   70.5098   52.0180   54.6088 C   0  0  0  0  0  0  0  0  0  0  0  0
   71.7070   51.8053   53.9042 O   0  0  0  0  0  0  0  0  0  0  0  0
  1  2  2  0  0  0
  2 14  1  0  0  0
  2  3  1  0  0  0
 14 15  2  0  0  0
 14 19  1  0  0  0
 15 16  1  0  0  0
 16 17  2  0  0  0
 17 18  1  0  0  0
 18 19  2  0  0  0
 19 20  1  0  0  0
  3  4  1  0  0  0
  3 13  1  0  0  0
  4  5  1  0  0  0
  5  6  1  0  0  0
  6  7  1  0  0  0
  7  8  2  0  0  0
  7 13  1  0  0  0
  8  9  1  0  0  0
  9 10  1  0  0  0
  9 11  2  0  0  0
 11 12  1  0  0  0
 12 13  2  0  0  0
M  END
> <minimizedAffinity>
-5.74121

$$$$
cs_R1_output_folder/data/smiles/29.pdb


 27 28  0  0  0  0  0  0  0  0999 V2000
   69.5398   46.6792   56.6001 C   0  0  0  0  0  0  0  0  0  0  0  0
   68.8427   45.3421   56.0972 C   0  0  0  0  0  0  0  0  0  0  0  0
   68.3872   45.8909   54.9245 C   0  0  0  0  0  0  0  0  0  0  0  0
   68.0517   46.5223   53.9279 C   0  0  0  0  0  0  0  0  0  0  0  0
   68.7902   47.9914   54.4318 C   0  0  0  0  0  0  0  0  0  0  0  0
   69.1790   47.4029   55.5032 C   0  0  0  0  0  0  0  0  0  0  0  0
   71.0029   47.0866   58.5458 C   0  0  0  0  0  0  0  0  0  0  0  0
   70.3055   46.8972   57.6351 C   0  0  0  0  0  0  0  0  0  0  0  0
   72.5978   47.5369   60.5629 C   0  0  0  0  0  0  0  0  0  0  0  0
   71.8486   47.3349   59.6307 C   0  0  0  0  0  0  0  0  0  0  0  0
   73.7706   46.1580   61.8484 C   0  0  0  0  0  0  0  0  0  0  0  0
   73.4015   47.7726   61.5896 C   0  0  0  0  0  0  0  0  0  0  0  0
   75.6440   45.1394   62.9015 O   0  0  0  0  0  0  0  0  0  0  0  0
   74.6442   45.8996   62.8830 C   0  0  0  0  0  0  0  0  0  0  0  0
   74.4209   46.5658   64.1414 N   0  0  0  0  0  0  0  0  0  0  0  0
   75.1693   46.3778   65.2176 O   0  0  0  0  0  0  0  0  0  0  0  0
   68.6706   48.9799   53.6050 N   0  0  0  0  0  0  0  0  0  0  0  0
   69.9567   49.9881   53.0073 S   0  0  0  0  0  0  0  0  0  0  0  0
   71.2603   49.3524   53.3575 O   0  0  0  0  0  0  0  0  0  0  0  0
   69.9150   50.2696   51.5837 O   0  0  0  0  0  0  0  0  0  0  0  0
   69.9296   51.5265   53.9737 C   0  0  0  0  0  0  0  0  0  0  0  0
   69.5201   51.2777   55.3692 C   0  0  0  0  0  0  0  0  0  0  0  0
   68.2334   51.4997   55.8608 C   0  0  0  0  0  0  0  0  0  0  0  0
   67.8833   51.2735   57.1403 C   0  0  0  0  0  0  0  0  0  0  0  0
   68.8126   50.7978   58.0798 C   0  0  0  0  0  0  0  0  0  0  0  0
   70.0829   50.5829   57.5914 C   0  0  0  0  0  0  0  0  0  0  0  0
   70.4390   50.8040   56.3199 C   0  0  0  0  0  0  0  0  0  0  0  0
 13 14  2  0  0  0
 14 11  1  0  0  0
 14 15  1  0  0  0
 11 12  2  0  0  0
 12  9  1  0  0  0
  9 10  3  0  0  0
 10  7  1  0  0  0
  7  8  3  0  0  0
  8  1  1  0  0  0
  1  2  2  0  0  0
  1  6  1  0  0  0
  2  3  1  0  0  0
  3  4  2  0  0  0
  4  5  1  0  0  0
  5 17  1  0  0  0
  5  6  2  0  0  0
 17 18  1  0  0  0
 18 19  2  0  0  0
 18 20  2  0  0  0
 18 21  1  0  0  0
 21 22  1  0  0  0
 22 23  2  0  0  0
 22 27  1  0  0  0
 23 24  1  0  0  0
 24 25  2  0  0  0
 25 26  1  0  0  0
 26 27  2  0  0  0
 15 16  1  0  0  0
M  END
> <minimizedAffinity>
-7.38835

$$$$
cs_R1_output_folder/data/smiles/30.pdb


 24 26  0  0  0  0  0  0  0  0999 V2000
   70.0122   47.7608   57.4961 O   0  0  0  0  0  0  0  0  0  0  0  0
   69.9720   46.5169   57.6279 C   0  0  0  0  0  0  0  0  0  0  0  0
   68.9830   45.8527   56.8314 N   0  0  0  0  0  0  0  0  0  0  0  0
   70.8551   45.7701   58.5191 C   0  0  0  0  0  0  0  0  0  0  0  0
   71.0661   46.2959   59.6724 O   0  0  0  0  0  0  0  0  0  0  0  0
   71.4736   44.5120   58.1633 C   0  0  0  0  0  0  0  0  0  0  0  0
   70.8212   43.4052   57.6878 C   0  0  0  0  0  0  0  0  0  0  0  0
   71.7663   42.4653   57.4838 N   0  0  0  0  0  0  0  0  0  0  0  0
   72.9980   42.9097   57.8048 C   0  0  0  0  0  0  0  0  0  0  0  0
   74.2566   42.3289   57.7686 C   0  0  0  0  0  0  0  0  0  0  0  0
   75.3499   43.0473   58.1677 C   0  0  0  0  0  0  0  0  0  0  0  0
   75.1820   44.3382   58.5984 C   0  0  0  0  0  0  0  0  0  0  0  0
   73.9358   44.9148   58.6340 C   0  0  0  0  0  0  0  0  0  0  0  0
   72.8157   44.2109   58.2373 C   0  0  0  0  0  0  0  0  0  0  0  0
   68.1535   46.5868   55.9877 N   0  0  0  0  0  0  0  0  0  0  0  0
   68.3794   46.6988   54.5961 C   0  0  0  0  0  0  0  0  0  0  0  0
   67.7466   45.8584   53.7097 C   0  0  0  0  0  0  0  0  0  0  0  0
   67.9648   45.9696   52.3301 C   0  0  0  0  0  0  0  0  0  0  0  0
   68.8250   46.9316   51.8552 C   0  0  0  0  0  0  0  0  0  0  0  0
   69.4671   47.7810   52.7270 C   0  0  0  0  0  0  0  0  0  0  0  0
   69.2323   47.6475   54.0845 C   0  0  0  0  0  0  0  0  0  0  0  0
   70.3408   48.7581   52.2018 N   0  0  0  0  0  0  0  0  0  0  0  0
   71.3462   49.1250   52.8160 O   0  0  0  0  0  0  0  0  0  0  0  0
   70.0675   49.3116   50.9822 O   0  0  0  0  0  0  0  0  0  0  0  0
  1  2  2  0  0  0
  2  3  1  0  0  0
  2  4  1  0  0  0
  3 15  1  0  0  0
 15 16  1  0  0  0
 16 17  2  0  0  0
 16 21  1  0  0  0
 17 18  1  0  0  0
 18 19  2  0  0  0
 19 20  1  0  0  0
 20 22  1  0  0  0
 20 21  2  0  0  0
 22 23  2  0  0  0
 22 24  1  0  0  0
  4  5  2  0  0  0
  4  6  1  0  0  0
  6  7  2  0  0  0
  6 14  1  0  0  0
  7  8  1  0  0  0
  8  9  1  0  0  0
  9 10  1  0  0  0
  9 14  2  0  0  0
 10 11  2  0  0  0
 11 12  1  0  0  0
 12 13  2  0  0  0
 13 14  1  0  0  0
M  CHG 1  22   1
M  CHG 1  24  -1
M  END
> <minimizedAffinity>
-9.53127

$$$$
cs_R1_output_folder/data/smiles/31.pdb


 22 24  0  0  0  0  0  0  0  0999 V2000
   70.5717   45.8787   59.0200 O   0  0  0  0  0  0  0  0  0  0  0  0
   70.4119   45.0626   58.0784 C   0  0  0  0  0  0  0  0  0  0  0  0
   69.5358   45.4406   56.9947 N   0  0  0  0  0  0  0  0  0  0  0  0
   71.0640   43.7700   58.0381 C   0  0  0  0  0  0  0  0  0  0  0  0
   70.5206   42.5540   58.3788 C   0  0  0  0  0  0  0  0  0  0  0  0
   71.4689   41.5749   58.1992 C   0  0  0  0  0  0  0  0  0  0  0  0
   72.5611   42.2126   57.7564 N   0  0  0  0  0  0  0  0  0  0  0  0
   72.3259   43.5279   57.6577 N   0  0  0  0  0  0  0  0  0  0  0  0
   71.3352   40.1463   58.4342 C   0  0  0  0  0  0  0  0  0  0  0  0
   72.4042   39.3003   58.5737 C   0  0  0  0  0  0  0  0  0  0  0  0
   72.2211   37.9510   58.7961 C   0  0  0  0  0  0  0  0  0  0  0  0
   70.9672   37.3872   58.8893 C   0  0  0  0  0  0  0  0  0  0  0  0
   69.8859   38.2328   58.7508 C   0  0  0  0  0  0  0  0  0  0  0  0
   70.0694   39.5827   58.5277 C   0  0  0  0  0  0  0  0  0  0  0  0
   68.9187   46.6483   57.0197 N   0  0  0  0  0  0  0  0  0  0  0  0
   68.5084   47.4232   56.1223 C   0  0  0  0  0  0  0  0  0  0  0  0
   68.5890   47.2186   54.6938 C   0  0  0  0  0  0  0  0  0  0  0  0
   69.3128   47.9872   53.8105 C   0  0  0  0  0  0  0  0  0  0  0  0
   69.3301   47.7113   52.4413 C   0  0  0  0  0  0  0  0  0  0  0  0
   68.6320   46.6663   51.8928 C   0  0  0  0  0  0  0  0  0  0  0  0
   67.9014   45.8880   52.7620 C   0  0  0  0  0  0  0  0  0  0  0  0
   67.8839   46.1573   54.1099 C   0  0  0  0  0  0  0  0  0  0  0  0
  1  2  2  0  0  0
  2  3  1  0  0  0
  2  4  1  0  0  0
  3 15  1  0  0  0
 15 16  2  0  0  0
 16 17  1  0  0  0
 17 18  2  0  0  0
 17 22  1  0  0  0
 18 19  1  0  0  0
 19 20  2  0  0  0
 20 21  1  0  0  0
 21 22  2  0  0  0
  4  5  2  0  0  0
  4  8  1  0  0  0
  5  6  1  0  0  0
  6  9  1  0  0  0
  6  7  2  0  0  0
  9 10  2  0  0  0
  9 14  1  0  0  0
 10 11  1  0  0  0
 11 12  2  0  0  0
 12 13  1  0  0  0
 13 14  2  0  0  0
  7  8  1  0  0  0
M  END
> <minimizedAffinity>
-8.08416

$$$$
cs_R1_output_folder/data/smiles/32.pdb


 25 27  0  0  0  0  0  0  0  0999 V2000
   69.0253   47.6649   56.7891 C   0  0  0  0  0  0  0  0  0  0  0  0
   67.7771   47.4357   57.0894 O   0  0  0  0  0  0  0  0  0  0  0  0
   69.3273   48.0434   55.4323 C   0  0  0  0  0  0  0  0  0  0  0  0
   70.0800   49.1923   55.1745 C   0  0  0  0  0  0  0  0  0  0  0  0
   70.3668   49.5517   53.8862 C   0  0  0  0  0  0  0  0  0  0  0  0
   71.0499   50.5909   53.6122 O   0  0  0  0  0  0  0  0  0  0  0  0
   69.9365   48.8181   52.8512 N   0  0  0  0  0  0  0  0  0  0  0  0
   69.2063   47.7005   53.0487 C   0  0  0  0  0  0  0  0  0  0  0  0
   68.7646   46.9480   51.9811 C   0  0  0  0  0  0  0  0  0  0  0  0
   68.0198   45.8047   52.1556 C   0  0  0  0  0  0  0  0  0  0  0  0
   67.7142   45.4140   53.4165 C   0  0  0  0  0  0  0  0  0  0  0  0
   68.1541   46.1651   54.4907 C   0  0  0  0  0  0  0  0  0  0  0  0
   68.9033   47.3180   54.3596 C   0  0  0  0  0  0  0  0  0  0  0  0
   69.8516   47.4987   57.8560 O   0  0  0  0  0  0  0  0  0  0  0  0
   70.9095   46.5873   57.9805 C   0  0  0  0  0  0  0  0  0  0  0  0
   69.7350   44.9658   59.1908 O   0  0  0  0  0  0  0  0  0  0  0  0
   70.3820   45.2372   58.1530 C   0  0  0  0  0  0  0  0  0  0  0  0
   70.5730   44.2391   57.1900 N   0  0  0  0  0  0  0  0  0  0  0  0
   70.0195   42.9311   57.4522 C   0  0  0  0  0  0  0  0  0  0  0  0
   70.7472   42.0255   58.1826 C   0  0  0  0  0  0  0  0  0  0  0  0
   70.2137   40.7672   58.4338 C   0  0  0  0  0  0  0  0  0  0  0  0
   68.9667   40.4296   57.9564 C   0  0  0  0  0  0  0  0  0  0  0  0
   68.2807   41.3369   57.2449 N   0  0  0  0  0  0  0  0  0  0  0  0
   68.7789   42.5662   56.9878 C   0  0  0  0  0  0  0  0  0  0  0  0
   68.0198   43.4461   56.2524 F   0  0  0  0  0  0  0  0  0  0  0  0
 16 17  2  0  0  0
 17 15  1  0  0  0
 17 18  1  0  0  0
 15 14  1  0  0  0
 14  1  1  0  0  0
  1  2  2  0  0  0
  1  3  1  0  0  0
  3  4  2  0  0  0
  3 13  1  0  0  0
  4  5  1  0  0  0
  5  6  2  0  0  0
  5  7  1  0  0  0
  7  8  1  0  0  0
  8  9  1  0  0  0
  8 13  2  0  0  0
  9 10  2  0  0  0
 10 11  1  0  0  0
 11 12  2  0  0  0
 12 13  1  0  0  0
 18 19  1  0  0  0
 19 20  2  0  0  0
 19 24  1  0  0  0
 20 21  1  0  0  0
 21 22  2  0  0  0
 22 23  1  0  0  0
 23 24  2  0  0  0
 24 25  1  0  0  0
M  END
> <minimizedAffinity>
-8.49463

$$$$
cs_R1_output_folder/data/smiles/33.pdb


 20 21  0  0  0  0  0  0  0  0999 V2000
   77.8117   35.2762   54.2718 C   0  0  0  0  0  0  0  0  0  0  0  0
   77.8492   34.9786   52.8215 C   0  0  0  0  0  0  0  0  0  0  0  0
   78.6392   34.0225   52.5052 O   0  0  0  0  0  0  0  0  0  0  0  0
   77.1103   35.6399   51.8246 N   0  0  0  0  0  0  0  0  0  0  0  0
   77.1446   35.3715   50.4465 C   0  0  0  0  0  0  0  0  0  0  0  0
   77.9630   35.9403   49.5226 C   0  0  0  0  0  0  0  0  0  0  0  0
   77.9385   35.6205   48.1639 C   0  0  0  0  0  0  0  0  0  0  0  0
   77.0551   34.6894   47.7085 C   0  0  0  0  0  0  0  0  0  0  0  0
   77.0124   34.3569   46.3740 F   0  0  0  0  0  0  0  0  0  0  0  0
   76.2029   34.0836   48.6105 C   0  0  0  0  0  0  0  0  0  0  0  0
   76.2508   34.4185   49.9404 C   0  0  0  0  0  0  0  0  0  0  0  0
   76.8866   34.5688   55.0211 O   0  0  0  0  0  0  0  0  0  0  0  0
   72.3079   35.4571   53.3389 C   0  0  0  0  0  0  0  0  0  0  0  0
   73.3164   35.3195   54.4370 C   0  0  0  0  0  0  0  0  0  0  0  0
   72.8904   35.5180   55.7313 C   0  0  0  0  0  0  0  0  0  0  0  0
   73.8069   35.3942   56.7470 C   0  0  0  0  0  0  0  0  0  0  0  0
   75.1283   35.0799   56.5272 C   0  0  0  0  0  0  0  0  0  0  0  0
   76.0486   34.9670   57.6886 C   0  0  0  0  0  0  0  0  0  0  0  0
   75.5517   34.8811   55.2264 C   0  0  0  0  0  0  0  0  0  0  0  0
   74.6209   35.0091   54.2137 C   0  0  0  0  0  0  0  0  0  0  0  0
 13 14  1  0  0  0
 14 15  2  0  0  0
 14 20  1  0  0  0
 15 16  1  0  0  0
 16 17  2  0  0  0
 17 18  1  0  0  0
 17 19  1  0  0  0
 19 12  1  0  0  0
 19 20  2  0  0  0
 12  1  1  0  0  0
  1  2  1  0  0  0
  2  3  2  0  0  0
  2  4  1  0  0  0
  4  5  1  0  0  0
  5  6  2  0  0  0
  5 11  1  0  0  0
  6  7  1  0  0  0
  7  8  2  0  0  0
  8  9  1  0  0  0
  8 10  1  0  0  0
 10 11  2  0  0  0
M  END
> <minimizedAffinity>
-6.96347

$$$$
cs_R1_output_folder/data/smiles/34.pdb


 30 32  0  0  0  0  0  0  0  0999 V2000
   67.5052   45.1074   53.0668 C   0  0  0  0  0  0  0  0  0  0  0  0
   68.2448   46.3501   53.3134 C   0  0  0  0  0  0  0  0  0  0  0  0
   68.3825   47.2971   52.3005 C   0  0  0  0  0  0  0  0  0  0  0  0
   69.0750   48.4604   52.5415 C   0  0  0  0  0  0  0  0  0  0  0  0
   69.6307   48.6901   53.7768 C   0  0  0  0  0  0  0  0  0  0  0  0
   69.4803   47.7320   54.7705 C   0  0  0  0  0  0  0  0  0  0  0  0
   68.7923   46.5612   54.5516 C   0  0  0  0  0  0  0  0  0  0  0  0
   70.5420   50.1364   54.1877 S   0  0  0  0  0  0  0  0  0  0  0  0
   71.9891   49.8305   53.8022 O   0  0  0  0  0  0  0  0  0  0  0  0
   70.0775   51.2169   53.2592 O   0  0  0  0  0  0  0  0  0  0  0  0
   70.4213   50.5274   55.8346 N   0  0  0  0  0  0  0  0  0  0  0  0
   69.1719   50.4500   56.5002 C   0  0  0  0  0  0  0  0  0  0  0  0
   68.8505   49.3846   57.3175 C   0  0  0  0  0  0  0  0  0  0  0  0
   67.6413   49.2975   57.9747 C   0  0  0  0  0  0  0  0  0  0  0  0
   66.7302   50.3338   57.7892 C   0  0  0  0  0  0  0  0  0  0  0  0
   67.0309   51.4098   56.9743 C   0  0  0  0  0  0  0  0  0  0  0  0
   68.2400   51.4606   56.3408 C   0  0  0  0  0  0  0  0  0  0  0  0
   68.6679   45.5983   55.6151 C   0  0  0  0  0  0  0  0  0  0  0  0
   69.0880   45.9397   56.7740 O   0  0  0  0  0  0  0  0  0  0  0  0
   68.1192   44.2933   55.5030 N   0  0  0  0  0  0  0  0  0  0  0  0
   68.0481   43.4233   56.6306 N   0  0  0  0  0  0  0  0  0  0  0  0
   67.6237   42.0886   56.5087 C   0  0  0  0  0  0  0  0  0  0  0  0
   67.3112   41.7402   55.3104 O   0  0  0  0  0  0  0  0  0  0  0  0
   67.5092   41.0986   57.5621 C   0  0  0  0  0  0  0  0  0  0  0  0
   68.1982   39.8912   57.4072 C   0  0  0  0  0  0  0  0  0  0  0  0
   68.1599   38.8828   58.3493 C   0  0  0  0  0  0  0  0  0  0  0  0
   67.4287   39.0190   59.5066 C   0  0  0  0  0  0  0  0  0  0  0  0
   66.7489   40.2008   59.6662 C   0  0  0  0  0  0  0  0  0  0  0  0
   66.7905   41.2238   58.7061 C   0  0  0  0  0  0  0  0  0  0  0  0
   66.0812   42.3805   58.9415 O   0  0  0  0  0  0  0  0  0  0  0  0
  1  2  1  0  0  0
  2  3  2  0  0  0
  2  7  1  0  0  0
  3  4  1  0  0  0
  4  5  2  0  0  0
  5  8  1  0  0  0
  5  6  1  0  0  0
  8  9  2  0  0  0
  8 10  2  0  0  0
  8 11  1  0  0  0
 11 12  1  0  0  0
 12 13  2  0  0  0
 12 17  1  0  0  0
 13 14  1  0  0  0
 14 15  2  0  0  0
 15 16  1  0  0  0
 16 17  2  0  0  0
  6  7  2  0  0  0
  7 18  1  0  0  0
 18 19  2  0  0  0
 18 20  1  0  0  0
 20 21  1  0  0  0
 21 22  1  0  0  0
 22 23  2  0  0  0
 22 24  1  0  0  0
 24 25  2  0  0  0
 24 29  1  0  0  0
 25 26  1  0  0  0
 26 27  2  0  0  0
 27 28  1  0  0  0
 28 29  2  0  0  0
 29 30  1  0  0  0
M  END
> <minimizedAffinity>
-9.52560

$$$$
cs_R1_output_folder/data/smiles/35.pdb


 24 27  0  0  0  0  0  0  0  0999 V2000
   69.4489   49.0348   53.2257 C   0  0  0  0  0  0  0  0  0  0  0  0
   69.2864   49.7938   52.0577 C   0  0  0  0  0  0  0  0  0  0  0  0
   69.9435   50.9505   52.1942 N   0  0  0  0  0  0  0  0  0  0  0  0
   70.4972   50.9537   53.3611 N   0  0  0  0  0  0  0  0  0  0  0  0
   70.2242   49.7928   54.0458 C   0  0  0  0  0  0  0  0  0  0  0  0
   68.3376   45.1785   56.1401 N   0  0  0  0  0  0  0  0  0  0  0  0
   68.3877   45.8384   54.8525 C   0  0  0  0  0  0  0  0  0  0  0  0
   68.8938   47.0925   54.7047 C   0  0  0  0  0  0  0  0  0  0  0  0
   68.9386   47.7098   53.4899 C   0  0  0  0  0  0  0  0  0  0  0  0
   68.4411   46.9885   52.4262 C   0  0  0  0  0  0  0  0  0  0  0  0
   67.9240   45.7195   52.5493 C   0  0  0  0  0  0  0  0  0  0  0  0
   67.9182   45.1874   53.7802 N   0  0  0  0  0  0  0  0  0  0  0  0
   70.7429   49.6305   55.4028 C   0  0  0  0  0  0  0  0  0  0  0  0
   69.9547   50.1110   56.5154 C   0  0  0  0  0  0  0  0  0  0  0  0
   70.9322   50.8342   57.4188 C   0  0  0  0  0  0  0  0  0  0  0  0
   72.2413   50.3494   56.9911 N   0  0  0  0  0  0  0  0  0  0  0  0
   73.3955   50.0246   57.7112 C   0  0  0  0  0  0  0  0  0  0  0  0
   74.4175   49.6071   57.0965 O   0  0  0  0  0  0  0  0  0  0  0  0
   72.0961   50.2683   55.5314 C   0  0  0  0  0  0  0  0  0  0  0  0
   73.4628   50.1533   59.1782 C   0  0  0  0  0  0  0  0  0  0  0  0
   74.7625   50.6555   59.7101 C   0  0  0  0  0  0  0  0  0  0  0  0
   74.6935   50.2278   61.1791 C   0  0  0  0  0  0  0  0  0  0  0  0
   74.2025   48.8012   61.0576 C   0  0  0  0  0  0  0  0  0  0  0  0
   73.3195   48.8012   59.8478 C   0  0  0  0  0  0  0  0  0  0  0  0
  6  7  1  0  0  0
  7  8  2  0  0  0
  7 12  1  0  0  0
  8  9  1  0  0  0
  9  1  1  0  0  0
  9 10  2  0  0  0
  1  2  2  0  0  0
  1  5  1  0  0  0
  2  3  1  0  0  0
  3  4  1  0  0  0
  4  5  2  0  0  0
 13  5  1  0  0  0
 13 14  1  0  0  0
 13 19  1  0  0  0
 14 15  1  0  0  0
 15 16  1  0  0  0
 16 17  1  0  0  0
 16 19  1  0  0  0
 17 18  2  0  0  0
 17 20  1  0  0  0
 20 21  1  0  0  0
 20 24  1  0  0  0
 21 22  1  0  0  0
 22 23  1  0  0  0
 23 24  1  0  0  0
 10 11  1  0  0  0
 11 12  2  0  0  0
M  END
> <minimizedAffinity>
-7.02059

$$$$
cs_R1_output_folder/data/smiles/36.pdb


 25 27  0  0  0  0  0  0  0  0999 V2000
   70.2633   50.6293   55.2278 C   0  0  0  0  0  0  0  0  0  0  0  0
   69.0886   50.4413   55.9415 C   0  0  0  0  0  0  0  0  0  0  0  0
   68.4307   51.4579   56.5945 C   0  0  0  0  0  0  0  0  0  0  0  0
   66.9446   51.1820   57.4884 Cl  0  0  0  0  0  0  0  0  0  0  0  0
   69.0059   52.7065   56.5052 C   0  0  0  0  0  0  0  0  0  0  0  0
   70.1651   52.9063   55.8050 C   0  0  0  0  0  0  0  0  0  0  0  0
   70.8357   51.8684   55.1407 C   0  0  0  0  0  0  0  0  0  0  0  0
   70.8379   49.5173   54.5678 N   0  0  0  0  0  0  0  0  0  0  0  0
   71.6069   48.6450   52.1644 O   0  0  0  0  0  0  0  0  0  0  0  0
   70.4076   48.9962   52.9859 S   0  0  0  0  0  0  0  0  0  0  0  0
   69.7200   50.1192   52.2707 O   0  0  0  0  0  0  0  0  0  0  0  0
   69.2863   47.6715   53.1170 C   0  0  0  0  0  0  0  0  0  0  0  0
   68.9020   47.0533   54.2620 C   0  0  0  0  0  0  0  0  0  0  0  0
   67.9802   46.0068   54.1978 C   0  0  0  0  0  0  0  0  0  0  0  0
   67.4403   45.5729   53.0116 C   0  0  0  0  0  0  0  0  0  0  0  0
   67.8211   46.1914   51.8395 C   0  0  0  0  0  0  0  0  0  0  0  0
   67.2841   45.7569   50.6759 F   0  0  0  0  0  0  0  0  0  0  0  0
   68.7266   47.2161   51.9213 C   0  0  0  0  0  0  0  0  0  0  0  0
   72.1097   52.1886   54.4518 C   0  0  0  0  0  0  0  0  0  0  0  0
   73.2155   51.3585   54.8046 N   0  0  0  0  0  0  0  0  0  0  0  0
   73.8621   51.0720   55.9288 C   0  0  0  0  0  0  0  0  0  0  0  0
   74.8961   50.1901   55.6714 C   0  0  0  0  0  0  0  0  0  0  0  0
   75.7553   49.6942   56.5914 F   0  0  0  0  0  0  0  0  0  0  0  0
   74.8452   49.9594   54.3592 N   0  0  0  0  0  0  0  0  0  0  0  0
   73.8544   50.6488   53.8501 N   0  0  0  0  0  0  0  0  0  0  0  0
  9 10  2  0  0  0
 10 11  2  0  0  0
 10  8  1  0  0  0
 10 12  1  0  0  0
  8  1  1  0  0  0
  1  2  2  0  0  0
  1  7  1  0  0  0
  2  3  1  0  0  0
  3  4  1  0  0  0
  3  5  2  0  0  0
  5  6  1  0  0  0
  6  7  2  0  0  0
  7 19  1  0  0  0
 19 20  1  0  0  0
 20 21  1  0  0  0
 20 25  1  0  0  0
 21 22  2  0  0  0
 22 23  1  0  0  0
 22 24  1  0  0  0
 24 25  2  0  0  0
 12 13  2  0  0  0
 12 18  1  0  0  0
 13 14  1  0  0  0
 14 15  2  0  0  0
 15 16  1  0  0  0
 16 17  1  0  0  0
 16 18  2  0  0  0
M  END
> <minimizedAffinity>
-9.06817

$$$$
cs_R1_output_folder/data/smiles/37.pdb


 33 37  0  0  0  0  0  0  0  0999 V2000
   72.6129   50.1223   57.1325 C   0  0  0  0  0  0  0  0  0  0  0  0
   71.6542   50.0823   56.1399 C   0  0  0  0  0  0  0  0  0  0  0  0
   70.6977   51.0500   56.0088 C   0  0  0  0  0  0  0  0  0  0  0  0
   70.6822   52.1229   56.9077 C   0  0  0  0  0  0  0  0  0  0  0  0
   71.6351   52.1843   57.9111 C   0  0  0  0  0  0  0  0  0  0  0  0
   72.5804   51.1863   58.0059 C   0  0  0  0  0  0  0  0  0  0  0  0
   73.5228   51.2329   58.9867 F   0  0  0  0  0  0  0  0  0  0  0  0
   74.6288   49.1377   56.5000 O   0  0  0  0  0  0  0  0  0  0  0  0
   73.6240   49.0520   57.2439 C   0  0  0  0  0  0  0  0  0  0  0  0
   73.4784   47.9795   58.1391 N   0  0  0  0  0  0  0  0  0  0  0  0
   74.4537   46.9327   58.2523 C   0  0  0  0  0  0  0  0  0  0  0  0
   73.8365   45.5843   58.4811 C   0  0  0  0  0  0  0  0  0  0  0  0
   72.3992   45.5561   58.3754 N   0  0  0  0  0  0  0  0  0  0  0  0
   71.5302   46.7046   58.4892 C   0  0  0  0  0  0  0  0  0  0  0  0
   72.3199   47.8891   58.9874 C   0  0  0  0  0  0  0  0  0  0  0  0
   71.7467   44.2980   58.1389 C   0  0  0  0  0  0  0  0  0  0  0  0
   70.3896   44.2582   57.9033 C   0  0  0  0  0  0  0  0  0  0  0  0
   69.7338   43.0531   57.6818 C   0  0  0  0  0  0  0  0  0  0  0  0
   70.4157   41.8634   57.6891 C   0  0  0  0  0  0  0  0  0  0  0  0
   71.7728   41.8903   57.9223 C   0  0  0  0  0  0  0  0  0  0  0  0
   72.4232   43.0956   58.1434 C   0  0  0  0  0  0  0  0  0  0  0  0
   69.6445   51.0893   54.9652 C   0  0  0  0  0  0  0  0  0  0  0  0
   69.6864   50.0054   53.9937 C   0  0  0  0  0  0  0  0  0  0  0  0
   70.4217   50.0965   52.8444 N   0  0  0  0  0  0  0  0  0  0  0  0
   70.5033   49.1257   51.9577 N   0  0  0  0  0  0  0  0  0  0  0  0
   69.8535   47.9456   52.1213 C   0  0  0  0  0  0  0  0  0  0  0  0
   69.9184   47.0075   51.2869 O   0  0  0  0  0  0  0  0  0  0  0  0
   69.1062   47.7928   53.2420 C   0  0  0  0  0  0  0  0  0  0  0  0
   69.0195   48.8320   54.1882 C   0  0  0  0  0  0  0  0  0  0  0  0
   68.1427   48.5202   55.3357 C   0  0  0  0  0  0  0  0  0  0  0  0
   68.7138   47.2594   55.9704 C   0  0  0  0  0  0  0  0  0  0  0  0
   68.6920   46.1062   54.9909 C   0  0  0  0  0  0  0  0  0  0  0  0
   68.3407   46.5741   53.5914 C   0  0  0  0  0  0  0  0  0  0  0  0
  8  9  2  0  0  0
  9  1  1  0  0  0
  9 10  1  0  0  0
  1  2  2  0  0  0
  1  6  1  0  0  0
  2  3  1  0  0  0
  3 22  1  0  0  0
  3  4  2  0  0  0
 22 23  1  0  0  0
 23 24  2  0  0  0
 23 29  1  0  0  0
 24 25  1  0  0  0
 25 26  1  0  0  0
 26 27  2  0  0  0
 26 28  1  0  0  0
 28 29  2  0  0  0
 28 33  1  0  0  0
 29 30  1  0  0  0
 30 31  1  0  0  0
 31 32  1  0  0  0
 32 33  1  0  0  0
  4  5  1  0  0  0
  5  6  2  0  0  0
  6  7  1  0  0  0
 10 11  1  0  0  0
 10 15  1  0  0  0
 11 12  1  0  0  0
 12 13  1  0  0  0
 13 16  1  0  0  0
 13 14  1  0  0  0
 16 17  2  0  0  0
 16 21  1  0  0  0
 17 18  1  0  0  0
 18 19  2  0  0  0
 19 20  1  0  0  0
 20 21  2  0  0  0
 14 15  1  0  0  0
M  END
> <minimizedAffinity>
-8.71218

$$$$
cs_R1_output_folder/data/smiles/38.pdb


 33 36  0  0  0  0  0  0  0  0999 V2000
   70.7251   44.3048   58.9584 C   0  0  0  0  0  0  0  0  0  0  0  0
   70.7019   45.6368   58.7683 C   0  0  0  0  0  0  0  0  0  0  0  0
   71.3436   46.4253   59.6391 N   0  0  0  0  0  0  0  0  0  0  0  0
   71.3199   47.7582   59.4513 C   0  0  0  0  0  0  0  0  0  0  0  0
   71.9128   48.5267   60.2503 O   0  0  0  0  0  0  0  0  0  0  0  0
   70.6458   48.3282   58.3743 C   0  0  0  0  0  0  0  0  0  0  0  0
   70.6177   49.6344   58.1814 C   0  0  0  0  0  0  0  0  0  0  0  0
   70.0013   47.5435   57.4983 N   0  0  0  0  0  0  0  0  0  0  0  0
   70.0359   46.2072   57.7031 C   0  0  0  0  0  0  0  0  0  0  0  0
   69.4456   45.4312   56.9083 O   0  0  0  0  0  0  0  0  0  0  0  0
   69.9159   50.2663   57.0553 C   0  0  0  0  0  0  0  0  0  0  0  0
   68.9965   51.2662   57.2300 C   0  0  0  0  0  0  0  0  0  0  0  0
   68.3919   51.7959   56.1103 C   0  0  0  0  0  0  0  0  0  0  0  0
   68.6965   51.3366   54.8387 C   0  0  0  0  0  0  0  0  0  0  0  0
   69.6321   50.3181   54.6597 C   0  0  0  0  0  0  0  0  0  0  0  0
   70.2285   49.8012   55.7948 C   0  0  0  0  0  0  0  0  0  0  0  0
   70.0070   49.7804   53.3464 C   0  0  0  0  0  0  0  0  0  0  0  0
   69.3038   48.4854   53.1549 C   0  0  0  0  0  0  0  0  0  0  0  0
   69.2517   47.8843   51.9144 C   0  0  0  0  0  0  0  0  0  0  0  0
   68.5953   46.6770   51.7407 C   0  0  0  0  0  0  0  0  0  0  0  0
   67.9773   46.0408   52.7937 C   0  0  0  0  0  0  0  0  0  0  0  0
   67.3360   44.8482   52.5885 F   0  0  0  0  0  0  0  0  0  0  0  0
   68.0248   46.6355   54.0386 C   0  0  0  0  0  0  0  0  0  0  0  0
   68.6806   47.8365   54.2003 C   0  0  0  0  0  0  0  0  0  0  0  0
   72.6964   43.1773   59.9657 C   0  0  0  0  0  0  0  0  0  0  0  0
   73.0512   42.7677   61.2054 N   0  0  0  0  0  0  0  0  0  0  0  0
   72.0614   43.0727   62.0499 C   0  0  0  0  0  0  0  0  0  0  0  0
   71.0628   43.6770   61.3751 N   0  0  0  0  0  0  0  0  0  0  0  0
   71.4380   43.7491   60.0925 C   0  0  0  0  0  0  0  0  0  0  0  0
   72.7903   42.4954   57.5743 C   0  0  0  0  0  0  0  0  0  0  0  0
   73.5250   43.0161   58.7806 C   0  0  0  0  0  0  0  0  0  0  0  0
   74.2030   44.3180   58.3393 C   0  0  0  0  0  0  0  0  0  0  0  0
   74.6513   42.0514   59.0756 C   0  0  0  0  0  0  0  0  0  0  0  0
 30 31  1  0  0  0
 31 32  1  0  0  0
 31 33  1  0  0  0
 31 25  1  0  0  0
 25 26  1  0  0  0
 25 29  2  0  0  0
 26 27  1  0  0  0
 27 28  2  0  0  0
 28 29  1  0  0  0
 29  1  1  0  0  0
  1  2  2  0  0  0
  2  3  1  0  0  0
  2  9  1  0  0  0
  3  4  1  0  0  0
  4  5  2  0  0  0
  4  6  1  0  0  0
  6  7  2  0  0  0
  6  8  1  0  0  0
  7 11  1  0  0  0
 11 12  2  0  0  0
 11 16  1  0  0  0
 12 13  1  0  0  0
 13 14  2  0  0  0
 14 15  1  0  0  0
 15 17  1  0  0  0
 15 16  2  0  0  0
 17 18  1  0  0  0
 18 19  2  0  0  0
 18 24  1  0  0  0
 19 20  1  0  0  0
 20 21  2  0  0  0
 21 22  1  0  0  0
 21 23  1  0  0  0
 23 24  2  0  0  0
  8  9  1  0  0  0
  9 10  2  0  0  0
M  CHG 1  28   1
M  END
> <minimizedAffinity>
-9.80592

$$$$
cs_R1_output_folder/data/smiles/39.pdb


 25 26  0  0  0  0  0  0  0  0999 V2000
   69.9822   49.4462   52.7221 S   0  0  0  0  0  0  0  0  0  0  0  0
   69.9562   49.3624   51.2208 O   0  0  0  0  0  0  0  0  0  0  0  0
   71.4373   49.3876   53.1455 O   0  0  0  0  0  0  0  0  0  0  0  0
   69.2481   47.9794   53.3468 C   0  0  0  0  0  0  0  0  0  0  0  0
   69.3000   47.7131   54.7092 C   0  0  0  0  0  0  0  0  0  0  0  0
   69.9082   48.6394   55.5124 F   0  0  0  0  0  0  0  0  0  0  0  0
   68.7553   46.5598   55.2151 C   0  0  0  0  0  0  0  0  0  0  0  0
   68.8153   46.3196   56.5466 F   0  0  0  0  0  0  0  0  0  0  0  0
   68.1379   45.6151   54.4221 C   0  0  0  0  0  0  0  0  0  0  0  0
   67.5989   44.4758   54.9210 F   0  0  0  0  0  0  0  0  0  0  0  0
   68.1045   45.9110   53.0738 C   0  0  0  0  0  0  0  0  0  0  0  0
   67.4921   44.9791   52.2701 F   0  0  0  0  0  0  0  0  0  0  0  0
   68.6417   47.0571   52.5450 C   0  0  0  0  0  0  0  0  0  0  0  0
   68.5704   47.2772   51.2162 F   0  0  0  0  0  0  0  0  0  0  0  0
   69.2748   50.8830   53.2809 N   0  0  0  0  0  0  0  0  0  0  0  0
   71.5616   53.0812   55.2220 C   0  0  0  0  0  0  0  0  0  0  0  0
   70.6935   53.4874   56.2138 C   0  0  0  0  0  0  0  0  0  0  0  0
   69.3786   53.0598   56.2529 C   0  0  0  0  0  0  0  0  0  0  0  0
   68.9217   52.2065   55.2798 C   0  0  0  0  0  0  0  0  0  0  0  0
   69.7748   51.7688   54.2519 C   0  0  0  0  0  0  0  0  0  0  0  0
   71.0731   52.2147   54.2449 C   0  0  0  0  0  0  0  0  0  0  0  0
   73.8274   53.6912   56.8120 N   0  0  0  0  0  0  0  0  0  0  0  0
   73.2216   53.6459   55.2073 S   0  0  0  0  0  0  0  0  0  0  0  0
   73.2800   55.0613   54.6671 O   0  0  0  0  0  0  0  0  0  0  0  0
   74.0893   52.7283   54.3939 O   0  0  0  0  0  0  0  0  0  0  0  0
 22 23  1  0  0  0
 23 24  2  0  0  0
 23 25  2  0  0  0
 23 16  1  0  0  0
 16 17  2  0  0  0
 16 21  1  0  0  0
 17 18  1  0  0  0
 18 19  2  0  0  0
 19 20  1  0  0  0
 20 15  1  0  0  0
 20 21  2  0  0  0
 15  1  1  0  0  0
  1  2  2  0  0  0
  1  3  2  0  0  0
  1  4  1  0  0  0
  4  5  2  0  0  0
  4 13  1  0  0  0
  5  6  1  0  0  0
  5  7  1  0  0  0
  7  8  1  0  0  0
  7  9  2  0  0  0
  9 10  1  0  0  0
  9 11  1  0  0  0
 11 12  1  0  0  0
 11 13  2  0  0  0
 13 14  1  0  0  0
M  END
> <minimizedAffinity>
-9.45938

$$$$
cs_R1_output_folder/data/smiles/40.pdb


 28 30  0  0  0  0  0  0  0  0999 V2000
   68.3952   45.9483   54.1979 C   0  0  0  0  0  0  0  0  0  0  0  0
   67.8546   45.5618   52.9950 C   0  0  0  0  0  0  0  0  0  0  0  0
   68.0065   46.3297   51.8448 C   0  0  0  0  0  0  0  0  0  0  0  0
   68.7096   47.5067   51.8884 C   0  0  0  0  0  0  0  0  0  0  0  0
   69.2643   47.9174   53.0898 C   0  0  0  0  0  0  0  0  0  0  0  0
   69.0967   47.1272   54.2290 C   0  0  0  0  0  0  0  0  0  0  0  0
   67.8143   43.8358   55.4484 N   0  0  0  0  0  0  0  0  0  0  0  0
   68.2481   45.1651   55.3980 C   0  0  0  0  0  0  0  0  0  0  0  0
   68.5343   45.7181   56.5117 O   0  0  0  0  0  0  0  0  0  0  0  0
   67.6742   41.0700   55.5782 O   0  0  0  0  0  0  0  0  0  0  0  0
   67.6130   41.6936   56.6701 C   0  0  0  0  0  0  0  0  0  0  0  0
   67.6807   43.0948   56.6455 N   0  0  0  0  0  0  0  0  0  0  0  0
   67.4716   40.9033   57.9335 C   0  0  0  0  0  0  0  0  0  0  0  0
   68.7242   40.2024   58.2505 C   0  0  0  0  0  0  0  0  0  0  0  0
   68.7025   38.8722   58.5708 C   0  0  0  0  0  0  0  0  0  0  0  0
   69.8498   38.1582   58.8781 C   0  0  0  0  0  0  0  0  0  0  0  0
   71.0576   38.8302   58.8554 C   0  0  0  0  0  0  0  0  0  0  0  0
   71.0987   40.1703   58.5354 C   0  0  0  0  0  0  0  0  0  0  0  0
   69.9207   40.8631   58.2294 C   0  0  0  0  0  0  0  0  0  0  0  0
   70.1639   49.4203   53.1494 S   0  0  0  0  0  0  0  0  0  0  0  0
   69.7271   50.2878   51.9775 O   0  0  0  0  0  0  0  0  0  0  0  0
   71.6232   49.2082   53.0066 O   0  0  0  0  0  0  0  0  0  0  0  0
   69.7868   50.2381   54.6022 N   0  0  0  0  0  0  0  0  0  0  0  0
   70.9338   50.7903   55.2496 C   0  0  0  0  0  0  0  0  0  0  0  0
   70.5696   51.6886   56.3922 C   0  0  0  0  0  0  0  0  0  0  0  0
   69.8350   52.8854   55.8320 C   0  0  0  0  0  0  0  0  0  0  0  0
   68.9633   52.5556   54.6647 C   0  0  0  0  0  0  0  0  0  0  0  0
   68.6632   51.1042   54.5026 C   0  0  0  0  0  0  0  0  0  0  0  0
 10 11  2  0  0  0
 11 13  1  0  0  0
 11 12  1  0  0  0
 13 14  1  0  0  0
 14 15  2  0  0  0
 14 19  1  0  0  0
 15 16  1  0  0  0
 16 17  2  0  0  0
 17 18  1  0  0  0
 18 19  2  0  0  0
 12  7  1  0  0  0
  7  8  1  0  0  0
  8  9  2  0  0  0
  8  1  1  0  0  0
  1  2  2  0  0  0
  1  6  1  0  0  0
  2  3  1  0  0  0
  3  4  2  0  0  0
  4  5  1  0  0  0
  5 20  1  0  0  0
  5  6  2  0  0  0
 20 21  2  0  0  0
 20 22  2  0  0  0
 20 23  1  0  0  0
 23 24  1  0  0  0
 23 28  1  0  0  0
 24 25  1  0  0  0
 25 26  1  0  0  0
 26 27  1  0  0  0
 27 28  1  0  0  0
M  END
> <minimizedAffinity>
-9.65284

$$$$
cs_R1_output_folder/data/smiles/41.pdb


 26 28  0  0  0  0  0  0  0  0999 V2000
   68.5916   46.1298   55.3364 C   0  0  0  0  0  0  0  0  0  0  0  0
   68.4142   46.3022   53.9162 C   0  0  0  0  0  0  0  0  0  0  0  0
   68.6475   47.5464   53.3850 C   0  0  0  0  0  0  0  0  0  0  0  0
   69.0436   48.6456   54.1141 C   0  0  0  0  0  0  0  0  0  0  0  0
   69.1996   48.4285   55.5024 C   0  0  0  0  0  0  0  0  0  0  0  0
   68.9540   47.1870   55.9585 N   0  0  0  0  0  0  0  0  0  0  0  0
   69.2233   44.1519   56.7842 C   0  0  0  0  0  0  0  0  0  0  0  0
   70.2519   44.8380   57.1717 O   0  0  0  0  0  0  0  0  0  0  0  0
   68.3767   44.8067   55.8579 N   0  0  0  0  0  0  0  0  0  0  0  0
   68.3026   41.8443   57.0624 C   0  0  0  0  0  0  0  0  0  0  0  0
   69.0585   42.8381   57.3213 C   0  0  0  0  0  0  0  0  0  0  0  0
   65.4009   41.4402   54.2047 C   0  0  0  0  0  0  0  0  0  0  0  0
   66.3873   41.5566   55.1888 C   0  0  0  0  0  0  0  0  0  0  0  0
   67.2807   41.6797   56.0629 C   0  0  0  0  0  0  0  0  0  0  0  0
   69.3530   49.9153   53.4503 C   0  0  0  0  0  0  0  0  0  0  0  0
   70.6556   50.5190   53.8961 C   0  0  0  0  0  0  0  0  0  0  0  0
   71.7745   49.8492   53.6651 N   0  0  0  0  0  0  0  0  0  0  0  0
   72.9515   50.3448   54.0955 N   0  0  0  0  0  0  0  0  0  0  0  0
   72.9331   51.5085   54.7449 C   0  0  0  0  0  0  0  0  0  0  0  0
   74.0476   52.0162   55.1677 O   0  0  0  0  0  0  0  0  0  0  0  0
   71.7917   52.2481   55.0106 C   0  0  0  0  0  0  0  0  0  0  0  0
   70.5958   51.6951   54.5504 C   0  0  0  0  0  0  0  0  0  0  0  0
   69.3543   52.4773   54.7626 C   0  0  0  0  0  0  0  0  0  0  0  0
   69.3232   53.0476   56.1674 C   0  0  0  0  0  0  0  0  0  0  0  0
   70.6061   53.6189   56.6485 C   0  0  0  0  0  0  0  0  0  0  0  0
   71.7753   53.5301   55.7194 C   0  0  0  0  0  0  0  0  0  0  0  0
 12 13  1  0  0  0
 13 14  3  0  0  0
 14 10  1  0  0  0
 10 11  2  0  0  0
 11  7  1  0  0  0
  7  8  2  0  0  0
  7  9  1  0  0  0
  9  1  1  0  0  0
  1  2  2  0  0  0
  1  6  1  0  0  0
  2  3  1  0  0  0
  3  4  2  0  0  0
  4 15  1  0  0  0
  4  5  1  0  0  0
 15 16  1  0  0  0
 16 17  2  0  0  0
 16 22  1  0  0  0
 17 18  1  0  0  0
 18 19  1  0  0  0
 19 20  2  0  0  0
 19 21  1  0  0  0
 21 22  2  0  0  0
 21 26  1  0  0  0
 22 23  1  0  0  0
 23 24  1  0  0  0
 24 25  1  0  0  0
 25 26  1  0  0  0
  5  6  2  0  0  0
M  END
> <minimizedAffinity>
-8.82826

$$$$
cs_R1_output_folder/data/smiles/42.pdb


 27 29  0  0  0  0  0  0  0  0999 V2000
   68.4441   46.0449   54.2048 C   0  0  0  0  0  0  0  0  0  0  0  0
   67.8096   45.6511   53.0454 C   0  0  0  0  0  0  0  0  0  0  0  0
   67.8883   46.3608   51.8684 C   0  0  0  0  0  0  0  0  0  0  0  0
   68.6427   47.5238   51.8540 C   0  0  0  0  0  0  0  0  0  0  0  0
   69.2934   47.9561   52.9885 C   0  0  0  0  0  0  0  0  0  0  0  0
   69.1793   47.1983   54.1544 C   0  0  0  0  0  0  0  0  0  0  0  0
   67.8560   43.8966   55.4183 N   0  0  0  0  0  0  0  0  0  0  0  0
   68.3123   45.2404   55.4132 C   0  0  0  0  0  0  0  0  0  0  0  0
   68.6123   45.7405   56.5271 O   0  0  0  0  0  0  0  0  0  0  0  0
   67.4865   41.1938   55.4317 O   0  0  0  0  0  0  0  0  0  0  0  0
   67.5432   41.7295   56.5739 C   0  0  0  0  0  0  0  0  0  0  0  0
   67.7341   43.1314   56.5973 N   0  0  0  0  0  0  0  0  0  0  0  0
   67.4138   40.9075   57.7710 C   0  0  0  0  0  0  0  0  0  0  0  0
   68.0225   39.6855   57.9312 C   0  0  0  0  0  0  0  0  0  0  0  0
   67.8725   38.9325   59.0902 C   0  0  0  0  0  0  0  0  0  0  0  0
   67.0941   39.3934   60.1375 C   0  0  0  0  0  0  0  0  0  0  0  0
   66.4809   40.6178   59.9828 C   0  0  0  0  0  0  0  0  0  0  0  0
   66.6419   41.3494   58.8256 C   0  0  0  0  0  0  0  0  0  0  0  0
   70.2207   49.4185   52.9058 S   0  0  0  0  0  0  0  0  0  0  0  0
   71.7024   49.0977   52.7840 O   0  0  0  0  0  0  0  0  0  0  0  0
   69.8613   50.1768   51.6565 O   0  0  0  0  0  0  0  0  0  0  0  0
   70.0173   50.4376   54.2532 N   0  0  0  0  0  0  0  0  0  0  0  0
   70.9480   50.2448   55.3011 C   0  0  0  0  0  0  0  0  0  0  0  0
   70.4943   49.3916   56.4291 C   0  0  0  0  0  0  0  0  0  0  0  0
   69.0659   49.5951   56.8343 C   0  0  0  0  0  0  0  0  0  0  0  0
   68.4482   50.7935   56.1112 C   0  0  0  0  0  0  0  0  0  0  0  0
   68.6514   50.5499   54.6366 C   0  0  0  0  0  0  0  0  0  0  0  0
 10 11  2  0  0  0
 11 12  1  0  0  0
 11 13  1  0  0  0
 12  7  1  0  0  0
  7  8  1  0  0  0
  8  9  2  0  0  0
  8  1  1  0  0  0
  1  2  2  0  0  0
  1  6  1  0  0  0
  2  3  1  0  0  0
  3  4  2  0  0  0
  4  5  1  0  0  0
  5 19  1  0  0  0
  5  6  2  0  0  0
 19 20  2  0  0  0
 19 21  2  0  0  0
 19 22  1  0  0  0
 22 23  1  0  0  0
 22 27  1  0  0  0
 23 24  1  0  0  0
 24 25  1  0  0  0
 25 26  1  0  0  0
 26 27  1  0  0  0
 13 14  2  0  0  0
 13 18  1  0  0  0
 14 15  1  0  0  0
 15 16  2  0  0  0
 16 17  1  0  0  0
 17 18  2  0  0  0
M  END
> <minimizedAffinity>
-8.65021

$$$$
cs_R1_output_folder/data/smiles/43.pdb


 21 23  0  0  0  0  0  0  0  0999 V2000
   67.6473   48.3842   57.1557 C   0  0  0  0  0  0  0  0  0  0  0  0
   66.6913   50.0008   58.5158 O   0  0  0  0  0  0  0  0  0  0  0  0
   67.5633   49.7807   57.6015 C   0  0  0  0  0  0  0  0  0  0  0  0
   68.3576   50.8748   57.1086 C   0  0  0  0  0  0  0  0  0  0  0  0
   68.0168   51.6008   56.0011 C   0  0  0  0  0  0  0  0  0  0  0  0
   68.8060   52.6528   55.5478 C   0  0  0  0  0  0  0  0  0  0  0  0
   69.9681   52.9808   56.2287 C   0  0  0  0  0  0  0  0  0  0  0  0
   70.7466   53.9974   55.8029 F   0  0  0  0  0  0  0  0  0  0  0  0
   70.3344   52.2679   57.3452 C   0  0  0  0  0  0  0  0  0  0  0  0
   71.4730   52.6231   57.9720 F   0  0  0  0  0  0  0  0  0  0  0  0
   69.5244   51.2285   57.7661 C   0  0  0  0  0  0  0  0  0  0  0  0
   69.0993   47.9767   56.8587 C   0  0  0  0  0  0  0  0  0  0  0  0
   69.3748   48.1595   55.4093 C   0  0  0  0  0  0  0  0  0  0  0  0
   70.1633   49.1105   54.8445 N   0  0  0  0  0  0  0  0  0  0  0  0
   70.1724   48.9846   53.5327 N   0  0  0  0  0  0  0  0  0  0  0  0
   69.3917   47.9425   53.1564 C   0  0  0  0  0  0  0  0  0  0  0  0
   69.0774   47.4055   51.9240 C   0  0  0  0  0  0  0  0  0  0  0  0
   68.2361   46.3144   51.8465 C   0  0  0  0  0  0  0  0  0  0  0  0
   67.7281   45.7875   53.0270 C   0  0  0  0  0  0  0  0  0  0  0  0
   68.0584   46.3446   54.2524 C   0  0  0  0  0  0  0  0  0  0  0  0
   68.8929   47.4301   54.3414 C   0  0  0  0  0  0  0  0  0  0  0  0
  2  3  2  0  0  0
  3  1  1  0  0  0
  3  4  1  0  0  0
  1 12  1  0  0  0
 12 13  1  0  0  0
 13 14  1  0  0  0
 13 21  2  0  0  0
 14 15  1  0  0  0
 15 16  2  0  0  0
 16 17  1  0  0  0
 16 21  1  0  0  0
 17 18  2  0  0  0
 18 19  1  0  0  0
 19 20  2  0  0  0
 20 21  1  0  0  0
  4  5  2  0  0  0
  4 11  1  0  0  0
  5  6  1  0  0  0
  6  7  2  0  0  0
  7  8  1  0  0  0
  7  9  1  0  0  0
  9 10  1  0  0  0
  9 11  2  0  0  0
M  END
> <minimizedAffinity>
-7.43238

$$$$
cs_R1_output_folder/data/smiles/44.pdb


 29 32  0  0  0  0  0  0  0  0999 V2000
   73.2872   50.6546   55.7991 C   0  0  0  0  0  0  0  0  0  0  0  0
   72.7281   51.6124   54.8092 C   0  0  0  0  0  0  0  0  0  0  0  0
   71.2498   51.5726   54.7719 C   0  0  0  0  0  0  0  0  0  0  0  0
   70.6096   50.2843   55.2314 C   0  0  0  0  0  0  0  0  0  0  0  0
   71.1337   49.8460   56.5787 C   0  0  0  0  0  0  0  0  0  0  0  0
   72.3404   50.6464   57.0057 C   0  0  0  0  0  0  0  0  0  0  0  0
   75.3900   49.4441   54.6437 O   0  0  0  0  0  0  0  0  0  0  0  0
   75.7202   50.2471   55.5376 C   0  0  0  0  0  0  0  0  0  0  0  0
   74.6332   50.9311   56.1974 N   0  0  0  0  0  0  0  0  0  0  0  0
   77.1147   50.4615   55.8728 C   0  0  0  0  0  0  0  0  0  0  0  0
   77.4788   51.8260   55.7541 O   0  0  0  0  0  0  0  0  0  0  0  0
   77.6328   49.9097   57.1181 C   0  0  0  0  0  0  0  0  0  0  0  0
   78.7481   50.5601   57.6774 C   0  0  0  0  0  0  0  0  0  0  0  0
   79.3281   50.1519   58.8578 C   0  0  0  0  0  0  0  0  0  0  0  0
   78.8304   49.0742   59.5495 C   0  0  0  0  0  0  0  0  0  0  0  0
   79.3891   48.6504   60.7246 F   0  0  0  0  0  0  0  0  0  0  0  0
   77.7322   48.4288   59.0054 C   0  0  0  0  0  0  0  0  0  0  0  0
   77.1552   48.8411   57.8219 C   0  0  0  0  0  0  0  0  0  0  0  0
   76.1004   48.1477   57.3543 F   0  0  0  0  0  0  0  0  0  0  0  0
   70.7115   49.2520   54.2199 N   0  0  0  0  0  0  0  0  0  0  0  0
   69.7341   48.2488   53.9794 C   0  0  0  0  0  0  0  0  0  0  0  0
   69.1014   47.5685   54.9935 C   0  0  0  0  0  0  0  0  0  0  0  0
   68.1695   46.6015   54.6885 C   0  0  0  0  0  0  0  0  0  0  0  0
   67.8373   46.2802   53.3976 C   0  0  0  0  0  0  0  0  0  0  0  0
   66.9911   45.4079   52.8137 N   0  0  0  0  0  0  0  0  0  0  0  0
   67.0755   45.5198   51.5028 N   0  0  0  0  0  0  0  0  0  0  0  0
   67.9678   46.4578   51.1992 C   0  0  0  0  0  0  0  0  0  0  0  0
   68.4704   46.9602   52.3777 C   0  0  0  0  0  0  0  0  0  0  0  0
   69.4022   47.9273   52.6863 C   0  0  0  0  0  0  0  0  0  0  0  0
  7  8  2  0  0  0
  8  9  1  0  0  0
  8 10  1  0  0  0
  1  9  1  0  0  0
  1  2  1  0  0  0
  1  6  1  0  0  0
  2  3  1  0  0  0
  3  4  1  0  0  0
  4 20  1  0  0  0
  4  5  1  0  0  0
 20 21  1  0  0  0
 21 22  2  0  0  0
 21 29  1  0  0  0
 22 23  1  0  0  0
 23 24  2  0  0  0
 24 25  1  0  0  0
 24 28  1  0  0  0
 25 26  1  0  0  0
 26 27  2  0  0  0
 27 28  1  0  0  0
 28 29  2  0  0  0
  5  6  1  0  0  0
 10 11  1  0  0  0
 10 12  1  0  0  0
 12 13  2  0  0  0
 12 18  1  0  0  0
 13 14  1  0  0  0
 14 15  2  0  0  0
 15 16  1  0  0  0
 15 17  1  0  0  0
 17 18  2  0  0  0
 18 19  1  0  0  0
M  END
> <minimizedAffinity>
-8.65873

$$$$
cs_R1_output_folder/data/smiles/45.pdb


 22 25  0  0  0  0  0  0  0  0999 V2000
   76.3875   35.1757   55.3126 O   0  0  0  0  0  0  0  0  0  0  0  0
   75.1705   35.2091   55.0617 C   0  0  0  0  0  0  0  0  0  0  0  0
   74.1871   35.3036   56.0010 N   0  0  0  0  0  0  0  0  0  0  0  0
   73.0067   35.3109   55.4125 N   0  0  0  0  0  0  0  0  0  0  0  0
   73.1755   35.2226   54.0798 C   0  0  0  0  0  0  0  0  0  0  0  0
   74.5261   35.1633   53.8983 N   0  0  0  0  0  0  0  0  0  0  0  0
   75.2028   35.0655   52.6501 C   0  0  0  0  0  0  0  0  0  0  0  0
   76.4400   35.6311   52.6927 C   0  0  0  0  0  0  0  0  0  0  0  0
   77.1882   35.5732   51.5374 C   0  0  0  0  0  0  0  0  0  0  0  0
   76.7532   34.9863   50.3766 C   0  0  0  0  0  0  0  0  0  0  0  0
   75.4779   34.4235   50.3871 C   0  0  0  0  0  0  0  0  0  0  0  0
   74.7061   34.4542   51.4922 C   0  0  0  0  0  0  0  0  0  0  0  0
   73.3337   33.8511   51.3689 C   0  0  0  0  0  0  0  0  0  0  0  0
   72.4041   35.0194   51.6952 C   0  0  0  0  0  0  0  0  0  0  0  0
   72.0764   35.1870   53.1225 C   0  0  0  0  0  0  0  0  0  0  0  0
   77.5477   34.9236   49.1537 C   0  0  0  0  0  0  0  0  0  0  0  0
   76.9244   34.6041   47.9647 C   0  0  0  0  0  0  0  0  0  0  0  0
   77.6585   34.5369   46.7780 C   0  0  0  0  0  0  0  0  0  0  0  0
   79.0083   34.7833   46.7572 C   0  0  0  0  0  0  0  0  0  0  0  0
   79.6383   35.1018   47.9338 C   0  0  0  0  0  0  0  0  0  0  0  0
   80.9759   35.3525   47.9491 F   0  0  0  0  0  0  0  0  0  0  0  0
   78.9017   35.1690   49.1163 C   0  0  0  0  0  0  0  0  0  0  0  0
  1  2  2  0  0  0
  2  3  1  0  0  0
  2  6  1  0  0  0
  3  4  1  0  0  0
  4  5  2  0  0  0
  5  6  1  0  0  0
  5 15  1  0  0  0
  6  7  1  0  0  0
  7  8  2  0  0  0
  7 12  1  0  0  0
  8  9  1  0  0  0
  9 10  2  0  0  0
 10 16  1  0  0  0
 10 11  1  0  0  0
 16 17  2  0  0  0
 16 22  1  0  0  0
 17 18  1  0  0  0
 18 19  2  0  0  0
 19 20  1  0  0  0
 20 21  1  0  0  0
 20 22  2  0  0  0
 11 12  2  0  0  0
 12 13  1  0  0  0
 13 14  1  0  0  0
 14 15  1  0  0  0
M  END
> <minimizedAffinity>
-7.71800

$$$$
cs_R1_output_folder/data/smiles/46.pdb


 24 25  0  0  0  0  0  0  0  0999 V2000
   68.5567   47.0479   54.0149 C   0  0  0  0  0  0  0  0  0  0  0  0
   68.5122   45.8091   54.6316 C   0  0  0  0  0  0  0  0  0  0  0  0
   68.8538   45.6667   55.9587 C   0  0  0  0  0  0  0  0  0  0  0  0
   69.2445   46.7795   56.6785 C   0  0  0  0  0  0  0  0  0  0  0  0
   69.2826   48.0088   56.0463 C   0  0  0  0  0  0  0  0  0  0  0  0
   68.9438   48.1657   54.7203 C   0  0  0  0  0  0  0  0  0  0  0  0
   68.9700   49.4030   54.0376 N   0  0  0  0  0  0  0  0  0  0  0  0
   70.1234   49.8755   53.3245 C   0  0  0  0  0  0  0  0  0  0  0  0
   70.1108   51.1243   52.6507 N   0  0  0  0  0  0  0  0  0  0  0  0
   71.1499   49.1758   53.2986 O   0  0  0  0  0  0  0  0  0  0  0  0
   67.9086   46.1018   51.8336 C   0  0  0  0  0  0  0  0  0  0  0  0
   68.2107   47.1389   52.7039 O   0  0  0  0  0  0  0  0  0  0  0  0
   69.5995   46.6435   58.0501 N   0  0  0  0  0  0  0  0  0  0  0  0
   71.2144   46.5609   58.6040 S   0  0  0  0  0  0  0  0  0  0  0  0
   72.0461   47.5337   57.8298 O   0  0  0  0  0  0  0  0  0  0  0  0
   71.2840   46.8847   60.0706 O   0  0  0  0  0  0  0  0  0  0  0  0
   71.8928   44.9631   58.3482 C   0  0  0  0  0  0  0  0  0  0  0  0
   71.2514   43.8209   58.3882 C   0  0  0  0  0  0  0  0  0  0  0  0
   69.9310   43.6352   58.6354 F   0  0  0  0  0  0  0  0  0  0  0  0
   72.2245   42.7477   58.1134 C   0  0  0  0  0  0  0  0  0  0  0  0
   71.8408   42.0505   56.9791 F   0  0  0  0  0  0  0  0  0  0  0  0
   73.5082   43.4434   57.9117 C   0  0  0  0  0  0  0  0  0  0  0  0
   73.3003   44.7447   58.0519 C   0  0  0  0  0  0  0  0  0  0  0  0
   74.2595   45.6950   57.9342 F   0  0  0  0  0  0  0  0  0  0  0  0
 11 12  1  0  0  0
 12  1  1  0  0  0
  1  2  2  0  0  0
  1  6  1  0  0  0
  2  3  1  0  0  0
  3  4  2  0  0  0
  4 13  1  0  0  0
  4  5  1  0  0  0
 13 14  1  0  0  0
 14 15  2  0  0  0
 14 16  2  0  0  0
 14 17  1  0  0  0
 17 18  2  0  0  0
 17 23  1  0  0  0
 18 19  1  0  0  0
 18 20  1  0  0  0
 20 21  1  0  0  0
 20 22  1  0  0  0
 22 23  2  0  0  0
 23 24  1  0  0  0
  5  6  2  0  0  0
  6  7  1  0  0  0
  7  8  1  0  0  0
  8  9  1  0  0  0
  8 10  2  0  0  0
M  END
> <minimizedAffinity>
-6.81056

$$$$
cs_R1_output_folder/data/smiles/47.pdb


 27 28  0  0  0  0  0  0  0  0999 V2000
   71.2198   48.8456   57.8744 C   0  0  0  0  0  0  0  0  0  0  0  0
   70.6690   49.6528   58.8371 C   0  0  0  0  0  0  0  0  0  0  0  0
   70.2879   50.9542   58.5175 C   0  0  0  0  0  0  0  0  0  0  0  0
   70.4629   51.4324   57.2582 C   0  0  0  0  0  0  0  0  0  0  0  0
   71.0059   50.6882   56.2953 C   0  0  0  0  0  0  0  0  0  0  0  0
   71.4066   49.3670   56.5883 C   0  0  0  0  0  0  0  0  0  0  0  0
   70.6201   46.3263   57.8722 C   0  0  0  0  0  0  0  0  0  0  0  0
   70.8780   47.4313   57.8666 C   0  0  0  0  0  0  0  0  0  0  0  0
   70.0076   43.7139   57.8379 C   0  0  0  0  0  0  0  0  0  0  0  0
   70.3247   45.1064   57.8599 C   0  0  0  0  0  0  0  0  0  0  0  0
   68.5207   41.9811   57.1862 C   0  0  0  0  0  0  0  0  0  0  0  0
   69.6705   42.3334   57.8272 C   0  0  0  0  0  0  0  0  0  0  0  0
   67.7558   39.3939   59.4010 O   0  0  0  0  0  0  0  0  0  0  0  0
   68.1610   39.8749   58.3015 C   0  0  0  0  0  0  0  0  0  0  0  0
   68.2023   40.5795   57.1782 C   0  0  0  0  0  0  0  0  0  0  0  0
   67.9446   40.0056   55.8945 N   0  0  0  0  0  0  0  0  0  0  0  0
   67.1032   40.5428   55.0323 O   0  0  0  0  0  0  0  0  0  0  0  0
   71.1221   51.0371   54.8821 N   0  0  0  0  0  0  0  0  0  0  0  0
   69.7892   50.7074   53.8189 S   0  0  0  0  0  0  0  0  0  0  0  0
   70.1842   51.3880   52.5217 O   0  0  0  0  0  0  0  0  0  0  0  0
   68.6225   51.4985   54.2791 O   0  0  0  0  0  0  0  0  0  0  0  0
   69.3793   49.0606   53.6064 C   0  0  0  0  0  0  0  0  0  0  0  0
   69.5612   48.3995   52.3575 C   0  0  0  0  0  0  0  0  0  0  0  0
   69.1815   47.1005   52.2134 C   0  0  0  0  0  0  0  0  0  0  0  0
   68.6229   46.3371   53.1737 C   0  0  0  0  0  0  0  0  0  0  0  0
   68.4299   46.9604   54.4049 C   0  0  0  0  0  0  0  0  0  0  0  0
   68.8083   48.2880   54.6084 C   0  0  0  0  0  0  0  0  0  0  0  0
 13 14  2  0  0  0
 14 15  2  0  0  0
 15 11  1  0  0  0
 15 16  1  0  0  0
 11 12  2  0  0  0
 12  9  1  0  0  0
  9 10  3  0  0  0
 10  7  1  0  0  0
  7  8  3  0  0  0
  8  1  1  0  0  0
  1  2  2  0  0  0
  1  6  1  0  0  0
  2  3  1  0  0  0
  3  4  2  0  0  0
  4  5  1  0  0  0
  5 18  1  0  0  0
  5  6  2  0  0  0
 18 19  1  0  0  0
 19 20  2  0  0  0
 19 21  2  0  0  0
 19 22  1  0  0  0
 22 23  2  0  0  0
 22 27  1  0  0  0
 23 24  1  0  0  0
 24 25  2  0  0  0
 25 26  1  0  0  0
 26 27  2  0  0  0
 16 17  1  0  0  0
M  END
> <minimizedAffinity>
-7.97473

$$$$
cs_R1_output_folder/data/smiles/48.pdb


 24 27  0  0  0  0  0  0  0  0999 V2000
   68.2708   45.3139   55.2788 C   0  0  0  0  0  0  0  0  0  0  0  0
   68.0960   45.3790   53.8951 C   0  0  0  0  0  0  0  0  0  0  0  0
   68.4850   46.4553   53.1245 C   0  0  0  0  0  0  0  0  0  0  0  0
   69.0703   47.4975   53.7806 C   0  0  0  0  0  0  0  0  0  0  0  0
   69.2808   47.5155   55.1472 C   0  0  0  0  0  0  0  0  0  0  0  0
   68.8864   46.4416   55.8773 C   0  0  0  0  0  0  0  0  0  0  0  0
   69.9148   48.6054   55.9154 C   0  0  0  0  0  0  0  0  0  0  0  0
   69.5492   49.9827   55.6505 C   0  0  0  0  0  0  0  0  0  0  0  0
   68.9948   50.4777   54.4064 C   0  0  0  0  0  0  0  0  0  0  0  0
   69.3969   49.8743   53.1304 C   0  0  0  0  0  0  0  0  0  0  0  0
   69.8030   50.4688   51.9974 N   0  0  0  0  0  0  0  0  0  0  0  0
   70.0644   49.5184   51.0833 N   0  0  0  0  0  0  0  0  0  0  0  0
   69.8290   48.3136   51.6235 C   0  0  0  0  0  0  0  0  0  0  0  0
   69.9757   47.2345   51.0451 O   0  0  0  0  0  0  0  0  0  0  0  0
   69.4250   48.5375   52.8614 N   0  0  0  0  0  0  0  0  0  0  0  0
   67.9152   44.3026   56.0947 O   0  0  0  0  0  0  0  0  0  0  0  0
   67.7851   42.9660   55.9247 C   0  0  0  0  0  0  0  0  0  0  0  0
   67.9422   38.6651   58.1962 N   0  0  0  0  0  0  0  0  0  0  0  0
   68.5618   39.9124   57.9050 C   0  0  0  0  0  0  0  0  0  0  0  0
   69.7957   40.1546   58.4558 C   0  0  0  0  0  0  0  0  0  0  0  0
   70.4043   41.3610   58.1794 C   0  0  0  0  0  0  0  0  0  0  0  0
   69.7572   42.2763   57.3661 C   0  0  0  0  0  0  0  0  0  0  0  0
   68.5336   42.0541   56.8109 C   0  0  0  0  0  0  0  0  0  0  0  0
   67.9218   40.8281   57.0956 C   0  0  0  0  0  0  0  0  0  0  0  0
 18 19  1  0  0  0
 19 20  2  0  0  0
 19 24  1  0  0  0
 20 21  1  0  0  0
 21 22  2  0  0  0
 22 23  1  0  0  0
 23 17  1  0  0  0
 23 24  2  0  0  0
 17 16  1  0  0  0
 16  1  1  0  0  0
  1  2  2  0  0  0
  1  6  1  0  0  0
  2  3  1  0  0  0
  3  4  2  0  0  0
  4  5  1  0  0  0
  4 15  1  0  0  0
  5  6  2  0  0  0
  5  7  1  0  0  0
  7  8  1  0  0  0
  8  9  1  0  0  0
  9 10  1  0  0  0
 10 11  2  0  0  0
 10 15  1  0  0  0
 11 12  1  0  0  0
 12 13  1  0  0  0
 13 14  2  0  0  0
 13 15  1  0  0  0
M  END
> <minimizedAffinity>
-9.54707

$$$$
cs_R1_output_folder/data/smiles/49.pdb


 22 24  0  0  0  0  0  0  0  0999 V2000
   68.4663   45.1427   56.2702 N   0  0  0  0  0  0  0  0  0  0  0  0
   68.7174   46.1730   55.5929 C   0  0  0  0  0  0  0  0  0  0  0  0
   68.5461   46.3570   54.1567 C   0  0  0  0  0  0  0  0  0  0  0  0
   69.1648   47.3328   53.4143 C   0  0  0  0  0  0  0  0  0  0  0  0
   68.9681   47.4698   52.0318 C   0  0  0  0  0  0  0  0  0  0  0  0
   68.1276   46.6056   51.3682 C   0  0  0  0  0  0  0  0  0  0  0  0
   67.5173   45.6336   52.1331 C   0  0  0  0  0  0  0  0  0  0  0  0
   67.7306   45.5357   53.4544 N   0  0  0  0  0  0  0  0  0  0  0  0
   67.9813   43.9202   55.9479 N   0  0  0  0  0  0  0  0  0  0  0  0
   69.2319   40.4710   57.9684 C   0  0  0  0  0  0  0  0  0  0  0  0
   68.0289   40.4771   57.2921 C   0  0  0  0  0  0  0  0  0  0  0  0
   67.6256   41.6089   56.6324 C   0  0  0  0  0  0  0  0  0  0  0  0
   68.4173   42.7485   56.6401 C   0  0  0  0  0  0  0  0  0  0  0  0
   69.5852   42.7000   57.3141 N   0  0  0  0  0  0  0  0  0  0  0  0
   70.0067   41.6104   57.9676 C   0  0  0  0  0  0  0  0  0  0  0  0
   69.2437   47.3134   56.3335 N   0  0  0  0  0  0  0  0  0  0  0  0
   68.3753   48.2855   56.8929 C   0  0  0  0  0  0  0  0  0  0  0  0
   68.7415   49.5944   56.8128 C   0  0  0  0  0  0  0  0  0  0  0  0
   67.9384   50.6059   57.3398 C   0  0  0  0  0  0  0  0  0  0  0  0
   66.7581   50.2356   57.9464 C   0  0  0  0  0  0  0  0  0  0  0  0
   66.4425   48.8976   57.9963 C   0  0  0  0  0  0  0  0  0  0  0  0
   67.2357   47.9481   57.4807 N   0  0  0  0  0  0  0  0  0  0  0  0
 10 11  2  0  0  0
 10 15  1  0  0  0
 11 12  1  0  0  0
 12 13  2  0  0  0
 13  9  1  0  0  0
 13 14  1  0  0  0
  9  1  1  0  0  0
  1  2  2  0  0  0
  2 16  1  0  0  0
  2  3  1  0  0  0
 16 17  1  0  0  0
 17 18  2  0  0  0
 17 22  1  0  0  0
 18 19  1  0  0  0
 19 20  2  0  0  0
 20 21  1  0  0  0
 21 22  2  0  0  0
  3  4  2  0  0  0
  3  8  1  0  0  0
  4  5  1  0  0  0
  5  6  2  0  0  0
  6  7  1  0  0  0
  7  8  2  0  0  0
 14 15  2  0  0  0
M  CHG 1   1   1
M  END
> <minimizedAffinity>
-9.14308

$$$$
cs_R1_output_folder/data/smiles/50.pdb


 25 26  0  0  0  0  0  0  0  0999 V2000
   70.0310   49.0593   52.4097 S   0  0  0  0  0  0  0  0  0  0  0  0
   71.4731   49.1084   52.8597 O   0  0  0  0  0  0  0  0  0  0  0  0
   70.0520   48.9786   50.8874 O   0  0  0  0  0  0  0  0  0  0  0  0
   69.2233   47.6703   53.0341 C   0  0  0  0  0  0  0  0  0  0  0  0
   68.5562   46.7861   52.2196 C   0  0  0  0  0  0  0  0  0  0  0  0
   68.4975   46.9588   50.8750 F   0  0  0  0  0  0  0  0  0  0  0  0
   67.9080   45.6688   52.7402 C   0  0  0  0  0  0  0  0  0  0  0  0
   67.2479   44.7872   51.9678 F   0  0  0  0  0  0  0  0  0  0  0  0
   67.9262   45.4259   54.1104 C   0  0  0  0  0  0  0  0  0  0  0  0
   67.2892   44.3289   54.6195 F   0  0  0  0  0  0  0  0  0  0  0  0
   68.5924   46.3095   54.9216 C   0  0  0  0  0  0  0  0  0  0  0  0
   68.6334   46.1120   56.2500 F   0  0  0  0  0  0  0  0  0  0  0  0
   69.2268   47.4087   54.3885 C   0  0  0  0  0  0  0  0  0  0  0  0
   69.8726   48.2486   55.2571 F   0  0  0  0  0  0  0  0  0  0  0  0
   69.2856   50.5332   52.8570 N   0  0  0  0  0  0  0  0  0  0  0  0
   70.4835   52.7840   56.2297 C   0  0  0  0  0  0  0  0  0  0  0  0
   71.3158   52.6203   55.1449 C   0  0  0  0  0  0  0  0  0  0  0  0
   70.9221   51.8790   54.0338 C   0  0  0  0  0  0  0  0  0  0  0  0
   69.6772   51.2895   53.9987 C   0  0  0  0  0  0  0  0  0  0  0  0
   68.8607   51.4633   55.0912 C   0  0  0  0  0  0  0  0  0  0  0  0
   69.2203   52.1916   56.2065 C   0  0  0  0  0  0  0  0  0  0  0  0
   72.2133   53.6940   57.6679 C   0  0  0  0  0  0  0  0  0  0  0  0
   70.8594   53.5185   57.3437 O   0  0  0  0  0  0  0  0  0  0  0  0
   68.3520   52.3521   57.3185 N   0  0  0  0  0  0  0  0  0  0  0  0
   67.3226   51.5301   57.5554 F   0  0  0  0  0  0  0  0  0  0  0  0
 22 23  1  0  0  0
 23 16  1  0  0  0
 16 17  2  0  0  0
 16 21  1  0  0  0
 17 18  1  0  0  0
 18 19  2  0  0  0
 19 15  1  0  0  0
 19 20  1  0  0  0
 15  1  1  0  0  0
  1  2  2  0  0  0
  1  3  2  0  0  0
  1  4  1  0  0  0
  4  5  2  0  0  0
  4 13  1  0  0  0
  5  6  1  0  0  0
  5  7  1  0  0  0
  7  8  1  0  0  0
  7  9  2  0  0  0
  9 10  1  0  0  0
  9 11  1  0  0  0
 11 12  1  0  0  0
 11 13  2  0  0  0
 13 14  1  0  0  0
 20 21  2  0  0  0
 21 24  1  0  0  0
 24 25  1  0  0  0
M  END
> <minimizedAffinity>
-8.63346

$$$$
cs_R1_output_folder/data/smiles/51.pdb


 26 29  0  0  0  0  0  0  0  0999 V2000
   68.4785   47.7201   55.9867 C   0  0  0  0  0  0  0  0  0  0  0  0
   68.2750   46.4296   56.3273 N   0  0  0  0  0  0  0  0  0  0  0  0
   68.4164   45.4171   55.4575 C   0  0  0  0  0  0  0  0  0  0  0  0
   68.7775   45.7265   54.2013 N   0  0  0  0  0  0  0  0  0  0  0  0
   68.9960   47.0020   53.8041 C   0  0  0  0  0  0  0  0  0  0  0  0
   69.3663   47.3245   52.5150 C   0  0  0  0  0  0  0  0  0  0  0  0
   69.5903   48.6052   52.0974 C   0  0  0  0  0  0  0  0  0  0  0  0
   69.4446   49.6482   52.9891 C   0  0  0  0  0  0  0  0  0  0  0  0
   69.0729   49.3443   54.2893 C   0  0  0  0  0  0  0  0  0  0  0  0
   68.8501   48.0450   54.6978 C   0  0  0  0  0  0  0  0  0  0  0  0
   68.1919   44.0202   55.8425 C   0  0  0  0  0  0  0  0  0  0  0  0
   69.0274   43.3701   56.7237 C   0  0  0  0  0  0  0  0  0  0  0  0
   68.7827   42.0492   57.0629 C   0  0  0  0  0  0  0  0  0  0  0  0
   67.7134   41.3558   56.5376 C   0  0  0  0  0  0  0  0  0  0  0  0
   66.8946   42.0458   55.6524 C   0  0  0  0  0  0  0  0  0  0  0  0
   67.1565   43.3222   55.3440 N   0  0  0  0  0  0  0  0  0  0  0  0
   68.2739   49.0268   57.1892 S   0  0  0  0  0  0  0  0  0  0  0  0
   72.4507   50.3538   58.6274 C   0  0  0  0  0  0  0  0  0  0  0  0
   72.2194   49.0599   58.2209 C   0  0  0  0  0  0  0  0  0  0  0  0
   70.9616   48.6584   57.7874 C   0  0  0  0  0  0  0  0  0  0  0  0
   69.9043   49.5457   57.7503 C   0  0  0  0  0  0  0  0  0  0  0  0
   70.1318   50.8420   58.1567 C   0  0  0  0  0  0  0  0  0  0  0  0
   71.3946   51.2344   58.5890 C   0  0  0  0  0  0  0  0  0  0  0  0
   74.2772   50.4089   60.3695 N   0  0  0  0  0  0  0  0  0  0  0  0
   73.7872   50.7614   59.0833 C   0  0  0  0  0  0  0  0  0  0  0  0
   74.5534   51.4407   58.3548 O   0  0  0  0  0  0  0  0  0  0  0  0
 24 25  1  0  0  0
 25 26  2  0  0  0
 25 18  1  0  0  0
 18 19  2  0  0  0
 18 23  1  0  0  0
 19 20  1  0  0  0
 20 21  2  0  0  0
 21 17  1  0  0  0
 21 22  1  0  0  0
 17  1  1  0  0  0
  1  2  2  0  0  0
  1 10  1  0  0  0
  2  3  1  0  0  0
  3 11  1  0  0  0
  3  4  2  0  0  0
 11 12  2  0  0  0
 11 16  1  0  0  0
 12 13  1  0  0  0
 13 14  2  0  0  0
 14 15  1  0  0  0
 15 16  2  0  0  0
  4  5  1  0  0  0
  5  6  1  0  0  0
  5 10  2  0  0  0
  6  7  2  0  0  0
  7  8  1  0  0  0
  8  9  2  0  0  0
  9 10  1  0  0  0
 22 23  2  0  0  0
M  END
> <minimizedAffinity>
-7.99813

$$$$
cs_R1_output_folder/data/smiles/52.pdb


 25 27  0  0  0  0  0  0  0  0999 V2000
   68.6761   47.7452   53.8682 C   0  0  0  0  0  0  0  0  0  0  0  0
   68.5834   46.7729   52.9158 C   0  0  0  0  0  0  0  0  0  0  0  0
   69.3471   47.1664   51.8186 C   0  0  0  0  0  0  0  0  0  0  0  0
   69.8680   48.3573   52.1452 N   0  0  0  0  0  0  0  0  0  0  0  0
   69.4856   48.7188   53.3469 N   0  0  0  0  0  0  0  0  0  0  0  0
   69.8582   49.9446   53.9925 C   0  0  0  0  0  0  0  0  0  0  0  0
   68.9852   51.0081   54.0752 C   0  0  0  0  0  0  0  0  0  0  0  0
   69.3327   52.1756   54.6906 C   0  0  0  0  0  0  0  0  0  0  0  0
   70.5738   52.3394   55.2560 C   0  0  0  0  0  0  0  0  0  0  0  0
   71.0055   53.8436   56.0437 Cl  0  0  0  0  0  0  0  0  0  0  0  0
   71.4441   51.2734   55.1716 C   0  0  0  0  0  0  0  0  0  0  0  0
   71.1060   50.0941   54.5545 C   0  0  0  0  0  0  0  0  0  0  0  0
   67.7938   45.5702   52.8842 C   0  0  0  0  0  0  0  0  0  0  0  0
   66.9804   45.2343   51.7802 N   0  0  0  0  0  0  0  0  0  0  0  0
   67.8255   44.7710   53.8749 O   0  0  0  0  0  0  0  0  0  0  0  0
   68.1325   47.7839   55.2470 C   0  0  0  0  0  0  0  0  0  0  0  0
   70.6272   47.6571   58.0943 C   0  0  0  0  0  0  0  0  0  0  0  0
   70.7942   46.3046   58.2198 C   0  0  0  0  0  0  0  0  0  0  0  0
   70.0941   45.4526   57.3725 C   0  0  0  0  0  0  0  0  0  0  0  0
   69.2444   45.9430   56.4186 C   0  0  0  0  0  0  0  0  0  0  0  0
   69.0665   47.3088   56.2810 C   0  0  0  0  0  0  0  0  0  0  0  0
   69.7525   48.1487   57.1115 C   0  0  0  0  0  0  0  0  0  0  0  0
   71.7416   49.8436   58.4661 N   0  0  0  0  0  0  0  0  0  0  0  0
   71.3212   48.5961   58.9434 C   0  0  0  0  0  0  0  0  0  0  0  0
   71.5591   48.2978   60.1412 O   0  0  0  0  0  0  0  0  0  0  0  0
 23 24  1  0  0  0
 24 25  2  0  0  0
 24 17  1  0  0  0
 17 18  2  0  0  0
 17 22  1  0  0  0
 18 19  1  0  0  0
 19 20  2  0  0  0
 20 21  1  0  0  0
 21 16  1  0  0  0
 21 22  2  0  0  0
 16  1  1  0  0  0
  1  2  2  0  0  0
  1  5  1  0  0  0
  2 13  1  0  0  0
  2  3  1  0  0  0
 13 14  1  0  0  0
 13 15  2  0  0  0
  3  4  2  0  0  0
  4  5  1  0  0  0
  5  6  1  0  0  0
  6  7  2  0  0  0
  6 12  1  0  0  0
  7  8  1  0  0  0
  8  9  2  0  0  0
  9 10  1  0  0  0
  9 11  1  0  0  0
 11 12  2  0  0  0
M  END
> <minimizedAffinity>
-7.70317

$$$$
cs_R1_output_folder/data/smiles/53.pdb


 25 27  0  0  0  0  0  0  0  0999 V2000
   68.5889   47.8491   56.6982 C   0  0  0  0  0  0  0  0  0  0  0  0
   67.4511   47.6237   57.1064 O   0  0  0  0  0  0  0  0  0  0  0  0
   69.0881   48.1377   55.3710 C   0  0  0  0  0  0  0  0  0  0  0  0
   69.9364   49.2297   55.1754 C   0  0  0  0  0  0  0  0  0  0  0  0
   70.4159   49.5190   53.9398 C   0  0  0  0  0  0  0  0  0  0  0  0
   71.1845   50.5209   53.8071 O   0  0  0  0  0  0  0  0  0  0  0  0
   70.0958   48.7772   52.8789 N   0  0  0  0  0  0  0  0  0  0  0  0
   69.2898   47.7279   53.0213 C   0  0  0  0  0  0  0  0  0  0  0  0
   68.9685   46.9670   51.9006 C   0  0  0  0  0  0  0  0  0  0  0  0
   68.1432   45.8876   52.0335 C   0  0  0  0  0  0  0  0  0  0  0  0
   67.6288   45.5508   53.2656 C   0  0  0  0  0  0  0  0  0  0  0  0
   67.9356   46.2968   54.4051 C   0  0  0  0  0  0  0  0  0  0  0  0
   68.7636   47.3800   54.2744 C   0  0  0  0  0  0  0  0  0  0  0  0
   69.5477   47.8060   57.7503 O   0  0  0  0  0  0  0  0  0  0  0  0
   70.5624   46.8404   57.8340 C   0  0  0  0  0  0  0  0  0  0  0  0
   69.7778   44.9317   59.0580 O   0  0  0  0  0  0  0  0  0  0  0  0
   70.0533   45.4506   57.9142 C   0  0  0  0  0  0  0  0  0  0  0  0
   69.8241   44.5913   56.8131 N   0  0  0  0  0  0  0  0  0  0  0  0
   69.3326   43.2564   57.0013 C   0  0  0  0  0  0  0  0  0  0  0  0
   68.1570   42.8958   56.3827 C   0  0  0  0  0  0  0  0  0  0  0  0
   67.6306   41.6071   56.5308 C   0  0  0  0  0  0  0  0  0  0  0  0
   68.2825   40.6888   57.2971 C   0  0  0  0  0  0  0  0  0  0  0  0
   67.7683   39.4469   57.4347 F   0  0  0  0  0  0  0  0  0  0  0  0
   69.4683   41.0281   57.9304 C   0  0  0  0  0  0  0  0  0  0  0  0
   69.9620   42.3043   57.7652 C   0  0  0  0  0  0  0  0  0  0  0  0
 16 17  2  0  0  0
 17 15  1  0  0  0
 17 18  1  0  0  0
 15 14  1  0  0  0
 14  1  1  0  0  0
  1  2  2  0  0  0
  1  3  1  0  0  0
  3  4  2  0  0  0
  3 13  1  0  0  0
  4  5  1  0  0  0
  5  6  2  0  0  0
  5  7  1  0  0  0
  7  8  1  0  0  0
  8  9  1  0  0  0
  8 13  2  0  0  0
  9 10  2  0  0  0
 10 11  1  0  0  0
 11 12  2  0  0  0
 12 13  1  0  0  0
 18 19  1  0  0  0
 19 20  2  0  0  0
 19 25  1  0  0  0
 20 21  1  0  0  0
 21 22  2  0  0  0
 22 23  1  0  0  0
 22 24  1  0  0  0
 24 25  2  0  0  0
M  END
> <minimizedAffinity>
-8.88173

$$$$
cs_R1_output_folder/data/smiles/54.pdb


 22 23  0  0  0  0  0  0  0  0999 V2000
   67.8713   46.9075   56.7214 O   0  0  0  0  0  0  0  0  0  0  0  0
   68.8887   46.6571   56.0299 C   0  0  0  0  0  0  0  0  0  0  0  0
   70.0519   46.3129   56.7283 N   0  0  0  0  0  0  0  0  0  0  0  0
   68.7489   46.7521   54.5831 C   0  0  0  0  0  0  0  0  0  0  0  0
   67.9930   45.8472   53.8764 C   0  0  0  0  0  0  0  0  0  0  0  0
   67.8687   45.9486   52.5024 C   0  0  0  0  0  0  0  0  0  0  0  0
   68.5000   46.9633   51.7920 C   0  0  0  0  0  0  0  0  0  0  0  0
   69.2546   47.8666   52.5023 C   0  0  0  0  0  0  0  0  0  0  0  0
   69.3674   47.7459   53.8896 C   0  0  0  0  0  0  0  0  0  0  0  0
   69.9035   48.9066   51.7831 N   0  0  0  0  0  0  0  0  0  0  0  0
   69.7440   50.1009   52.0116 O   0  0  0  0  0  0  0  0  0  0  0  0
   70.7650   48.5311   50.7658 O   0  0  0  0  0  0  0  0  0  0  0  0
   70.3081   46.1886   58.0923 C   0  0  0  0  0  0  0  0  0  0  0  0
   71.0004   47.6067   58.7433 S   0  0  0  0  0  0  0  0  0  0  0  0
   70.1277   45.1835   59.0192 N   0  0  0  0  0  0  0  0  0  0  0  0
   70.2738   43.7896   58.9497 C   0  0  0  0  0  0  0  0  0  0  0  0
   71.1164   43.2191   57.9851 C   0  0  0  0  0  0  0  0  0  0  0  0
   71.2941   41.8616   57.9351 C   0  0  0  0  0  0  0  0  0  0  0  0
   70.6564   41.0347   58.8220 C   0  0  0  0  0  0  0  0  0  0  0  0
   69.8310   41.6099   59.7649 C   0  0  0  0  0  0  0  0  0  0  0  0
   69.1716   40.7937   60.6783 O   0  0  0  0  0  0  0  0  0  0  0  0
   69.6106   42.9621   59.8686 C   0  0  0  0  0  0  0  0  0  0  0  0
  1  2  2  0  0  0
  2  3  1  0  0  0
  2  4  1  0  0  0
  3 13  1  0  0  0
 13 14  2  0  0  0
 13 15  1  0  0  0
 15 16  1  0  0  0
 16 17  2  0  0  0
 16 22  1  0  0  0
 17 18  1  0  0  0
 18 19  2  0  0  0
 19 20  1  0  0  0
 20 21  1  0  0  0
 20 22  2  0  0  0
  4  5  2  0  0  0
  4  9  1  0  0  0
  5  6  1  0  0  0
  6  7  2  0  0  0
  7  8  1  0  0  0
  8 10  1  0  0  0
  8  9  2  0  0  0
 10 11  2  0  0  0
 10 12  1  0  0  0
M  CHG 1  10   1
M  CHG 1  12  -1
M  END
> <minimizedAffinity>
-7.58340

$$$$
cs_R1_output_folder/data/smiles/55.pdb


 19 20  0  0  0  0  0  0  0  0999 V2000
   68.2562   46.4951   56.0274 N   0  0  0  0  0  0  0  0  0  0  0  0
   69.3629   47.7144   52.7330 C   0  0  0  0  0  0  0  0  0  0  0  0
   68.6946   46.8394   51.8983 C   0  0  0  0  0  0  0  0  0  0  0  0
   67.8830   45.8411   52.3969 C   0  0  0  0  0  0  0  0  0  0  0  0
   67.7182   45.6924   53.7750 C   0  0  0  0  0  0  0  0  0  0  0  0
   68.3700   46.5490   54.6323 C   0  0  0  0  0  0  0  0  0  0  0  0
   69.1821   47.5449   54.0857 C   0  0  0  0  0  0  0  0  0  0  0  0
   71.2327   49.0910   52.8379 O   0  0  0  0  0  0  0  0  0  0  0  0
   70.2122   48.7593   52.2028 C   0  0  0  0  0  0  0  0  0  0  0  0
   69.9144   49.3881   51.0155 O   0  0  0  0  0  0  0  0  0  0  0  0
   69.2853   45.9765   56.8674 C   0  0  0  0  0  0  0  0  0  0  0  0
   69.6111   44.6388   56.8956 C   0  0  0  0  0  0  0  0  0  0  0  0
   70.6400   44.1698   57.7214 C   0  0  0  0  0  0  0  0  0  0  0  0
   71.3330   45.0573   58.5148 C   0  0  0  0  0  0  0  0  0  0  0  0
   71.0361   46.4209   58.5188 C   0  0  0  0  0  0  0  0  0  0  0  0
   70.0183   46.8265   57.6898 C   0  0  0  0  0  0  0  0  0  0  0  0
   71.7823   47.3358   59.3668 C   0  0  0  0  0  0  0  0  0  0  0  0
   72.5727   48.1498   58.8455 O   0  0  0  0  0  0  0  0  0  0  0  0
   71.6439   47.3351   60.7370 O   0  0  0  0  0  0  0  0  0  0  0  0
  8  9  2  0  0  0
  9 10  1  0  0  0
  9  2  1  0  0  0
  2  3  2  0  0  0
  2  7  1  0  0  0
  3  4  1  0  0  0
  4  5  2  0  0  0
  5  6  1  0  0  0
  6  1  1  0  0  0
  6  7  2  0  0  0
  1 11  1  0  0  0
 11 12  2  0  0  0
 11 16  1  0  0  0
 12 13  1  0  0  0
 13 14  2  0  0  0
 14 15  1  0  0  0
 15 17  1  0  0  0
 15 16  2  0  0  0
 17 18  2  0  0  0
 17 19  1  0  0  0
M  END
> <minimizedAffinity>
-8.17976

$$$$
cs_R1_output_folder/data/smiles/56.pdb


 25 27  0  0  0  0  0  0  0  0999 V2000
   76.4725   34.4731   55.1090 C   0  0  0  0  0  0  0  0  0  0  0  0
   76.7140   33.3256   55.6510 O   0  0  0  0  0  0  0  0  0  0  0  0
   75.1058   34.9216   55.2339 C   0  0  0  0  0  0  0  0  0  0  0  0
   74.6026   35.3305   56.4838 C   0  0  0  0  0  0  0  0  0  0  0  0
   73.3193   35.7550   56.6144 C   0  0  0  0  0  0  0  0  0  0  0  0
   72.9124   36.1135   57.7593 O   0  0  0  0  0  0  0  0  0  0  0  0
   72.4694   35.8128   55.6014 N   0  0  0  0  0  0  0  0  0  0  0  0
   72.8843   35.4345   54.3753 C   0  0  0  0  0  0  0  0  0  0  0  0
   71.9927   35.4979   53.3247 C   0  0  0  0  0  0  0  0  0  0  0  0
   72.3856   35.1233   52.0769 C   0  0  0  0  0  0  0  0  0  0  0  0
   73.6651   34.6827   51.8617 C   0  0  0  0  0  0  0  0  0  0  0  0
   74.5471   34.6281   52.9351 C   0  0  0  0  0  0  0  0  0  0  0  0
   74.1851   34.9993   54.2112 C   0  0  0  0  0  0  0  0  0  0  0  0
   77.5483   35.0376   54.5256 O   0  0  0  0  0  0  0  0  0  0  0  0
   78.6546   34.4081   53.9701 C   0  0  0  0  0  0  0  0  0  0  0  0
   79.2094   33.3014   51.9870 O   0  0  0  0  0  0  0  0  0  0  0  0
   78.5097   34.1944   52.4843 C   0  0  0  0  0  0  0  0  0  0  0  0
   77.6340   34.9680   51.7290 N   0  0  0  0  0  0  0  0  0  0  0  0
   77.4009   34.8758   50.3412 C   0  0  0  0  0  0  0  0  0  0  0  0
   76.4899   34.0578   49.7519 C   0  0  0  0  0  0  0  0  0  0  0  0
   76.2765   33.9833   48.3718 C   0  0  0  0  0  0  0  0  0  0  0  0
   77.0152   34.7720   47.5486 C   0  0  0  0  0  0  0  0  0  0  0  0
   76.8433   34.7343   46.2062 F   0  0  0  0  0  0  0  0  0  0  0  0
   77.9495   35.6163   48.1043 C   0  0  0  0  0  0  0  0  0  0  0  0
   78.1469   35.6776   49.4596 C   0  0  0  0  0  0  0  0  0  0  0  0
 16 17  2  0  0  0
 17 15  1  0  0  0
 17 18  1  0  0  0
 15 14  1  0  0  0
 14  1  1  0  0  0
  1  2  2  0  0  0
  1  3  1  0  0  0
  3  4  2  0  0  0
  3 13  1  0  0  0
  4  5  1  0  0  0
  5  6  2  0  0  0
  5  7  1  0  0  0
  7  8  1  0  0  0
  8  9  1  0  0  0
  8 13  2  0  0  0
  9 10  2  0  0  0
 10 11  1  0  0  0
 11 12  2  0  0  0
 12 13  1  0  0  0
 18 19  1  0  0  0
 19 20  2  0  0  0
 19 25  1  0  0  0
 20 21  1  0  0  0
 21 22  2  0  0  0
 22 23  1  0  0  0
 22 24  1  0  0  0
 24 25  2  0  0  0
M  END
> <minimizedAffinity>
-7.24755

$$$$
cs_R1_output_folder/data/smiles/57.pdb


 27 30  0  0  0  0  0  0  0  0999 V2000
   71.8007   47.2890   59.1393 C   0  0  0  0  0  0  0  0  0  0  0  0
   72.0197   45.9405   58.9906 C   0  0  0  0  0  0  0  0  0  0  0  0
   71.2401   45.1499   58.1721 C   0  0  0  0  0  0  0  0  0  0  0  0
   70.2163   45.7774   57.4976 C   0  0  0  0  0  0  0  0  0  0  0  0
   69.9281   47.1127   57.5859 C   0  0  0  0  0  0  0  0  0  0  0  0
   70.7470   47.8544   58.4248 C   0  0  0  0  0  0  0  0  0  0  0  0
   77.3064   48.8160   57.5397 C   0  0  0  0  0  0  0  0  0  0  0  0
   76.0337   48.6090   58.3127 C   0  0  0  0  0  0  0  0  0  0  0  0
   74.8097   48.6778   57.4480 C   0  0  0  0  0  0  0  0  0  0  0  0
   73.6320   49.3551   58.0575 C   0  0  0  0  0  0  0  0  0  0  0  0
   73.4760   49.0917   59.4551 N   0  0  0  0  0  0  0  0  0  0  0  0
   72.6237   48.1265   60.0336 C   0  0  0  0  0  0  0  0  0  0  0  0
   72.5612   47.9787   61.2525 O   0  0  0  0  0  0  0  0  0  0  0  0
   74.2952   49.9278   60.3540 C   0  0  0  0  0  0  0  0  0  0  0  0
   75.9787   49.8560   59.6395 S   0  0  0  0  0  0  0  0  0  0  0  0
   68.8144   47.7751   56.8479 C   0  0  0  0  0  0  0  0  0  0  0  0
   68.5900   47.1440   55.5713 C   0  0  0  0  0  0  0  0  0  0  0  0
   67.9007   45.9535   55.5668 N   0  0  0  0  0  0  0  0  0  0  0  0
   67.6500   45.2934   54.4528 N   0  0  0  0  0  0  0  0  0  0  0  0
   68.0458   45.7327   53.2430 C   0  0  0  0  0  0  0  0  0  0  0  0
   67.8225   45.1274   52.1737 O   0  0  0  0  0  0  0  0  0  0  0  0
   68.7484   46.9260   53.1542 C   0  0  0  0  0  0  0  0  0  0  0  0
   69.1553   47.3866   51.9220 C   0  0  0  0  0  0  0  0  0  0  0  0
   69.8394   48.5701   51.8793 C   0  0  0  0  0  0  0  0  0  0  0  0
   70.1085   49.2758   53.0678 C   0  0  0  0  0  0  0  0  0  0  0  0
   69.6767   48.7656   54.2715 C   0  0  0  0  0  0  0  0  0  0  0  0
   68.9973   47.5960   54.3408 C   0  0  0  0  0  0  0  0  0  0  0  0
  8  7  1  0  0  0
  8  9  1  0  0  0
  8 15  1  0  0  0
  9 10  1  0  0  0
 10 11  1  0  0  0
 11 12  1  0  0  0
 11 14  1  0  0  0
 12 13  2  0  0  0
 12  1  1  0  0  0
  1  2  2  0  0  0
  1  6  1  0  0  0
  2  3  1  0  0  0
  3  4  2  0  0  0
  4  5  1  0  0  0
  5 16  1  0  0  0
  5  6  2  0  0  0
 16 17  1  0  0  0
 17 18  2  0  0  0
 17 27  1  0  0  0
 18 19  1  0  0  0
 19 20  1  0  0  0
 20 21  2  0  0  0
 20 22  1  0  0  0
 22 23  1  0  0  0
 22 27  2  0  0  0
 23 24  2  0  0  0
 24 25  1  0  0  0
 25 26  2  0  0  0
 26 27  1  0  0  0
 14 15  1  0  0  0
M  END
> <minimizedAffinity>
-8.74330

$$$$
cs_R1_output_folder/data/smiles/58.pdb


 22 24  0  0  0  0  0  0  0  0999 V2000
   69.6628   47.0518   50.9693 N   0  0  0  0  0  0  0  0  0  0  0  0
   69.3363   47.2722   52.3337 C   0  0  0  0  0  0  0  0  0  0  0  0
   69.9167   48.3297   53.0340 C   0  0  0  0  0  0  0  0  0  0  0  0
   69.6361   48.5919   54.3593 C   0  0  0  0  0  0  0  0  0  0  0  0
   68.7443   47.7656   55.0112 C   0  0  0  0  0  0  0  0  0  0  0  0
   68.1390   46.6934   54.3483 C   0  0  0  0  0  0  0  0  0  0  0  0
   68.4529   46.4763   53.0244 C   0  0  0  0  0  0  0  0  0  0  0  0
   67.8448   45.4159   52.3947 F   0  0  0  0  0  0  0  0  0  0  0  0
   68.4087   47.9631   56.4280 C   0  0  0  0  0  0  0  0  0  0  0  0
   68.9755   49.1722   57.0416 C   0  0  0  0  0  0  0  0  0  0  0  0
   70.3297   49.5961   56.4758 C   0  0  0  0  0  0  0  0  0  0  0  0
   70.2631   49.7010   55.0382 N   0  0  0  0  0  0  0  0  0  0  0  0
   70.6788   50.8298   54.3054 C   0  0  0  0  0  0  0  0  0  0  0  0
   70.1786   51.0587   53.1406 O   0  0  0  0  0  0  0  0  0  0  0  0
   71.6601   51.7905   54.7701 C   0  0  0  0  0  0  0  0  0  0  0  0
   71.3272   52.9323   55.4678 C   0  0  0  0  0  0  0  0  0  0  0  0
   72.2985   53.7999   55.9451 C   0  0  0  0  0  0  0  0  0  0  0  0
   73.6206   53.5113   55.7185 C   0  0  0  0  0  0  0  0  0  0  0  0
   74.6043   54.3820   56.1990 O   0  0  0  0  0  0  0  0  0  0  0  0
   73.9464   52.3702   55.0240 C   0  0  0  0  0  0  0  0  0  0  0  0
   72.9989   51.5097   54.5482 C   0  0  0  0  0  0  0  0  0  0  0  0
   73.3569   50.3760   53.8567 O   0  0  0  0  0  0  0  0  0  0  0  0
  1  2  1  0  0  0
  2  3  2  0  0  0
  2  7  1  0  0  0
  3  4  1  0  0  0
  4  5  2  0  0  0
  4 12  1  0  0  0
  5  6  1  0  0  0
  5  9  1  0  0  0
  6  7  2  0  0  0
  7  8  1  0  0  0
  9 10  1  0  0  0
 10 11  1  0  0  0
 11 12  1  0  0  0
 12 13  1  0  0  0
 13 14  2  0  0  0
 13 15  1  0  0  0
 15 16  2  0  0  0
 15 21  1  0  0  0
 16 17  1  0  0  0
 17 18  2  0  0  0
 18 19  1  0  0  0
 18 20  1  0  0  0
 20 21  2  0  0  0
 21 22  1  0  0  0
M  END
> <minimizedAffinity>
-8.22091

$$$$
cs_R1_output_folder/data/smiles/59.pdb


 28 30  0  0  0  0  0  0  0  0999 V2000
   68.7976   39.1361   59.1288 C   0  0  0  0  0  0  0  0  0  0  0  0
   68.0904   39.1662   57.9467 C   0  0  0  0  0  0  0  0  0  0  0  0
   68.0542   40.3381   57.2229 C   0  0  0  0  0  0  0  0  0  0  0  0
   68.6999   41.4914   57.6337 C   0  0  0  0  0  0  0  0  0  0  0  0
   69.4092   41.4552   58.8228 C   0  0  0  0  0  0  0  0  0  0  0  0
   69.4406   40.2716   59.5453 C   0  0  0  0  0  0  0  0  0  0  0  0
   70.2548   42.8703   59.4142 S   0  0  0  0  0  0  0  0  0  0  0  0
   71.1199   42.5291   60.5956 O   0  0  0  0  0  0  0  0  0  0  0  0
   69.2462   43.9233   59.8104 O   0  0  0  0  0  0  0  0  0  0  0  0
   71.2635   43.5544   58.2074 N   0  0  0  0  0  0  0  0  0  0  0  0
   71.2392   44.9857   58.1780 C   0  0  0  0  0  0  0  0  0  0  0  0
   72.4409   45.4993   58.9334 C   0  0  0  0  0  0  0  0  0  0  0  0
   73.6163   45.2088   58.1304 N   0  0  0  0  0  0  0  0  0  0  0  0
   74.8391   45.5041   58.8596 C   0  0  0  0  0  0  0  0  0  0  0  0
   73.6189   43.8858   57.5868 C   0  0  0  0  0  0  0  0  0  0  0  0
   72.5787   42.9886   58.1834 C   0  0  0  0  0  0  0  0  0  0  0  0
   68.8459   37.9049   59.9074 C   0  0  0  0  0  0  0  0  0  0  0  0
   67.8369   37.2836   60.2663 O   0  0  0  0  0  0  0  0  0  0  0  0
   70.0761   37.3573   60.2923 O   0  0  0  0  0  0  0  0  0  0  0  0
   72.6117   35.5928   57.4324 C   0  0  0  0  0  0  0  0  0  0  0  0
   71.9894   34.8187   58.3891 C   0  0  0  0  0  0  0  0  0  0  0  0
   71.1403   35.3719   59.3535 C   0  0  0  0  0  0  0  0  0  0  0  0
   70.9031   36.7273   59.3716 C   0  0  0  0  0  0  0  0  0  0  0  0
   71.5307   37.4944   58.4107 C   0  0  0  0  0  0  0  0  0  0  0  0
   72.3693   36.9471   57.4566 C   0  0  0  0  0  0  0  0  0  0  0  0
   73.1176   35.4088   55.0499 C   0  0  0  0  0  0  0  0  0  0  0  0
   73.5109   34.9604   56.4208 C   0  0  0  0  0  0  0  0  0  0  0  0
   73.3634   33.4383   56.4605 C   0  0  0  0  0  0  0  0  0  0  0  0
 26 27  1  0  0  0
 27 28  1  0  0  0
 27 20  1  0  0  0
 20 21  2  0  0  0
 20 25  1  0  0  0
 21 22  1  0  0  0
 22 23  2  0  0  0
 23 19  1  0  0  0
 23 24  1  0  0  0
 19 17  1  0  0  0
 17 18  2  0  0  0
 17  1  1  0  0  0
  1  2  2  0  0  0
  1  6  1  0  0  0
  2  3  1  0  0  0
  3  4  2  0  0  0
  4  5  1  0  0  0
  5  7  1  0  0  0
  5  6  2  0  0  0
  7  8  2  0  0  0
  7  9  2  0  0  0
  7 10  1  0  0  0
 10 11  1  0  0  0
 10 16  1  0  0  0
 11 12  1  0  0  0
 12 13  1  0  0  0
 13 14  1  0  0  0
 13 15  1  0  0  0
 15 16  1  0  0  0
 24 25  2  0  0  0
M  CHG 1  13   1
M  END
> <minimizedAffinity>
-7.15466

$$$$
cs_R1_output_folder/data/smiles/61.pdb


 21 23  0  0  0  0  0  0  0  0999 V2000
   70.0724   49.5642   53.8121 C   0  0  0  0  0  0  0  0  0  0  0  0
   70.5970   49.5747   52.5477 N   0  0  0  0  0  0  0  0  0  0  0  0
   70.3003   48.6789   51.6282 N   0  0  0  0  0  0  0  0  0  0  0  0
   69.4362   47.6668   51.8880 C   0  0  0  0  0  0  0  0  0  0  0  0
   69.1506   46.8089   51.0134 O   0  0  0  0  0  0  0  0  0  0  0  0
   68.8935   47.6231   53.1373 C   0  0  0  0  0  0  0  0  0  0  0  0
   69.2042   48.5766   54.1254 C   0  0  0  0  0  0  0  0  0  0  0  0
   68.5017   48.3800   55.3922 C   0  0  0  0  0  0  0  0  0  0  0  0
   68.6914   46.9581   55.9161 C   0  0  0  0  0  0  0  0  0  0  0  0
   68.5935   45.9399   54.8074 C   0  0  0  0  0  0  0  0  0  0  0  0
   67.9370   46.5598   53.5653 C   0  0  0  0  0  0  0  0  0  0  0  0
   70.4854   50.5893   54.7802 C   0  0  0  0  0  0  0  0  0  0  0  0
   74.6156   50.4020   55.9807 C   0  0  0  0  0  0  0  0  0  0  0  0
   74.1961   51.1663   54.9159 C   0  0  0  0  0  0  0  0  0  0  0  0
   72.8750   51.2177   54.5322 C   0  0  0  0  0  0  0  0  0  0  0  0
   71.8990   50.4815   55.2226 C   0  0  0  0  0  0  0  0  0  0  0  0
   72.3567   49.7346   56.2766 C   0  0  0  0  0  0  0  0  0  0  0  0
   73.6768   49.7040   56.6338 N   0  0  0  0  0  0  0  0  0  0  0  0
   75.9984   50.3588   56.3700 N   0  0  0  0  0  0  0  0  0  0  0  0
   77.7468   49.2093   54.8754 N   0  0  0  0  0  0  0  0  0  0  0  0
   76.9570   49.7414   55.5600 C   0  0  0  0  0  0  0  0  0  0  0  0
 20 21  3  0  0  0
 21 19  1  0  0  0
 19 13  1  0  0  0
 13 14  2  0  0  0
 13 18  1  0  0  0
 14 15  1  0  0  0
 15 16  2  0  0  0
 16 12  1  0  0  0
 16 17  1  0  0  0
 12  1  1  0  0  0
  1  2  2  0  0  0
  1  7  1  0  0  0
  2  3  1  0  0  0
  3  4  1  0  0  0
  4  5  2  0  0  0
  4  6  1  0  0  0
  6  7  2  0  0  0
  6 11  1  0  0  0
  7  8  1  0  0  0
  8  9  1  0  0  0
  9 10  1  0  0  0
 10 11  1  0  0  0
 17 18  2  0  0  0
M  END
> <minimizedAffinity>
-7.29460

$$$$
cs_R1_output_folder/data/smiles/62.pdb


 24 26  0  0  0  0  0  0  0  0999 V2000
   73.3691   50.8092   54.9982 C   0  0  0  0  0  0  0  0  0  0  0  0
   72.4389   50.9858   53.9639 O   0  0  0  0  0  0  0  0  0  0  0  0
   69.7741   50.9387   53.5893 O   0  0  0  0  0  0  0  0  0  0  0  0
   70.3595   49.7990   53.5523 C   0  0  0  0  0  0  0  0  0  0  0  0
   71.7560   49.8115   53.7473 N   0  0  0  0  0  0  0  0  0  0  0  0
   69.6057   48.5845   53.3224 C   0  0  0  0  0  0  0  0  0  0  0  0
   68.9317   47.9478   54.3286 C   0  0  0  0  0  0  0  0  0  0  0  0
   68.2101   46.7725   54.0767 C   0  0  0  0  0  0  0  0  0  0  0  0
   68.1568   46.2300   52.8287 C   0  0  0  0  0  0  0  0  0  0  0  0
   67.4509   45.0952   52.6222 F   0  0  0  0  0  0  0  0  0  0  0  0
   68.8271   46.8497   51.7924 C   0  0  0  0  0  0  0  0  0  0  0  0
   69.5300   48.0011   52.0554 C   0  0  0  0  0  0  0  0  0  0  0  0
   73.0204   51.6694   56.1734 C   0  0  0  0  0  0  0  0  0  0  0  0
   71.5645   51.6146   56.4669 C   0  0  0  0  0  0  0  0  0  0  0  0
   70.9467   50.4869   56.8614 N   0  0  0  0  0  0  0  0  0  0  0  0
   69.6249   50.4383   57.1277 C   0  0  0  0  0  0  0  0  0  0  0  0
   68.9918   49.2825   57.5325 C   0  0  0  0  0  0  0  0  0  0  0  0
   67.6397   49.2441   57.8019 C   0  0  0  0  0  0  0  0  0  0  0  0
   66.8601   50.3824   57.6740 C   0  0  0  0  0  0  0  0  0  0  0  0
   67.5001   51.5354   57.2697 C   0  0  0  0  0  0  0  0  0  0  0  0
   68.8523   51.5750   56.9995 C   0  0  0  0  0  0  0  0  0  0  0  0
   69.4991   52.7278   56.5933 C   0  0  0  0  0  0  0  0  0  0  0  0
   68.8160   53.7709   56.4700 O   0  0  0  0  0  0  0  0  0  0  0  0
   70.8259   52.7313   56.3368 N   0  0  0  0  0  0  0  0  0  0  0  0
  3  4  2  0  0  0
  4  5  1  0  0  0
  4  6  1  0  0  0
  5  2  1  0  0  0
  2  1  1  0  0  0
  1 13  1  0  0  0
 13 14  1  0  0  0
 14 15  2  0  0  0
 14 24  1  0  0  0
 15 16  1  0  0  0
 16 17  2  0  0  0
 16 21  1  0  0  0
 17 18  1  0  0  0
 18 19  2  0  0  0
 19 20  1  0  0  0
 20 21  2  0  0  0
 21 22  1  0  0  0
 22 23  2  0  0  0
 22 24  1  0  0  0
  6  7  2  0  0  0
  6 12  1  0  0  0
  7  8  1  0  0  0
  8  9  2  0  0  0
  9 10  1  0  0  0
  9 11  1  0  0  0
 11 12  2  0  0  0
M  END
> <minimizedAffinity>
-7.97468

$$$$
cs_R1_output_folder/data/smiles/63.pdb


 24 26  0  0  0  0  0  0  0  0999 V2000
   68.1117   45.9733   55.4661 N   0  0  0  0  0  0  0  0  0  0  0  0
   69.4055   48.0340   52.7151 C   0  0  0  0  0  0  0  0  0  0  0  0
   68.9289   47.3553   51.5958 C   0  0  0  0  0  0  0  0  0  0  0  0
   68.1788   46.2194   51.7917 C   0  0  0  0  0  0  0  0  0  0  0  0
   67.8904   45.7419   53.0633 C   0  0  0  0  0  0  0  0  0  0  0  0
   68.3488   46.3933   54.1692 C   0  0  0  0  0  0  0  0  0  0  0  0
   69.1141   47.5530   53.9618 C   0  0  0  0  0  0  0  0  0  0  0  0
   70.1721   49.2107   52.4909 N   0  0  0  0  0  0  0  0  0  0  0  0
   71.5434   49.9479   54.8449 N   0  0  0  0  0  0  0  0  0  0  0  0
   70.3208   50.4008   53.7208 S   0  0  0  0  0  0  0  0  0  0  0  0
   69.0273   50.5608   54.4931 O   0  0  0  0  0  0  0  0  0  0  0  0
   70.7088   51.7181   53.0993 O   0  0  0  0  0  0  0  0  0  0  0  0
   68.9296   45.2765   56.3745 C   0  0  0  0  0  0  0  0  0  0  0  0
   69.8915   45.9471   57.0798 N   0  0  0  0  0  0  0  0  0  0  0  0
   70.7086   45.3724   57.9529 C   0  0  0  0  0  0  0  0  0  0  0  0
   70.5584   44.0028   58.1445 C   0  0  0  0  0  0  0  0  0  0  0  0
   69.6123   43.2833   57.4648 C   0  0  0  0  0  0  0  0  0  0  0  0
   68.8378   43.9816   56.6009 N   0  0  0  0  0  0  0  0  0  0  0  0
   69.4570   41.8542   57.6593 C   0  0  0  0  0  0  0  0  0  0  0  0
   68.3189   41.1783   57.2305 C   0  0  0  0  0  0  0  0  0  0  0  0
   68.1356   39.8281   57.4086 C   0  0  0  0  0  0  0  0  0  0  0  0
   69.0966   39.0820   58.0318 C   0  0  0  0  0  0  0  0  0  0  0  0
   70.2405   39.6946   58.4751 C   0  0  0  0  0  0  0  0  0  0  0  0
   70.4008   41.0696   58.2811 C   0  0  0  0  0  0  0  0  0  0  0  0
  9 10  1  0  0  0
 10 11  2  0  0  0
 10 12  2  0  0  0
 10  8  1  0  0  0
  8  2  1  0  0  0
  2  3  2  0  0  0
  2  7  1  0  0  0
  3  4  1  0  0  0
  4  5  2  0  0  0
  5  6  1  0  0  0
  6  1  1  0  0  0
  6  7  2  0  0  0
  1 13  1  0  0  0
 13 14  2  0  0  0
 13 18  1  0  0  0
 14 15  1  0  0  0
 15 16  2  0  0  0
 16 17  1  0  0  0
 17 19  1  0  0  0
 17 18  2  0  0  0
 19 20  2  0  0  0
 19 24  1  0  0  0
 20 21  1  0  0  0
 21 22  2  0  0  0
 22 23  1  0  0  0
 23 24  2  0  0  0
M  END
> <minimizedAffinity>
-8.72428

$$$$
cs_R1_output_folder/data/smiles/64.pdb


 19 21  0  0  0  0  0  0  0  0999 V2000
   66.8461   44.9924   50.9561 S   0  0  0  0  0  0  0  0  0  0  0  0
   67.8878   46.0891   51.9046 C   0  0  0  0  0  0  0  0  0  0  0  0
   67.8338   46.0201   53.2670 C   0  0  0  0  0  0  0  0  0  0  0  0
   68.6160   46.8440   54.0275 C   0  0  0  0  0  0  0  0  0  0  0  0
   69.4613   47.7462   53.3081 C   0  0  0  0  0  0  0  0  0  0  0  0
   70.3334   48.6690   53.6916 N   0  0  0  0  0  0  0  0  0  0  0  0
   70.8502   49.2255   52.5908 N   0  0  0  0  0  0  0  0  0  0  0  0
   70.3332   48.6863   51.5117 N   0  0  0  0  0  0  0  0  0  0  0  0
   69.4558   47.7526   51.9382 C   0  0  0  0  0  0  0  0  0  0  0  0
   68.6835   46.9385   51.2313 N   0  0  0  0  0  0  0  0  0  0  0  0
   68.6739   46.8940   55.3471 O   0  0  0  0  0  0  0  0  0  0  0  0
   69.2618   47.6658   56.2755 C   0  0  0  0  0  0  0  0  0  0  0  0
   68.5367   48.8715   56.7317 C   0  0  0  0  0  0  0  0  0  0  0  0
   67.3920   48.7681   57.5341 C   0  0  0  0  0  0  0  0  0  0  0  0
   66.7165   49.8850   57.9105 C   0  0  0  0  0  0  0  0  0  0  0  0
   67.1330   51.1195   57.5190 C   0  0  0  0  0  0  0  0  0  0  0  0
   68.2567   51.2477   56.7285 C   0  0  0  0  0  0  0  0  0  0  0  0
   68.8123   52.8144   56.2131 Cl  0  0  0  0  0  0  0  0  0  0  0  0
   68.9474   50.1146   56.3441 C   0  0  0  0  0  0  0  0  0  0  0  0
  1  2  1  0  0  0
  2  3  2  0  0  0
  2 10  1  0  0  0
  3  4  1  0  0  0
  4 11  1  0  0  0
  4  5  2  0  0  0
 11 12  1  0  0  0
 12 13  1  0  0  0
 13 14  2  0  0  0
 13 19  1  0  0  0
 14 15  1  0  0  0
 15 16  2  0  0  0
 16 17  1  0  0  0
 17 18  1  0  0  0
 17 19  2  0  0  0
  5  6  1  0  0  0
  5  9  1  0  0  0
  6  7  2  0  0  0
  7  8  1  0  0  0
  8  9  1  0  0  0
  9 10  2  0  0  0
M  END
> <minimizedAffinity>
-7.99555

$$$$
cs_R1_output_folder/data/smiles/65.pdb


 25 27  0  0  0  0  0  0  0  0999 V2000
   69.9775   39.2996   58.5917 C   0  0  0  0  0  0  0  0  0  0  0  0
   70.5661   40.5392   58.6602 C   0  0  0  0  0  0  0  0  0  0  0  0
   70.0481   41.6525   57.9966 C   0  0  0  0  0  0  0  0  0  0  0  0
   68.9160   41.5456   57.2406 C   0  0  0  0  0  0  0  0  0  0  0  0
   68.3088   40.3109   57.1561 C   0  0  0  0  0  0  0  0  0  0  0  0
   68.8271   39.2119   57.8172 C   0  0  0  0  0  0  0  0  0  0  0  0
   67.1667   40.4944   56.3139 N   0  0  0  0  0  0  0  0  0  0  0  0
   67.0718   41.8408   55.8800 C   0  0  0  0  0  0  0  0  0  0  0  0
   66.2203   42.3872   55.1401 O   0  0  0  0  0  0  0  0  0  0  0  0
   68.1903   42.5567   56.4601 C   0  0  0  0  0  0  0  0  0  0  0  0
   68.4679   43.8089   56.3103 N   0  0  0  0  0  0  0  0  0  0  0  0
   70.0176   37.6565   60.4124 C   0  0  0  0  0  0  0  0  0  0  0  0
   70.4996   38.1111   59.2781 C   0  0  0  0  0  0  0  0  0  0  0  0
   71.6480   37.3423   58.6857 C   0  0  0  0  0  0  0  0  0  0  0  0
   67.6723   44.6524   55.5281 N   0  0  0  0  0  0  0  0  0  0  0  0
   68.2487   45.7880   54.8671 C   0  0  0  0  0  0  0  0  0  0  0  0
   68.8765   46.7925   55.5699 C   0  0  0  0  0  0  0  0  0  0  0  0
   69.4412   47.8972   54.9709 C   0  0  0  0  0  0  0  0  0  0  0  0
   69.3737   48.0032   53.5887 C   0  0  0  0  0  0  0  0  0  0  0  0
   68.7537   47.0196   52.8464 C   0  0  0  0  0  0  0  0  0  0  0  0
   68.1933   45.9143   53.4960 C   0  0  0  0  0  0  0  0  0  0  0  0
   70.0989   49.4148   52.8656 S   0  0  0  0  0  0  0  0  0  0  0  0
   70.0141   49.2365   51.1500 N   0  0  0  0  0  0  0  0  0  0  0  0
   69.3686   50.6729   53.2461 O   0  0  0  0  0  0  0  0  0  0  0  0
   71.5493   49.5248   53.2823 O   0  0  0  0  0  0  0  0  0  0  0  0
 12 13  2  0  0  0
 13 14  1  0  0  0
 13  1  1  0  0  0
  1  2  2  0  0  0
  1  6  1  0  0  0
  2  3  1  0  0  0
  3  4  2  0  0  0
  4  5  1  0  0  0
  4 10  1  0  0  0
  5  6  2  0  0  0
  5  7  1  0  0  0
  7  8  1  0  0  0
  8  9  2  0  0  0
  8 10  1  0  0  0
 10 11  2  0  0  0
 11 15  1  0  0  0
 15 16  1  0  0  0
 16 17  2  0  0  0
 16 21  1  0  0  0
 17 18  1  0  0  0
 18 19  2  0  0  0
 19 22  1  0  0  0
 19 20  1  0  0  0
 22 23  1  0  0  0
 22 24  2  0  0  0
 22 25  2  0  0  0
 20 21  2  0  0  0
M  END
> <minimizedAffinity>
-9.35250

$$$$
cs_R1_output_folder/data/smiles/66.pdb


 28 31  0  0  0  0  0  0  0  0999 V2000
   72.6792   44.7524   59.5787 C   0  0  0  0  0  0  0  0  0  0  0  0
   71.6649   45.4986   58.7920 C   0  0  0  0  0  0  0  0  0  0  0  0
   70.8398   44.8464   57.8995 C   0  0  0  0  0  0  0  0  0  0  0  0
   69.8918   45.5626   57.1589 C   0  0  0  0  0  0  0  0  0  0  0  0
   69.7735   46.9178   57.3136 C   0  0  0  0  0  0  0  0  0  0  0  0
   70.6290   47.5444   58.2295 C   0  0  0  0  0  0  0  0  0  0  0  0
   71.5690   46.8623   58.9698 C   0  0  0  0  0  0  0  0  0  0  0  0
   72.4224   47.5592   59.9099 C   0  0  0  0  0  0  0  0  0  0  0  0
   72.0463   47.6238   61.1040 O   0  0  0  0  0  0  0  0  0  0  0  0
   73.6514   48.1685   59.5541 N   0  0  0  0  0  0  0  0  0  0  0  0
   74.1794   48.1504   58.2064 C   0  0  0  0  0  0  0  0  0  0  0  0
   74.1823   49.5470   57.6703 C   0  0  0  0  0  0  0  0  0  0  0  0
   74.5513   50.5031   58.7340 C   0  0  0  0  0  0  0  0  0  0  0  0
   74.3591   51.6809   58.5683 O   0  0  0  0  0  0  0  0  0  0  0  0
   75.1516   50.0130   59.9896 C   0  0  0  0  0  0  0  0  0  0  0  0
   74.4323   48.8410   60.5716 C   0  0  0  0  0  0  0  0  0  0  0  0
   68.7850   47.7775   56.5848 C   0  0  0  0  0  0  0  0  0  0  0  0
   69.2513   47.9784   55.2390 C   0  0  0  0  0  0  0  0  0  0  0  0
   70.1973   48.9568   55.0714 N   0  0  0  0  0  0  0  0  0  0  0  0
   70.6889   49.2917   53.8983 N   0  0  0  0  0  0  0  0  0  0  0  0
   70.2696   48.6681   52.7816 C   0  0  0  0  0  0  0  0  0  0  0  0
   70.7538   49.0034   51.6512 O   0  0  0  0  0  0  0  0  0  0  0  0
   69.3250   47.6736   52.8464 C   0  0  0  0  0  0  0  0  0  0  0  0
   68.9081   47.0310   51.7070 C   0  0  0  0  0  0  0  0  0  0  0  0
   67.9659   46.0330   51.8575 C   0  0  0  0  0  0  0  0  0  0  0  0
   67.4622   45.6913   53.0938 C   0  0  0  0  0  0  0  0  0  0  0  0
   67.8874   46.3430   54.2308 C   0  0  0  0  0  0  0  0  0  0  0  0
   68.8285   47.3462   54.1095 C   0  0  0  0  0  0  0  0  0  0  0  0
  1  2  1  0  0  0
  2  3  2  0  0  0
  2  7  1  0  0  0
  3  4  1  0  0  0
  4  5  2  0  0  0
  5 17  1  0  0  0
  5  6  1  0  0  0
 17 18  1  0  0  0
 18 19  2  0  0  0
 18 28  1  0  0  0
 19 20  1  0  0  0
 20 21  1  0  0  0
 21 22  2  0  0  0
 21 23  1  0  0  0
 23 24  1  0  0  0
 23 28  2  0  0  0
 24 25  2  0  0  0
 25 26  1  0  0  0
 26 27  2  0  0  0
 27 28  1  0  0  0
  6  7  2  0  0  0
  7  8  1  0  0  0
  8  9  2  0  0  0
  8 10  1  0  0  0
 10 11  1  0  0  0
 10 16  1  0  0  0
 11 12  1  0  0  0
 12 13  1  0  0  0
 13 14  2  0  0  0
 13 15  1  0  0  0
 15 16  1  0  0  0
M  END
> <minimizedAffinity>
-9.28843

$$$$
cs_R1_output_folder/data/smiles/68.pdb


 21 23  0  0  0  0  0  0  0  0999 V2000
   70.1214   49.1248   52.5421 S   0  0  0  0  0  0  0  0  0  0  0  0
   71.5434   49.1274   53.0363 O   0  0  0  0  0  0  0  0  0  0  0  0
   70.2227   48.9420   51.0322 O   0  0  0  0  0  0  0  0  0  0  0  0
   69.2338   47.7794   53.2198 C   0  0  0  0  0  0  0  0  0  0  0  0
   69.2595   47.4806   54.5654 C   0  0  0  0  0  0  0  0  0  0  0  0
   68.5513   46.4109   55.0922 C   0  0  0  0  0  0  0  0  0  0  0  0
   67.7899   45.6022   54.2793 C   0  0  0  0  0  0  0  0  0  0  0  0
   67.7539   45.8850   52.9368 C   0  0  0  0  0  0  0  0  0  0  0  0
   67.1270   45.3126   51.8897 N   0  0  0  0  0  0  0  0  0  0  0  0
   67.4320   45.9825   50.8212 O   0  0  0  0  0  0  0  0  0  0  0  0
   68.2262   46.9647   51.1055 N   0  0  0  0  0  0  0  0  0  0  0  0
   68.4626   46.9497   52.4344 C   0  0  0  0  0  0  0  0  0  0  0  0
   69.3889   50.6259   52.8591 N   0  0  0  0  0  0  0  0  0  0  0  0
   70.5046   53.2512   55.9864 C   0  0  0  0  0  0  0  0  0  0  0  0
   71.4482   52.6663   55.1681 C   0  0  0  0  0  0  0  0  0  0  0  0
   71.1037   51.8112   54.1484 C   0  0  0  0  0  0  0  0  0  0  0  0
   69.7884   51.5061   53.9050 C   0  0  0  0  0  0  0  0  0  0  0  0
   68.8306   52.0775   54.7089 C   0  0  0  0  0  0  0  0  0  0  0  0
   69.1947   52.9310   55.7246 C   0  0  0  0  0  0  0  0  0  0  0  0
   72.2339   53.6918   57.6816 C   0  0  0  0  0  0  0  0  0  0  0  0
   70.9110   54.1768   57.0884 C   0  0  0  0  0  0  0  0  0  0  0  0
 20 21  1  0  0  0
 21 14  1  0  0  0
 14 15  2  0  0  0
 14 19  1  0  0  0
 15 16  1  0  0  0
 16 17  2  0  0  0
 17 13  1  0  0  0
 17 18  1  0  0  0
 13  1  1  0  0  0
  1  2  2  0  0  0
  1  3  2  0  0  0
  1  4  1  0  0  0
  4  5  2  0  0  0
  4 12  1  0  0  0
  5  6  1  0  0  0
  6  7  2  0  0  0
  7  8  1  0  0  0
  8  9  2  0  0  0
  8 12  1  0  0  0
  9 10  1  0  0  0
 10 11  1  0  0  0
 11 12  2  0  0  0
 18 19  2  0  0  0
M  END
> <minimizedAffinity>
-8.61741

$$$$
cs_R1_output_folder/data/smiles/69.pdb


 31 35  0  0  0  0  0  0  0  0999 V2000
   71.6119   46.9347   58.8364 C   0  0  0  0  0  0  0  0  0  0  0  0
   70.7926   47.7645   58.0441 C   0  0  0  0  0  0  0  0  0  0  0  0
   69.8706   47.3046   57.1494 C   0  0  0  0  0  0  0  0  0  0  0  0
   69.6980   45.9248   56.9794 C   0  0  0  0  0  0  0  0  0  0  0  0
   70.4852   45.1059   57.7403 C   0  0  0  0  0  0  0  0  0  0  0  0
   71.4310   45.5904   58.6586 C   0  0  0  0  0  0  0  0  0  0  0  0
   72.1906   44.7061   59.3543 F   0  0  0  0  0  0  0  0  0  0  0  0
   72.0405   48.0415   60.8632 O   0  0  0  0  0  0  0  0  0  0  0  0
   72.5352   47.5567   59.7816 C   0  0  0  0  0  0  0  0  0  0  0  0
   73.9568   47.6478   59.5611 C   0  0  0  0  0  0  0  0  0  0  0  0
   74.6342   46.9876   58.3680 C   0  0  0  0  0  0  0  0  0  0  0  0
   74.6624   48.5052   58.6182 C   0  0  0  0  0  0  0  0  0  0  0  0
   74.1243   49.2689   57.4996 C   0  0  0  0  0  0  0  0  0  0  0  0
   74.4412   48.9185   56.3159 O   0  0  0  0  0  0  0  0  0  0  0  0
   73.2712   50.3776   57.6036 N   0  0  0  0  0  0  0  0  0  0  0  0
   72.7346   51.1487   56.5202 C   0  0  0  0  0  0  0  0  0  0  0  0
   71.6171   51.9915   57.0988 C   0  0  0  0  0  0  0  0  0  0  0  0
   71.3627   51.3461   58.4253 C   0  0  0  0  0  0  0  0  0  0  0  0
   72.7777   50.9310   58.8385 C   0  0  0  0  0  0  0  0  0  0  0  0
   69.0051   48.1899   56.2953 C   0  0  0  0  0  0  0  0  0  0  0  0
   69.4346   48.2576   54.8949 C   0  0  0  0  0  0  0  0  0  0  0  0
   70.3959   49.1697   54.5805 N   0  0  0  0  0  0  0  0  0  0  0  0
   70.7818   49.3077   53.3373 N   0  0  0  0  0  0  0  0  0  0  0  0
   70.2828   48.5928   52.3191 C   0  0  0  0  0  0  0  0  0  0  0  0
   70.6601   48.7314   51.1168 O   0  0  0  0  0  0  0  0  0  0  0  0
   69.3028   47.6483   52.5798 C   0  0  0  0  0  0  0  0  0  0  0  0
   68.7662   46.8766   51.5657 C   0  0  0  0  0  0  0  0  0  0  0  0
   67.8032   45.9355   51.8594 C   0  0  0  0  0  0  0  0  0  0  0  0
   67.4141   45.8053   53.1764 C   0  0  0  0  0  0  0  0  0  0  0  0
   67.9280   46.5530   54.1898 C   0  0  0  0  0  0  0  0  0  0  0  0
   68.9040   47.5122   53.9000 C   0  0  0  0  0  0  0  0  0  0  0  0
  8  9  2  0  0  0
  9  1  1  0  0  0
 10  9  1  0  0  0
  1  2  2  0  0  0
  1  6  1  0  0  0
  2  3  1  0  0  0
  3 20  1  0  0  0
  3  4  2  0  0  0
 20 21  1  0  0  0
 21 22  2  0  0  0
 21 31  1  0  0  0
 22 23  1  0  0  0
 23 24  1  0  0  0
 24 25  2  0  0  0
 24 26  1  0  0  0
 26 27  1  0  0  0
 26 31  2  0  0  0
 27 28  2  0  0  0
 28 29  1  0  0  0
 29 30  2  0  0  0
 30 31  1  0  0  0
  4  5  1  0  0  0
  5  6  2  0  0  0
  6  7  1  0  0  0
 10 11  1  0  0  0
 10 12  1  0  0  0
 11 12  1  0  0  0
 12 13  1  0  0  0
 13 14  2  0  0  0
 13 15  1  0  0  0
 15 16  1  0  0  0
 15 19  1  0  0  0
 16 17  1  0  0  0
 17 18  1  0  0  0
 18 19  1  0  0  0
M  END
> <minimizedAffinity>
-9.48628

$$$$
cs_R1_output_folder/data/smiles/70.pdb


 19 20  0  0  0  0  0  0  0  0999 V2000
   70.1273   50.0308   52.2581 O   0  0  0  0  0  0  0  0  0  0  0  0
   70.1214   49.1760   53.2026 C   0  0  0  0  0  0  0  0  0  0  0  0
   70.9130   49.5329   54.3251 N   0  0  0  0  0  0  0  0  0  0  0  0
   69.3562   47.9436   53.1058 C   0  0  0  0  0  0  0  0  0  0  0  0
   68.8675   47.5147   51.8918 C   0  0  0  0  0  0  0  0  0  0  0  0
   68.1261   46.3378   51.7696 C   0  0  0  0  0  0  0  0  0  0  0  0
   67.8635   45.5634   52.8953 C   0  0  0  0  0  0  0  0  0  0  0  0
   68.3464   45.9851   54.1074 C   0  0  0  0  0  0  0  0  0  0  0  0
   69.0880   47.1712   54.2037 C   0  0  0  0  0  0  0  0  0  0  0  0
   68.1095   45.2398   55.2947 N   0  0  0  0  0  0  0  0  0  0  0  0
   68.3780   45.7450   56.4041 O   0  0  0  0  0  0  0  0  0  0  0  0
   67.5875   43.9632   55.2506 O   0  0  0  0  0  0  0  0  0  0  0  0
   71.6622   50.7737   54.3844 C   0  0  0  0  0  0  0  0  0  0  0  0
   70.8579   51.7538   55.1346 C   0  0  0  0  0  0  0  0  0  0  0  0
   71.3919   52.9436   55.5450 C   0  0  0  0  0  0  0  0  0  0  0  0
   70.6275   53.8645   56.2576 C   0  0  0  0  0  0  0  0  0  0  0  0
   69.3200   53.5541   56.5420 C   0  0  0  0  0  0  0  0  0  0  0  0
   68.8017   52.3570   56.1225 C   0  0  0  0  0  0  0  0  0  0  0  0
   69.5798   51.4818   55.4284 N   0  0  0  0  0  0  0  0  0  0  0  0
  1  2  2  0  0  0
  2  3  1  0  0  0
  2  4  1  0  0  0
  3 13  1  0  0  0
 13 14  1  0  0  0
 14 15  2  0  0  0
 14 19  1  0  0  0
 15 16  1  0  0  0
 16 17  2  0  0  0
 17 18  1  0  0  0
 18 19  2  0  0  0
  4  5  2  0  0  0
  4  9  1  0  0  0
  5  6  1  0  0  0
  6  7  2  0  0  0
  7  8  1  0  0  0
  8 10  1  0  0  0
  8  9  2  0  0  0
 10 11  2  0  0  0
 10 12  1  0  0  0
M  CHG 1  10   1
M  CHG 1  12  -1
M  END
> <minimizedAffinity>
-7.18345

$$$$
cs_R1_output_folder/data/smiles/71.pdb


 25 28  0  0  0  0  0  0  0  0999 V2000
   67.0848   44.8484   53.3923 O   0  0  0  0  0  0  0  0  0  0  0  0
   67.6225   45.7321   52.6959 C   0  0  0  0  0  0  0  0  0  0  0  0
   67.4566   45.8343   51.3663 N   0  0  0  0  0  0  0  0  0  0  0  0
   68.1363   46.8604   50.8916 N   0  0  0  0  0  0  0  0  0  0  0  0
   68.7820   47.4687   51.9436 C   0  0  0  0  0  0  0  0  0  0  0  0
   68.4390   46.7441   53.0212 N   0  0  0  0  0  0  0  0  0  0  0  0
   68.8699   47.0106   54.3393 C   0  0  0  0  0  0  0  0  0  0  0  0
   68.7796   45.9348   55.1678 C   0  0  0  0  0  0  0  0  0  0  0  0
   69.1332   46.0467   56.5267 C   0  0  0  0  0  0  0  0  0  0  0  0
   69.5764   47.2243   57.0547 C   0  0  0  0  0  0  0  0  0  0  0  0
   69.6746   48.3231   56.2159 C   0  0  0  0  0  0  0  0  0  0  0  0
   69.3307   48.2140   54.8966 C   0  0  0  0  0  0  0  0  0  0  0  0
   69.5322   49.4476   54.0775 C   0  0  0  0  0  0  0  0  0  0  0  0
   70.4587   48.9621   52.9412 C   0  0  0  0  0  0  0  0  0  0  0  0
   69.6053   48.6790   51.7471 C   0  0  0  0  0  0  0  0  0  0  0  0
   69.9302   47.3410   58.4152 O   0  0  0  0  0  0  0  0  0  0  0  0
   70.3286   46.2455   59.0723 O   0  0  0  0  0  0  0  0  0  0  0  0
   71.7114   46.1217   59.0924 C   0  0  0  0  0  0  0  0  0  0  0  0
   72.1491   44.8308   58.5067 C   0  0  0  0  0  0  0  0  0  0  0  0
   73.4710   44.6842   58.1457 C   0  0  0  0  0  0  0  0  0  0  0  0
   73.8939   43.4892   57.5995 C   0  0  0  0  0  0  0  0  0  0  0  0
   73.0095   42.4466   57.4118 C   0  0  0  0  0  0  0  0  0  0  0  0
   71.6844   42.5862   57.7709 C   0  0  0  0  0  0  0  0  0  0  0  0
   70.8186   41.5426   57.5789 F   0  0  0  0  0  0  0  0  0  0  0  0
   71.2596   43.7821   58.3178 C   0  0  0  0  0  0  0  0  0  0  0  0
  1  2  2  0  0  0
  2  3  1  0  0  0
  2  6  1  0  0  0
  3  4  1  0  0  0
  4  5  2  0  0  0
  5  6  1  0  0  0
  5 15  1  0  0  0
  6  7  1  0  0  0
  7  8  2  0  0  0
  7 12  1  0  0  0
  8  9  1  0  0  0
  9 10  2  0  0  0
 10 16  1  0  0  0
 10 11  1  0  0  0
 16 17  1  0  0  0
 17 18  1  0  0  0
 18 19  1  0  0  0
 19 20  2  0  0  0
 19 25  1  0  0  0
 20 21  1  0  0  0
 21 22  2  0  0  0
 22 23  1  0  0  0
 23 24  1  0  0  0
 23 25  2  0  0  0
 11 12  2  0  0  0
 12 13  1  0  0  0
 13 14  1  0  0  0
 14 15  1  0  0  0
M  END
> <minimizedAffinity>
-8.13508

$$$$
cs_R1_output_folder/data/smiles/72.pdb


 26 28  0  0  0  0  0  0  0  0999 V2000
   68.6189   46.4907   54.1756 C   0  0  0  0  0  0  0  0  0  0  0  0
   68.3275   46.0679   52.8849 C   0  0  0  0  0  0  0  0  0  0  0  0
   68.6450   46.8688   51.7830 C   0  0  0  0  0  0  0  0  0  0  0  0
   69.2499   48.0884   51.9537 C   0  0  0  0  0  0  0  0  0  0  0  0
   69.5503   48.5309   53.2228 C   0  0  0  0  0  0  0  0  0  0  0  0
   69.2252   47.7167   54.3032 C   0  0  0  0  0  0  0  0  0  0  0  0
   68.2281   46.1218   56.4606 O   0  0  0  0  0  0  0  0  0  0  0  0
   68.2817   45.6323   55.3078 C   0  0  0  0  0  0  0  0  0  0  0  0
   68.0038   44.2490   55.2015 N   0  0  0  0  0  0  0  0  0  0  0  0
   67.6804   43.4536   56.3186 N   0  0  0  0  0  0  0  0  0  0  0  0
   68.7130   42.7262   56.9636 C   0  0  0  0  0  0  0  0  0  0  0  0
   69.8894   43.3425   57.3531 C   0  0  0  0  0  0  0  0  0  0  0  0
   70.9151   42.6385   57.9906 C   0  0  0  0  0  0  0  0  0  0  0  0
   70.7609   41.2911   58.2436 C   0  0  0  0  0  0  0  0  0  0  0  0
   69.6071   40.6521   57.8699 C   0  0  0  0  0  0  0  0  0  0  0  0
   68.6058   41.3724   57.2392 C   0  0  0  0  0  0  0  0  0  0  0  0
   67.4730   40.7285   56.8763 F   0  0  0  0  0  0  0  0  0  0  0  0
   70.3297   50.0900   53.4747 S   0  0  0  0  0  0  0  0  0  0  0  0
   70.0312   50.9353   52.2675 O   0  0  0  0  0  0  0  0  0  0  0  0
   71.8142   49.8649   53.6113 O   0  0  0  0  0  0  0  0  0  0  0  0
   69.6982   50.7486   54.9218 N   0  0  0  0  0  0  0  0  0  0  0  0
   69.1051   52.0134   54.6704 C   0  0  0  0  0  0  0  0  0  0  0  0
   68.9948   52.8084   55.9449 C   0  0  0  0  0  0  0  0  0  0  0  0
   68.6285   51.8501   57.0588 C   0  0  0  0  0  0  0  0  0  0  0  0
   69.8437   50.9822   57.3475 C   0  0  0  0  0  0  0  0  0  0  0  0
   70.5835   50.6772   56.0510 C   0  0  0  0  0  0  0  0  0  0  0  0
  7  8  2  0  0  0
  8  9  1  0  0  0
  8  1  1  0  0  0
  9 10  1  0  0  0
 10 11  1  0  0  0
 11 12  2  0  0  0
 11 16  1  0  0  0
 12 13  1  0  0  0
 13 14  2  0  0  0
 14 15  1  0  0  0
 15 16  2  0  0  0
 16 17  1  0  0  0
  1  2  2  0  0  0
  1  6  1  0  0  0
  2  3  1  0  0  0
  3  4  2  0  0  0
  4  5  1  0  0  0
  5 18  1  0  0  0
  5  6  2  0  0  0
 18 19  2  0  0  0
 18 20  2  0  0  0
 18 21  1  0  0  0
 21 22  1  0  0  0
 21 26  1  0  0  0
 22 23  1  0  0  0
 23 24  1  0  0  0
 24 25  1  0  0  0
 25 26  1  0  0  0
M  END
> <minimizedAffinity>
-9.38843

$$$$
cs_R1_output_folder/data/smiles/73.pdb


 19 20  0  0  0  0  0  0  0  0999 V2000
   69.0975   46.2027   57.2520 O   0  0  0  0  0  0  0  0  0  0  0  0
   68.7984   46.2233   55.8953 C   0  0  0  0  0  0  0  0  0  0  0  0
   68.2351   45.1543   55.2283 C   0  0  0  0  0  0  0  0  0  0  0  0
   67.9578   45.2282   53.8761 C   0  0  0  0  0  0  0  0  0  0  0  0
   68.2452   46.3849   53.1772 C   0  0  0  0  0  0  0  0  0  0  0  0
   68.8054   47.4441   53.8503 C   0  0  0  0  0  0  0  0  0  0  0  0
   69.0873   47.3807   55.2022 C   0  0  0  0  0  0  0  0  0  0  0  0
   67.9491   46.4357   51.7838 N   0  0  0  0  0  0  0  0  0  0  0  0
   68.6257   47.1111   50.9879 O   0  0  0  0  0  0  0  0  0  0  0  0
   66.8878   45.7237   51.2840 O   0  0  0  0  0  0  0  0  0  0  0  0
   70.3205   45.8935   57.7700 C   0  0  0  0  0  0  0  0  0  0  0  0
   71.0535   46.7966   58.2439 O   0  0  0  0  0  0  0  0  0  0  0  0
   74.2189   42.8198   58.0185 C   0  0  0  0  0  0  0  0  0  0  0  0
   72.7313   43.0409   57.9168 C   0  0  0  0  0  0  0  0  0  0  0  0
   71.8832   41.9487   57.8509 C   0  0  0  0  0  0  0  0  0  0  0  0
   70.5099   42.1432   57.7573 C   0  0  0  0  0  0  0  0  0  0  0  0
   69.9900   43.4295   57.7301 C   0  0  0  0  0  0  0  0  0  0  0  0
   70.8229   44.5263   57.7956 C   0  0  0  0  0  0  0  0  0  0  0  0
   72.1798   44.2820   57.8873 C   0  0  0  0  0  0  0  0  0  0  0  0
 13 14  1  0  0  0
 14 15  2  0  0  0
 14 19  1  0  0  0
 15 16  1  0  0  0
 16 17  2  0  0  0
 17 18  1  0  0  0
 18 11  1  0  0  0
 18 19  2  0  0  0
 11 12  2  0  0  0
 11  1  1  0  0  0
  1  2  1  0  0  0
  2  3  2  0  0  0
  2  7  1  0  0  0
  3  4  1  0  0  0
  4  5  2  0  0  0
  5  8  1  0  0  0
  5  6  1  0  0  0
  8  9  2  0  0  0
  8 10  1  0  0  0
  6  7  2  0  0  0
M  CHG 1   8   1
M  CHG 1  10  -1
M  END
> <minimizedAffinity>
-7.35795

$$$$
cs_R1_output_folder/data/smiles/74.pdb


 27 30  0  0  0  0  0  0  0  0999 V2000
   72.4171   49.1548   58.0508 C   0  0  0  0  0  0  0  0  0  0  0  0
   71.3791   48.6412   57.3136 C   0  0  0  0  0  0  0  0  0  0  0  0
   70.1537   49.2975   57.1512 C   0  0  0  0  0  0  0  0  0  0  0  0
   70.0142   50.5026   57.7656 C   0  0  0  0  0  0  0  0  0  0  0  0
   71.0309   51.0834   58.5312 C   0  0  0  0  0  0  0  0  0  0  0  0
   72.2063   50.3850   58.6491 C   0  0  0  0  0  0  0  0  0  0  0  0
   73.2137   50.9477   59.3999 F   0  0  0  0  0  0  0  0  0  0  0  0
   74.5601   48.6056   57.3285 O   0  0  0  0  0  0  0  0  0  0  0  0
   73.6847   48.4856   58.2244 C   0  0  0  0  0  0  0  0  0  0  0  0
   74.0185   47.6922   59.3478 N   0  0  0  0  0  0  0  0  0  0  0  0
   75.3004   47.0311   59.4943 C   0  0  0  0  0  0  0  0  0  0  0  0
   75.8998   47.5094   60.7857 C   0  0  0  0  0  0  0  0  0  0  0  0
   75.1168   48.5779   61.4705 C   0  0  0  0  0  0  0  0  0  0  0  0
   73.6496   48.2768   61.6133 C   0  0  0  0  0  0  0  0  0  0  0  0
   73.0992   47.4699   60.4639 C   0  0  0  0  0  0  0  0  0  0  0  0
   69.0896   48.7047   56.3184 C   0  0  0  0  0  0  0  0  0  0  0  0
   69.3853   48.6885   54.8720 C   0  0  0  0  0  0  0  0  0  0  0  0
   70.1983   49.6457   54.3786 N   0  0  0  0  0  0  0  0  0  0  0  0
   70.5379   49.6712   53.1156 N   0  0  0  0  0  0  0  0  0  0  0  0
   70.1035   48.7516   52.2247 C   0  0  0  0  0  0  0  0  0  0  0  0
   70.4673   48.8327   51.0304 O   0  0  0  0  0  0  0  0  0  0  0  0
   69.2719   47.7458   52.6497 C   0  0  0  0  0  0  0  0  0  0  0  0
   68.7905   46.7912   51.7936 C   0  0  0  0  0  0  0  0  0  0  0  0
   67.9437   45.7824   52.2100 C   0  0  0  0  0  0  0  0  0  0  0  0
   67.6039   45.7862   53.5462 C   0  0  0  0  0  0  0  0  0  0  0  0
   68.0763   46.7411   54.4411 C   0  0  0  0  0  0  0  0  0  0  0  0
   68.9212   47.7341   53.9941 C   0  0  0  0  0  0  0  0  0  0  0  0
  8  9  2  0  0  0
  9  1  1  0  0  0
  9 10  1  0  0  0
  1  2  2  0  0  0
  1  6  1  0  0  0
  2  3  1  0  0  0
  3 16  1  0  0  0
  3  4  2  0  0  0
 16 17  1  0  0  0
 17 18  2  0  0  0
 17 27  1  0  0  0
 18 19  1  0  0  0
 19 20  1  0  0  0
 20 21  2  0  0  0
 20 22  1  0  0  0
 22 23  1  0  0  0
 22 27  2  0  0  0
 23 24  2  0  0  0
 24 25  1  0  0  0
 25 26  2  0  0  0
 26 27  1  0  0  0
  4  5  1  0  0  0
  5  6  2  0  0  0
  6  7  1  0  0  0
 10 11  1  0  0  0
 10 15  1  0  0  0
 11 12  1  0  0  0
 12 13  1  0  0  0
 13 14  1  0  0  0
 14 15  1  0  0  0
M  END
> <minimizedAffinity>
-8.19584

$$$$
cs_R1_output_folder/data/smiles/75.pdb


 24 26  0  0  0  0  0  0  0  0999 V2000
   70.0373   49.8385   52.4007 O   0  0  0  0  0  0  0  0  0  0  0  0
   70.1631   49.5049   53.6252 C   0  0  0  0  0  0  0  0  0  0  0  0
   69.4392   48.3718   54.1589 C   0  0  0  0  0  0  0  0  0  0  0  0
   69.3831   48.2594   55.5600 C   0  0  0  0  0  0  0  0  0  0  0  0
   68.7153   47.2155   56.1636 C   0  0  0  0  0  0  0  0  0  0  0  0
   68.6647   47.1142   57.4283 O   0  0  0  0  0  0  0  0  0  0  0  0
   68.0953   46.2697   55.4392 N   0  0  0  0  0  0  0  0  0  0  0  0
   68.1193   46.3313   54.0968 C   0  0  0  0  0  0  0  0  0  0  0  0
   67.4846   45.3627   53.3534 C   0  0  0  0  0  0  0  0  0  0  0  0
   67.5108   45.4267   51.9851 C   0  0  0  0  0  0  0  0  0  0  0  0
   68.1641   46.4480   51.3513 C   0  0  0  0  0  0  0  0  0  0  0  0
   68.8015   47.4211   52.1032 C   0  0  0  0  0  0  0  0  0  0  0  0
   68.7966   47.3897   53.4770 C   0  0  0  0  0  0  0  0  0  0  0  0
   71.0358   50.3486   54.2766 O   0  0  0  0  0  0  0  0  0  0  0  0
   71.1155   51.7454   54.0566 C   0  0  0  0  0  0  0  0  0  0  0  0
   72.4138   52.1659   53.7730 O   0  0  0  0  0  0  0  0  0  0  0  0
   70.7070   52.3901   55.2808 N   0  0  0  0  0  0  0  0  0  0  0  0
   69.7451   51.8278   56.1519 C   0  0  0  0  0  0  0  0  0  0  0  0
   70.1183   51.2357   57.3490 C   0  0  0  0  0  0  0  0  0  0  0  0
   69.2180   50.6764   58.2335 C   0  0  0  0  0  0  0  0  0  0  0  0
   67.8753   50.6961   57.9333 C   0  0  0  0  0  0  0  0  0  0  0  0
   67.4809   51.2829   56.7398 C   0  0  0  0  0  0  0  0  0  0  0  0
   68.3953   51.8364   55.8690 C   0  0  0  0  0  0  0  0  0  0  0  0
   67.9965   52.4136   54.6945 F   0  0  0  0  0  0  0  0  0  0  0  0
  1  2  2  0  0  0
  2 14  1  0  0  0
  2  3  1  0  0  0
 14 15  1  0  0  0
 15 16  1  0  0  0
 15 17  1  0  0  0
 17 18  1  0  0  0
 18 19  2  0  0  0
 18 23  1  0  0  0
 19 20  1  0  0  0
 20 21  2  0  0  0
 21 22  1  0  0  0
 22 23  2  0  0  0
 23 24  1  0  0  0
  3  4  2  0  0  0
  3 13  1  0  0  0
  4  5  1  0  0  0
  5  6  2  0  0  0
  5  7  1  0  0  0
  7  8  1  0  0  0
  8  9  1  0  0  0
  8 13  2  0  0  0
  9 10  2  0  0  0
 10 11  1  0  0  0
 11 12  2  0  0  0
 12 13  1  0  0  0
M  END
> <minimizedAffinity>
-8.53934

$$$$
cs_R1_output_folder/data/smiles/76.pdb


 26 27  0  0  0  0  0  0  0  0999 V2000
   69.2296   51.0912   56.6693 C   0  0  0  0  0  0  0  0  0  0  0  0
   69.1838   52.1125   56.9973 C   0  0  0  0  0  0  0  0  0  0  0  0
   69.0594   53.0522   55.7604 C   0  0  0  0  0  0  0  0  0  0  0  0
   69.0478   52.3760   54.5819 C   0  0  0  0  0  0  0  0  0  0  0  0
   69.1240   51.0112   54.3775 C   0  0  0  0  0  0  0  0  0  0  0  0
   69.2382   50.1214   55.5387 C   0  0  0  0  0  0  0  0  0  0  0  0
   70.7459   49.4083   58.4274 C   0  0  0  0  0  0  0  0  0  0  0  0
   70.1202   50.0873   57.7141 C   0  0  0  0  0  0  0  0  0  0  0  0
   72.1523   47.9272   60.0005 C   0  0  0  0  0  0  0  0  0  0  0  0
   71.5032   48.6176   59.2584 C   0  0  0  0  0  0  0  0  0  0  0  0
   73.7072   47.4257   61.8176 C   0  0  0  0  0  0  0  0  0  0  0  0
   72.8779   47.1355   60.8647 C   0  0  0  0  0  0  0  0  0  0  0  0
   74.2384   46.4705   63.8926 O   0  0  0  0  0  0  0  0  0  0  0  0
   74.4246   46.4999   62.6584 C   0  0  0  0  0  0  0  0  0  0  0  0
   75.3781   45.5767   62.1257 N   0  0  0  0  0  0  0  0  0  0  0  0
   76.0388   44.7172   62.9289 O   0  0  0  0  0  0  0  0  0  0  0  0
   69.0575   50.4839   53.0888 N   0  0  0  0  0  0  0  0  0  0  0  0
   69.9359   49.1342   52.5494 S   0  0  0  0  0  0  0  0  0  0  0  0
   70.1857   49.2427   51.0569 O   0  0  0  0  0  0  0  0  0  0  0  0
   71.2857   49.1316   53.1874 O   0  0  0  0  0  0  0  0  0  0  0  0
   69.0466   47.6742   52.9026 C   0  0  0  0  0  0  0  0  0  0  0  0
   68.4800   46.8627   51.9670 C   0  0  0  0  0  0  0  0  0  0  0  0
   67.8105   45.6753   52.2588 C   0  0  0  0  0  0  0  0  0  0  0  0
   67.7159   45.3087   53.5953 C   0  0  0  0  0  0  0  0  0  0  0  0
   68.2635   46.0800   54.5811 C   0  0  0  0  0  0  0  0  0  0  0  0
   68.9209   47.2484   54.2314 C   0  0  0  0  0  0  0  0  0  0  0  0
 13 14  2  0  0  0
 14 11  1  0  0  0
 14 15  1  0  0  0
 11 12  2  0  0  0
 12  9  1  0  0  0
  9 10  3  0  0  0
 10  7  1  0  0  0
  7  8  3  0  0  0
  8  1  1  0  0  0
  1  2  2  0  0  0
  1  6  1  0  0  0
  2  3  1  0  0  0
  3  4  2  0  0  0
  4  5  1  0  0  0
  5 17  1  0  0  0
  5  6  2  0  0  0
 17 18  1  0  0  0
 18 19  2  0  0  0
 18 20  2  0  0  0
 18 21  1  0  0  0
 21 22  2  0  0  0
 21 26  1  0  0  0
 22 23  1  0  0  0
 23 24  2  0  0  0
 24 25  1  0  0  0
 25 26  2  0  0  0
 15 16  1  0  0  0
M  END
> <minimizedAffinity>
-8.67186

$$$$
cs_R1_output_folder/data/smiles/77.pdb


 23 24  0  0  0  0  0  0  0  0999 V2000
   69.5444   48.0004   54.7152 C   0  0  0  0  0  0  0  0  0  0  0  0
   69.0506   47.6719   52.2820 C   0  0  0  0  0  0  0  0  0  0  0  0
   68.3635   46.9909   51.2939 N   0  0  0  0  0  0  0  0  0  0  0  0
   67.4776   46.0363   51.5744 C   0  0  0  0  0  0  0  0  0  0  0  0
   66.8693   45.4362   50.6262 O   0  0  0  0  0  0  0  0  0  0  0  0
   67.2511   45.7310   52.8592 N   0  0  0  0  0  0  0  0  0  0  0  0
   67.8848   46.3538   53.8625 C   0  0  0  0  0  0  0  0  0  0  0  0
   67.6921   46.0898   55.0725 O   0  0  0  0  0  0  0  0  0  0  0  0
   68.8229   47.3631   53.5877 C   0  0  0  0  0  0  0  0  0  0  0  0
   69.8152   49.6469   51.1019 O   0  0  0  0  0  0  0  0  0  0  0  0
   69.9766   48.7169   51.9040 C   0  0  0  0  0  0  0  0  0  0  0  0
   71.2485   48.6973   52.5211 O   0  0  0  0  0  0  0  0  0  0  0  0
   68.6106   48.9987   55.3422 C   0  0  0  0  0  0  0  0  0  0  0  0
   69.1820   49.9190   56.3146 C   0  0  0  0  0  0  0  0  0  0  0  0
   69.5443   49.3696   57.5449 C   0  0  0  0  0  0  0  0  0  0  0  0
   70.1098   50.0882   58.5653 C   0  0  0  0  0  0  0  0  0  0  0  0
   70.3209   51.4236   58.3376 C   0  0  0  0  0  0  0  0  0  0  0  0
   69.9755   51.9882   57.1423 C   0  0  0  0  0  0  0  0  0  0  0  0
   69.3970   51.2426   56.1059 C   0  0  0  0  0  0  0  0  0  0  0  0
   69.0423   51.9567   54.8470 C   0  0  0  0  0  0  0  0  0  0  0  0
   69.3816   53.3129   55.0020 F   0  0  0  0  0  0  0  0  0  0  0  0
   69.8778   51.5591   53.7883 F   0  0  0  0  0  0  0  0  0  0  0  0
   67.7220   51.8836   54.5224 F   0  0  0  0  0  0  0  0  0  0  0  0
 10 11  2  0  0  0
 11 12  1  0  0  0
 11  2  1  0  0  0
  2  3  1  0  0  0
  2  9  2  0  0  0
  3  4  1  0  0  0
  4  5  2  0  0  0
  4  6  1  0  0  0
  6  7  1  0  0  0
  7  8  2  0  0  0
  7  9  1  0  0  0
  9  1  1  0  0  0
  1 13  1  0  0  0
 13 14  1  0  0  0
 14 15  2  0  0  0
 14 19  1  0  0  0
 15 16  1  0  0  0
 16 17  2  0  0  0
 17 18  1  0  0  0
 18 19  2  0  0  0
 19 20  1  0  0  0
 20 21  1  0  0  0
 20 22  1  0  0  0
 20 23  1  0  0  0
M  END
> <minimizedAffinity>
-8.32676

$$$$
cs_R1_output_folder/data/smiles/78.pdb


 24 26  0  0  0  0  0  0  0  0999 V2000
   68.1263   46.9376   53.9384 C   0  0  0  0  0  0  0  0  0  0  0  0
   68.6002   44.3312   56.2135 O   0  0  0  0  0  0  0  0  0  0  0  0
   68.5828   45.5247   55.8339 C   0  0  0  0  0  0  0  0  0  0  0  0
   68.5078   46.7277   55.3544 C   0  0  0  0  0  0  0  0  0  0  0  0
   68.8040   47.8410   56.2377 C   0  0  0  0  0  0  0  0  0  0  0  0
   70.0957   48.1571   56.6290 C   0  0  0  0  0  0  0  0  0  0  0  0
   70.3629   49.2183   57.4685 C   0  0  0  0  0  0  0  0  0  0  0  0
   69.3436   50.0106   57.9535 C   0  0  0  0  0  0  0  0  0  0  0  0
   69.6239   51.0534   58.7798 F   0  0  0  0  0  0  0  0  0  0  0  0
   68.0575   49.6989   57.5649 C   0  0  0  0  0  0  0  0  0  0  0  0
   67.0568   50.4736   58.0390 F   0  0  0  0  0  0  0  0  0  0  0  0
   67.7896   48.6376   56.7261 C   0  0  0  0  0  0  0  0  0  0  0  0
   69.3184   47.0586   53.1875 O   0  0  0  0  0  0  0  0  0  0  0  0
   69.6866   48.2471   52.5573 C   0  0  0  0  0  0  0  0  0  0  0  0
   69.3798   48.3458   51.3427 O   0  0  0  0  0  0  0  0  0  0  0  0
   70.3841   49.3173   53.2447 C   0  0  0  0  0  0  0  0  0  0  0  0
   71.7148   49.4068   53.3759 N   0  0  0  0  0  0  0  0  0  0  0  0
   72.0375   50.5106   54.0615 N   0  0  0  0  0  0  0  0  0  0  0  0
   70.9259   51.1785   54.4000 C   0  0  0  0  0  0  0  0  0  0  0  0
   70.6931   52.3432   55.0905 C   0  0  0  0  0  0  0  0  0  0  0  0
   69.3831   52.7410   55.2548 C   0  0  0  0  0  0  0  0  0  0  0  0
   68.3345   52.0042   54.7492 C   0  0  0  0  0  0  0  0  0  0  0  0
   68.5817   50.8395   54.0597 C   0  0  0  0  0  0  0  0  0  0  0  0
   69.8745   50.4191   53.8805 C   0  0  0  0  0  0  0  0  0  0  0  0
  2  3  2  0  0  0
  3  4  2  0  0  0
  4  1  1  0  0  0
  4  5  1  0  0  0
  1 13  1  0  0  0
 13 14  1  0  0  0
 14 15  2  0  0  0
 14 16  1  0  0  0
 16 17  1  0  0  0
 16 24  2  0  0  0
 17 18  1  0  0  0
 18 19  2  0  0  0
 19 20  1  0  0  0
 19 24  1  0  0  0
 20 21  2  0  0  0
 21 22  1  0  0  0
 22 23  2  0  0  0
 23 24  1  0  0  0
  5  6  2  0  0  0
  5 12  1  0  0  0
  6  7  1  0  0  0
  7  8  2  0  0  0
  8  9  1  0  0  0
  8 10  1  0  0  0
 10 11  1  0  0  0
 10 12  2  0  0  0
M  END
> <minimizedAffinity>
-7.61899

$$$$
cs_R1_output_folder/data/smiles/79.pdb


 27 28  0  0  0  0  0  0  0  0999 V2000
   69.9579   49.1856   52.6005 S   0  0  0  0  0  0  0  0  0  0  0  0
   71.4029   49.1893   53.0286 O   0  0  0  0  0  0  0  0  0  0  0  0
   69.9072   49.1417   51.1022 O   0  0  0  0  0  0  0  0  0  0  0  0
   69.1619   47.7233   53.1864 C   0  0  0  0  0  0  0  0  0  0  0  0
   69.1316   47.4303   54.5397 C   0  0  0  0  0  0  0  0  0  0  0  0
   69.7293   48.3038   55.4021 F   0  0  0  0  0  0  0  0  0  0  0  0
   68.5379   46.3173   55.0566 C   0  0  0  0  0  0  0  0  0  0  0  0
   68.5177   46.0367   56.4308 O   0  0  0  0  0  0  0  0  0  0  0  0
   67.9311   45.4296   54.1814 C   0  0  0  0  0  0  0  0  0  0  0  0
   67.3304   44.3103   54.6667 F   0  0  0  0  0  0  0  0  0  0  0  0
   67.9417   45.6928   52.8119 C   0  0  0  0  0  0  0  0  0  0  0  0
   67.3555   44.8410   51.9334 F   0  0  0  0  0  0  0  0  0  0  0  0
   68.5585   46.8398   52.3219 C   0  0  0  0  0  0  0  0  0  0  0  0
   68.5478   47.0506   50.9854 F   0  0  0  0  0  0  0  0  0  0  0  0
   69.1350   50.5877   53.1415 N   0  0  0  0  0  0  0  0  0  0  0  0
   71.1152   53.1513   55.8310 C   0  0  0  0  0  0  0  0  0  0  0  0
   69.7433   53.1592   55.8123 C   0  0  0  0  0  0  0  0  0  0  0  0
   69.0903   52.3054   54.9221 C   0  0  0  0  0  0  0  0  0  0  0  0
   69.7655   51.4608   54.0668 C   0  0  0  0  0  0  0  0  0  0  0  0
   71.1643   51.5128   54.1464 C   0  0  0  0  0  0  0  0  0  0  0  0
   71.8495   52.3359   55.0059 C   0  0  0  0  0  0  0  0  0  0  0  0
   73.2842   52.3327   55.0306 N   0  0  0  0  0  0  0  0  0  0  0  0
   74.0579   51.2061   55.3708 C   0  0  0  0  0  0  0  0  0  0  0  0
   75.4710   51.1758   55.4033 N   0  0  0  0  0  0  0  0  0  0  0  0
   73.4394   50.1451   55.6685 O   0  0  0  0  0  0  0  0  0  0  0  0
   72.2682   53.6258   57.9602 C   0  0  0  0  0  0  0  0  0  0  0  0
   71.7885   53.9834   56.6991 O   0  0  0  0  0  0  0  0  0  0  0  0
 26 27  1  0  0  0
 27 16  1  0  0  0
 16 17  2  0  0  0
 16 21  1  0  0  0
 17 18  1  0  0  0
 18 19  2  0  0  0
 19 15  1  0  0  0
 19 20  1  0  0  0
 15  1  1  0  0  0
  1  2  2  0  0  0
  1  3  2  0  0  0
  1  4  1  0  0  0
  4  5  2  0  0  0
  4 13  1  0  0  0
  5  6  1  0  0  0
  5  7  1  0  0  0
  7  8  1  0  0  0
  7  9  2  0  0  0
  9 10  1  0  0  0
  9 11  1  0  0  0
 11 12  1  0  0  0
 11 13  2  0  0  0
 13 14  1  0  0  0
 20 21  2  0  0  0
 21 22  1  0  0  0
 22 23  1  0  0  0
 23 24  1  0  0  0
 23 25  2  0  0  0
M  END
> <minimizedAffinity>
-9.68589

$$$$
cs_R1_output_folder/data/smiles/80.pdb


 20 22  0  0  0  0  0  0  0  0999 V2000
   76.0561   43.8945   58.4084 O   0  0  0  0  0  0  0  0  0  0  0  0
   74.8115   43.6661   58.5381 C   0  0  0  0  0  0  0  0  0  0  0  0
   74.2840   42.3147   58.8727 C   0  0  0  0  0  0  0  0  0  0  0  0
   73.0652   41.9655   58.0896 C   0  0  0  0  0  0  0  0  0  0  0  0
   72.1154   43.0928   57.9280 C   0  0  0  0  0  0  0  0  0  0  0  0
   70.7992   42.8315   57.6307 C   0  0  0  0  0  0  0  0  0  0  0  0
   69.8604   43.8148   57.4665 C   0  0  0  0  0  0  0  0  0  0  0  0
   70.2109   45.1798   57.5977 C   0  0  0  0  0  0  0  0  0  0  0  0
   71.5332   45.4144   57.8949 C   0  0  0  0  0  0  0  0  0  0  0  0
   72.4831   44.4068   58.0614 C   0  0  0  0  0  0  0  0  0  0  0  0
   73.8407   44.7008   58.3675 N   0  0  0  0  0  0  0  0  0  0  0  0
   69.2534   46.1093   57.4251 O   0  0  0  0  0  0  0  0  0  0  0  0
   69.0367   47.2052   56.6443 C   0  0  0  0  0  0  0  0  0  0  0  0
   68.8083   46.9573   55.2021 C   0  0  0  0  0  0  0  0  0  0  0  0
   68.1596   45.8738   54.6730 C   0  0  0  0  0  0  0  0  0  0  0  0
   68.0025   45.7209   53.2920 C   0  0  0  0  0  0  0  0  0  0  0  0
   68.4948   46.6535   52.4059 C   0  0  0  0  0  0  0  0  0  0  0  0
   69.1489   47.7469   52.9287 C   0  0  0  0  0  0  0  0  0  0  0  0
   69.7894   48.9591   51.8357 Cl  0  0  0  0  0  0  0  0  0  0  0  0
   69.3023   47.8972   54.2894 C   0  0  0  0  0  0  0  0  0  0  0  0
  1  2  2  0  0  0
  2  3  1  0  0  0
  2 11  1  0  0  0
  3  4  1  0  0  0
  4  5  1  0  0  0
  5  6  1  0  0  0
  5 10  2  0  0  0
  6  7  2  0  0  0
  7  8  1  0  0  0
  8 12  1  0  0  0
  8  9  2  0  0  0
 12 13  1  0  0  0
 13 14  1  0  0  0
 14 15  2  0  0  0
 14 20  1  0  0  0
 15 16  1  0  0  0
 16 17  2  0  0  0
 17 18  1  0  0  0
 18 19  1  0  0  0
 18 20  2  0  0  0
  9 10  1  0  0  0
 10 11  1  0  0  0
M  END
> <minimizedAffinity>
-6.93013

$$$$
cs_R1_output_folder/data/smiles/81.pdb


 28 30  0  0  0  0  0  0  0  0999 V2000
   68.5245   41.7572   57.5989 C   0  0  0  0  0  0  0  0  0  0  0  0
   67.3229   41.8015   58.2819 C   0  0  0  0  0  0  0  0  0  0  0  0
   66.8716   40.7117   59.0052 C   0  0  0  0  0  0  0  0  0  0  0  0
   67.6495   39.5673   59.0328 C   0  0  0  0  0  0  0  0  0  0  0  0
   68.8464   39.4883   58.3664 C   0  0  0  0  0  0  0  0  0  0  0  0
   69.2542   40.6111   57.6544 C   0  0  0  0  0  0  0  0  0  0  0  0
   68.0093   43.7368   56.0968 N   0  0  0  0  0  0  0  0  0  0  0  0
   68.9205   42.9706   56.8559 C   0  0  0  0  0  0  0  0  0  0  0  0
   70.0987   43.3341   56.8964 O   0  0  0  0  0  0  0  0  0  0  0  0
   68.2845   46.2636   53.3732 C   0  0  0  0  0  0  0  0  0  0  0  0
   68.8396   47.3306   54.0371 C   0  0  0  0  0  0  0  0  0  0  0  0
   69.1020   47.1566   55.3899 C   0  0  0  0  0  0  0  0  0  0  0  0
   68.8299   45.9898   56.0473 C   0  0  0  0  0  0  0  0  0  0  0  0
   68.2613   44.9063   55.3480 C   0  0  0  0  0  0  0  0  0  0  0  0
   67.9971   45.0550   54.0311 C   0  0  0  0  0  0  0  0  0  0  0  0
   68.8349   47.0880   51.1031 N   0  0  0  0  0  0  0  0  0  0  0  0
   67.9733   46.3505   51.9536 C   0  0  0  0  0  0  0  0  0  0  0  0
   66.9691   45.7977   51.4428 O   0  0  0  0  0  0  0  0  0  0  0  0
   69.6596   38.3330   58.3787 N   0  0  0  0  0  0  0  0  0  0  0  0
   71.0667   38.3500   58.3436 C   0  0  0  0  0  0  0  0  0  0  0  0
   71.6273   39.4916   58.2983 O   0  0  0  0  0  0  0  0  0  0  0  0
   71.9098   37.1632   58.3575 C   0  0  0  0  0  0  0  0  0  0  0  0
   72.4260   36.5799   57.2248 C   0  0  0  0  0  0  0  0  0  0  0  0
   73.2259   35.4442   57.2991 C   0  0  0  0  0  0  0  0  0  0  0  0
   73.5333   34.8587   58.5053 C   0  0  0  0  0  0  0  0  0  0  0  0
   73.0112   35.4485   59.6610 C   0  0  0  0  0  0  0  0  0  0  0  0
   72.2172   36.5777   59.5667 C   0  0  0  0  0  0  0  0  0  0  0  0
   71.5846   37.2842   61.0377 Cl  0  0  0  0  0  0  0  0  0  0  0  0
 16 17  1  0  0  0
 17 18  2  0  0  0
 17 10  1  0  0  0
 10 11  2  0  0  0
 10 15  1  0  0  0
 11 12  1  0  0  0
 12 13  2  0  0  0
 13 14  1  0  0  0
 14  7  1  0  0  0
 14 15  2  0  0  0
  7  8  1  0  0  0
  8  9  2  0  0  0
  8  1  1  0  0  0
  1  2  2  0  0  0
  1  6  1  0  0  0
  2  3  1  0  0  0
  3  4  2  0  0  0
  4  5  1  0  0  0
  5 19  1  0  0  0
  5  6  2  0  0  0
 19 20  1  0  0  0
 20 21  2  0  0  0
 20 22  1  0  0  0
 22 23  2  0  0  0
 22 27  1  0  0  0
 23 24  1  0  0  0
 24 25  2  0  0  0
 25 26  1  0  0  0
 26 27  2  0  0  0
 27 28  1  0  0  0
M  END
> <minimizedAffinity>
-8.61937

$$$$
cs_R1_output_folder/data/smiles/82.pdb


 22 24  0  0  0  0  0  0  0  0999 V2000
   67.6083   47.5648   57.0398 O   0  0  0  0  0  0  0  0  0  0  0  0
   68.6172   47.2894   56.3982 C   0  0  0  0  0  0  0  0  0  0  0  0
   69.0034   47.7522   55.0784 C   0  0  0  0  0  0  0  0  0  0  0  0
   69.8078   48.9094   54.9898 C   0  0  0  0  0  0  0  0  0  0  0  0
   70.1881   49.3724   53.7671 C   0  0  0  0  0  0  0  0  0  0  0  0
   69.8240   48.7626   52.5918 C   0  0  0  0  0  0  0  0  0  0  0  0
   69.0427   47.6374   52.6602 C   0  0  0  0  0  0  0  0  0  0  0  0
   68.6772   47.0259   51.4885 C   0  0  0  0  0  0  0  0  0  0  0  0
   67.8956   45.9004   51.5551 C   0  0  0  0  0  0  0  0  0  0  0  0
   67.4915   45.4026   52.7701 C   0  0  0  0  0  0  0  0  0  0  0  0
   67.8527   46.0103   53.9659 C   0  0  0  0  0  0  0  0  0  0  0  0
   68.6409   47.1461   53.9112 C   0  0  0  0  0  0  0  0  0  0  0  0
   69.4731   46.3937   57.1039 O   0  0  0  0  0  0  0  0  0  0  0  0
   70.3781   46.8360   58.0587 C   0  0  0  0  0  0  0  0  0  0  0  0
   70.6363   48.1655   58.3027 C   0  0  0  0  0  0  0  0  0  0  0  0
   71.5468   48.5802   59.2646 C   0  0  0  0  0  0  0  0  0  0  0  0
   72.2302   47.6524   60.0157 C   0  0  0  0  0  0  0  0  0  0  0  0
   71.9805   46.3189   59.7795 C   0  0  0  0  0  0  0  0  0  0  0  0
   71.0645   45.9064   58.8135 C   0  0  0  0  0  0  0  0  0  0  0  0
   73.1808   48.0398   61.0200 N   0  0  0  0  0  0  0  0  0  0  0  0
   72.9308   47.9406   62.2314 O   0  0  0  0  0  0  0  0  0  0  0  0
   74.4156   48.5397   60.6814 O   0  0  0  0  0  0  0  0  0  0  0  0
  1  2  2  0  0  0
  2 13  1  0  0  0
  2  3  1  0  0  0
 13 14  1  0  0  0
 14 15  2  0  0  0
 14 19  1  0  0  0
 15 16  1  0  0  0
 16 17  2  0  0  0
 17 20  1  0  0  0
 17 18  1  0  0  0
 20 21  2  0  0  0
 20 22  1  0  0  0
 18 19  2  0  0  0
  3  4  2  0  0  0
  3 12  1  0  0  0
  4  5  1  0  0  0
  5  6  2  0  0  0
  6  7  1  0  0  0
  7  8  1  0  0  0
  7 12  2  0  0  0
  8  9  2  0  0  0
  9 10  1  0  0  0
 10 11  2  0  0  0
 11 12  1  0  0  0
M  CHG 1  20   1
M  CHG 1  22  -1
M  END
> <minimizedAffinity>
-8.11768

$$$$
cs_R1_output_folder/data/smiles/83.pdb


 21 22  0  0  0  0  0  0  0  0999 V2000
   68.5882   47.4072   55.1880 C   0  0  0  0  0  0  0  0  0  0  0  0
   67.8120   46.4812   54.5342 C   0  0  0  0  0  0  0  0  0  0  0  0
   67.8598   46.3039   53.1411 C   0  0  0  0  0  0  0  0  0  0  0  0
   67.0620   45.3614   52.5377 O   0  0  0  0  0  0  0  0  0  0  0  0
   68.7103   47.0777   52.3743 C   0  0  0  0  0  0  0  0  0  0  0  0
   68.7703   46.9142   50.9864 O   0  0  0  0  0  0  0  0  0  0  0  0
   69.4854   48.0042   53.0216 C   0  0  0  0  0  0  0  0  0  0  0  0
   69.4279   48.1680   54.3932 C   0  0  0  0  0  0  0  0  0  0  0  0
   70.3743   48.8426   52.2959 N   0  0  0  0  0  0  0  0  0  0  0  0
   71.5139   49.0095   52.7299 O   0  0  0  0  0  0  0  0  0  0  0  0
   69.9873   49.4651   51.1404 O   0  0  0  0  0  0  0  0  0  0  0  0
   69.1501   46.6255   57.2904 O   0  0  0  0  0  0  0  0  0  0  0  0
   68.5133   47.4939   56.6293 C   0  0  0  0  0  0  0  0  0  0  0  0
   67.7201   48.5582   57.3259 C   0  0  0  0  0  0  0  0  0  0  0  0
   68.4022   49.8731   57.1864 C   0  0  0  0  0  0  0  0  0  0  0  0
   69.6200   50.1713   57.7557 C   0  0  0  0  0  0  0  0  0  0  0  0
   70.2488   51.3837   57.6136 C   0  0  0  0  0  0  0  0  0  0  0  0
   69.6395   52.3679   56.8661 C   0  0  0  0  0  0  0  0  0  0  0  0
   70.3917   53.9267   56.6157 Cl  0  0  0  0  0  0  0  0  0  0  0  0
   68.3995   52.0924   56.2767 C   0  0  0  0  0  0  0  0  0  0  0  0
   67.7984   50.8685   56.4375 C   0  0  0  0  0  0  0  0  0  0  0  0
 12 13  2  0  0  0
 13 14  1  0  0  0
 13  1  1  0  0  0
 14 15  1  0  0  0
 15 16  2  0  0  0
 15 21  1  0  0  0
 16 17  1  0  0  0
 17 18  2  0  0  0
 18 19  1  0  0  0
 18 20  1  0  0  0
 20 21  2  0  0  0
  1  2  2  0  0  0
  1  8  1  0  0  0
  2  3  1  0  0  0
  3  4  1  0  0  0
  3  5  2  0  0  0
  5  6  1  0  0  0
  5  7  1  0  0  0
  7  9  1  0  0  0
  7  8  2  0  0  0
  9 10  2  0  0  0
  9 11  1  0  0  0
M  CHG 1   9   1
M  CHG 1  11  -1
M  END
> <minimizedAffinity>
-8.85021

$$$$
cs_R1_output_folder/data/smiles/84.pdb


 22 24  0  0  0  0  0  0  0  0999 V2000
   68.1941   45.6586   55.9125 N   0  0  0  0  0  0  0  0  0  0  0  0
   69.0846   47.6960   52.9168 C   0  0  0  0  0  0  0  0  0  0  0  0
   68.5678   46.9332   51.8909 C   0  0  0  0  0  0  0  0  0  0  0  0
   67.9315   45.7636   52.2258 C   0  0  0  0  0  0  0  0  0  0  0  0
   67.8196   45.3750   53.5313 C   0  0  0  0  0  0  0  0  0  0  0  0
   68.3370   46.1355   54.5911 C   0  0  0  0  0  0  0  0  0  0  0  0
   68.9726   47.3052   54.2611 C   0  0  0  0  0  0  0  0  0  0  0  0
   71.4647   49.3032   53.1886 N   0  0  0  0  0  0  0  0  0  0  0  0
   69.8920   49.1891   52.4987 S   0  0  0  0  0  0  0  0  0  0  0  0
   70.0389   49.3051   50.9937 O   0  0  0  0  0  0  0  0  0  0  0  0
   69.0629   50.3450   53.0372 O   0  0  0  0  0  0  0  0  0  0  0  0
   68.4840   44.3278   56.2730 C   0  0  0  0  0  0  0  0  0  0  0  0
   67.5093   43.3944   56.0624 N   0  0  0  0  0  0  0  0  0  0  0  0
   67.6973   42.1092   56.3926 C   0  0  0  0  0  0  0  0  0  0  0  0
   68.8952   41.6694   56.9647 C   0  0  0  0  0  0  0  0  0  0  0  0
   69.8702   42.6230   57.1732 C   0  0  0  0  0  0  0  0  0  0  0  0
   69.5950   43.8698   56.8146 N   0  0  0  0  0  0  0  0  0  0  0  0
   71.1441   42.2199   57.7670 C   0  0  0  0  0  0  0  0  0  0  0  0
   72.2793   42.9143   57.7215 C   0  0  0  0  0  0  0  0  0  0  0  0
   73.3767   42.2110   58.4275 C   0  0  0  0  0  0  0  0  0  0  0  0
   72.7167   40.9908   58.8996 C   0  0  0  0  0  0  0  0  0  0  0  0
   71.4463   41.0114   58.5146 C   0  0  0  0  0  0  0  0  0  0  0  0
  8  9  1  0  0  0
  9 10  2  0  0  0
  9 11  2  0  0  0
  9  2  1  0  0  0
  2  3  2  0  0  0
  2  7  1  0  0  0
  3  4  1  0  0  0
  4  5  2  0  0  0
  5  6  1  0  0  0
  6  1  1  0  0  0
  6  7  2  0  0  0
  1 12  1  0  0  0
 12 13  2  0  0  0
 12 17  1  0  0  0
 13 14  1  0  0  0
 14 15  2  0  0  0
 15 16  1  0  0  0
 16 18  1  0  0  0
 16 17  2  0  0  0
 18 19  2  0  0  0
 18 22  1  0  0  0
 19 20  1  0  0  0
 20 21  1  0  0  0
 21 22  2  0  0  0
M  END
> <minimizedAffinity>
-9.16851

$$$$
cs_R1_output_folder/data/smiles/85.pdb


 19 20  0  0  0  0  0  0  0  0999 V2000
   68.7551   46.9949   54.9603 C   0  0  0  0  0  0  0  0  0  0  0  0
   67.9761   46.0706   54.3348 C   0  0  0  0  0  0  0  0  0  0  0  0
   67.8341   46.0018   52.9394 C   0  0  0  0  0  0  0  0  0  0  0  0
   67.0363   45.0429   52.3416 O   0  0  0  0  0  0  0  0  0  0  0  0
   68.4815   46.8841   52.1061 C   0  0  0  0  0  0  0  0  0  0  0  0
   68.3552   46.8281   50.7261 O   0  0  0  0  0  0  0  0  0  0  0  0
   69.2778   47.8399   52.7203 C   0  0  0  0  0  0  0  0  0  0  0  0
   69.4108   47.8974   54.0815 C   0  0  0  0  0  0  0  0  0  0  0  0
   69.9457   48.7803   51.8679 N   0  0  0  0  0  0  0  0  0  0  0  0
   70.6366   48.4140   50.8976 O   0  0  0  0  0  0  0  0  0  0  0  0
   69.8420   50.1217   52.1114 O   0  0  0  0  0  0  0  0  0  0  0  0
   69.0910   45.9393   56.9797 O   0  0  0  0  0  0  0  0  0  0  0  0
   69.0453   47.0775   56.3714 C   0  0  0  0  0  0  0  0  0  0  0  0
   69.2720   48.2628   57.1421 C   0  0  0  0  0  0  0  0  0  0  0  0
   68.2243   49.2022   57.2639 C   0  0  0  0  0  0  0  0  0  0  0  0
   68.3647   50.3777   57.9604 C   0  0  0  0  0  0  0  0  0  0  0  0
   69.5453   50.7035   58.5849 C   0  0  0  0  0  0  0  0  0  0  0  0
   70.5785   49.8146   58.4855 C   0  0  0  0  0  0  0  0  0  0  0  0
   70.4234   48.6216   57.7702 C   0  0  0  0  0  0  0  0  0  0  0  0
 12 13  2  0  0  0
 13 14  1  0  0  0
 13  1  1  0  0  0
 14 15  2  0  0  0
 14 19  1  0  0  0
 15 16  1  0  0  0
 16 17  2  0  0  0
 17 18  1  0  0  0
 18 19  2  0  0  0
  1  2  2  0  0  0
  1  8  1  0  0  0
  2  3  1  0  0  0
  3  4  1  0  0  0
  3  5  2  0  0  0
  5  6  1  0  0  0
  5  7  1  0  0  0
  7  9  1  0  0  0
  7  8  2  0  0  0
  9 10  2  0  0  0
  9 11  1  0  0  0
M  CHG 1   9   1
M  CHG 1  11  -1
M  END
> <minimizedAffinity>
-8.46926

$$$$
cs_R1_output_folder/data/smiles/86.pdb


 26 29  0  0  0  0  0  0  0  0999 V2000
   74.0691   50.6778   55.8244 C   0  0  0  0  0  0  0  0  0  0  0  0
   73.5588   51.4993   54.8436 C   0  0  0  0  0  0  0  0  0  0  0  0
   72.2292   51.4958   54.4621 C   0  0  0  0  0  0  0  0  0  0  0  0
   71.3286   50.6369   55.0704 C   0  0  0  0  0  0  0  0  0  0  0  0
   71.8800   49.8251   56.0519 C   0  0  0  0  0  0  0  0  0  0  0  0
   73.1771   49.8512   56.4021 N   0  0  0  0  0  0  0  0  0  0  0  0
   76.0254   49.2439   54.5589 O   0  0  0  0  0  0  0  0  0  0  0  0
   76.4424   49.9772   55.5133 C   0  0  0  0  0  0  0  0  0  0  0  0
   75.4489   50.7257   56.1808 N   0  0  0  0  0  0  0  0  0  0  0  0
   77.8579   49.9966   55.8443 C   0  0  0  0  0  0  0  0  0  0  0  0
   78.7242   48.9537   55.6179 C   0  0  0  0  0  0  0  0  0  0  0  0
   80.0620   49.0025   55.9438 C   0  0  0  0  0  0  0  0  0  0  0  0
   80.5498   50.1125   56.5090 N   0  0  0  0  0  0  0  0  0  0  0  0
   79.7752   51.1574   56.7585 C   0  0  0  0  0  0  0  0  0  0  0  0
   78.4217   51.1096   56.4283 C   0  0  0  0  0  0  0  0  0  0  0  0
   69.8860   50.5645   54.7344 C   0  0  0  0  0  0  0  0  0  0  0  0
   69.6557   49.4966   53.7395 C   0  0  0  0  0  0  0  0  0  0  0  0
   69.9860   49.7436   52.4311 N   0  0  0  0  0  0  0  0  0  0  0  0
   69.8220   48.8678   51.4693 N   0  0  0  0  0  0  0  0  0  0  0  0
   69.3075   47.6712   51.7714 C   0  0  0  0  0  0  0  0  0  0  0  0
   69.1424   46.8119   50.8570 O   0  0  0  0  0  0  0  0  0  0  0  0
   68.9469   47.3425   53.0711 C   0  0  0  0  0  0  0  0  0  0  0  0
   69.1200   48.2642   54.0819 C   0  0  0  0  0  0  0  0  0  0  0  0
   68.6550   47.6531   55.3276 C   0  0  0  0  0  0  0  0  0  0  0  0
   68.1930   46.2991   54.9447 C   0  0  0  0  0  0  0  0  0  0  0  0
   68.3713   46.1494   53.6613 C   0  0  0  0  0  0  0  0  0  0  0  0
  7  8  2  0  0  0
  8  9  1  0  0  0
  8 10  1  0  0  0
  9  1  1  0  0  0
  1  2  2  0  0  0
  1  6  1  0  0  0
  2  3  1  0  0  0
  3  4  2  0  0  0
  4 16  1  0  0  0
  4  5  1  0  0  0
 16 17  1  0  0  0
 17 18  2  0  0  0
 17 23  1  0  0  0
 18 19  1  0  0  0
 19 20  1  0  0  0
 20 21  2  0  0  0
 20 22  1  0  0  0
 22 23  2  0  0  0
 22 26  1  0  0  0
 23 24  1  0  0  0
 24 25  1  0  0  0
 25 26  2  0  0  0
  5  6  2  0  0  0
 10 11  2  0  0  0
 10 15  1  0  0  0
 11 12  1  0  0  0
 12 13  2  0  0  0
 13 14  1  0  0  0
 14 15  2  0  0  0
M  END
> <minimizedAffinity>
-9.14759

$$$$
cs_R1_output_folder/data/smiles/87.pdb


 26 29  0  0  0  0  0  0  0  0999 V2000
   72.9741   46.7526   59.9972 C   0  0  0  0  0  0  0  0  0  0  0  0
   71.8795   47.1355   59.0348 C   0  0  0  0  0  0  0  0  0  0  0  0
   71.5507   48.4630   58.8485 C   0  0  0  0  0  0  0  0  0  0  0  0
   70.5725   48.8766   57.9902 C   0  0  0  0  0  0  0  0  0  0  0  0
   69.8756   47.9137   57.2708 C   0  0  0  0  0  0  0  0  0  0  0  0
   70.1958   46.6033   57.4506 C   0  0  0  0  0  0  0  0  0  0  0  0
   71.2035   46.1755   58.3350 C   0  0  0  0  0  0  0  0  0  0  0  0
   71.4453   44.7921   58.4495 N   0  0  0  0  0  0  0  0  0  0  0  0
   72.7648   44.2605   58.2109 C   0  0  0  0  0  0  0  0  0  0  0  0
   72.6440   43.0851   57.2529 C   0  0  0  0  0  0  0  0  0  0  0  0
   71.7155   42.0276   57.7248 C   0  0  0  0  0  0  0  0  0  0  0  0
   70.3940   42.4906   58.2322 C   0  0  0  0  0  0  0  0  0  0  0  0
   70.4192   43.8702   58.7845 C   0  0  0  0  0  0  0  0  0  0  0  0
   69.5116   44.2190   59.5561 O   0  0  0  0  0  0  0  0  0  0  0  0
   68.7717   48.3131   56.3538 C   0  0  0  0  0  0  0  0  0  0  0  0
   69.2841   48.3133   54.9799 C   0  0  0  0  0  0  0  0  0  0  0  0
   70.2427   49.2263   54.6436 N   0  0  0  0  0  0  0  0  0  0  0  0
   70.7180   49.3574   53.4323 N   0  0  0  0  0  0  0  0  0  0  0  0
   70.2808   48.5855   52.4349 C   0  0  0  0  0  0  0  0  0  0  0  0
   70.7190   48.6902   51.2563 O   0  0  0  0  0  0  0  0  0  0  0  0
   69.3121   47.6194   52.6463 C   0  0  0  0  0  0  0  0  0  0  0  0
   68.8802   46.7982   51.6314 C   0  0  0  0  0  0  0  0  0  0  0  0
   67.9468   45.8334   51.8960 C   0  0  0  0  0  0  0  0  0  0  0  0
   67.4706   45.7224   53.1949 C   0  0  0  0  0  0  0  0  0  0  0  0
   67.8864   46.5278   54.2096 C   0  0  0  0  0  0  0  0  0  0  0  0
   68.8296   47.5120   53.9602 C   0  0  0  0  0  0  0  0  0  0  0  0
  1  2  1  0  0  0
  2  3  2  0  0  0
  2  7  1  0  0  0
  3  4  1  0  0  0
  4  5  2  0  0  0
  5 15  1  0  0  0
  5  6  1  0  0  0
 15 16  1  0  0  0
 16 17  2  0  0  0
 16 26  1  0  0  0
 17 18  1  0  0  0
 18 19  1  0  0  0
 19 20  2  0  0  0
 19 21  1  0  0  0
 21 22  1  0  0  0
 21 26  2  0  0  0
 22 23  2  0  0  0
 23 24  1  0  0  0
 24 25  2  0  0  0
 25 26  1  0  0  0
  6  7  2  0  0  0
  7  8  1  0  0  0
  8  9  1  0  0  0
  8 13  1  0  0  0
  9 10  1  0  0  0
 10 11  1  0  0  0
 11 12  1  0  0  0
 12 13  1  0  0  0
 13 14  2  0  0  0
M  END
> <minimizedAffinity>
-9.23701

$$$$
cs_R1_output_folder/data/smiles/88.pdb


 27 30  0  0  0  0  0  0  0  0999 V2000
   69.4067   49.2636   56.9498 C   0  0  0  0  0  0  0  0  0  0  0  0
   69.9186   47.9123   57.3506 C   0  0  0  0  0  0  0  0  0  0  0  0
   70.8012   47.7449   58.3399 N   0  0  0  0  0  0  0  0  0  0  0  0
   71.2564   46.5309   58.7171 C   0  0  0  0  0  0  0  0  0  0  0  0
   70.7928   45.4148   58.0584 C   0  0  0  0  0  0  0  0  0  0  0  0
   69.8689   45.5828   57.0237 C   0  0  0  0  0  0  0  0  0  0  0  0
   69.4030   46.8125   56.6293 C   0  0  0  0  0  0  0  0  0  0  0  0
   68.4567   47.0452   55.5701 C   0  0  0  0  0  0  0  0  0  0  0  0
   67.2503   47.2598   55.9888 O   0  0  0  0  0  0  0  0  0  0  0  0
   68.6401   47.0838   54.1613 C   0  0  0  0  0  0  0  0  0  0  0  0
   69.4253   47.9719   53.4838 C   0  0  0  0  0  0  0  0  0  0  0  0
   69.5028   47.9440   52.0882 C   0  0  0  0  0  0  0  0  0  0  0  0
   68.8212   47.0535   51.3423 N   0  0  0  0  0  0  0  0  0  0  0  0
   68.0324   46.1563   51.9933 C   0  0  0  0  0  0  0  0  0  0  0  0
   67.9347   46.1606   53.3673 C   0  0  0  0  0  0  0  0  0  0  0  0
   71.2890   44.0458   58.4039 C   0  0  0  0  0  0  0  0  0  0  0  0
   70.2793   43.2334   59.1019 C   0  0  0  0  0  0  0  0  0  0  0  0
   69.3272   43.8547   59.8287 N   0  0  0  0  0  0  0  0  0  0  0  0
   68.3937   43.1862   60.4885 N   0  0  0  0  0  0  0  0  0  0  0  0
   68.3884   41.8298   60.4358 C   0  0  0  0  0  0  0  0  0  0  0  0
   67.4965   41.2102   61.0648 O   0  0  0  0  0  0  0  0  0  0  0  0
   69.3290   41.1243   59.7133 C   0  0  0  0  0  0  0  0  0  0  0  0
   70.3043   41.8650   59.0260 C   0  0  0  0  0  0  0  0  0  0  0  0
   71.3306   41.1491   58.2284 C   0  0  0  0  0  0  0  0  0  0  0  0
   71.4458   39.7261   58.6870 C   0  0  0  0  0  0  0  0  0  0  0  0
   70.0992   39.0428   58.6049 C   0  0  0  0  0  0  0  0  0  0  0  0
   69.2435   39.6643   59.7096 C   0  0  0  0  0  0  0  0  0  0  0  0
  1  2  1  0  0  0
  2  3  2  0  0  0
  2  7  1  0  0  0
  3  4  1  0  0  0
  4  5  2  0  0  0
  5 16  1  0  0  0
  5  6  1  0  0  0
 16 17  1  0  0  0
 17 18  2  0  0  0
 17 23  1  0  0  0
 18 19  1  0  0  0
 19 20  1  0  0  0
 20 21  2  0  0  0
 20 22  1  0  0  0
 22 23  2  0  0  0
 22 27  1  0  0  0
 23 24  1  0  0  0
 24 25  1  0  0  0
 25 26  1  0  0  0
 26 27  1  0  0  0
  6  7  2  0  0  0
  7  8  1  0  0  0
  8  9  2  0  0  0
  8 10  1  0  0  0
 10 11  2  0  0  0
 10 15  1  0  0  0
 11 12  1  0  0  0
 12 13  2  0  0  0
 13 14  1  0  0  0
 14 15  2  0  0  0
M  END
> <minimizedAffinity>
-8.83214

$$$$
cs_R1_output_folder/data/smiles/89.pdb


 27 29  0  0  0  0  0  0  0  0999 V2000
   71.1279   41.0107   58.7345 C   0  0  0  0  0  0  0  0  0  0  0  0
   71.4853   42.4125   58.1912 C   0  0  0  0  0  0  0  0  0  0  0  0
   70.4897   42.9156   57.4617 C   0  0  0  0  0  0  0  0  0  0  0  0
   69.2983   42.5328   57.0850 C   0  0  0  0  0  0  0  0  0  0  0  0
   68.9108   41.1579   57.6108 C   0  0  0  0  0  0  0  0  0  0  0  0
   69.9452   40.5854   58.3894 C   0  0  0  0  0  0  0  0  0  0  0  0
   67.7229   40.9494   57.0633 N   0  0  0  0  0  0  0  0  0  0  0  0
   67.1267   41.9006   56.2254 C   0  0  0  0  0  0  0  0  0  0  0  0
   66.1566   42.1809   55.5444 O   0  0  0  0  0  0  0  0  0  0  0  0
   68.2522   42.9813   56.2557 C   0  0  0  0  0  0  0  0  0  0  0  0
   67.9880   43.9125   55.5073 N   0  0  0  0  0  0  0  0  0  0  0  0
   72.3851   38.9263   59.0536 C   0  0  0  0  0  0  0  0  0  0  0  0
   72.2438   40.4250   59.4318 C   0  0  0  0  0  0  0  0  0  0  0  0
   73.5218   41.1701   59.1441 C   0  0  0  0  0  0  0  0  0  0  0  0
   72.1637   40.4106   60.9675 C   0  0  0  0  0  0  0  0  0  0  0  0
   67.7414   44.8357   54.7733 N   0  0  0  0  0  0  0  0  0  0  0  0
   68.2367   46.2008   54.9930 C   0  0  0  0  0  0  0  0  0  0  0  0
   68.3326   46.8883   53.7809 C   0  0  0  0  0  0  0  0  0  0  0  0
   68.8596   48.1930   53.7205 C   0  0  0  0  0  0  0  0  0  0  0  0
   69.2206   48.5896   54.9105 C   0  0  0  0  0  0  0  0  0  0  0  0
   69.2282   48.1259   56.1310 C   0  0  0  0  0  0  0  0  0  0  0  0
   68.6182   46.6938   56.1725 C   0  0  0  0  0  0  0  0  0  0  0  0
   70.8864   49.7558   54.7558 S   0  0  0  0  0  0  0  0  0  0  0  0
   70.3756   49.4115   54.8172 O   0  0  0  0  0  0  0  0  0  0  0  0
   72.0145   50.5191   54.6419 S   0  0  0  0  0  0  0  0  0  0  0  0
   73.1224   51.2464   54.5449 C   0  0  0  0  0  0  0  0  0  0  0  0
   73.9557   50.4468   53.6525 O   0  0  0  0  0  0  0  0  0  0  0  0
 12 13  1  0  0  0
 13 14  1  0  0  0
 13 15  1  0  0  0
 13  1  1  0  0  0
  1  2  2  0  0  0
  1  6  1  0  0  0
  2  3  1  0  0  0
  3  4  2  0  0  0
  4  5  1  0  0  0
  4 10  1  0  0  0
  5  6  2  0  0  0
  5  7  1  0  0  0
  7  8  1  0  0  0
  8  9  2  0  0  0
  8 10  1  0  0  0
 10 11  2  0  0  0
 11 16  1  0  0  0
 16 17  1  0  0  0
 17 18  2  0  0  0
 17 22  1  0  0  0
 18 19  1  0  0  0
 19 20  2  0  0  0
 20 23  1  0  0  0
 20 21  1  0  0  0
 23 24  2  0  0  0
 23 25  3  0  0  0
 25 26  1  0  0  0
 26 27  2  0  0  0
 21 22  2  0  0  0
M  END
> <minimizedAffinity>
-8.03883

$$$$
cs_R1_output_folder/data/smiles/90.pdb


 25 26  0  0  0  0  0  0  0  0999 V2000
   68.7919   47.2531   53.7281 C   0  0  0  0  0  0  0  0  0  0  0  0
   68.8793   46.6395   52.5076 C   0  0  0  0  0  0  0  0  0  0  0  0
   69.5391   47.2967   51.4822 C   0  0  0  0  0  0  0  0  0  0  0  0
   70.1097   48.5468   51.6495 C   0  0  0  0  0  0  0  0  0  0  0  0
   70.0167   49.1588   52.8821 C   0  0  0  0  0  0  0  0  0  0  0  0
   69.3487   48.4900   53.9178 C   0  0  0  0  0  0  0  0  0  0  0  0
   68.1003   46.5889   54.8443 C   0  0  0  0  0  0  0  0  0  0  0  0
   69.6341   46.2961   57.0154 C   0  0  0  0  0  0  0  0  0  0  0  0
   68.9493   46.4350   56.0285 C   0  0  0  0  0  0  0  0  0  0  0  0
   71.1945   47.0806   58.6973 C   0  0  0  0  0  0  0  0  0  0  0  0
   70.4347   46.1167   58.2062 C   0  0  0  0  0  0  0  0  0  0  0  0
   72.5430   45.7912   60.1297 O   0  0  0  0  0  0  0  0  0  0  0  0
   72.0045   46.9037   59.8994 C   0  0  0  0  0  0  0  0  0  0  0  0
   72.2023   47.9627   60.8233 N   0  0  0  0  0  0  0  0  0  0  0  0
   72.9422   47.8397   61.9430 O   0  0  0  0  0  0  0  0  0  0  0  0
   70.5701   50.4362   53.1478 N   0  0  0  0  0  0  0  0  0  0  0  0
   71.1071   50.9520   54.6827 S   0  0  0  0  0  0  0  0  0  0  0  0
   71.6458   52.3516   54.6250 O   0  0  0  0  0  0  0  0  0  0  0  0
   72.2862   50.0680   55.0636 O   0  0  0  0  0  0  0  0  0  0  0  0
   69.8606   50.8802   55.8965 C   0  0  0  0  0  0  0  0  0  0  0  0
   70.1041   50.1880   57.0469 C   0  0  0  0  0  0  0  0  0  0  0  0
   69.1477   50.1084   58.0269 C   0  0  0  0  0  0  0  0  0  0  0  0
   67.9153   50.7235   57.8773 C   0  0  0  0  0  0  0  0  0  0  0  0
   67.6913   51.4159   56.7076 C   0  0  0  0  0  0  0  0  0  0  0  0
   68.6492   51.4983   55.7213 C   0  0  0  0  0  0  0  0  0  0  0  0
 12 13  2  0  0  0
 13 10  1  0  0  0
 13 14  1  0  0  0
 10 11  2  0  0  0
 11  8  1  0  0  0
  8  9  3  0  0  0
  9  7  1  0  0  0
  7  1  1  0  0  0
  1  2  2  0  0  0
  1  6  1  0  0  0
  2  3  1  0  0  0
  3  4  2  0  0  0
  4  5  1  0  0  0
  5 16  1  0  0  0
  5  6  2  0  0  0
 16 17  1  0  0  0
 17 18  2  0  0  0
 17 19  2  0  0  0
 17 20  1  0  0  0
 20 21  2  0  0  0
 20 25  1  0  0  0
 21 22  1  0  0  0
 22 23  2  0  0  0
 23 24  1  0  0  0
 24 25  2  0  0  0
 14 15  1  0  0  0
M  END
> <minimizedAffinity>
-8.46020

$$$$
cs_R1_output_folder/data/smiles/91.pdb


 26 29  0  0  0  0  0  0  0  0999 V2000
   69.2623   47.5297   56.0292 N   0  0  0  0  0  0  0  0  0  0  0  0
   69.6742   48.5139   55.2467 C   0  0  0  0  0  0  0  0  0  0  0  0
   69.4773   48.5147   53.8564 C   0  0  0  0  0  0  0  0  0  0  0  0
   68.8240   47.4323   53.2805 C   0  0  0  0  0  0  0  0  0  0  0  0
   68.6182   47.4171   51.9076 C   0  0  0  0  0  0  0  0  0  0  0  0
   67.9680   46.3310   51.3613 C   0  0  0  0  0  0  0  0  0  0  0  0
   67.5362   45.2930   52.1538 C   0  0  0  0  0  0  0  0  0  0  0  0
   67.7337   45.2966   53.5180 C   0  0  0  0  0  0  0  0  0  0  0  0
   68.3914   46.3950   54.0715 C   0  0  0  0  0  0  0  0  0  0  0  0
   68.6282   46.4848   55.4086 C   0  0  0  0  0  0  0  0  0  0  0  0
   68.2057   45.4763   56.0787 O   0  0  0  0  0  0  0  0  0  0  0  0
   70.0642   49.7013   53.2718 C   0  0  0  0  0  0  0  0  0  0  0  0
   70.0661   50.0194   52.0609 O   0  0  0  0  0  0  0  0  0  0  0  0
   70.6429   50.4295   54.3910 C   0  0  0  0  0  0  0  0  0  0  0  0
   71.3450   51.6156   54.3782 C   0  0  0  0  0  0  0  0  0  0  0  0
   71.8386   52.1221   55.5600 C   0  0  0  0  0  0  0  0  0  0  0  0
   71.6185   51.4258   56.7358 C   0  0  0  0  0  0  0  0  0  0  0  0
   70.9081   50.2200   56.7716 C   0  0  0  0  0  0  0  0  0  0  0  0
   70.4259   49.7388   55.5865 C   0  0  0  0  0  0  0  0  0  0  0  0
   69.3003   47.4285   57.4461 C   0  0  0  0  0  0  0  0  0  0  0  0
   70.4344   46.5177   57.9055 C   0  0  0  0  0  0  0  0  0  0  0  0
   69.7543   45.6737   58.8675 O   0  0  0  0  0  0  0  0  0  0  0  0
   71.5170   47.1293   58.7081 C   0  0  0  0  0  0  0  0  0  0  0  0
   72.7543   47.7602   61.7896 N   0  0  0  0  0  0  0  0  0  0  0  0
   72.0188   47.1542   61.0177 N   0  0  0  0  0  0  0  0  0  0  0  0
   71.5040   46.6155   60.0490 N   0  0  0  0  0  0  0  0  0  0  0  0
 24 25  2  0  0  0
 25 26  2  0  0  0
 26 23  1  0  0  0
 23 21  1  0  0  0
 21 22  1  0  0  0
 21 20  1  0  0  0
 20  1  1  0  0  0
  1  2  1  0  0  0
  1 10  1  0  0  0
  2  3  2  0  0  0
  2 19  1  0  0  0
  3  4  1  0  0  0
  3 12  1  0  0  0
  4  5  1  0  0  0
  4  9  2  0  0  0
  5  6  2  0  0  0
  6  7  1  0  0  0
  7  8  2  0  0  0
  8  9  1  0  0  0
  9 10  1  0  0  0
 10 11  2  0  0  0
 12 13  2  0  0  0
 12 14  1  0  0  0
 14 15  1  0  0  0
 14 19  2  0  0  0
 15 16  2  0  0  0
 16 17  1  0  0  0
 17 18  2  0  0  0
 18 19  1  0  0  0
M  CHG 1  24  -1
M  CHG 1  25   1
M  END
> <minimizedAffinity>
-9.41039

$$$$
cs_R1_output_folder/data/smiles/92.pdb


 26 29  0  0  0  0  0  0  0  0999 V2000
   69.0931   47.6561   56.0224 N   0  0  0  0  0  0  0  0  0  0  0  0
   69.5814   48.6960   55.3379 C   0  0  0  0  0  0  0  0  0  0  0  0
   69.4800   48.6764   53.9327 C   0  0  0  0  0  0  0  0  0  0  0  0
   68.8819   47.5882   53.3312 C   0  0  0  0  0  0  0  0  0  0  0  0
   68.7796   47.5607   51.9537 C   0  0  0  0  0  0  0  0  0  0  0  0
   68.1767   46.4651   51.3452 C   0  0  0  0  0  0  0  0  0  0  0  0
   67.6787   45.4068   52.0691 C   0  0  0  0  0  0  0  0  0  0  0  0
   67.7803   45.4329   53.4390 C   0  0  0  0  0  0  0  0  0  0  0  0
   68.3885   46.5357   54.0677 C   0  0  0  0  0  0  0  0  0  0  0  0
   68.4971   46.5759   55.4244 C   0  0  0  0  0  0  0  0  0  0  0  0
   68.0653   45.6465   56.1431 O   0  0  0  0  0  0  0  0  0  0  0  0
   70.0554   49.9116   53.4252 C   0  0  0  0  0  0  0  0  0  0  0  0
   70.1286   50.2139   52.2072 O   0  0  0  0  0  0  0  0  0  0  0  0
   70.5014   50.6735   54.5710 C   0  0  0  0  0  0  0  0  0  0  0  0
   71.0988   51.9096   54.6336 C   0  0  0  0  0  0  0  0  0  0  0  0
   71.4313   52.4604   55.8610 C   0  0  0  0  0  0  0  0  0  0  0  0
   71.1448   51.7356   56.9757 C   0  0  0  0  0  0  0  0  0  0  0  0
   70.5390   50.4750   56.9558 C   0  0  0  0  0  0  0  0  0  0  0  0
   70.2229   49.9560   55.7280 C   0  0  0  0  0  0  0  0  0  0  0  0
   69.2159   47.5257   57.4674 C   0  0  0  0  0  0  0  0  0  0  0  0
   70.3590   46.6045   57.7635 C   0  0  0  0  0  0  0  0  0  0  0  0
   69.9549   45.3285   58.1935 O   0  0  0  0  0  0  0  0  0  0  0  0
   71.4695   47.1384   58.5889 C   0  0  0  0  0  0  0  0  0  0  0  0
   72.7100   47.7870   61.6674 N   0  0  0  0  0  0  0  0  0  0  0  0
   71.9100   47.2728   60.8656 N   0  0  0  0  0  0  0  0  0  0  0  0
   71.3883   46.6502   59.9429 N   0  0  0  0  0  0  0  0  0  0  0  0
 24 25  2  0  0  0
 25 26  2  0  0  0
 26 23  1  0  0  0
 23 21  1  0  0  0
 21 22  1  0  0  0
 21 20  1  0  0  0
 20  1  1  0  0  0
  1  2  1  0  0  0
  1 10  1  0  0  0
  2  3  2  0  0  0
  2 19  1  0  0  0
  3  4  1  0  0  0
  3 12  1  0  0  0
  4  5  1  0  0  0
  4  9  2  0  0  0
  5  6  2  0  0  0
  6  7  1  0  0  0
  7  8  2  0  0  0
  8  9  1  0  0  0
  9 10  1  0  0  0
 10 11  2  0  0  0
 12 13  2  0  0  0
 12 14  1  0  0  0
 14 15  1  0  0  0
 14 19  2  0  0  0
 15 16  2  0  0  0
 16 17  1  0  0  0
 17 18  2  0  0  0
 18 19  1  0  0  0
M  CHG 1  24  -1
M  CHG 1  25   1
M  END
> <minimizedAffinity>
-8.96051

$$$$
cs_R1_output_folder/data/smiles/93.pdb


 24 27  0  0  0  0  0  0  0  0999 V2000
   66.7495   44.7499   53.0423 O   0  0  0  0  0  0  0  0  0  0  0  0
   67.3828   45.6218   52.4239 C   0  0  0  0  0  0  0  0  0  0  0  0
   67.2830   45.8671   51.1133 N   0  0  0  0  0  0  0  0  0  0  0  0
   68.1043   46.8767   50.7828 N   0  0  0  0  0  0  0  0  0  0  0  0
   68.7476   47.2973   51.8850 C   0  0  0  0  0  0  0  0  0  0  0  0
   68.2814   46.5026   52.8782 N   0  0  0  0  0  0  0  0  0  0  0  0
   68.7057   46.6247   54.2255 C   0  0  0  0  0  0  0  0  0  0  0  0
   68.6170   45.4267   54.8759 C   0  0  0  0  0  0  0  0  0  0  0  0
   68.9599   45.3845   56.2092 C   0  0  0  0  0  0  0  0  0  0  0  0
   69.3904   46.5044   56.9195 C   0  0  0  0  0  0  0  0  0  0  0  0
   69.4708   47.6976   56.2323 C   0  0  0  0  0  0  0  0  0  0  0  0
   69.1370   47.7691   54.9057 C   0  0  0  0  0  0  0  0  0  0  0  0
   69.2962   49.0968   54.2544 C   0  0  0  0  0  0  0  0  0  0  0  0
   70.2691   48.8657   53.1230 C   0  0  0  0  0  0  0  0  0  0  0  0
   69.7002   48.4053   51.8415 C   0  0  0  0  0  0  0  0  0  0  0  0
   69.7143   46.3781   58.2553 O   0  0  0  0  0  0  0  0  0  0  0  0
   70.8368   45.9556   58.8949 C   0  0  0  0  0  0  0  0  0  0  0  0
   71.3145   44.5898   58.6395 C   0  0  0  0  0  0  0  0  0  0  0  0
   70.5500   43.5604   58.9446 C   0  0  0  0  0  0  0  0  0  0  0  0
   70.9994   42.1957   58.7016 C   0  0  0  0  0  0  0  0  0  0  0  0
   72.0874   41.9594   58.0585 C   0  0  0  0  0  0  0  0  0  0  0  0
   72.8409   42.9283   57.6625 C   0  0  0  0  0  0  0  0  0  0  0  0
   73.8803   42.6322   56.8446 F   0  0  0  0  0  0  0  0  0  0  0  0
   72.6453   44.3493   58.0409 C   0  0  0  0  0  0  0  0  0  0  0  0
  1  2  2  0  0  0
  2  3  1  0  0  0
  2  6  1  0  0  0
  3  4  1  0  0  0
  4  5  2  0  0  0
  5  6  1  0  0  0
  5 15  1  0  0  0
  6  7  1  0  0  0
  7  8  2  0  0  0
  7 12  1  0  0  0
  8  9  1  0  0  0
  9 10  2  0  0  0
 10 16  1  0  0  0
 10 11  1  0  0  0
 16 17  1  0  0  0
 17 18  1  0  0  0
 18 19  2  0  0  0
 18 24  1  0  0  0
 19 20  1  0  0  0
 20 21  2  0  0  0
 21 22  2  0  0  0
 22 23  1  0  0  0
 22 24  1  0  0  0
 11 12  2  0  0  0
 12 13  1  0  0  0
 13 14  1  0  0  0
 14 15  1  0  0  0
M  END
> <minimizedAffinity>
-8.11766

$$$$
cs_R1_output_folder/data/smiles/94.pdb


 28 30  0  0  0  0  0  0  0  0999 V2000
   70.9640   51.1752   55.6702 N   0  0  0  0  0  0  0  0  0  0  0  0
   70.4867   52.5069   55.8005 C   0  0  0  0  0  0  0  0  0  0  0  0
   71.7022   53.4011   55.6272 C   0  0  0  0  0  0  0  0  0  0  0  0
   72.8561   52.4661   55.9094 C   0  0  0  0  0  0  0  0  0  0  0  0
   72.1872   51.2211   56.3996 C   0  0  0  0  0  0  0  0  0  0  0  0
   70.7523   50.3722   54.3014 S   0  0  0  0  0  0  0  0  0  0  0  0
   72.1329   49.9291   53.7762 O   0  0  0  0  0  0  0  0  0  0  0  0
   70.2460   51.1562   53.1012 O   0  0  0  0  0  0  0  0  0  0  0  0
   68.4194   46.5472   51.6859 C   0  0  0  0  0  0  0  0  0  0  0  0
   68.7058   47.1842   53.0020 C   0  0  0  0  0  0  0  0  0  0  0  0
   68.1408   46.6099   54.1269 C   0  0  0  0  0  0  0  0  0  0  0  0
   68.4181   47.2085   55.3116 C   0  0  0  0  0  0  0  0  0  0  0  0
   69.2271   48.3493   55.4502 C   0  0  0  0  0  0  0  0  0  0  0  0
   69.4830   48.8429   56.8194 C   0  0  0  0  0  0  0  0  0  0  0  0
   69.7821   48.9176   54.3532 C   0  0  0  0  0  0  0  0  0  0  0  0
   69.4944   48.2934   53.1157 C   0  0  0  0  0  0  0  0  0  0  0  0
   73.0959   50.0650   56.2572 C   0  0  0  0  0  0  0  0  0  0  0  0
   74.4448   50.2489   56.5945 N   0  0  0  0  0  0  0  0  0  0  0  0
   75.5589   49.9889   55.7362 C   0  0  0  0  0  0  0  0  0  0  0  0
   75.2553   49.5668   54.6116 O   0  0  0  0  0  0  0  0  0  0  0  0
   76.9356   50.2000   56.1437 C   0  0  0  0  0  0  0  0  0  0  0  0
   77.3841   51.3765   56.1099 O   0  0  0  0  0  0  0  0  0  0  0  0
   77.8032   49.1874   56.5729 N   0  0  0  0  0  0  0  0  0  0  0  0
   79.1796   49.4021   56.9796 C   0  0  0  0  0  0  0  0  0  0  0  0
   80.0465   48.9337   55.8030 C   0  0  0  0  0  0  0  0  0  0  0  0
   81.2091   48.2081   56.3940 C   0  0  0  0  0  0  0  0  0  0  0  0
   81.0781   48.3527   57.8751 C   0  0  0  0  0  0  0  0  0  0  0  0
   79.5915   48.5378   58.1271 C   0  0  0  0  0  0  0  0  0  0  0  0
  9 10  1  0  0  0
 10 11  2  0  0  0
 10 16  1  0  0  0
 11 12  1  0  0  0
 12 13  2  0  0  0
 13 14  1  0  0  0
 13 15  1  0  0  0
 15  6  1  0  0  0
 15 16  2  0  0  0
  6  7  2  0  0  0
  6  8  2  0  0  0
  6  1  1  0  0  0
  1  2  1  0  0  0
  1  5  1  0  0  0
  2  3  1  0  0  0
  3  4  1  0  0  0
  4  5  1  0  0  0
  5 17  1  0  0  0
 17 18  1  0  0  0
 18 19  1  0  0  0
 19 20  2  0  0  0
 19 21  1  0  0  0
 21 22  2  0  0  0
 21 23  1  0  0  0
 23 24  1  0  0  0
 24 25  1  0  0  0
 24 28  1  0  0  0
 25 26  1  0  0  0
 26 27  1  0  0  0
 27 28  1  0  0  0
M  END
> <minimizedAffinity>
-7.72824

$$$$
cs_R1_output_folder/data/smiles/95.pdb


 33 37  0  0  0  0  0  0  0  0999 V2000
   70.5469   51.7526   55.3417 C   0  0  0  0  0  0  0  0  0  0  0  0
   70.7616   50.7853   54.4178 C   0  0  0  0  0  0  0  0  0  0  0  0
   69.8118   50.3828   53.4848 C   0  0  0  0  0  0  0  0  0  0  0  0
   68.6246   51.0379   53.5865 C   0  0  0  0  0  0  0  0  0  0  0  0
   68.3212   52.0004   54.4924 C   0  0  0  0  0  0  0  0  0  0  0  0
   69.3467   52.3855   55.4211 C   0  0  0  0  0  0  0  0  0  0  0  0
   69.0558   53.3346   56.3327 F   0  0  0  0  0  0  0  0  0  0  0  0
   72.9823   47.9519   60.9306 O   0  0  0  0  0  0  0  0  0  0  0  0
   72.3317   47.7242   59.4260 C   0  0  0  0  0  0  0  0  0  0  0  0
   72.5329   48.9343   59.1709 N   0  0  0  0  0  0  0  0  0  0  0  0
   72.7076   50.0259   58.9281 C   0  0  0  0  0  0  0  0  0  0  0  0
   72.8706   51.0173   58.6910 C   0  0  0  0  0  0  0  0  0  0  0  0
   73.0559   52.2573   58.4004 C   0  0  0  0  0  0  0  0  0  0  0  0
   71.7540   51.6690   57.3431 N   0  0  0  0  0  0  0  0  0  0  0  0
   71.6985   52.2501   56.1725 C   0  0  0  0  0  0  0  0  0  0  0  0
   72.4512   53.1441   55.6607 O   0  0  0  0  0  0  0  0  0  0  0  0
   71.0088   50.5910   57.8664 C   0  0  0  0  0  0  0  0  0  0  0  0
   71.3874   49.1144   57.6540 C   0  0  0  0  0  0  0  0  0  0  0  0
   72.0942   46.3150   59.7174 C   0  0  0  0  0  0  0  0  0  0  0  0
   71.2158   45.4600   58.8674 C   0  0  0  0  0  0  0  0  0  0  0  0
   72.7076   45.4399   58.5892 C   0  0  0  0  0  0  0  0  0  0  0  0
   70.1934   49.3191   52.5551 C   0  0  0  0  0  0  0  0  0  0  0  0
   69.3352   48.1457   52.4935 C   0  0  0  0  0  0  0  0  0  0  0  0
   68.7627   47.6807   51.2849 N   0  0  0  0  0  0  0  0  0  0  0  0
   68.0956   46.7737   51.1207 N   0  0  0  0  0  0  0  0  0  0  0  0
   67.6785   45.8644   52.0700 C   0  0  0  0  0  0  0  0  0  0  0  0
   66.9564   44.8953   51.7484 O   0  0  0  0  0  0  0  0  0  0  0  0
   68.1518   46.1468   53.3076 C   0  0  0  0  0  0  0  0  0  0  0  0
   67.8386   45.3086   54.3455 C   0  0  0  0  0  0  0  0  0  0  0  0
   68.3422   45.6049   55.6200 C   0  0  0  0  0  0  0  0  0  0  0  0
   69.1366   46.7148   55.8218 C   0  0  0  0  0  0  0  0  0  0  0  0
   69.4420   47.5546   54.7638 C   0  0  0  0  0  0  0  0  0  0  0  0
   68.9862   47.3187   53.5295 C   0  0  0  0  0  0  0  0  0  0  0  0
  8  9  2  0  0  0
  9 19  1  0  0  0
  9 10  1  0  0  0
 19 20  1  0  0  0
 19 21  1  0  0  0
 20 21  1  0  0  0
 10 11  1  0  0  0
 10 18  1  0  0  0
 11 12  3  0  0  0
 12 13  1  0  0  0
 13 14  1  0  0  0
 14 15  1  0  0  0
 14 17  1  0  0  0
 15 16  2  0  0  0
 15  1  1  0  0  0
  1  2  2  0  0  0
  1  6  1  0  0  0
  2  3  1  0  0  0
  3 22  1  0  0  0
  3  4  2  0  0  0
 22 23  1  0  0  0
 23 24  2  0  0  0
 23 33  1  0  0  0
 24 25  1  0  0  0
 25 26  1  0  0  0
 26 27  2  0  0  0
 26 28  1  0  0  0
 28 29  1  0  0  0
 28 33  2  0  0  0
 29 30  2  0  0  0
 30 31  1  0  0  0
 31 32  2  0  0  0
 32 33  1  0  0  0
  4  5  1  0  0  0
  5  6  2  0  0  0
  6  7  1  0  0  0
 17 18  1  0  0  0
M  END
> <minimizedAffinity>
-9.03878

$$$$
cs_R1_output_folder/data/smiles/96.pdb


 27 30  0  0  0  0  0  0  0  0999 V2000
   70.2873   45.7048   58.0105 C   0  0  0  0  0  0  0  0  0  0  0  0
   71.4139   46.0080   58.7724 C   0  0  0  0  0  0  0  0  0  0  0  0
   71.9905   47.2610   58.7307 C   0  0  0  0  0  0  0  0  0  0  0  0
   71.4365   48.2160   57.9192 C   0  0  0  0  0  0  0  0  0  0  0  0
   70.3022   47.9261   57.1457 C   0  0  0  0  0  0  0  0  0  0  0  0
   69.8073   46.6933   57.2438 N   0  0  0  0  0  0  0  0  0  0  0  0
   71.5808   43.3655   57.3341 O   0  0  0  0  0  0  0  0  0  0  0  0
   70.3866   43.2144   57.7158 C   0  0  0  0  0  0  0  0  0  0  0  0
   69.7016   44.4069   58.0692 N   0  0  0  0  0  0  0  0  0  0  0  0
   69.7793   41.8948   57.7786 C   0  0  0  0  0  0  0  0  0  0  0  0
   68.5839   41.6988   57.1209 C   0  0  0  0  0  0  0  0  0  0  0  0
   67.9451   40.4561   57.1392 C   0  0  0  0  0  0  0  0  0  0  0  0
   68.5217   39.4136   57.8285 C   0  0  0  0  0  0  0  0  0  0  0  0
   69.7166   39.5837   58.4940 C   0  0  0  0  0  0  0  0  0  0  0  0
   70.3176   40.8257   58.4523 C   0  0  0  0  0  0  0  0  0  0  0  0
   69.7358   49.0146   56.2911 C   0  0  0  0  0  0  0  0  0  0  0  0
   69.8530   48.7396   54.8404 C   0  0  0  0  0  0  0  0  0  0  0  0
   70.8773   49.3255   54.1816 N   0  0  0  0  0  0  0  0  0  0  0  0
   71.1037   49.1326   52.9258 N   0  0  0  0  0  0  0  0  0  0  0  0
   70.3174   48.3213   52.1836 C   0  0  0  0  0  0  0  0  0  0  0  0
   70.5182   48.1149   50.9529 O   0  0  0  0  0  0  0  0  0  0  0  0
   69.2585   47.6974   52.8006 C   0  0  0  0  0  0  0  0  0  0  0  0
   69.0286   47.9136   54.1414 C   0  0  0  0  0  0  0  0  0  0  0  0
   67.8632   47.2498   54.7397 C   0  0  0  0  0  0  0  0  0  0  0  0
   67.9836   45.7737   54.3891 C   0  0  0  0  0  0  0  0  0  0  0  0
   68.1390   45.5323   52.9281 C   0  0  0  0  0  0  0  0  0  0  0  0
   68.3288   46.7790   52.0978 C   0  0  0  0  0  0  0  0  0  0  0  0
  7  8  2  0  0  0
  8  9  1  0  0  0
  8 10  1  0  0  0
  9  1  1  0  0  0
  1  2  2  0  0  0
  1  6  1  0  0  0
  2  3  1  0  0  0
  3  4  2  0  0  0
  4  5  1  0  0  0
  5 16  1  0  0  0
  5  6  2  0  0  0
 16 17  1  0  0  0
 17 18  2  0  0  0
 17 23  1  0  0  0
 18 19  1  0  0  0
 19 20  1  0  0  0
 20 21  2  0  0  0
 20 22  1  0  0  0
 22 23  2  0  0  0
 22 27  1  0  0  0
 23 24  1  0  0  0
 24 25  1  0  0  0
 25 26  1  0  0  0
 26 27  1  0  0  0
 10 11  2  0  0  0
 10 15  1  0  0  0
 11 12  1  0  0  0
 12 13  2  0  0  0
 13 14  1  0  0  0
 14 15  2  0  0  0
M  END
> <minimizedAffinity>
-9.44944

$$$$
cs_R1_output_folder/data/smiles/97.pdb


 27 30  0  0  0  0  0  0  0  0999 V2000
   71.0718   45.8518   58.3742 C   0  0  0  0  0  0  0  0  0  0  0  0
   70.1547   46.3408   57.4882 C   0  0  0  0  0  0  0  0  0  0  0  0
   69.9137   47.7207   57.3671 C   0  0  0  0  0  0  0  0  0  0  0  0
   70.6520   48.5304   58.1880 C   0  0  0  0  0  0  0  0  0  0  0  0
   71.5890   48.0394   59.0938 C   0  0  0  0  0  0  0  0  0  0  0  0
   71.8079   46.6814   59.1946 C   0  0  0  0  0  0  0  0  0  0  0  0
   72.7106   46.1661   60.0640 F   0  0  0  0  0  0  0  0  0  0  0  0
   69.3994   44.1045   59.6976 O   0  0  0  0  0  0  0  0  0  0  0  0
   70.4185   43.5583   59.1599 C   0  0  0  0  0  0  0  0  0  0  0  0
   70.6091   42.0948   59.2326 C   0  0  0  0  0  0  0  0  0  0  0  0
   71.5475   41.6067   58.1629 C   0  0  0  0  0  0  0  0  0  0  0  0
   72.8399   42.4091   58.2072 C   0  0  0  0  0  0  0  0  0  0  0  0
   72.5159   43.8501   57.9866 C   0  0  0  0  0  0  0  0  0  0  0  0
   73.2986   44.5965   57.3245 O   0  0  0  0  0  0  0  0  0  0  0  0
   71.3272   44.4387   58.5074 N   0  0  0  0  0  0  0  0  0  0  0  0
   68.8845   48.1618   56.3989 C   0  0  0  0  0  0  0  0  0  0  0  0
   69.3835   48.2617   55.0022 C   0  0  0  0  0  0  0  0  0  0  0  0
   70.3401   49.1965   54.6960 N   0  0  0  0  0  0  0  0  0  0  0  0
   70.7590   49.3308   53.4595 N   0  0  0  0  0  0  0  0  0  0  0  0
   70.3028   48.5944   52.4392 C   0  0  0  0  0  0  0  0  0  0  0  0
   70.7209   48.7447   51.2671 O   0  0  0  0  0  0  0  0  0  0  0  0
   69.3444   47.6365   52.6696 C   0  0  0  0  0  0  0  0  0  0  0  0
   68.8390   46.8346   51.6706 C   0  0  0  0  0  0  0  0  0  0  0  0
   67.8832   45.8678   51.9359 C   0  0  0  0  0  0  0  0  0  0  0  0
   67.4213   45.6925   53.2088 C   0  0  0  0  0  0  0  0  0  0  0  0
   67.9444   46.5147   54.2097 C   0  0  0  0  0  0  0  0  0  0  0  0
   68.8914   47.4847   53.9827 C   0  0  0  0  0  0  0  0  0  0  0  0
  8  9  2  0  0  0
  9 10  1  0  0  0
  9 15  1  0  0  0
 10 11  1  0  0  0
 11 12  1  0  0  0
 12 13  1  0  0  0
 13 14  2  0  0  0
 13 15  1  0  0  0
 15  1  1  0  0  0
  1  2  2  0  0  0
  1  6  1  0  0  0
  2  3  1  0  0  0
  3 16  1  0  0  0
  3  4  2  0  0  0
 16 17  1  0  0  0
 17 18  2  0  0  0
 17 27  1  0  0  0
 18 19  1  0  0  0
 19 20  1  0  0  0
 20 21  2  0  0  0
 20 22  1  0  0  0
 22 23  1  0  0  0
 22 27  2  0  0  0
 23 24  2  0  0  0
 24 25  1  0  0  0
 25 26  2  0  0  0
 26 27  1  0  0  0
  4  5  1  0  0  0
  5  6  2  0  0  0
  6  7  1  0  0  0
M  END
> <minimizedAffinity>
-9.33083

$$$$
cs_R1_output_folder/data/smiles/98.pdb


 28 30  0  0  0  0  0  0  0  0999 V2000
   68.4566   45.9439   54.2713 C   0  0  0  0  0  0  0  0  0  0  0  0
   67.8699   45.5103   53.1022 C   0  0  0  0  0  0  0  0  0  0  0  0
   67.9635   46.2414   51.9286 C   0  0  0  0  0  0  0  0  0  0  0  0
   68.6624   47.4216   51.9607 C   0  0  0  0  0  0  0  0  0  0  0  0
   69.2680   47.8993   53.1043 C   0  0  0  0  0  0  0  0  0  0  0  0
   69.1402   47.1232   54.2499 C   0  0  0  0  0  0  0  0  0  0  0  0
   67.7542   43.8009   55.4313 N   0  0  0  0  0  0  0  0  0  0  0  0
   68.3084   45.1133   55.4601 C   0  0  0  0  0  0  0  0  0  0  0  0
   68.6682   45.5208   56.5985 O   0  0  0  0  0  0  0  0  0  0  0  0
   67.5304   41.6038   56.5512 C   0  0  0  0  0  0  0  0  0  0  0  0
   67.5768   40.9843   55.4309 O   0  0  0  0  0  0  0  0  0  0  0  0
   67.6178   43.0159   56.5755 N   0  0  0  0  0  0  0  0  0  0  0  0
   66.9724   38.3941   61.2929 C   0  0  0  0  0  0  0  0  0  0  0  0
   67.1047   39.2398   60.0735 C   0  0  0  0  0  0  0  0  0  0  0  0
   67.8672   38.8052   59.0339 C   0  0  0  0  0  0  0  0  0  0  0  0
   68.0131   39.5737   57.8754 C   0  0  0  0  0  0  0  0  0  0  0  0
   67.3903   40.8010   57.7375 C   0  0  0  0  0  0  0  0  0  0  0  0
   66.6250   41.2039   58.8152 C   0  0  0  0  0  0  0  0  0  0  0  0
   66.4777   40.4620   59.9484 C   0  0  0  0  0  0  0  0  0  0  0  0
   70.1458   49.3958   53.1148 S   0  0  0  0  0  0  0  0  0  0  0  0
   71.6052   49.0725   52.8420 O   0  0  0  0  0  0  0  0  0  0  0  0
   69.7055   50.2792   51.9698 O   0  0  0  0  0  0  0  0  0  0  0  0
   70.0392   50.2645   54.5479 N   0  0  0  0  0  0  0  0  0  0  0  0
   68.8731   51.0289   54.7525 C   0  0  0  0  0  0  0  0  0  0  0  0
   69.0770   52.5214   54.7139 C   0  0  0  0  0  0  0  0  0  0  0  0
   70.2326   52.9474   55.3058 O   0  0  0  0  0  0  0  0  0  0  0  0
   71.3682   52.2745   54.9525 C   0  0  0  0  0  0  0  0  0  0  0  0
   71.2463   50.7726   55.0820 C   0  0  0  0  0  0  0  0  0  0  0  0
 13 14  1  0  0  0
 14 15  2  0  0  0
 14 19  1  0  0  0
 15 16  1  0  0  0
 16 17  2  0  0  0
 17 10  1  0  0  0
 17 18  1  0  0  0
 10 11  2  0  0  0
 10 12  1  0  0  0
 12  7  1  0  0  0
  7  8  1  0  0  0
  8  9  2  0  0  0
  8  1  1  0  0  0
  1  2  2  0  0  0
  1  6  1  0  0  0
  2  3  1  0  0  0
  3  4  2  0  0  0
  4  5  1  0  0  0
  5 20  1  0  0  0
  5  6  2  0  0  0
 20 21  2  0  0  0
 20 22  2  0  0  0
 20 23  1  0  0  0
 23 24  1  0  0  0
 23 28  1  0  0  0
 24 25  1  0  0  0
 25 26  1  0  0  0
 26 27  1  0  0  0
 27 28  1  0  0  0
 18 19  2  0  0  0
M  END
> <minimizedAffinity>
-9.08214

$$$$
cs_R1_output_folder/data/smiles/99.pdb


 30 32  0  0  0  0  0  0  0  0999 V2000
   68.2334   45.7030   53.9919 C   0  0  0  0  0  0  0  0  0  0  0  0
   67.6169   45.2616   52.8352 C   0  0  0  0  0  0  0  0  0  0  0  0
   67.6502   45.9673   51.6516 C   0  0  0  0  0  0  0  0  0  0  0  0
   68.3182   47.1663   51.5879 C   0  0  0  0  0  0  0  0  0  0  0  0
   68.9590   47.6586   52.7313 C   0  0  0  0  0  0  0  0  0  0  0  0
   68.8965   46.9149   53.8890 C   0  0  0  0  0  0  0  0  0  0  0  0
   68.5874   45.4776   56.2806 O   0  0  0  0  0  0  0  0  0  0  0  0
   68.1766   44.9288   55.2248 C   0  0  0  0  0  0  0  0  0  0  0  0
   67.6982   43.6094   55.3377 N   0  0  0  0  0  0  0  0  0  0  0  0
   67.6587   42.8935   56.5480 N   0  0  0  0  0  0  0  0  0  0  0  0
   67.5531   41.5009   56.6273 C   0  0  0  0  0  0  0  0  0  0  0  0
   67.4906   40.8749   55.5226 O   0  0  0  0  0  0  0  0  0  0  0  0
   67.5112   40.7461   57.8758 C   0  0  0  0  0  0  0  0  0  0  0  0
   68.2153   39.5768   58.0548 C   0  0  0  0  0  0  0  0  0  0  0  0
   68.1750   38.8620   59.2390 C   0  0  0  0  0  0  0  0  0  0  0  0
   67.4025   39.3334   60.2834 C   0  0  0  0  0  0  0  0  0  0  0  0
   66.6949   40.4841   60.1405 C   0  0  0  0  0  0  0  0  0  0  0  0
   66.7517   41.1871   58.9370 C   0  0  0  0  0  0  0  0  0  0  0  0
   66.0410   42.3599   58.7693 O   0  0  0  0  0  0  0  0  0  0  0  0
   69.8173   49.1926   52.6308 S   0  0  0  0  0  0  0  0  0  0  0  0
   71.1442   48.9853   53.3398 O   0  0  0  0  0  0  0  0  0  0  0  0
   70.0669   49.4894   51.1724 O   0  0  0  0  0  0  0  0  0  0  0  0
   68.9763   50.4724   53.3933 N   0  0  0  0  0  0  0  0  0  0  0  0
   68.9357   50.7219   54.7867 C   0  0  0  0  0  0  0  0  0  0  0  0
   69.0742   49.6954   55.6941 C   0  0  0  0  0  0  0  0  0  0  0  0
   69.0356   49.9945   57.0568 C   0  0  0  0  0  0  0  0  0  0  0  0
   68.8642   51.2909   57.4911 C   0  0  0  0  0  0  0  0  0  0  0  0
   68.7237   52.3309   56.5960 C   0  0  0  0  0  0  0  0  0  0  0  0
   68.7621   52.0315   55.2557 C   0  0  0  0  0  0  0  0  0  0  0  0
   68.6234   53.0602   54.3739 F   0  0  0  0  0  0  0  0  0  0  0  0
  7  8  2  0  0  0
  8  9  1  0  0  0
  8  1  1  0  0  0
  9 10  1  0  0  0
 10 11  1  0  0  0
 11 12  2  0  0  0
 11 13  1  0  0  0
 13 14  2  0  0  0
 13 18  1  0  0  0
 14 15  1  0  0  0
 15 16  2  0  0  0
 16 17  1  0  0  0
 17 18  2  0  0  0
 18 19  1  0  0  0
  1  2  2  0  0  0
  1  6  1  0  0  0
  2  3  1  0  0  0
  3  4  2  0  0  0
  4  5  1  0  0  0
  5 20  1  0  0  0
  5  6  2  0  0  0
 20 21  2  0  0  0
 20 22  2  0  0  0
 20 23  1  0  0  0
 23 24  1  0  0  0
 24 25  2  0  0  0
 24 29  1  0  0  0
 25 26  1  0  0  0
 26 27  2  0  0  0
 27 28  1  0  0  0
 28 29  2  0  0  0
 29 30  1  0  0  0
M  END
> <minimizedAffinity>
-10.51863

$$$$
