
     RDKit          3D

 37 39  0  0  0  0  0  0  0  0999 V2000
   -0.1453    1.0180   -0.9854 O   0  0  0  0  0  0  0  0  0  0  0  0
    0.0974    1.6852    0.0714 C   0  0  0  0  0  0  0  0  0  0  0  0
   -1.0135    1.8440    1.0476 C   0  0  0  0  0  0  0  0  0  0  0  0
   -2.2447    1.1817    0.5584 C   0  0  0  0  0  0  0  0  0  0  0  0
   -3.2503    1.9191    0.0546 N   0  0  0  0  0  0  0  0  0  0  0  0
   -4.3690    1.3815   -0.3962 N   0  0  0  0  0  0  0  0  0  0  0  0
   -4.5949    0.0524   -0.3888 C   0  0  0  0  0  0  0  0  0  0  0  0
   -5.6499   -0.4468   -0.8146 O   0  0  0  0  0  0  0  0  0  0  0  0
   -3.5833   -0.7539    0.1233 C   0  0  0  0  0  0  0  0  0  0  0  0
   -3.7202   -2.1177    0.1738 C   0  0  0  0  0  0  0  0  0  0  0  0
   -2.7016   -2.9000    0.6879 C   0  0  0  0  0  0  0  0  0  0  0  0
   -1.5223   -2.3403    1.1638 C   0  0  0  0  0  0  0  0  0  0  0  0
   -1.4213   -0.9663    1.0965 C   0  0  0  0  0  0  0  0  0  0  0  0
   -2.4169   -0.1879    0.5928 C   0  0  0  0  0  0  0  0  0  0  0  0
    1.3665    2.2414    0.2917 N   0  0  0  0  0  0  0  0  0  0  0  0
    2.4499    2.0814   -0.6602 C   0  0  0  0  0  0  0  0  0  0  0  0
    3.0833    0.7533   -0.5923 C   0  0  0  0  0  0  0  0  0  0  0  0
    2.7301   -0.2296   -1.4741 C   0  0  0  0  0  0  0  0  0  0  0  0
    3.3343   -1.4802   -1.3927 C   0  0  0  0  0  0  0  0  0  0  0  0
    4.2798   -1.7578   -0.4480 C   0  0  0  0  0  0  0  0  0  0  0  0
    4.8846   -2.9834   -0.3538 F   0  0  0  0  0  0  0  0  0  0  0  0
    4.6413   -0.7716    0.4448 C   0  0  0  0  0  0  0  0  0  0  0  0
    4.0337    0.4866    0.3633 C   0  0  0  0  0  0  0  0  0  0  0  0
   -0.7266    1.5027    2.0643 H   0  0  0  0  0  0  0  0  0  0  0  0
   -1.2237    2.9286    1.1333 H   0  0  0  0  0  0  0  0  0  0  0  0
   -5.1544    1.9700   -0.7909 H   0  0  0  0  0  0  0  0  0  0  0  0
   -4.6130   -2.5714   -0.1828 H   0  0  0  0  0  0  0  0  0  0  0  0
   -2.8127   -3.9833    0.7268 H   0  0  0  0  0  0  0  0  0  0  0  0
   -0.7429   -2.9772    1.5605 H   0  0  0  0  0  0  0  0  0  0  0  0
   -0.5173   -0.5036    1.4576 H   0  0  0  0  0  0  0  0  0  0  0  0
    1.4910    2.7832    1.1932 H   0  0  0  0  0  0  0  0  0  0  0  0
    2.0695    2.2842   -1.7034 H   0  0  0  0  0  0  0  0  0  0  0  0
    3.2079    2.8979   -0.4822 H   0  0  0  0  0  0  0  0  0  0  0  0
    1.9919   -0.0978   -2.2567 H   0  0  0  0  0  0  0  0  0  0  0  0
    3.0462   -2.2561   -2.0996 H   0  0  0  0  0  0  0  0  0  0  0  0
    5.3858   -0.9511    1.2085 H   0  0  0  0  0  0  0  0  0  0  0  0
    4.3306    1.2644    1.0818 H   0  0  0  0  0  0  0  0  0  0  0  0
  1  2  2  0
  2  3  1  0
  3  4  1  0
  4  5  2  0
  5  6  1  0
  6  7  1  0
  7  8  2  0
  7  9  1  0
  9 10  2  0
 10 11  1  0
 11 12  2  0
 12 13  1  0
 13 14  2  0
  2 15  1  0
 15 16  1  0
 16 17  1  0
 17 18  2  0
 18 19  1  0
 19 20  2  0
 20 21  1  0
 20 22  1  0
 22 23  2  0
 14  4  1  0
 23 17  1  0
 14  9  1  0
  3 24  1  0
  3 25  1  0
  6 26  1  0
 10 27  1  0
 11 28  1  0
 12 29  1  0
 13 30  1  0
 15 31  1  0
 16 32  1  0
 16 33  1  0
 18 34  1  0
 19 35  1  0
 22 36  1  0
 23 37  1  0
M  END
$$$$
