
     RDKit          3D

 36 37  0  0  0  0  0  0  0  0999 V2000
   -2.5789   -0.5004    2.5980 C   0  0  0  0  0  0  0  0  0  0  0  0
   -3.0507   -0.2763    1.2513 N   0  0  0  0  0  0  0  0  0  0  0  0
   -4.3742   -0.6180    0.9211 C   0  0  0  0  0  0  0  0  0  0  0  0
   -4.8624   -0.4092   -0.3901 N   0  0  0  0  0  0  0  0  0  0  0  0
   -5.1300   -1.1085    1.7823 O   0  0  0  0  0  0  0  0  0  0  0  0
   -2.1512    0.2825    0.3154 C   0  0  0  0  0  0  0  0  0  0  0  0
   -2.1454    1.6732    0.1644 C   0  0  0  0  0  0  0  0  0  0  0  0
   -1.2832    2.2538   -0.7392 C   0  0  0  0  0  0  0  0  0  0  0  0
   -0.4102    1.5151   -1.5154 C   0  0  0  0  0  0  0  0  0  0  0  0
   -0.4249    0.1502   -1.3582 C   0  0  0  0  0  0  0  0  0  0  0  0
    0.4663   -0.6392   -2.1525 N   0  0  0  0  0  0  0  0  0  0  0  0
    2.1021   -0.2286   -2.3559 S   0  0  0  0  0  6  0  0  0  0  0  0
    2.2621    1.1303   -2.9783 O   0  0  0  0  0  0  0  0  0  0  0  0
    2.7475   -1.2596   -3.2556 O   0  0  0  0  0  0  0  0  0  0  0  0
    3.0114   -0.2122   -0.8618 C   0  0  0  0  0  0  0  0  0  0  0  0
    3.1303    0.9312   -0.1042 C   0  0  0  0  0  0  0  0  0  0  0  0
    2.5524    2.0862   -0.4857 F   0  0  0  0  0  0  0  0  0  0  0  0
    3.8454    0.9629    1.0825 C   0  0  0  0  0  0  0  0  0  0  0  0
    3.9456    2.1047    1.8089 F   0  0  0  0  0  0  0  0  0  0  0  0
    4.4691   -0.1619    1.5498 C   0  0  0  0  0  0  0  0  0  0  0  0
    5.1838   -0.1921    2.7048 F   0  0  0  0  0  0  0  0  0  0  0  0
    4.3602   -1.3189    0.8015 C   0  0  0  0  0  0  0  0  0  0  0  0
    4.9861   -2.4434    1.2720 F   0  0  0  0  0  0  0  0  0  0  0  0
    3.6480   -1.3430   -0.3765 C   0  0  0  0  0  0  0  0  0  0  0  0
    3.5835   -2.5041   -1.0541 F   0  0  0  0  0  0  0  0  0  0  0  0
   -1.2871   -0.4628   -0.4513 C   0  0  0  0  0  0  0  0  0  0  0  0
   -1.5738   -0.9639    2.6392 H   0  0  0  0  0  0  0  0  0  0  0  0
   -2.5186    0.5090    3.0882 H   0  0  0  0  0  0  0  0  0  0  0  0
   -3.3170   -1.1046    3.1936 H   0  0  0  0  0  0  0  0  0  0  0  0
   -4.2296   -0.3471   -1.2306 H   0  0  0  0  0  0  0  0  0  0  0  0
   -5.8900   -0.3045   -0.5942 H   0  0  0  0  0  0  0  0  0  0  0  0
   -2.8281    2.2566    0.7709 H   0  0  0  0  0  0  0  0  0  0  0  0
   -1.2633    3.3457   -0.8728 H   0  0  0  0  0  0  0  0  0  0  0  0
    0.2523    2.0325   -2.2180 H   0  0  0  0  0  0  0  0  0  0  0  0
    0.0489   -1.4851   -2.6005 H   0  0  0  0  0  0  0  0  0  0  0  0
   -1.2764   -1.5405   -0.3490 H   0  0  0  0  0  0  0  0  0  0  0  0
  1  2  1  0
  2  3  1  0
  3  4  1  0
  3  5  2  0
  2  6  1  0
  6  7  2  0
  7  8  1  0
  8  9  2  0
  9 10  1  0
 10 11  1  0
 11 12  1  0
 12 13  2  0
 12 14  2  0
 12 15  1  0
 15 16  2  0
 16 17  1  0
 16 18  1  0
 18 19  1  0
 18 20  2  0
 20 21  1  0
 20 22  1  0
 22 23  1  0
 22 24  2  0
 24 25  1  0
 10 26  2  0
 26  6  1  0
 24 15  1  0
  1 27  1  0
  1 28  1  0
  1 29  1  0
  4 30  1  0
  4 31  1  0
  7 32  1  0
  8 33  1  0
  9 34  1  0
 11 35  1  0
 26 36  1  0
M  END
$$$$
