
     RDKit          3D

 33 35  0  0  0  0  0  0  0  0999 V2000
    6.7656    1.1720   -1.2607 O   0  0  0  0  0  0  0  0  0  0  0  0
    5.5438    1.1122   -1.4885 N   0  0  0  0  0  4  0  0  0  0  0  0
    4.9769    2.0316   -2.3356 O   0  0  0  0  0  1  0  0  0  0  0  0
    4.7631    0.0989   -0.8709 C   0  0  0  0  0  0  0  0  0  0  0  0
    5.3296   -0.8213   -0.0233 C   0  0  0  0  0  0  0  0  0  0  0  0
    4.5420   -1.7993    0.5651 C   0  0  0  0  0  0  0  0  0  0  0  0
    3.1661   -1.8417    0.2890 C   0  0  0  0  0  0  0  0  0  0  0  0
    2.5982   -0.9252   -0.5561 C   0  0  0  0  0  0  0  0  0  0  0  0
    1.2597   -0.9652   -0.8257 O   0  0  0  0  0  0  0  0  0  0  0  0
    0.3049   -0.2805   -0.0737 C   0  0  0  0  0  0  0  0  0  0  0  0
    0.7453    0.4547    0.9712 N   0  0  0  0  0  0  0  0  0  0  0  0
   -0.0835    1.1535    1.7622 C   0  0  0  0  0  0  0  0  0  0  0  0
   -1.4489    1.0908    1.4581 C   0  0  0  0  0  0  0  0  0  0  0  0
   -1.9113    0.3472    0.3985 C   0  0  0  0  0  0  0  0  0  0  0  0
   -3.3206    0.2574    0.0513 C   0  0  0  0  0  0  0  0  0  0  0  0
   -3.7087   -0.5152   -1.0346 C   0  0  0  0  0  0  0  0  0  0  0  0
   -5.0372   -0.6350   -1.4086 C   0  0  0  0  0  0  0  0  0  0  0  0
   -6.0221    0.0138   -0.7090 C   0  0  0  0  0  0  0  0  0  0  0  0
   -5.6620    0.7879    0.3744 C   0  0  0  0  0  0  0  0  0  0  0  0
   -4.3223    0.8914    0.7285 C   0  0  0  0  0  0  0  0  0  0  0  0
   -0.9969   -0.3230   -0.3408 N   0  0  0  0  0  0  0  0  0  0  0  0
    3.3955    0.0302   -1.1246 C   0  0  0  0  0  0  0  0  0  0  0  0
    6.3982   -0.7712    0.1777 H   0  0  0  0  0  0  0  0  0  0  0  0
    5.0147   -2.5080    1.2260 H   0  0  0  0  0  0  0  0  0  0  0  0
    2.6042   -2.6282    0.7782 H   0  0  0  0  0  0  0  0  0  0  0  0
    0.2195    1.7539    2.6063 H   0  0  0  0  0  0  0  0  0  0  0  0
   -2.1642    1.6297    2.0558 H   0  0  0  0  0  0  0  0  0  0  0  0
   -2.9706   -1.0486   -1.6213 H   0  0  0  0  0  0  0  0  0  0  0  0
   -5.3421   -1.2393   -2.2581 H   0  0  0  0  0  0  0  0  0  0  0  0
   -7.0593   -0.0991   -1.0265 H   0  0  0  0  0  0  0  0  0  0  0  0
   -6.4430    1.2975    0.9227 H   0  0  0  0  0  0  0  0  0  0  0  0
   -4.1129    1.5135    1.5863 H   0  0  0  0  0  0  0  0  0  0  0  0
    2.9784    0.7645   -1.7930 H   0  0  0  0  0  0  0  0  0  0  0  0
  1  2  2  0
  2  3  1  0
  2  4  1  0
  4  5  2  0
  5  6  1  0
  6  7  2  0
  7  8  1  0
  8  9  1  0
  9 10  1  0
 10 11  2  0
 11 12  1  0
 12 13  2  0
 13 14  1  0
 14 15  1  0
 15 16  2  0
 16 17  1  0
 17 18  2  0
 18 19  1  0
 19 20  2  0
 14 21  2  0
  8 22  2  0
 22  4  1  0
 21 10  1  0
 20 15  1  0
  5 23  1  0
  6 24  1  0
  7 25  1  0
 12 26  1  0
 13 27  1  0
 16 28  1  0
 17 29  1  0
 18 30  1  0
 19 31  1  0
 20 32  1  0
 22 33  1  0
M  CHG  2   2   1   3  -1
M  END
$$$$
