
     RDKit          3D

 37 39  0  0  0  0  0  0  0  0999 V2000
    1.0629    1.7304   -0.8150 O   0  0  0  0  0  0  0  0  0  0  0  0
    0.4102    1.3002    0.1630 C   0  0  0  0  0  0  0  0  0  0  0  0
   -0.8729    1.8950    0.6014 C   0  0  0  0  0  0  0  0  0  0  0  0
   -2.0682    1.5123   -0.1348 C   0  0  0  0  0  0  0  0  0  0  0  0
   -2.4550    2.1610   -1.2527 N   0  0  0  0  0  0  0  0  0  0  0  0
   -3.4945    1.8233   -1.9876 N   0  0  0  0  0  0  0  0  0  0  0  0
   -4.2668    0.7793   -1.6663 C   0  0  0  0  0  0  0  0  0  0  0  0
   -5.2448    0.4966   -2.4071 O   0  0  0  0  0  0  0  0  0  0  0  0
   -3.9275    0.0724   -0.5318 C   0  0  0  0  0  0  0  0  0  0  0  0
   -4.7240   -1.0091   -0.1375 C   0  0  0  0  0  0  0  0  0  0  0  0
   -4.4157   -1.7131    1.0157 C   0  0  0  0  0  0  0  0  0  0  0  0
   -3.3439   -1.3735    1.7854 C   0  0  0  0  0  0  0  0  0  0  0  0
   -2.5581   -0.2811    1.3664 C   0  0  0  0  0  0  0  0  0  0  0  0
   -2.8279    0.4352    0.2373 C   0  0  0  0  0  0  0  0  0  0  0  0
    0.9392    0.1994    0.8634 N   0  0  0  0  0  0  0  0  0  0  0  0
    2.1988   -0.4064    0.5636 C   0  0  0  0  0  0  0  0  0  0  0  0
    3.2179    0.2724   -0.0498 C   0  0  0  0  0  0  0  0  0  0  0  0
    4.4854   -0.2812   -0.2008 C   0  0  0  0  0  0  0  0  0  0  0  0
    5.6140    0.5123   -0.8187 C   0  0  0  0  0  0  0  0  0  0  0  0
    5.9831    1.4805    0.1655 F   0  0  0  0  0  0  0  0  0  0  0  0
    6.6610   -0.3191   -1.0525 F   0  0  0  0  0  0  0  0  0  0  0  0
    5.1147    1.1730   -1.9029 F   0  0  0  0  0  0  0  0  0  0  0  0
    4.7013   -1.5413    0.2808 C   0  0  0  0  0  0  0  0  0  0  0  0
    3.6884   -2.2230    0.8922 N   0  0  0  0  0  0  0  0  0  0  0  0
    2.4593   -1.6822    1.0379 C   0  0  0  0  0  0  0  0  0  0  0  0
    1.5240   -2.3455    1.6162 O   0  0  0  0  0  0  0  0  0  0  0  0
   -0.7704    3.0330    0.4882 H   0  0  0  0  0  0  0  0  0  0  0  0
   -1.0226    1.7765    1.7312 H   0  0  0  0  0  0  0  0  0  0  0  0
   -3.7108    2.4072   -2.8610 H   0  0  0  0  0  0  0  0  0  0  0  0
   -5.5701   -1.2645   -0.7698 H   0  0  0  0  0  0  0  0  0  0  0  0
   -5.0854   -2.5523    1.2843 H   0  0  0  0  0  0  0  0  0  0  0  0
   -3.0973   -1.9316    2.6933 H   0  0  0  0  0  0  0  0  0  0  0  0
   -1.7506   -0.0265    2.0085 H   0  0  0  0  0  0  0  0  0  0  0  0
    0.3923   -0.2367    1.6733 H   0  0  0  0  0  0  0  0  0  0  0  0
    3.1315    1.2781   -0.4491 H   0  0  0  0  0  0  0  0  0  0  0  0
    5.6809   -1.9976    0.1742 H   0  0  0  0  0  0  0  0  0  0  0  0
    3.9415   -3.1530    1.2316 H   0  0  0  0  0  0  0  0  0  0  0  0
  1  2  2  0
  2  3  1  0
  3  4  1  0
  4  5  2  0
  5  6  1  0
  6  7  1  0
  7  8  2  0
  7  9  1  0
  9 10  2  0
 10 11  1  0
 11 12  2  0
 12 13  1  0
 13 14  2  0
  2 15  1  0
 15 16  1  0
 16 17  2  0
 17 18  1  0
 18 19  1  0
 19 20  1  0
 19 21  1  0
 19 22  1  0
 18 23  2  0
 23 24  1  0
 24 25  1  0
 25 26  2  0
 14  4  1  0
 25 16  1  0
 14  9  1  0
  3 27  1  0
  3 28  1  0
  6 29  1  0
 10 30  1  0
 11 31  1  0
 12 32  1  0
 13 33  1  0
 15 34  1  0
 17 35  1  0
 23 36  1  0
 24 37  1  0
M  END
$$$$
