
     RDKit          3D

 35 37  0  0  0  0  0  0  0  0999 V2000
   -2.2576   -3.5857    1.3668 C   0  0  0  0  0  0  0  0  0  0  0  0
   -0.9345   -3.3870    1.0463 C   0  0  0  0  0  0  0  0  0  0  0  0
   -0.4170   -2.1862    0.5762 C   0  0  0  0  0  0  0  0  0  0  0  0
   -1.2777   -1.1203    0.4163 C   0  0  0  0  0  0  0  0  0  0  0  0
   -0.8623    0.1429   -0.1563 C   0  0  0  0  0  0  0  0  0  0  0  0
    0.1961    0.2462   -0.8599 N   0  0  0  0  0  0  0  0  0  0  0  0
    1.1224   -0.6552   -1.2402 N   0  0  0  0  0  0  0  0  0  0  0  0
    2.4926   -0.4462   -0.9195 C   0  0  0  0  0  0  0  0  0  0  0  0
    3.2446    0.2493   -1.8541 C   0  0  0  0  0  0  0  0  0  0  0  0
    4.5811    0.5331   -1.6925 C   0  0  0  0  0  0  0  0  0  0  0  0
    5.1922    0.0958   -0.5331 C   0  0  0  0  0  0  0  0  0  0  0  0
    4.4123   -0.5884    0.3652 C   0  0  0  0  0  0  0  0  0  0  0  0
    3.1068   -0.8520    0.1812 N   0  0  0  0  0  0  0  0  0  0  0  0
   -1.5748    1.4101    0.0377 C   0  0  0  0  0  0  0  0  0  0  0  0
   -1.1708    2.5830   -0.5608 C   0  0  0  0  0  0  0  0  0  0  0  0
   -1.8444    3.7522   -0.3285 C   0  0  0  0  0  0  0  0  0  0  0  0
   -2.9431    3.7617    0.5154 C   0  0  0  0  0  0  0  0  0  0  0  0
   -3.3172    2.5594    1.0982 C   0  0  0  0  0  0  0  0  0  0  0  0
   -2.6248    1.4558    0.8352 N   0  0  0  0  0  0  0  0  0  0  0  0
   -2.6137   -1.3068    0.7356 C   0  0  0  0  0  0  0  0  0  0  0  0
   -3.1188   -2.5243    1.2095 C   0  0  0  0  0  0  0  0  0  0  0  0
   -2.6301   -4.5446    1.7344 H   0  0  0  0  0  0  0  0  0  0  0  0
   -0.2277   -4.2244    1.1647 H   0  0  0  0  0  0  0  0  0  0  0  0
    0.6521   -2.1432    0.3873 H   0  0  0  0  0  0  0  0  0  0  0  0
    0.8781   -1.5018   -1.7857 H   0  0  0  0  0  0  0  0  0  0  0  0
    2.7801    0.5968   -2.7644 H   0  0  0  0  0  0  0  0  0  0  0  0
    5.1185    1.0836   -2.4628 H   0  0  0  0  0  0  0  0  0  0  0  0
    6.2390    0.3069   -0.3851 H   0  0  0  0  0  0  0  0  0  0  0  0
    4.8776   -0.9460    1.2951 H   0  0  0  0  0  0  0  0  0  0  0  0
   -0.3290    2.5937   -1.2118 H   0  0  0  0  0  0  0  0  0  0  0  0
   -1.5167    4.6712   -0.8060 H   0  0  0  0  0  0  0  0  0  0  0  0
   -3.5101    4.6487    0.7349 H   0  0  0  0  0  0  0  0  0  0  0  0
   -4.1884    2.5269    1.7772 H   0  0  0  0  0  0  0  0  0  0  0  0
   -3.3747   -0.5519    0.6313 H   0  0  0  0  0  0  0  0  0  0  0  0
   -4.1599   -2.6533    1.4524 H   0  0  0  0  0  0  0  0  0  0  0  0
  1  2  2  0
  2  3  1  0
  3  4  2  0
  4  5  1  0
  5  6  2  0
  6  7  1  0
  7  8  1  0
  8  9  2  0
  9 10  1  0
 10 11  2  0
 11 12  1  0
 12 13  2  0
  5 14  1  0
 14 15  2  0
 15 16  1  0
 16 17  2  0
 17 18  1  0
 18 19  2  0
  4 20  1  0
 20 21  2  0
 21  1  1  0
 13  8  1  0
 19 14  1  0
  1 22  1  0
  2 23  1  0
  3 24  1  0
  7 25  1  0
  9 26  1  0
 10 27  1  0
 11 28  1  0
 12 29  1  0
 15 30  1  0
 16 31  1  0
 17 32  1  0
 18 33  1  0
 20 34  1  0
 21 35  1  0
M  END
$$$$
