
     RDKit          3D

 43 45  0  0  0  0  0  0  0  0999 V2000
    2.9876    2.1526    0.3860 O   0  0  0  0  0  0  0  0  0  0  0  0
    2.3114    1.1919   -0.0556 C   0  0  0  0  0  0  0  0  0  0  0  0
    2.8770   -0.0991    0.0076 N   0  0  0  0  0  0  0  0  0  0  0  0
    4.1257   -0.4912    0.5061 C   0  0  0  0  0  0  0  0  0  0  0  0
    5.0549    0.3648    1.0445 C   0  0  0  0  0  0  0  0  0  0  0  0
    6.2967   -0.0897    1.5307 C   0  0  0  0  0  0  0  0  0  0  0  0
    6.6266   -1.4196    1.4835 C   0  0  0  0  0  0  0  0  0  0  0  0
    5.6876   -2.2664    0.9421 C   0  0  0  0  0  0  0  0  0  0  0  0
    4.4695   -1.8396    0.4623 C   0  0  0  0  0  0  0  0  0  0  0  0
    3.5463   -2.7165   -0.0764 O   0  0  0  0  0  0  0  0  0  0  0  0
    0.9680    1.4500   -0.6160 C   0  0  0  0  0  0  0  0  0  0  0  0
    0.4926    2.7403   -0.6142 C   0  0  0  0  0  0  0  0  0  0  0  0
   -0.7364    3.0695   -1.1121 C   0  0  0  0  0  0  0  0  0  0  0  0
   -1.5379    2.0952   -1.6354 C   0  0  0  0  0  0  0  0  0  0  0  0
   -1.1060    0.7883   -1.6592 C   0  0  0  0  0  0  0  0  0  0  0  0
   -2.1073   -0.4554   -2.3075 S   0  0  0  0  0  6  0  0  0  0  0  0
   -1.2984   -1.4637   -3.1131 O   0  0  0  0  0  0  0  0  0  0  0  0
   -3.0946    0.1232   -3.2960 O   0  0  0  0  0  0  0  0  0  0  0  0
   -3.0048   -1.2493   -1.0763 N   0  0  0  0  0  0  0  0  0  0  0  0
   -3.9503   -0.6039   -0.2540 C   0  0  0  0  0  0  0  0  0  0  0  0
   -4.6015    0.5363   -0.6464 C   0  0  0  0  0  0  0  0  0  0  0  0
   -5.5426    1.1328    0.2054 C   0  0  0  0  0  0  0  0  0  0  0  0
   -5.8321    0.5939    1.4416 C   0  0  0  0  0  0  0  0  0  0  0  0
   -5.1759   -0.5562    1.8376 C   0  0  0  0  0  0  0  0  0  0  0  0
   -4.2554   -1.1341    0.9974 C   0  0  0  0  0  0  0  0  0  0  0  0
   -3.5874   -2.2857    1.3748 O   0  0  0  0  0  0  0  0  0  0  0  0
    0.1582    0.4814   -1.1419 C   0  0  0  0  0  0  0  0  0  0  0  0
    2.2434   -0.8620   -0.3856 H   0  0  0  0  0  0  0  0  0  0  0  0
    4.8677    1.4192    1.1150 H   0  0  0  0  0  0  0  0  0  0  0  0
    6.9995    0.6404    1.9500 H   0  0  0  0  0  0  0  0  0  0  0  0
    7.5760   -1.7368    1.8597 H   0  0  0  0  0  0  0  0  0  0  0  0
    5.9473   -3.3200    0.9039 H   0  0  0  0  0  0  0  0  0  0  0  0
    3.6584   -3.6984   -0.1698 H   0  0  0  0  0  0  0  0  0  0  0  0
    1.1249    3.5120   -0.2008 H   0  0  0  0  0  0  0  0  0  0  0  0
   -1.0614    4.0878   -1.0881 H   0  0  0  0  0  0  0  0  0  0  0  0
   -2.5334    2.3194   -2.0519 H   0  0  0  0  0  0  0  0  0  0  0  0
   -2.8387   -2.2816   -0.9264 H   0  0  0  0  0  0  0  0  0  0  0  0
   -4.4249    0.9947   -1.5927 H   0  0  0  0  0  0  0  0  0  0  0  0
   -6.0587    2.0379   -0.1069 H   0  0  0  0  0  0  0  0  0  0  0  0
   -6.5562    1.0671    2.0777 H   0  0  0  0  0  0  0  0  0  0  0  0
   -5.4226   -0.9592    2.8149 H   0  0  0  0  0  0  0  0  0  0  0  0
   -3.7540   -2.7209    2.2547 H   0  0  0  0  0  0  0  0  0  0  0  0
    0.4614   -0.5494   -1.1782 H   0  0  0  0  0  0  0  0  0  0  0  0
  1  2  2  0
  2  3  1  0
  3  4  1  0
  4  5  2  0
  5  6  1  0
  6  7  2  0
  7  8  1  0
  8  9  2  0
  9 10  1  0
  2 11  1  0
 11 12  2  0
 12 13  1  0
 13 14  2  0
 14 15  1  0
 15 16  1  0
 16 17  2  0
 16 18  2  0
 16 19  1  0
 19 20  1  0
 20 21  2  0
 21 22  1  0
 22 23  2  0
 23 24  1  0
 24 25  2  0
 25 26  1  0
 15 27  2  0
  9  4  1  0
 27 11  1  0
 25 20  1  0
  3 28  1  0
  5 29  1  0
  6 30  1  0
  7 31  1  0
  8 32  1  0
 10 33  1  0
 12 34  1  0
 13 35  1  0
 14 36  1  0
 19 37  1  0
 21 38  1  0
 22 39  1  0
 23 40  1  0
 24 41  1  0
 26 42  1  0
 27 43  1  0
M  END
$$$$
