
     RDKit          3D

 38 41  0  0  0  0  0  0  0  0999 V2000
   -0.9096    2.1180   -1.0310 O   0  0  0  0  0  0  0  0  0  0  0  0
   -0.6092    0.9966   -0.5506 C   0  0  0  0  0  0  0  0  0  0  0  0
   -1.5804    0.0686   -0.0560 C   0  0  0  0  0  0  0  0  0  0  0  0
   -1.1845   -1.1317    0.4493 N   0  0  0  0  0  0  0  0  0  0  0  0
   -1.9908   -2.0457    0.9245 N   0  0  0  0  0  0  0  0  0  0  0  0
   -3.3290   -1.8392    0.9411 C   0  0  0  0  0  0  0  0  0  0  0  0
   -4.1334   -2.6937    1.3895 O   0  0  0  0  0  0  0  0  0  0  0  0
   -3.8379   -0.6558    0.4527 C   0  0  0  0  0  0  0  0  0  0  0  0
   -5.1968   -0.4414    0.4677 C   0  0  0  0  0  0  0  0  0  0  0  0
   -5.7282    0.7354   -0.0157 C   0  0  0  0  0  0  0  0  0  0  0  0
   -4.8542    1.6694   -0.5053 C   0  0  0  0  0  0  0  0  0  0  0  0
   -3.4784    1.4541   -0.5213 C   0  0  0  0  0  0  0  0  0  0  0  0
   -2.9419    0.2908   -0.0444 C   0  0  0  0  0  0  0  0  0  0  0  0
    0.7730    0.6640   -0.5114 N   0  0  0  0  0  0  0  0  0  0  0  0
    1.7224    1.6416   -1.0330 C   0  0  0  0  0  0  0  0  0  0  0  0
    2.7874    1.8209    0.0611 C   0  0  0  0  0  0  0  0  0  0  0  0
    3.5199    0.5092    0.0565 C   0  0  0  0  0  0  0  0  0  0  0  0
    4.8843    0.3929    0.0746 C   0  0  0  0  0  0  0  0  0  0  0  0
    5.4743   -0.8675    0.0596 C   0  0  0  0  0  0  0  0  0  0  0  0
    4.7012   -2.0089    0.0266 C   0  0  0  0  0  0  0  0  0  0  0  0
    3.3327   -1.8486    0.0094 C   0  0  0  0  0  0  0  0  0  0  0  0
    2.7476   -0.6166    0.0240 C   0  0  0  0  0  0  0  0  0  0  0  0
    1.2505   -0.5663    0.0107 C   0  0  0  0  0  0  0  0  0  0  0  0
   -1.6113   -2.9431    1.2954 H   0  0  0  0  0  0  0  0  0  0  0  0
   -5.8945   -1.1910    0.8603 H   0  0  0  0  0  0  0  0  0  0  0  0
   -6.8035    0.8977   -0.0005 H   0  0  0  0  0  0  0  0  0  0  0  0
   -5.2159    2.5968   -0.8909 H   0  0  0  0  0  0  0  0  0  0  0  0
   -2.8375    2.2153   -0.9142 H   0  0  0  0  0  0  0  0  0  0  0  0
    2.2632    1.2079   -1.8971 H   0  0  0  0  0  0  0  0  0  0  0  0
    1.2342    2.6089   -1.2641 H   0  0  0  0  0  0  0  0  0  0  0  0
    2.2499    1.8928    1.0060 H   0  0  0  0  0  0  0  0  0  0  0  0
    3.4430    2.6633   -0.1650 H   0  0  0  0  0  0  0  0  0  0  0  0
    5.4946    1.3063    0.1009 H   0  0  0  0  0  0  0  0  0  0  0  0
    6.5372   -0.9582    0.0738 H   0  0  0  0  0  0  0  0  0  0  0  0
    5.1601   -3.0057    0.0145 H   0  0  0  0  0  0  0  0  0  0  0  0
    2.7487   -2.7735   -0.0167 H   0  0  0  0  0  0  0  0  0  0  0  0
    0.8461   -1.4056   -0.5969 H   0  0  0  0  0  0  0  0  0  0  0  0
    0.9670   -0.7581    1.0841 H   0  0  0  0  0  0  0  0  0  0  0  0
  1  2  2  0
  2  3  1  0
  3  4  2  0
  4  5  1  0
  5  6  1  0
  6  7  2  0
  6  8  1  0
  8  9  2  0
  9 10  1  0
 10 11  2  0
 11 12  1  0
 12 13  2  0
  2 14  1  0
 14 15  1  0
 15 16  1  0
 16 17  1  0
 17 18  2  0
 18 19  1  0
 19 20  2  0
 20 21  1  0
 21 22  2  0
 22 23  1  0
 13  3  1  0
 23 14  1  0
 13  8  1  0
 22 17  1  0
  5 24  1  0
  9 25  1  0
 10 26  1  0
 11 27  1  0
 12 28  1  0
 15 29  1  0
 15 30  1  0
 16 31  1  0
 16 32  1  0
 18 33  1  0
 19 34  1  0
 20 35  1  0
 21 36  1  0
 23 37  1  0
 23 38  1  0
M  END
$$$$
