
     RDKit          3D

 47 50  0  0  0  0  0  0  0  0999 V2000
    4.5953   -2.7234   -1.9958 O   0  0  0  0  0  0  0  0  0  0  0  0
    4.0493   -1.9549   -1.1266 C   0  0  0  0  0  0  0  0  0  0  0  0
    2.7001   -1.9190   -1.0799 O   0  0  0  0  0  0  0  0  0  0  0  0
    4.9063   -1.1705   -0.2294 C   0  0  0  0  0  0  0  0  0  0  0  0
    6.2868   -1.4294   -0.2049 C   0  0  0  0  0  0  0  0  0  0  0  0
    7.1036   -0.8032    0.6954 C   0  0  0  0  0  0  0  0  0  0  0  0
    6.5849    0.0885    1.5916 C   0  0  0  0  0  0  0  0  0  0  0  0
    5.2195    0.3427    1.5616 C   0  0  0  0  0  0  0  0  0  0  0  0
    4.3615   -0.2832    0.6460 C   0  0  0  0  0  0  0  0  0  0  0  0
    2.9726    0.1936    0.6258 C   0  0  0  0  0  0  0  0  0  0  0  0
    2.3710    0.2149    1.7058 O   0  0  0  0  0  0  0  0  0  0  0  0
    2.3349    0.6238   -0.5595 N   0  0  0  0  0  0  0  0  0  0  0  0
    1.0123    1.0965   -0.7004 C   0  0  0  0  0  0  0  0  0  0  0  0
    0.6681    1.6745   -1.9192 C   0  0  0  0  0  0  0  0  0  0  0  0
   -0.5975    2.1744   -2.1342 C   0  0  0  0  0  0  0  0  0  0  0  0
   -1.5690    2.1227   -1.1564 C   0  0  0  0  0  0  0  0  0  0  0  0
   -1.2569    1.5493    0.0771 C   0  0  0  0  0  0  0  0  0  0  0  0
   -2.3017    1.5297    1.1405 C   0  0  0  0  0  0  0  0  0  0  0  0
   -3.6360    1.1538    0.6291 C   0  0  0  0  0  0  0  0  0  0  0  0
   -4.6074    2.0897    0.4625 N   0  0  0  0  0  0  0  0  0  0  0  0
   -5.8083    1.8037    0.0107 N   0  0  0  0  0  0  0  0  0  0  0  0
   -6.1206    0.5393   -0.3105 C   0  0  0  0  0  0  0  0  0  0  0  0
   -7.2596    0.2130   -0.7494 O   0  0  0  0  0  0  0  0  0  0  0  0
   -5.1999   -0.4583   -0.1715 C   0  0  0  0  0  0  0  0  0  0  0  0
   -5.4969   -1.7795   -0.5041 C   0  0  0  0  0  0  0  0  0  0  0  0
   -4.5416   -2.7518   -0.3559 C   0  0  0  0  0  0  0  0  0  0  0  0
   -3.2806   -2.4092    0.1266 C   0  0  0  0  0  0  0  0  0  0  0  0
   -2.9636   -1.1192    0.4606 C   0  0  0  0  0  0  0  0  0  0  0  0
   -3.9315   -0.1450    0.3080 C   0  0  0  0  0  0  0  0  0  0  0  0
    0.0257    1.0606    0.2476 C   0  0  0  0  0  0  0  0  0  0  0  0
    2.0713   -2.1992   -1.8132 H   0  0  0  0  0  0  0  0  0  0  0  0
    6.6875   -2.1367   -0.9147 H   0  0  0  0  0  0  0  0  0  0  0  0
    8.1607   -1.0341    0.6758 H   0  0  0  0  0  0  0  0  0  0  0  0
    7.2266    0.5913    2.3118 H   0  0  0  0  0  0  0  0  0  0  0  0
    4.8002    1.0434    2.2656 H   0  0  0  0  0  0  0  0  0  0  0  0
    2.9328    0.6107   -1.4289 H   0  0  0  0  0  0  0  0  0  0  0  0
    1.3878    1.7381   -2.7173 H   0  0  0  0  0  0  0  0  0  0  0  0
   -0.8074    2.6096   -3.1053 H   0  0  0  0  0  0  0  0  0  0  0  0
   -2.5620    2.5146   -1.3212 H   0  0  0  0  0  0  0  0  0  0  0  0
   -1.9869    0.8113    1.9049 H   0  0  0  0  0  0  0  0  0  0  0  0
   -2.3816    2.5715    1.5484 H   0  0  0  0  0  0  0  0  0  0  0  0
   -6.5619    2.5346   -0.1184 H   0  0  0  0  0  0  0  0  0  0  0  0
   -6.5009   -1.9666   -0.8739 H   0  0  0  0  0  0  0  0  0  0  0  0
   -4.8085   -3.7647   -0.6248 H   0  0  0  0  0  0  0  0  0  0  0  0
   -2.5352   -3.1812    0.2393 H   0  0  0  0  0  0  0  0  0  0  0  0
   -1.9873   -0.8884    0.8328 H   0  0  0  0  0  0  0  0  0  0  0  0
    0.2441    0.6217    1.2012 H   0  0  0  0  0  0  0  0  0  0  0  0
  1  2  2  0
  2  3  1  0
  2  4  1  0
  4  5  2  0
  5  6  1  0
  6  7  2  0
  7  8  1  0
  8  9  2  0
  9 10  1  0
 10 11  2  0
 10 12  1  0
 12 13  1  0
 13 14  2  0
 14 15  1  0
 15 16  2  0
 16 17  1  0
 17 18  1  0
 18 19  1  0
 19 20  2  0
 20 21  1  0
 21 22  1  0
 22 23  2  0
 22 24  1  0
 24 25  2  0
 25 26  1  0
 26 27  2  0
 27 28  1  0
 28 29  2  0
 17 30  2  0
  9  4  1  0
 30 13  1  0
 29 19  1  0
 29 24  1  0
  3 31  1  0
  5 32  1  0
  6 33  1  0
  7 34  1  0
  8 35  1  0
 12 36  1  0
 14 37  1  0
 15 38  1  0
 16 39  1  0
 18 40  1  0
 18 41  1  0
 21 42  1  0
 25 43  1  0
 26 44  1  0
 27 45  1  0
 28 46  1  0
 30 47  1  0
M  END
$$$$
