
     RDKit          3D

 48 50  0  0  0  0  0  0  0  0999 V2000
   -0.8449    1.6322   -0.3903 O   0  0  0  0  0  0  0  0  0  0  0  0
   -0.3393    0.9047    0.5013 C   0  0  0  0  0  0  0  0  0  0  0  0
   -1.2000    0.0508    1.2415 N   0  0  0  0  0  0  0  0  0  0  0  0
   -2.6206   -0.0311    1.0305 C   0  0  0  0  0  0  0  0  0  0  0  0
   -2.9700   -0.4643   -0.3763 C   0  0  0  0  0  0  0  0  0  0  0  0
   -4.4469   -0.5208   -0.5006 C   0  0  0  0  0  0  0  0  0  0  0  0
   -5.0368   -1.6458   -0.8082 C   0  0  0  0  0  0  0  0  0  0  0  0
   -6.5203   -1.6571   -0.9224 C   0  0  0  0  0  0  0  0  0  0  0  0
   -7.1970   -0.9059    0.1919 C   0  0  0  0  0  0  0  0  0  0  0  0
   -6.4241    0.3000    0.6510 C   0  0  0  0  0  0  0  0  0  0  0  0
   -5.3142    0.6726   -0.2869 C   0  0  0  0  0  0  0  0  0  0  0  0
    1.0992    0.9629    0.7415 C   0  0  0  0  0  0  0  0  0  0  0  0
    1.6415    0.2513    1.6237 O   0  0  0  0  0  0  0  0  0  0  0  0
    1.9235    1.8245   -0.0146 N   0  0  0  0  0  0  0  0  0  0  0  0
    3.3566    1.9330    0.1695 C   0  0  0  0  0  0  0  0  0  0  0  0
    3.9498    0.6081   -0.0864 C   0  0  0  0  0  0  0  0  0  0  0  0
    3.2114   -0.4428   -0.4248 N   0  0  0  0  0  0  0  0  0  0  0  0
    3.7558   -1.6262   -0.6529 N   0  0  0  0  0  0  0  0  0  0  0  0
    5.0671   -1.8609   -0.5643 C   0  0  0  0  0  0  0  0  0  0  0  0
    5.5970   -2.9893   -0.7806 O   0  0  0  0  0  0  0  0  0  0  0  0
    5.8855   -0.7984   -0.2142 C   0  0  0  0  0  0  0  0  0  0  0  0
    7.2562   -0.9514   -0.0992 C   0  0  0  0  0  0  0  0  0  0  0  0
    8.0508    0.1279    0.2524 C   0  0  0  0  0  0  0  0  0  0  0  0
    7.4754    1.3551    0.4877 C   0  0  0  0  0  0  0  0  0  0  0  0
    6.1162    1.5069    0.3736 C   0  0  0  0  0  0  0  0  0  0  0  0
    5.3245    0.4328    0.0237 C   0  0  0  0  0  0  0  0  0  0  0  0
   -0.7175   -0.5404    1.9812 H   0  0  0  0  0  0  0  0  0  0  0  0
   -3.1285    0.9541    1.1993 H   0  0  0  0  0  0  0  0  0  0  0  0
   -3.0475   -0.7225    1.7661 H   0  0  0  0  0  0  0  0  0  0  0  0
   -2.6327    0.3135   -1.1186 H   0  0  0  0  0  0  0  0  0  0  0  0
   -2.5671   -1.4595   -0.6228 H   0  0  0  0  0  0  0  0  0  0  0  0
   -4.4285   -2.5438   -0.9725 H   0  0  0  0  0  0  0  0  0  0  0  0
   -6.8230   -2.7410   -0.8231 H   0  0  0  0  0  0  0  0  0  0  0  0
   -6.7703   -1.2589   -1.9323 H   0  0  0  0  0  0  0  0  0  0  0  0
   -7.3529   -1.5823    1.0547 H   0  0  0  0  0  0  0  0  0  0  0  0
   -8.1855   -0.5417   -0.1630 H   0  0  0  0  0  0  0  0  0  0  0  0
   -5.9649    0.1093    1.6611 H   0  0  0  0  0  0  0  0  0  0  0  0
   -7.0828    1.1890    0.7986 H   0  0  0  0  0  0  0  0  0  0  0  0
   -4.7713    1.5325    0.1391 H   0  0  0  0  0  0  0  0  0  0  0  0
   -5.7670    1.0016   -1.2612 H   0  0  0  0  0  0  0  0  0  0  0  0
    1.4469    2.4037   -0.7398 H   0  0  0  0  0  0  0  0  0  0  0  0
    3.7238    2.7193   -0.4934 H   0  0  0  0  0  0  0  0  0  0  0  0
    3.6203    2.2022    1.2152 H   0  0  0  0  0  0  0  0  0  0  0  0
    3.1497   -2.4413   -0.9190 H   0  0  0  0  0  0  0  0  0  0  0  0
    7.6943   -1.9385   -0.2912 H   0  0  0  0  0  0  0  0  0  0  0  0
    9.1325   -0.0031    0.3407 H   0  0  0  0  0  0  0  0  0  0  0  0
    8.0667    2.2259    0.7658 H   0  0  0  0  0  0  0  0  0  0  0  0
    5.6086    2.4529    0.5479 H   0  0  0  0  0  0  0  0  0  0  0  0
  1  2  2  0
  2  3  1  0
  3  4  1  0
  4  5  1  0
  5  6  1  0
  6  7  2  0
  7  8  1  0
  8  9  1  0
  9 10  1  0
 10 11  1  0
  2 12  1  0
 12 13  2  0
 12 14  1  0
 14 15  1  0
 15 16  1  0
 16 17  2  0
 17 18  1  0
 18 19  1  0
 19 20  2  0
 19 21  1  0
 21 22  2  0
 22 23  1  0
 23 24  2  0
 24 25  1  0
 25 26  2  0
 11  6  1  0
 26 16  1  0
 26 21  1  0
  3 27  1  0
  4 28  1  0
  4 29  1  0
  5 30  1  0
  5 31  1  0
  7 32  1  0
  8 33  1  0
  8 34  1  0
  9 35  1  0
  9 36  1  0
 10 37  1  0
 10 38  1  0
 11 39  1  0
 11 40  1  0
 14 41  1  0
 15 42  1  0
 15 43  1  0
 18 44  1  0
 22 45  1  0
 23 46  1  0
 24 47  1  0
 25 48  1  0
M  END
$$$$
