
     RDKit          3D

 37 39  0  0  0  0  0  0  0  0999 V2000
    0.1610   -1.2359    1.4838 O   0  0  0  0  0  0  0  0  0  0  0  0
    0.7301   -0.6581    0.5028 C   0  0  0  0  0  0  0  0  0  0  0  0
    0.1173    0.3448   -0.2502 N   0  0  0  0  0  0  0  0  0  0  0  0
   -1.2198    0.7862    0.0809 C   0  0  0  0  0  0  0  0  0  0  0  0
   -2.1970   -0.3323   -0.0401 C   0  0  0  0  0  0  0  0  0  0  0  0
   -3.5861    0.0761    0.2895 C   0  0  0  0  0  0  0  0  0  0  0  0
   -4.1066    0.0041    1.5615 C   0  0  0  0  0  0  0  0  0  0  0  0
   -5.3789    0.3701    1.9055 C   0  0  0  0  0  0  0  0  0  0  0  0
   -6.2102    0.8504    0.8994 C   0  0  0  0  0  0  0  0  0  0  0  0
   -5.7265    0.9376   -0.3860 C   0  0  0  0  0  0  0  0  0  0  0  0
   -6.5333    1.4040   -1.3633 F   0  0  0  0  0  0  0  0  0  0  0  0
   -4.4403    0.5623   -0.7064 C   0  0  0  0  0  0  0  0  0  0  0  0
    2.0645   -1.1183    0.2090 C   0  0  0  0  0  0  0  0  0  0  0  0
    2.2220   -2.4707    0.1695 N   0  0  0  0  0  0  0  0  0  0  0  0
    3.4052   -2.9876   -0.0846 N   0  0  0  0  0  0  0  0  0  0  0  0
    4.4771   -2.2127   -0.3087 C   0  0  0  0  0  0  0  0  0  0  0  0
    5.6133   -2.7634   -0.5549 O   0  0  0  0  0  0  0  0  0  0  0  0
    4.3467   -0.8519   -0.2725 C   0  0  0  0  0  0  0  0  0  0  0  0
    5.4365   -0.0637   -0.4725 C   0  0  0  0  0  0  0  0  0  0  0  0
    5.3028    1.3064   -0.4052 C   0  0  0  0  0  0  0  0  0  0  0  0
    4.0691    1.8843   -0.1350 C   0  0  0  0  0  0  0  0  0  0  0  0
    2.9673    1.0969    0.0668 C   0  0  0  0  0  0  0  0  0  0  0  0
    3.1083   -0.2694   -0.0053 C   0  0  0  0  0  0  0  0  0  0  0  0
    0.5720    0.7868   -1.0940 H   0  0  0  0  0  0  0  0  0  0  0  0
   -1.5387    1.6493   -0.5737 H   0  0  0  0  0  0  0  0  0  0  0  0
   -1.1587    1.1358    1.1501 H   0  0  0  0  0  0  0  0  0  0  0  0
   -2.2229   -0.6154   -1.1336 H   0  0  0  0  0  0  0  0  0  0  0  0
   -1.8936   -1.2270    0.4974 H   0  0  0  0  0  0  0  0  0  0  0  0
   -3.4707   -0.3678    2.3538 H   0  0  0  0  0  0  0  0  0  0  0  0
   -5.7313    0.2885    2.9342 H   0  0  0  0  0  0  0  0  0  0  0  0
   -7.2281    1.1435    1.1730 H   0  0  0  0  0  0  0  0  0  0  0  0
   -4.0468    0.6237   -1.7035 H   0  0  0  0  0  0  0  0  0  0  0  0
    3.5450   -4.0391   -0.1193 H   0  0  0  0  0  0  0  0  0  0  0  0
    6.4115   -0.5088   -0.6851 H   0  0  0  0  0  0  0  0  0  0  0  0
    6.1545    1.9383   -0.5618 H   0  0  0  0  0  0  0  0  0  0  0  0
    3.9495    2.9649   -0.0777 H   0  0  0  0  0  0  0  0  0  0  0  0
    2.0356    1.5681    0.3093 H   0  0  0  0  0  0  0  0  0  0  0  0
  1  2  2  0
  2  3  1  0
  3  4  1  0
  4  5  1  0
  5  6  1  0
  6  7  2  0
  7  8  1  0
  8  9  2  0
  9 10  1  0
 10 11  1  0
 10 12  2  0
  2 13  1  0
 13 14  2  0
 14 15  1  0
 15 16  1  0
 16 17  2  0
 16 18  1  0
 18 19  2  0
 19 20  1  0
 20 21  2  0
 21 22  1  0
 22 23  2  0
 12  6  1  0
 23 13  1  0
 23 18  1  0
  3 24  1  0
  4 25  1  0
  4 26  1  0
  5 27  1  0
  5 28  1  0
  7 29  1  0
  8 30  1  0
  9 31  1  0
 12 32  1  0
 15 33  1  0
 19 34  1  0
 20 35  1  0
 21 36  1  0
 22 37  1  0
M  END
$$$$
