
     RDKit          3D

 37 39  0  0  0  0  0  0  0  0999 V2000
    5.2239    2.4762   -1.4316 O   0  0  0  0  0  0  0  0  0  0  0  0
    5.4669    1.6770   -0.5048 C   0  0  0  0  0  0  0  0  0  0  0  0
    6.7055    1.6510    0.0634 O   0  0  0  0  0  0  0  0  0  0  0  0
    4.4097    0.7622   -0.0384 C   0  0  0  0  0  0  0  0  0  0  0  0
    4.7117   -0.1823    0.9195 C   0  0  0  0  0  0  0  0  0  0  0  0
    3.7608   -1.0606    1.3798 C   0  0  0  0  0  0  0  0  0  0  0  0
    2.4934   -0.9925    0.8849 C   0  0  0  0  0  0  0  0  0  0  0  0
    2.1229   -0.0429   -0.1002 C   0  0  0  0  0  0  0  0  0  0  0  0
    0.7606    0.0264   -0.5047 N   0  0  0  0  0  0  0  0  0  0  0  0
   -0.3195    0.0915    0.5096 C   0  0  0  0  0  0  0  0  0  0  0  0
   -1.5683   -0.4565   -0.0231 C   0  0  0  0  0  0  0  0  0  0  0  0
   -1.5564   -1.7871   -0.4737 C   0  0  0  0  0  0  0  0  0  0  0  0
   -0.3412   -2.4432   -0.4757 O   0  0  0  0  0  0  0  0  0  0  0  0
   -2.6942   -2.4204   -0.8985 C   0  0  0  0  0  0  0  0  0  0  0  0
   -3.8610   -1.7271   -0.8757 C   0  0  0  0  0  0  0  0  0  0  0  0
   -3.9154   -0.4122   -0.4367 C   0  0  0  0  0  0  0  0  0  0  0  0
   -5.1442    0.2035   -0.4179 C   0  0  0  0  0  0  0  0  0  0  0  0
   -5.2545    1.4814    0.0435 C   0  0  0  0  0  0  0  0  0  0  0  0
   -4.1306    2.1592    0.4876 C   0  0  0  0  0  0  0  0  0  0  0  0
   -2.9084    1.5150    0.4515 C   0  0  0  0  0  0  0  0  0  0  0  0
   -2.7487    0.2239   -0.0073 C   0  0  0  0  0  0  0  0  0  0  0  0
    3.1247    0.8049   -0.5193 C   0  0  0  0  0  0  0  0  0  0  0  0
    7.5811    1.7897   -0.4600 H   0  0  0  0  0  0  0  0  0  0  0  0
    5.7059   -0.2443    1.3217 H   0  0  0  0  0  0  0  0  0  0  0  0
    4.0652   -1.8069    2.1280 H   0  0  0  0  0  0  0  0  0  0  0  0
    1.7257   -1.6571    1.1816 H   0  0  0  0  0  0  0  0  0  0  0  0
    0.5097    0.0437   -1.4912 H   0  0  0  0  0  0  0  0  0  0  0  0
   -0.5021    1.2385    0.6195 H   0  0  0  0  0  0  0  0  0  0  0  0
    0.0144   -0.3278    1.4433 H   0  0  0  0  0  0  0  0  0  0  0  0
   -0.2420   -3.3837   -0.8158 H   0  0  0  0  0  0  0  0  0  0  0  0
   -2.6800   -3.4230   -1.2300 H   0  0  0  0  0  0  0  0  0  0  0  0
   -4.8082   -2.2018   -1.2043 H   0  0  0  0  0  0  0  0  0  0  0  0
   -6.0336   -0.3295   -0.7671 H   0  0  0  0  0  0  0  0  0  0  0  0
   -6.2000    2.0017    0.0670 H   0  0  0  0  0  0  0  0  0  0  0  0
   -4.2843    3.1478    0.8699 H   0  0  0  0  0  0  0  0  0  0  0  0
   -2.0569    2.0641    0.7999 H   0  0  0  0  0  0  0  0  0  0  0  0
    2.8674    1.5409   -1.2591 H   0  0  0  0  0  0  0  0  0  0  0  0
  1  2  2  0
  2  3  1  0
  2  4  1  0
  4  5  2  0
  5  6  1  0
  6  7  2  0
  7  8  1  0
  8  9  1  0
  9 10  1  0
 10 11  1  0
 11 12  2  0
 12 13  1  0
 12 14  1  0
 14 15  2  0
 15 16  1  0
 16 17  2  0
 17 18  1  0
 18 19  2  0
 19 20  1  0
 20 21  2  0
  8 22  2  0
 22  4  1  0
 21 11  1  0
 21 16  1  0
  3 23  1  0
  5 24  1  0
  6 25  1  0
  7 26  1  0
  9 27  1  0
 10 28  1  0
 10 29  1  0
 13 30  1  0
 14 31  1  0
 15 32  1  0
 17 33  1  0
 18 34  1  0
 19 35  1  0
 20 36  1  0
 22 37  1  0
M  END
$$$$
