
     RDKit          3D

 50 53  0  0  0  0  0  0  0  0999 V2000
    3.7098   -0.1843   -0.9185 O   0  0  0  0  0  0  0  0  0  0  0  0
    3.4174   -0.0338    0.2911 C   0  0  0  0  0  0  0  0  0  0  0  0
    4.4274    0.5798    1.2350 C   0  0  0  0  0  0  0  0  0  0  0  0
    5.6680    0.9231    0.5256 C   0  0  0  0  0  0  0  0  0  0  0  0
    6.7280    0.0493    0.4287 C   0  0  0  0  0  0  0  0  0  0  0  0
    7.8928    0.3629   -0.2377 C   0  0  0  0  0  0  0  0  0  0  0  0
    8.0470    1.5897   -0.8468 C   0  0  0  0  0  0  0  0  0  0  0  0
    6.9959    2.4781   -0.7604 C   0  0  0  0  0  0  0  0  0  0  0  0
    5.8315    2.1625   -0.0930 C   0  0  0  0  0  0  0  0  0  0  0  0
    2.1622   -0.4319    0.7630 N   0  0  0  0  0  0  0  0  0  0  0  0
    1.1107   -1.0132    0.0199 C   0  0  0  0  0  0  0  0  0  0  0  0
    1.0978   -1.3103   -1.3106 C   0  0  0  0  0  0  0  0  0  0  0  0
    0.0171   -1.8765   -1.9634 C   0  0  0  0  0  0  0  0  0  0  0  0
   -1.1384   -2.1684   -1.2329 C   0  0  0  0  0  0  0  0  0  0  0  0
   -1.1106   -1.8653    0.0970 C   0  0  0  0  0  0  0  0  0  0  0  0
   -2.2999   -2.1256    0.9422 C   0  0  0  0  0  0  0  0  0  0  0  0
   -2.9907   -0.8489    1.2364 C   0  0  0  0  0  0  0  0  0  0  0  0
   -2.7612   -0.2051    2.4235 N   0  0  0  0  0  0  0  0  0  0  0  0
   -3.3279    0.9388    2.6716 N   0  0  0  0  0  0  0  0  0  0  0  0
   -4.1559    1.5678    1.8207 C   0  0  0  0  0  0  0  0  0  0  0  0
   -4.6929    2.6755    2.0828 O   0  0  0  0  0  0  0  0  0  0  0  0
   -4.4241    0.9580    0.6006 C   0  0  0  0  0  0  0  0  0  0  0  0
   -3.8225   -0.2525    0.3459 C   0  0  0  0  0  0  0  0  0  0  0  0
   -4.1828   -0.8848   -0.9706 C   0  0  0  0  0  0  0  0  0  0  0  0
   -5.6760   -0.7796   -1.1728 C   0  0  0  0  0  0  0  0  0  0  0  0
   -6.2499    0.5706   -0.9497 C   0  0  0  0  0  0  0  0  0  0  0  0
   -5.2938    1.5695   -0.4059 C   0  0  0  0  0  0  0  0  0  0  0  0
   -0.0378   -1.3157    0.6896 N   0  0  0  0  0  0  0  0  0  0  0  0
    3.9630    1.4523    1.7023 H   0  0  0  0  0  0  0  0  0  0  0  0
    4.5832   -0.1879    2.0270 H   0  0  0  0  0  0  0  0  0  0  0  0
    6.6116   -0.9225    0.9065 H   0  0  0  0  0  0  0  0  0  0  0  0
    8.7371   -0.3299   -0.3153 H   0  0  0  0  0  0  0  0  0  0  0  0
    8.9704    1.8399   -1.3767 H   0  0  0  0  0  0  0  0  0  0  0  0
    7.1017    3.4426   -1.2342 H   0  0  0  0  0  0  0  0  0  0  0  0
    4.9860    2.8416   -0.0073 H   0  0  0  0  0  0  0  0  0  0  0  0
    2.0196   -0.2571    1.8140 H   0  0  0  0  0  0  0  0  0  0  0  0
    1.9704   -1.0990   -1.9019 H   0  0  0  0  0  0  0  0  0  0  0  0
    0.0588   -2.0933   -3.0230 H   0  0  0  0  0  0  0  0  0  0  0  0
   -1.9705   -2.6191   -1.7655 H   0  0  0  0  0  0  0  0  0  0  0  0
   -1.8994   -2.5046    1.9349 H   0  0  0  0  0  0  0  0  0  0  0  0
   -2.9493   -2.9280    0.5682 H   0  0  0  0  0  0  0  0  0  0  0  0
   -3.1594    1.4474    3.5860 H   0  0  0  0  0  0  0  0  0  0  0  0
   -3.9910   -1.9799   -0.8558 H   0  0  0  0  0  0  0  0  0  0  0  0
   -3.6171   -0.4108   -1.7686 H   0  0  0  0  0  0  0  0  0  0  0  0
   -5.8611   -1.1090   -2.2345 H   0  0  0  0  0  0  0  0  0  0  0  0
   -6.1585   -1.5539   -0.5182 H   0  0  0  0  0  0  0  0  0  0  0  0
   -6.6564    0.9850   -1.9134 H   0  0  0  0  0  0  0  0  0  0  0  0
   -7.1038    0.4795   -0.2193 H   0  0  0  0  0  0  0  0  0  0  0  0
   -4.6827    1.9807   -1.2360 H   0  0  0  0  0  0  0  0  0  0  0  0
   -5.8939    2.3963    0.0585 H   0  0  0  0  0  0  0  0  0  0  0  0
  1  2  2  0
  2  3  1  0
  3  4  1  0
  4  5  2  0
  5  6  1  0
  6  7  2  0
  7  8  1  0
  8  9  2  0
  2 10  1  0
 10 11  1  0
 11 12  2  0
 12 13  1  0
 13 14  2  0
 14 15  1  0
 15 16  1  0
 16 17  1  0
 17 18  2  0
 18 19  1  0
 19 20  1  0
 20 21  2  0
 20 22  1  0
 22 23  2  0
 23 24  1  0
 24 25  1  0
 25 26  1  0
 26 27  1  0
 15 28  2  0
  9  4  1  0
 28 11  1  0
 23 17  1  0
 27 22  1  0
  3 29  1  0
  3 30  1  0
  5 31  1  0
  6 32  1  0
  7 33  1  0
  8 34  1  0
  9 35  1  0
 10 36  1  0
 12 37  1  0
 13 38  1  0
 14 39  1  0
 16 40  1  0
 16 41  1  0
 19 42  1  0
 24 43  1  0
 24 44  1  0
 25 45  1  0
 25 46  1  0
 26 47  1  0
 26 48  1  0
 27 49  1  0
 27 50  1  0
M  END
$$$$
