
     RDKit          3D

 37 39  0  0  0  0  0  0  0  0999 V2000
    0.6153   -0.2305   -1.4822 O   0  0  0  0  0  0  0  0  0  0  0  0
    1.1539    0.0752   -0.4122 C   0  0  0  0  0  0  0  0  0  0  0  0
    0.3228    0.5965    0.6458 N   0  0  0  0  0  0  0  0  0  0  0  0
   -1.0461    0.8549    0.6075 C   0  0  0  0  0  0  0  0  0  0  0  0
   -2.0147   -0.1880    0.2817 C   0  0  0  0  0  0  0  0  0  0  0  0
   -1.7313   -1.4486   -0.0482 N   0  0  0  0  0  0  0  0  0  0  0  0
   -2.6746   -2.3412   -0.3563 N   0  0  0  0  0  0  0  0  0  0  0  0
   -3.9971   -2.0472   -0.3671 C   0  0  0  0  0  0  0  0  0  0  0  0
   -4.8802   -2.8922   -0.6667 O   0  0  0  0  0  0  0  0  0  0  0  0
   -4.3689   -0.7576   -0.0347 C   0  0  0  0  0  0  0  0  0  0  0  0
   -5.7060   -0.4173   -0.0256 C   0  0  0  0  0  0  0  0  0  0  0  0
   -6.0543    0.8688    0.3145 C   0  0  0  0  0  0  0  0  0  0  0  0
   -5.0637    1.7777    0.6339 C   0  0  0  0  0  0  0  0  0  0  0  0
   -3.7083    1.4320    0.6220 C   0  0  0  0  0  0  0  0  0  0  0  0
   -3.3876    0.1482    0.2818 C   0  0  0  0  0  0  0  0  0  0  0  0
    2.5754   -0.0622   -0.2194 C   0  0  0  0  0  0  0  0  0  0  0  0
    3.2844    1.0772    0.1808 C   0  0  0  0  0  0  0  0  0  0  0  0
    4.6378    1.0667    0.3581 C   0  0  0  0  0  0  0  0  0  0  0  0
    5.3350   -0.1056    0.1377 C   0  0  0  0  0  0  0  0  0  0  0  0
    6.8136   -0.0712    0.3235 C   0  0  0  0  0  0  0  0  0  0  0  0
    7.2856   -1.2084    0.9211 F   0  0  0  0  0  0  0  0  0  0  0  0
    7.3481    0.0499   -0.9591 F   0  0  0  0  0  0  0  0  0  0  0  0
    7.2087    1.0171    1.0818 F   0  0  0  0  0  0  0  0  0  0  0  0
    4.6802   -1.2582   -0.2541 C   0  0  0  0  0  0  0  0  0  0  0  0
    3.2946   -1.1983   -0.4234 C   0  0  0  0  0  0  0  0  0  0  0  0
    0.8787    0.7774    1.5307 H   0  0  0  0  0  0  0  0  0  0  0  0
   -1.1909    1.7357   -0.1075 H   0  0  0  0  0  0  0  0  0  0  0  0
   -1.3297    1.3206    1.6043 H   0  0  0  0  0  0  0  0  0  0  0  0
   -2.4297   -3.3134   -0.5982 H   0  0  0  0  0  0  0  0  0  0  0  0
   -6.4888   -1.1078   -0.2774 H   0  0  0  0  0  0  0  0  0  0  0  0
   -7.1031    1.1924    0.3369 H   0  0  0  0  0  0  0  0  0  0  0  0
   -5.2717    2.8090    0.9155 H   0  0  0  0  0  0  0  0  0  0  0  0
   -2.9499    2.1620    0.8665 H   0  0  0  0  0  0  0  0  0  0  0  0
    2.7405    2.0144    0.3571 H   0  0  0  0  0  0  0  0  0  0  0  0
    5.1854    1.9475    0.6647 H   0  0  0  0  0  0  0  0  0  0  0  0
    5.2341   -2.1911   -0.4335 H   0  0  0  0  0  0  0  0  0  0  0  0
    2.8024   -2.0845   -0.7218 H   0  0  0  0  0  0  0  0  0  0  0  0
  1  2  2  0
  2  3  1  0
  3  4  1  0
  4  5  1  0
  5  6  2  0
  6  7  1  0
  7  8  1  0
  8  9  2  0
  8 10  1  0
 10 11  2  0
 11 12  1  0
 12 13  2  0
 13 14  1  0
 14 15  2  0
  2 16  1  0
 16 17  2  0
 17 18  1  0
 18 19  2  0
 19 20  1  0
 20 21  1  0
 20 22  1  0
 20 23  1  0
 19 24  1  0
 24 25  2  0
 15  5  1  0
 25 16  1  0
 15 10  1  0
  3 26  1  0
  4 27  1  0
  4 28  1  0
  7 29  1  0
 11 30  1  0
 12 31  1  0
 13 32  1  0
 14 33  1  0
 17 34  1  0
 18 35  1  0
 24 36  1  0
 25 37  1  0
M  END
$$$$
