
     RDKit          3D

 33 35  0  0  0  0  0  0  0  0999 V2000
    3.0864    3.2901   -0.6189 O   0  0  0  0  0  0  0  0  0  0  0  0
    3.9638    2.4640   -0.9043 N   0  0  0  0  0  4  0  0  0  0  0  0
    4.9975    2.8227   -1.7235 O   0  0  0  0  0  1  0  0  0  0  0  0
    3.8696    1.1566   -0.3676 C   0  0  0  0  0  0  0  0  0  0  0  0
    4.8276    0.1927   -0.6573 C   0  0  0  0  0  0  0  0  0  0  0  0
    4.6910   -1.0742   -0.1072 C   0  0  0  0  0  0  0  0  0  0  0  0
    5.6194   -2.0485   -0.3735 F   0  0  0  0  0  0  0  0  0  0  0  0
    3.6363   -1.4018    0.7148 C   0  0  0  0  0  0  0  0  0  0  0  0
    2.6796   -0.4638    1.0130 C   0  0  0  0  0  0  0  0  0  0  0  0
    1.5956   -0.7027    1.8224 O   0  0  0  0  0  0  0  0  0  0  0  0
    0.3722   -1.1602    1.4311 C   0  0  0  0  0  0  0  0  0  0  0  0
    0.1357   -2.4887    1.5182 N   0  0  0  0  0  0  0  0  0  0  0  0
   -1.0275   -3.0246    1.1594 C   0  0  0  0  0  0  0  0  0  0  0  0
   -2.0390   -2.1994    0.6781 C   0  0  0  0  0  0  0  0  0  0  0  0
   -1.8199   -0.8540    0.5823 C   0  0  0  0  0  0  0  0  0  0  0  0
   -2.8545    0.0552    0.0812 C   0  0  0  0  0  0  0  0  0  0  0  0
   -4.0915   -0.3776   -0.3180 C   0  0  0  0  0  0  0  0  0  0  0  0
   -5.0676    0.5013   -0.7935 C   0  0  0  0  0  0  0  0  0  0  0  0
   -4.7922    1.8350   -0.8675 C   0  0  0  0  0  0  0  0  0  0  0  0
   -3.5589    2.3132   -0.4757 C   0  0  0  0  0  0  0  0  0  0  0  0
   -2.6196    1.4174   -0.0114 C   0  0  0  0  0  0  0  0  0  0  0  0
   -0.6160   -0.3771    0.9638 N   0  0  0  0  0  0  0  0  0  0  0  0
    2.8286    0.7989    0.4562 C   0  0  0  0  0  0  0  0  0  0  0  0
    5.6527    0.4525   -1.3017 H   0  0  0  0  0  0  0  0  0  0  0  0
    3.5353   -2.3879    1.1393 H   0  0  0  0  0  0  0  0  0  0  0  0
   -1.1912   -4.0845    1.2381 H   0  0  0  0  0  0  0  0  0  0  0  0
   -2.9479   -2.6709    0.4047 H   0  0  0  0  0  0  0  0  0  0  0  0
   -4.3666   -1.4058   -0.2840 H   0  0  0  0  0  0  0  0  0  0  0  0
   -6.0359    0.1166   -1.1000 H   0  0  0  0  0  0  0  0  0  0  0  0
   -5.5567    2.5224   -1.2400 H   0  0  0  0  0  0  0  0  0  0  0  0
   -3.3365    3.3895   -0.5353 H   0  0  0  0  0  0  0  0  0  0  0  0
   -1.6561    1.8188    0.2910 H   0  0  0  0  0  0  0  0  0  0  0  0
    2.0863    1.5749    0.6701 H   0  0  0  0  0  0  0  0  0  0  0  0
  1  2  2  0
  2  3  1  0
  2  4  1  0
  4  5  2  0
  5  6  1  0
  6  7  1  0
  6  8  2  0
  8  9  1  0
  9 10  1  0
 10 11  1  0
 11 12  2  0
 12 13  1  0
 13 14  2  0
 14 15  1  0
 15 16  1  0
 16 17  2  0
 17 18  1  0
 18 19  2  0
 19 20  1  0
 20 21  2  0
 15 22  2  0
  9 23  2  0
 23  4  1  0
 22 11  1  0
 21 16  1  0
  5 24  1  0
  8 25  1  0
 13 26  1  0
 14 27  1  0
 17 28  1  0
 18 29  1  0
 19 30  1  0
 20 31  1  0
 21 32  1  0
 23 33  1  0
M  CHG  2   2   1   3  -1
M  END
$$$$
