
     RDKit          3D

 49 52  0  0  0  0  0  0  0  0999 V2000
    4.3425    1.2164   -0.6589 O   0  0  0  0  0  0  0  0  0  0  0  0
    4.7869    0.0316   -0.6586 C   0  0  0  0  0  0  0  0  0  0  0  0
    3.8836   -0.9847   -0.3248 N   0  0  0  0  0  0  0  0  0  0  0  0
    2.5331   -0.7563    0.0076 N   0  0  0  0  0  0  0  0  0  0  0  0
    2.1449    0.1582    1.0146 C   0  0  0  0  0  0  0  0  0  0  0  0
    3.1026    0.7672    1.6024 O   0  0  0  0  0  0  0  0  0  0  0  0
    0.7995    0.4582    1.4294 C   0  0  0  0  0  0  0  0  0  0  0  0
    0.5929    1.5971    2.2108 C   0  0  0  0  0  0  0  0  0  0  0  0
   -0.6616    1.9109    2.6416 C   0  0  0  0  0  0  0  0  0  0  0  0
   -1.7467    1.1171    2.3186 C   0  0  0  0  0  0  0  0  0  0  0  0
   -1.5881   -0.0296    1.5410 C   0  0  0  0  0  0  0  0  0  0  0  0
   -2.9718   -0.9978    1.2066 S   0  0  0  0  0  6  0  0  0  0  0  0
   -3.8628   -1.1390    2.4387 O   0  0  0  0  0  0  0  0  0  0  0  0
   -2.4653   -2.4195    0.9767 O   0  0  0  0  0  0  0  0  0  0  0  0
   -3.9261   -0.4751   -0.1046 N   0  0  0  0  0  0  0  0  0  0  0  0
   -3.5041   -0.3623   -1.4799 C   0  0  0  0  0  0  0  0  0  0  0  0
   -4.7225   -0.2215   -2.3296 C   0  0  0  0  0  0  0  0  0  0  0  0
   -5.7913    0.0763   -1.3300 C   0  0  0  0  0  0  0  0  0  0  0  0
   -7.0968    0.4529   -1.5736 C   0  0  0  0  0  0  0  0  0  0  0  0
   -7.9715    0.6943   -0.5395 C   0  0  0  0  0  0  0  0  0  0  0  0
   -7.4888    0.5443    0.7431 C   0  0  0  0  0  0  0  0  0  0  0  0
   -6.1839    0.1677    0.9885 C   0  0  0  0  0  0  0  0  0  0  0  0
   -5.2983   -0.0769   -0.0520 C   0  0  0  0  0  0  0  0  0  0  0  0
   -0.3092   -0.3024    1.1314 C   0  0  0  0  0  0  0  0  0  0  0  0
    6.1997   -0.2013   -1.0022 C   0  0  0  0  0  0  0  0  0  0  0  0
    6.9993    0.8941   -1.3275 C   0  0  0  0  0  0  0  0  0  0  0  0
    8.3294    0.7352   -1.6549 C   0  0  0  0  0  0  0  0  0  0  0  0
    8.9209   -0.5336   -1.6717 C   0  0  0  0  0  0  0  0  0  0  0  0
    8.1292   -1.6043   -1.3513 C   0  0  0  0  0  0  0  0  0  0  0  0
    6.7858   -1.4261   -1.0222 C   0  0  0  0  0  0  0  0  0  0  0  0
    4.2040   -1.9758   -0.3151 H   0  0  0  0  0  0  0  0  0  0  0  0
    1.7658   -1.2665   -0.4904 H   0  0  0  0  0  0  0  0  0  0  0  0
    1.4486    2.2404    2.4774 H   0  0  0  0  0  0  0  0  0  0  0  0
   -0.8114    2.8077    3.2555 H   0  0  0  0  0  0  0  0  0  0  0  0
   -2.7343    1.3848    2.6691 H   0  0  0  0  0  0  0  0  0  0  0  0
   -2.7615    0.4500   -1.5925 H   0  0  0  0  0  0  0  0  0  0  0  0
   -2.9807   -1.3008   -1.8190 H   0  0  0  0  0  0  0  0  0  0  0  0
   -4.9721   -1.1914   -2.8549 H   0  0  0  0  0  0  0  0  0  0  0  0
   -4.6588    0.5581   -3.1148 H   0  0  0  0  0  0  0  0  0  0  0  0
   -7.4797    0.5715   -2.5760 H   0  0  0  0  0  0  0  0  0  0  0  0
   -9.0142    0.9947   -0.7250 H   0  0  0  0  0  0  0  0  0  0  0  0
   -8.1733    0.7340    1.5599 H   0  0  0  0  0  0  0  0  0  0  0  0
   -5.7991    0.0494    1.9951 H   0  0  0  0  0  0  0  0  0  0  0  0
   -0.1693   -1.1934    0.5223 H   0  0  0  0  0  0  0  0  0  0  0  0
    6.5591    1.8985   -1.3219 H   0  0  0  0  0  0  0  0  0  0  0  0
    8.9834    1.5555   -1.9128 H   0  0  0  0  0  0  0  0  0  0  0  0
    9.9630   -0.6878   -1.9244 H   0  0  0  0  0  0  0  0  0  0  0  0
    8.4898   -2.6379   -1.3330 H   0  0  0  0  0  0  0  0  0  0  0  0
    6.1791   -2.2824   -0.7716 H   0  0  0  0  0  0  0  0  0  0  0  0
  1  2  2  0
  2  3  1  0
  3  4  1  0
  4  5  1  0
  5  6  2  0
  5  7  1  0
  7  8  2  0
  8  9  1  0
  9 10  2  0
 10 11  1  0
 11 12  1  0
 12 13  2  0
 12 14  2  0
 12 15  1  0
 15 16  1  0
 16 17  1  0
 17 18  1  0
 18 19  2  0
 19 20  1  0
 20 21  2  0
 21 22  1  0
 22 23  2  0
 11 24  2  0
  2 25  1  0
 25 26  2  0
 26 27  1  0
 27 28  2  0
 28 29  1  0
 29 30  2  0
 24  7  1  0
 30 25  1  0
 23 15  1  0
 23 18  1  0
  3 31  1  0
  4 32  1  0
  8 33  1  0
  9 34  1  0
 10 35  1  0
 16 36  1  0
 16 37  1  0
 17 38  1  0
 17 39  1  0
 19 40  1  0
 20 41  1  0
 21 42  1  0
 22 43  1  0
 24 44  1  0
 26 45  1  0
 27 46  1  0
 28 47  1  0
 29 48  1  0
 30 49  1  0
M  END
$$$$
