
     RDKit          3D

 48 51  0  0  0  0  0  0  0  0999 V2000
    2.9045   -0.4237    1.1566 O   0  0  0  0  0  0  0  0  0  0  0  0
    3.4865    0.1136    0.1752 C   0  0  0  0  0  0  0  0  0  0  0  0
    2.8213    0.0968   -1.0685 N   0  0  0  0  0  0  0  0  0  0  0  0
    1.5671   -0.4482   -1.3757 C   0  0  0  0  0  0  0  0  0  0  0  0
    1.1538   -0.4418   -2.7065 C   0  0  0  0  0  0  0  0  0  0  0  0
   -0.0439   -0.9374   -3.1141 C   0  0  0  0  0  0  0  0  0  0  0  0
   -0.9305   -1.4878   -2.1871 C   0  0  0  0  0  0  0  0  0  0  0  0
   -0.5675   -1.5120   -0.8858 C   0  0  0  0  0  0  0  0  0  0  0  0
   -1.4257   -2.0526    0.2017 C   0  0  0  0  0  0  0  0  0  0  0  0
   -2.0919   -1.0070    1.0010 C   0  0  0  0  0  0  0  0  0  0  0  0
   -1.4409   -0.5347    2.1140 N   0  0  0  0  0  0  0  0  0  0  0  0
   -1.9318    0.4498    2.8407 N   0  0  0  0  0  0  0  0  0  0  0  0
   -3.1046    1.0607    2.5435 C   0  0  0  0  0  0  0  0  0  0  0  0
   -3.5448    2.0087    3.2698 O   0  0  0  0  0  0  0  0  0  0  0  0
   -3.8186    0.6257    1.4221 C   0  0  0  0  0  0  0  0  0  0  0  0
   -3.2662   -0.4125    0.6875 C   0  0  0  0  0  0  0  0  0  0  0  0
   -4.0797   -0.8807   -0.4575 C   0  0  0  0  0  0  0  0  0  0  0  0
   -4.4336    0.4092   -1.2194 C   0  0  0  0  0  0  0  0  0  0  0  0
   -5.4430    1.1134   -0.3554 C   0  0  0  0  0  0  0  0  0  0  0  0
   -5.0918    1.2600    1.0716 C   0  0  0  0  0  0  0  0  0  0  0  0
    0.6881   -0.9885   -0.4874 C   0  0  0  0  0  0  0  0  0  0  0  0
    4.7960    0.7038    0.4135 C   0  0  0  0  0  0  0  0  0  0  0  0
    5.5703    1.1207   -0.6293 C   0  0  0  0  0  0  0  0  0  0  0  0
    6.8194    1.6875   -0.4222 C   0  0  0  0  0  0  0  0  0  0  0  0
    7.5714    2.0917   -1.4770 F   0  0  0  0  0  0  0  0  0  0  0  0
    7.2563    1.8179    0.8718 C   0  0  0  0  0  0  0  0  0  0  0  0
    6.5153    1.4153    1.9412 C   0  0  0  0  0  0  0  0  0  0  0  0
    7.0333    1.5860    3.1776 F   0  0  0  0  0  0  0  0  0  0  0  0
    5.2898    0.8611    1.6984 C   0  0  0  0  0  0  0  0  0  0  0  0
    3.3741    0.5756   -1.8526 H   0  0  0  0  0  0  0  0  0  0  0  0
    1.8234   -0.0184   -3.4545 H   0  0  0  0  0  0  0  0  0  0  0  0
   -0.3731   -0.9335   -4.1516 H   0  0  0  0  0  0  0  0  0  0  0  0
   -1.8738   -1.8835   -2.5710 H   0  0  0  0  0  0  0  0  0  0  0  0
   -2.1586   -2.7681   -0.2264 H   0  0  0  0  0  0  0  0  0  0  0  0
   -0.7364   -2.6281    0.8878 H   0  0  0  0  0  0  0  0  0  0  0  0
   -1.3859    0.7675    3.6813 H   0  0  0  0  0  0  0  0  0  0  0  0
   -3.6038   -1.5664   -1.1415 H   0  0  0  0  0  0  0  0  0  0  0  0
   -5.0437   -1.3338   -0.0695 H   0  0  0  0  0  0  0  0  0  0  0  0
   -3.5093    1.0042   -1.2928 H   0  0  0  0  0  0  0  0  0  0  0  0
   -4.8850    0.1615   -2.1987 H   0  0  0  0  0  0  0  0  0  0  0  0
   -5.5785    2.1265   -0.8193 H   0  0  0  0  0  0  0  0  0  0  0  0
   -6.4137    0.5836   -0.5274 H   0  0  0  0  0  0  0  0  0  0  0  0
   -5.8823    0.6977    1.6688 H   0  0  0  0  0  0  0  0  0  0  0  0
   -5.1052    2.3309    1.4168 H   0  0  0  0  0  0  0  0  0  0  0  0
    0.9168   -1.0346    0.5497 H   0  0  0  0  0  0  0  0  0  0  0  0
    5.2698    1.0347   -1.6611 H   0  0  0  0  0  0  0  0  0  0  0  0
    8.2327    2.2608    1.0389 H   0  0  0  0  0  0  0  0  0  0  0  0
    4.6734    0.5301    2.5227 H   0  0  0  0  0  0  0  0  0  0  0  0
  1  2  2  0
  2  3  1  0
  3  4  1  0
  4  5  2  0
  5  6  1  0
  6  7  2  0
  7  8  1  0
  8  9  1  0
  9 10  1  0
 10 11  2  0
 11 12  1  0
 12 13  1  0
 13 14  2  0
 13 15  1  0
 15 16  2  0
 16 17  1  0
 17 18  1  0
 18 19  1  0
 19 20  1  0
  8 21  2  0
  2 22  1  0
 22 23  2  0
 23 24  1  0
 24 25  1  0
 24 26  2  0
 26 27  1  0
 27 28  1  0
 27 29  2  0
 21  4  1  0
 29 22  1  0
 16 10  1  0
 20 15  1  0
  3 30  1  0
  5 31  1  0
  6 32  1  0
  7 33  1  0
  9 34  1  0
  9 35  1  0
 12 36  1  0
 17 37  1  0
 17 38  1  0
 18 39  1  0
 18 40  1  0
 19 41  1  0
 19 42  1  0
 20 43  1  0
 20 44  1  0
 21 45  1  0
 23 46  1  0
 26 47  1  0
 29 48  1  0
M  END
$$$$
