
     RDKit          3D

 42 44  0  0  0  0  0  0  0  0999 V2000
    8.7840    2.1182    1.5282 N   0  0  0  0  0  0  0  0  0  0  0  0
    7.7738    2.5763    1.0490 C   0  0  0  0  0  0  0  0  0  0  0  0
    6.4999    1.6650    0.7984 C   0  0  0  0  0  0  0  0  0  0  0  0
    5.5886    1.0171    0.6371 C   0  0  0  0  0  0  0  0  0  0  0  0
    4.4427    0.2151    0.4583 C   0  0  0  0  0  0  0  0  0  0  0  0
    3.2582    0.9414    0.0305 N   0  0  0  0  0  0  0  0  0  0  0  0
    2.0656    0.0992   -0.0123 C   0  0  0  0  0  0  0  0  0  0  0  0
    2.1333   -1.0666    0.2755 O   0  0  0  0  0  0  0  0  0  0  0  0
    0.8085    0.7632   -0.4153 C   0  0  0  0  0  0  0  0  0  0  0  0
   -0.0737   -0.0241   -1.1381 C   0  0  0  0  0  0  0  0  0  0  0  0
   -1.2999    0.5119   -1.6153 C   0  0  0  0  0  0  0  0  0  0  0  0
   -2.2592   -0.4364   -2.3522 C   0  0  0  0  0  0  0  0  0  0  0  0
   -2.5666   -1.4818   -1.3113 C   0  0  0  0  0  0  0  0  0  0  0  0
   -1.7456   -2.5268   -1.2589 N   0  0  0  0  0  0  0  0  0  0  0  0
   -1.7078   -3.3874   -0.2670 N   0  0  0  0  0  0  0  0  0  0  0  0
   -2.5534   -3.2183    0.8008 C   0  0  0  0  0  0  0  0  0  0  0  0
   -2.5316   -4.0171    1.7736 O   0  0  0  0  0  0  0  0  0  0  0  0
   -3.4166   -2.1814    0.8234 C   0  0  0  0  0  0  0  0  0  0  0  0
   -4.2979   -1.8986    1.8498 C   0  0  0  0  0  0  0  0  0  0  0  0
   -5.1528   -0.8570    1.8833 C   0  0  0  0  0  0  0  0  0  0  0  0
   -5.1907    0.0676    0.7589 C   0  0  0  0  0  0  0  0  0  0  0  0
   -4.2960   -0.2635   -0.2197 C   0  0  0  0  0  0  0  0  0  0  0  0
   -3.4306   -1.2735   -0.2862 C   0  0  0  0  0  0  0  0  0  0  0  0
   -1.5217    1.8179   -1.3242 C   0  0  0  0  0  0  0  0  0  0  0  0
   -0.6641    2.5840   -0.6168 C   0  0  0  0  0  0  0  0  0  0  0  0
    0.5482    2.0610   -0.1383 C   0  0  0  0  0  0  0  0  0  0  0  0
    1.3977    2.8168    0.6113 F   0  0  0  0  0  0  0  0  0  0  0  0
    8.9545    1.1107    1.8311 H   0  0  0  0  0  0  0  0  0  0  0  0
    7.5712    3.5733    0.7388 H   0  0  0  0  0  0  0  0  0  0  0  0
    4.1451   -0.3186    1.4417 H   0  0  0  0  0  0  0  0  0  0  0  0
    4.6724   -0.6647   -0.2297 H   0  0  0  0  0  0  0  0  0  0  0  0
    3.2351    1.9093   -0.2435 H   0  0  0  0  0  0  0  0  0  0  0  0
    0.1321   -1.0617   -1.3322 H   0  0  0  0  0  0  0  0  0  0  0  0
   -1.6370   -0.9359   -3.1020 H   0  0  0  0  0  0  0  0  0  0  0  0
   -3.0859    0.0523   -2.8162 H   0  0  0  0  0  0  0  0  0  0  0  0
   -1.0436   -4.1460   -0.3070 H   0  0  0  0  0  0  0  0  0  0  0  0
   -4.2472   -2.6230    2.6872 H   0  0  0  0  0  0  0  0  0  0  0  0
   -5.7986   -0.6687    2.7270 H   0  0  0  0  0  0  0  0  0  0  0  0
   -5.8583    0.8602    0.8220 H   0  0  0  0  0  0  0  0  0  0  0  0
   -4.3053    0.3913   -1.1241 H   0  0  0  0  0  0  0  0  0  0  0  0
   -2.4451    2.2783   -1.6885 H   0  0  0  0  0  0  0  0  0  0  0  0
   -0.8819    3.6211   -0.3805 H   0  0  0  0  0  0  0  0  0  0  0  0
  1  2  2  3
  2  3  1  0
  3  4  3  0
  4  5  1  0
  5  6  1  0
  6  7  1  0
  7  8  2  0
  7  9  1  0
  9 10  2  0
 10 11  1  0
 11 12  1  0
 12 13  1  0
 13 14  2  0
 14 15  1  0
 15 16  1  0
 16 17  2  0
 16 18  1  0
 18 19  2  0
 19 20  1  0
 20 21  2  0
 21 22  1  0
 22 23  2  0
 11 24  2  0
 24 25  1  0
 25 26  2  0
 26 27  1  0
 26  9  1  0
 23 13  1  0
 23 18  1  0
  1 28  1  0
  2 29  1  0
  5 30  1  0
  5 31  1  0
  6 32  1  0
 10 33  1  0
 12 34  1  0
 12 35  1  0
 15 36  1  0
 19 37  1  0
 20 38  1  0
 21 39  1  0
 22 40  1  0
 24 41  1  0
 25 42  1  0
M  END
$$$$
