
     RDKit          3D

 31 32  0  0  0  0  0  0  0  0999 V2000
   -0.9072    1.5050    0.1809 O   0  0  0  0  0  0  0  0  0  0  0  0
   -0.3095    0.4067    0.0616 C   0  0  0  0  0  0  0  0  0  0  0  0
   -1.0866   -0.8359   -0.0108 C   0  0  0  0  0  0  0  0  0  0  0  0
   -2.5389   -0.5466    0.0766 C   0  0  0  0  0  0  0  0  0  0  0  0
   -3.1794   -0.5077    1.2872 C   0  0  0  0  0  0  0  0  0  0  0  0
   -4.5273   -0.2355    1.3187 C   0  0  0  0  0  0  0  0  0  0  0  0
   -5.2430   -0.0035    0.1782 C   0  0  0  0  0  0  0  0  0  0  0  0
   -4.5788   -0.0478   -1.0236 C   0  0  0  0  0  0  0  0  0  0  0  0
   -3.2320   -0.3179   -1.0798 C   0  0  0  0  0  0  0  0  0  0  0  0
    1.1479    0.3970   -0.0021 C   0  0  0  0  0  0  0  0  0  0  0  0
    1.8651    1.5740    0.0671 C   0  0  0  0  0  0  0  0  0  0  0  0
    3.2481    1.5952    0.0091 C   0  0  0  0  0  0  0  0  0  0  0  0
    3.9159    2.8082    0.0836 O   0  0  0  0  0  0  0  0  0  0  0  0
    3.9661    0.4251   -0.1216 C   0  0  0  0  0  0  0  0  0  0  0  0
    5.3583    0.4444   -0.1802 O   0  0  0  0  0  0  0  0  0  0  0  0
    3.2596   -0.7503   -0.1912 C   0  0  0  0  0  0  0  0  0  0  0  0
    3.9732   -1.9792   -0.3268 N   0  0  0  0  0  4  0  0  0  0  0  0
    5.1094   -2.0628    0.2004 O   0  0  0  0  0  0  0  0  0  0  0  0
    3.4880   -3.0595   -0.9946 O   0  0  0  0  0  1  0  0  0  0  0  0
    1.8728   -0.7695   -0.1328 C   0  0  0  0  0  0  0  0  0  0  0  0
   -0.9006   -1.3549   -0.9956 H   0  0  0  0  0  0  0  0  0  0  0  0
   -0.8117   -1.5544    0.8146 H   0  0  0  0  0  0  0  0  0  0  0  0
   -2.6141   -0.6929    2.2128 H   0  0  0  0  0  0  0  0  0  0  0  0
   -5.0131   -0.2108    2.2986 H   0  0  0  0  0  0  0  0  0  0  0  0
   -6.3188    0.2114    0.2354 H   0  0  0  0  0  0  0  0  0  0  0  0
   -5.1055    0.1296   -1.9505 H   0  0  0  0  0  0  0  0  0  0  0  0
   -2.6996   -0.3530   -2.0497 H   0  0  0  0  0  0  0  0  0  0  0  0
    1.2911    2.5013    0.1709 H   0  0  0  0  0  0  0  0  0  0  0  0
    3.4097    3.6755    0.1794 H   0  0  0  0  0  0  0  0  0  0  0  0
    5.8560    1.3012   -0.1287 H   0  0  0  0  0  0  0  0  0  0  0  0
    1.3048   -1.6922   -0.1868 H   0  0  0  0  0  0  0  0  0  0  0  0
  1  2  2  0
  2  3  1  0
  3  4  1  0
  4  5  2  0
  5  6  1  0
  6  7  2  0
  7  8  1  0
  8  9  2  0
  2 10  1  0
 10 11  2  0
 11 12  1  0
 12 13  1  0
 12 14  2  0
 14 15  1  0
 14 16  1  0
 16 17  1  0
 17 18  2  0
 17 19  1  0
 16 20  2  0
  9  4  1  0
 20 10  1  0
  3 21  1  0
  3 22  1  0
  5 23  1  0
  6 24  1  0
  7 25  1  0
  8 26  1  0
  9 27  1  0
 11 28  1  0
 13 29  1  0
 15 30  1  0
 20 31  1  0
M  CHG  2  17   1  19  -1
M  END
$$$$
