
     RDKit          3D

 43 45  0  0  0  0  0  0  0  0999 V2000
    1.1955   -0.3685   -0.7234 O   0  0  0  0  0  0  0  0  0  0  0  0
    1.0039    0.3934    0.2653 C   0  0  0  0  0  0  0  0  0  0  0  0
    2.0502    0.5807    1.2005 N   0  0  0  0  0  0  0  0  0  0  0  0
    3.2922   -0.0649    1.0374 N   0  0  0  0  0  0  0  0  0  0  0  0
    4.0211    0.2500   -0.1115 C   0  0  0  0  0  0  0  0  0  0  0  0
    3.5512    1.0922   -0.9682 O   0  0  0  0  0  0  0  0  0  0  0  0
    5.3142   -0.3326   -0.4089 C   0  0  0  0  0  0  0  0  0  0  0  0
    5.8747   -0.1262   -1.6801 C   0  0  0  0  0  0  0  0  0  0  0  0
    7.0755   -0.6680   -1.9910 C   0  0  0  0  0  0  0  0  0  0  0  0
    7.8214   -1.4388   -1.1181 C   0  0  0  0  0  0  0  0  0  0  0  0
    7.2785   -1.6462    0.1326 C   0  0  0  0  0  0  0  0  0  0  0  0
    6.0366   -1.0913    0.4672 C   0  0  0  0  0  0  0  0  0  0  0  0
    5.6069   -1.3471    1.7194 F   0  0  0  0  0  0  0  0  0  0  0  0
   -0.2833    1.0440    0.3959 C   0  0  0  0  0  0  0  0  0  0  0  0
   -0.5061    2.0270    1.3469 C   0  0  0  0  0  0  0  0  0  0  0  0
   -1.7253    2.6497    1.4703 C   0  0  0  0  0  0  0  0  0  0  0  0
   -2.7358    2.2782    0.6248 C   0  0  0  0  0  0  0  0  0  0  0  0
   -2.5805    1.3085   -0.3412 C   0  0  0  0  0  0  0  0  0  0  0  0
   -3.9094    0.9137   -1.3735 S   0  0  0  0  0  6  0  0  0  0  0  0
   -4.6929    2.1595   -1.7223 O   0  0  0  0  0  0  0  0  0  0  0  0
   -3.4332    0.3296   -2.6961 O   0  0  0  0  0  0  0  0  0  0  0  0
   -5.0186   -0.2052   -0.6386 C   0  0  0  0  0  0  0  0  0  0  0  0
   -6.1729   -0.5034   -1.3617 C   0  0  0  0  0  0  0  0  0  0  0  0
   -7.1229   -1.3689   -0.8621 C   0  0  0  0  0  0  0  0  0  0  0  0
   -6.9257   -1.9482    0.3748 C   0  0  0  0  0  0  0  0  0  0  0  0
   -5.7784   -1.6415    1.0754 C   0  0  0  0  0  0  0  0  0  0  0  0
   -5.5654   -2.1978    2.2942 F   0  0  0  0  0  0  0  0  0  0  0  0
   -4.8111   -0.7811    0.6026 C   0  0  0  0  0  0  0  0  0  0  0  0
   -1.3493    0.7015   -0.4423 C   0  0  0  0  0  0  0  0  0  0  0  0
    1.9425    1.1931    2.0349 H   0  0  0  0  0  0  0  0  0  0  0  0
    3.5953   -0.7204    1.7422 H   0  0  0  0  0  0  0  0  0  0  0  0
    5.2918    0.4813   -2.3755 H   0  0  0  0  0  0  0  0  0  0  0  0
    7.4727   -0.4783   -3.0003 H   0  0  0  0  0  0  0  0  0  0  0  0
    8.7716   -1.8364   -1.4437 H   0  0  0  0  0  0  0  0  0  0  0  0
    7.8034   -2.2310    0.8511 H   0  0  0  0  0  0  0  0  0  0  0  0
    0.2933    2.3285    2.0243 H   0  0  0  0  0  0  0  0  0  0  0  0
   -1.8601    3.4023    2.2154 H   0  0  0  0  0  0  0  0  0  0  0  0
   -3.7048    2.7855    0.7370 H   0  0  0  0  0  0  0  0  0  0  0  0
   -6.3628   -0.0705   -2.3349 H   0  0  0  0  0  0  0  0  0  0  0  0
   -8.0345   -1.6085   -1.4272 H   0  0  0  0  0  0  0  0  0  0  0  0
   -7.6564   -2.6387    0.8036 H   0  0  0  0  0  0  0  0  0  0  0  0
   -3.9000   -0.5332    1.1523 H   0  0  0  0  0  0  0  0  0  0  0  0
   -1.1629   -0.0719   -1.1864 H   0  0  0  0  0  0  0  0  0  0  0  0
  1  2  2  0
  2  3  1  0
  3  4  1  0
  4  5  1  0
  5  6  2  0
  5  7  1  0
  7  8  2  0
  8  9  1  0
  9 10  2  0
 10 11  1  0
 11 12  2  0
 12 13  1  0
  2 14  1  0
 14 15  2  0
 15 16  1  0
 16 17  2  0
 17 18  1  0
 18 19  1  0
 19 20  2  0
 19 21  2  0
 19 22  1  0
 22 23  2  0
 23 24  1  0
 24 25  2  0
 25 26  1  0
 26 27  1  0
 26 28  2  0
 18 29  2  0
 12  7  1  0
 29 14  1  0
 28 22  1  0
  3 30  1  0
  4 31  1  0
  8 32  1  0
  9 33  1  0
 10 34  1  0
 11 35  1  0
 15 36  1  0
 16 37  1  0
 17 38  1  0
 23 39  1  0
 24 40  1  0
 25 41  1  0
 28 42  1  0
 29 43  1  0
M  END
$$$$
