
     RDKit          3D

 34 35  0  0  0  0  0  0  0  0999 V2000
    4.9399    0.6123    2.3702 N   0  0  0  0  0  0  0  0  0  0  0  0
    4.4998    1.0789    0.7680 S   0  0  0  0  0  6  0  0  0  0  0  0
    5.0369    2.4518    0.4844 O   0  0  0  0  0  0  0  0  0  0  0  0
    5.1574    0.1517   -0.2408 O   0  0  0  0  0  0  0  0  0  0  0  0
    2.7914    1.0747    0.5845 N   0  0  0  0  0  0  0  0  0  0  0  0
    2.0509   -0.0621    0.1592 C   0  0  0  0  0  0  0  0  0  0  0  0
    2.2596   -1.3327    0.6467 C   0  0  0  0  0  0  0  0  0  0  0  0
    1.4953   -2.3835    0.1793 C   0  0  0  0  0  0  0  0  0  0  0  0
    0.5038   -2.2165   -0.7804 C   0  0  0  0  0  0  0  0  0  0  0  0
    0.2992   -0.9414   -1.2652 C   0  0  0  0  0  0  0  0  0  0  0  0
   -0.7176   -0.7288   -2.2590 N   0  0  0  0  0  0  0  0  0  0  0  0
   -1.8248    0.5652   -2.1401 S   0  0  0  0  0  6  0  0  0  0  0  0
   -1.1029    1.9101   -2.1635 O   0  0  0  0  0  0  0  0  0  0  0  0
   -2.6657    0.5749   -3.4008 O   0  0  0  0  0  0  0  0  0  0  0  0
   -2.8299    0.4924   -0.7166 C   0  0  0  0  0  0  0  0  0  0  0  0
   -4.0275   -0.1966   -0.7338 C   0  0  0  0  0  0  0  0  0  0  0  0
   -4.3750   -0.8107   -1.9020 F   0  0  0  0  0  0  0  0  0  0  0  0
   -4.8431   -0.2614    0.3904 C   0  0  0  0  0  0  0  0  0  0  0  0
   -6.0031   -0.9461    0.3252 F   0  0  0  0  0  0  0  0  0  0  0  0
   -4.4872    0.3607    1.5678 C   0  0  0  0  0  0  0  0  0  0  0  0
   -5.2960    0.2940    2.6756 F   0  0  0  0  0  0  0  0  0  0  0  0
   -3.2953    1.0493    1.5924 C   0  0  0  0  0  0  0  0  0  0  0  0
   -2.8960    1.6761    2.7131 F   0  0  0  0  0  0  0  0  0  0  0  0
   -2.4851    1.1094    0.4634 C   0  0  0  0  0  0  0  0  0  0  0  0
   -1.3075    1.7941    0.4840 F   0  0  0  0  0  0  0  0  0  0  0  0
    1.0582    0.1051   -0.8018 C   0  0  0  0  0  0  0  0  0  0  0  0
    5.2618   -0.3829    2.3150 H   0  0  0  0  0  0  0  0  0  0  0  0
    5.7856    1.1726    2.6370 H   0  0  0  0  0  0  0  0  0  0  0  0
    2.2983    1.9867    0.8098 H   0  0  0  0  0  0  0  0  0  0  0  0
    3.0301   -1.4534    1.3905 H   0  0  0  0  0  0  0  0  0  0  0  0
    1.6463   -3.3793    0.5498 H   0  0  0  0  0  0  0  0  0  0  0  0
   -0.0633   -3.0778   -1.1083 H   0  0  0  0  0  0  0  0  0  0  0  0
   -0.7808   -1.3808   -3.0718 H   0  0  0  0  0  0  0  0  0  0  0  0
    0.8865    1.0942   -1.1899 H   0  0  0  0  0  0  0  0  0  0  0  0
  1  2  1  0
  2  3  2  0
  2  4  2  0
  2  5  1  0
  5  6  1  0
  6  7  2  0
  7  8  1  0
  8  9  2  0
  9 10  1  0
 10 11  1  0
 11 12  1  0
 12 13  2  0
 12 14  2  0
 12 15  1  0
 15 16  2  0
 16 17  1  0
 16 18  1  0
 18 19  1  0
 18 20  2  0
 20 21  1  0
 20 22  1  0
 22 23  1  0
 22 24  2  0
 24 25  1  0
 10 26  2  0
 26  6  1  0
 24 15  1  0
  1 27  1  0
  1 28  1  0
  5 29  1  0
  7 30  1  0
  8 31  1  0
  9 32  1  0
 11 33  1  0
 26 34  1  0
M  END
$$$$
