cs_full_output_folder/data/smiles/1768.pdb
     RDKit          3D

 22 23  0  0  0  0  0  0  0  0999 V2000
   67.8055   43.8735   55.2872 N   0  0  0  0  0  0  0  0  0  0  0  0
   68.1771   45.2241   55.1194 C   0  0  0  0  0  0  0  0  0  0  0  0
   68.4113   45.8899   56.1546 O   0  0  0  0  0  0  0  0  0  0  0  0
   68.3054   45.8896   53.8228 C   0  0  0  0  0  0  0  0  0  0  0  0
   67.5537   45.4784   52.7333 C   0  0  0  0  0  0  0  0  0  0  0  0
   67.6606   46.0963   51.4962 C   0  0  0  0  0  0  0  0  0  0  0  0
   68.5276   47.1521   51.3019 C   0  0  0  0  0  0  0  0  0  0  0  0
   69.2845   47.5807   52.3636 C   0  0  0  0  0  0  0  0  0  0  0  0
   69.1631   46.9453   53.6025 C   0  0  0  0  0  0  0  0  0  0  0  0
   70.1760   48.6629   52.1690 N   0  0  0  0  0  0  0  0  0  0  0  0
   71.1144   48.9033   52.9602 O   0  0  0  0  0  0  0  0  0  0  0  0
   69.9928   49.4677   51.0740 O   0  0  0  0  0  0  0  0  0  0  0  0
   67.5048   41.2188   55.5045 O   0  0  0  0  0  0  0  0  0  0  0  0
   67.5290   41.8411   56.6087 C   0  0  0  0  0  0  0  0  0  0  0  0
   67.6871   43.2524   56.5369 N   0  0  0  0  0  0  0  0  0  0  0  0
   67.3998   41.1176   57.8611 C   0  0  0  0  0  0  0  0  0  0  0  0
   68.0171   39.9229   58.1360 C   0  0  0  0  0  0  0  0  0  0  0  0
   67.8676   39.2690   59.3385 C   0  0  0  0  0  0  0  0  0  0  0  0
   67.0682   39.8127   60.3339 C   0  0  0  0  0  0  0  0  0  0  0  0
   66.4441   41.0074   60.0742 C   0  0  0  0  0  0  0  0  0  0  0  0
   65.6568   41.5383   61.0593 F   0  0  0  0  0  0  0  0  0  0  0  0
   66.6106   41.6358   58.8678 C   0  0  0  0  0  0  0  0  0  0  0  0
 13 14  2  0
 14 15  1  0
 14 16  1  0
 15  1  1  0
  1  2  1  0
  2  3  2  0
  2  4  1  0
  4  5  2  0
  4  9  1  0
  5  6  1  0
  6  7  2  0
  7  8  1  0
  8 10  1  0
  8  9  2  0
 10 11  2  0
 10 12  1  0
 16 17  2  0
 16 22  1  0
 17 18  1  0
 18 19  2  0
 19 20  1  0
 20 21  1  0
 20 22  2  0
M  CHG  2  10   1  12  -1
M  END
>  <minimizedAffinity>  (1) 
-8.68868

$$$$
