cs_full_output_folder/data/smiles/6810.pdb
     RDKit          3D

 23 25  0  0  0  0  0  0  0  0999 V2000
   68.9645   43.2879   56.7951 C   0  0  0  0  0  0  0  0  0  0  0  0
   70.1596   43.6289   57.4159 N   0  0  0  0  0  0  0  0  0  0  0  0
   70.9038   42.6897   58.0004 C   0  0  0  0  0  0  0  0  0  0  0  0
   72.1091   43.0346   58.6265 C   0  0  0  0  0  0  0  0  0  0  0  0
   72.8768   42.0738   59.2266 C   0  0  0  0  0  0  0  0  0  0  0  0
   72.5319   40.7402   59.2587 C   0  0  0  0  0  0  0  0  0  0  0  0
   71.3542   40.3918   58.6485 C   0  0  0  0  0  0  0  0  0  0  0  0
   70.5570   41.3598   58.0304 C   0  0  0  0  0  0  0  0  0  0  0  0
   69.4090   41.0247   57.4355 N   0  0  0  0  0  0  0  0  0  0  0  0
   68.6198   41.9678   56.8252 C   0  0  0  0  0  0  0  0  0  0  0  0
   67.3404   41.5131   56.2033 C   0  0  0  0  0  0  0  0  0  0  0  0
   67.4770   40.4332   55.3656 O   0  0  0  0  0  0  0  0  0  0  0  0
   68.2552   44.2787   56.2192 O   0  0  0  0  0  0  0  0  0  0  0  0
   68.7519   47.5372   53.6766 C   0  0  0  0  0  0  0  0  0  0  0  0
   68.1657   46.3942   53.2210 C   0  0  0  0  0  0  0  0  0  0  0  0
   67.9965   45.3112   54.0468 C   0  0  0  0  0  0  0  0  0  0  0  0
   68.4018   45.2991   55.3883 C   0  0  0  0  0  0  0  0  0  0  0  0
   68.9999   46.4955   55.8180 C   0  0  0  0  0  0  0  0  0  0  0  0
   69.1690   47.5769   54.9906 C   0  0  0  0  0  0  0  0  0  0  0  0
   70.2085   47.4703   51.3876 O   0  0  0  0  0  0  0  0  0  0  0  0
   69.7195   48.5899   51.6830 C   0  0  0  0  0  0  0  0  0  0  0  0
   69.9537   49.6793   50.8376 O   0  0  0  0  0  0  0  0  0  0  0  0
   68.9517   48.6900   52.8604 N   0  0  0  0  0  0  0  0  0  0  0  0
 20 21  2  0
 21 22  1  0
 21 23  1  0
 23 14  1  0
 14 15  2  0
 14 19  1  0
 15 16  1  0
 16 17  2  0
 17 13  1  0
 17 18  1  0
 13  1  1  0
  1  2  2  0
  1 10  1  0
  2  3  1  0
  3  4  2  0
  3  8  1  0
  4  5  1  0
  5  6  2  0
  6  7  1  0
  7  8  2  0
  8  9  1  0
  9 10  2  0
 10 11  1  0
 11 12  1  0
 18 19  2  0
M  END
>  <minimizedAffinity>  (1) 
-8.64072

$$$$
