cs_full_output_folder/data/smiles/11.pdb
     RDKit          3D

 22 24  0  0  0  0  0  0  0  0999 V2000
   70.5605   50.7609   53.2393 N   0  0  0  0  0  0  0  0  0  0  0  0
   69.9175   49.5337   52.9320 C   0  0  0  0  0  0  0  0  0  0  0  0
   69.5605   48.7294   54.0074 C   0  0  0  0  0  0  0  0  0  0  0  0
   68.9287   47.5255   53.6945 C   0  0  0  0  0  0  0  0  0  0  0  0
   68.5249   46.6380   54.6848 C   0  0  0  0  0  0  0  0  0  0  0  0
   67.8974   45.4378   54.4231 C   0  0  0  0  0  0  0  0  0  0  0  0
   67.6564   45.0956   53.1132 C   0  0  0  0  0  0  0  0  0  0  0  0
   68.0438   45.9529   52.0890 C   0  0  0  0  0  0  0  0  0  0  0  0
   68.6684   47.1431   52.4007 C   0  0  0  0  0  0  0  0  0  0  0  0
   69.0403   47.9653   51.4320 O   0  0  0  0  0  0  0  0  0  0  0  0
   69.6321   49.0991   51.6711 C   0  0  0  0  0  0  0  0  0  0  0  0
   69.9809   49.8761   50.7161 O   0  0  0  0  0  0  0  0  0  0  0  0
   69.7501   49.1220   55.3307 N   0  0  0  0  0  0  0  0  0  0  0  0
   68.7336   49.5954   56.2276 C   0  0  0  0  0  0  0  0  0  0  0  0
   68.0992   48.5805   56.9663 C   0  0  0  0  0  0  0  0  0  0  0  0
   67.1165   48.9212   57.8406 C   0  0  0  0  0  0  0  0  0  0  0  0
   66.7277   50.2287   58.0208 C   0  0  0  0  0  0  0  0  0  0  0  0
   67.3455   51.2159   57.3034 C   0  0  0  0  0  0  0  0  0  0  0  0
   68.3531   50.8753   56.4070 C   0  0  0  0  0  0  0  0  0  0  0  0
   69.0068   51.9624   55.7070 C   0  0  0  0  0  0  0  0  0  0  0  0
   70.1768   52.3014   56.0806 O   0  0  0  0  0  0  0  0  0  0  0  0
   68.4553   52.6556   54.6636 O   0  0  0  0  0  0  0  0  0  0  0  0
  1  2  1  0
  2  3  2  0
  2 11  1  0
  3 13  1  0
  3  4  1  0
 13 14  1  0
 14 15  2  0
 14 19  1  0
 15 16  1  0
 16 17  2  0
 17 18  1  0
 18 19  2  0
 19 20  1  0
 20 21  2  0
 20 22  1  0
  4  5  2  0
  4  9  1  0
  5  6  1  0
  6  7  2  0
  7  8  1  0
  8  9  2  0
  9 10  1  0
 10 11  1  0
 11 12  2  0
M  END
>  <minimizedAffinity>  (1) 
-9.01327

$$$$
cs_full_output_folder/data/smiles/14.pdb
     RDKit          3D

 21 22  0  0  0  0  0  0  0  0999 V2000
   67.8297   43.9856   55.3454 N   0  0  0  0  0  0  0  0  0  0  0  0
   68.1640   45.3328   55.1344 C   0  0  0  0  0  0  0  0  0  0  0  0
   68.3692   46.0667   56.1339 O   0  0  0  0  0  0  0  0  0  0  0  0
   68.2913   45.9423   53.8125 C   0  0  0  0  0  0  0  0  0  0  0  0
   67.5670   45.4877   52.7209 C   0  0  0  0  0  0  0  0  0  0  0  0
   67.6959   46.0789   51.4607 C   0  0  0  0  0  0  0  0  0  0  0  0
   68.5584   47.1381   51.2870 C   0  0  0  0  0  0  0  0  0  0  0  0
   69.2922   47.6131   52.3515 C   0  0  0  0  0  0  0  0  0  0  0  0
   69.1374   47.0049   53.5758 C   0  0  0  0  0  0  0  0  0  0  0  0
   70.1674   48.6954   52.1534 N   0  0  0  0  0  0  0  0  0  0  0  0
   71.1183   48.8747   52.9175 O   0  0  0  0  0  0  0  0  0  0  0  0
   69.9649   49.5503   51.1136 O   0  0  0  0  0  0  0  0  0  0  0  0
   67.7131   43.4264   56.5727 O   0  0  0  0  0  0  0  0  0  0  0  0
   67.3984   42.0682   56.4791 C   0  0  0  0  0  0  0  0  0  0  0  0
   71.3620   38.9536   59.2559 C   0  0  0  0  0  0  0  0  0  0  0  0
   70.3312   39.7374   58.5420 C   0  0  0  0  0  0  0  0  0  0  0  0
   70.5477   41.0627   58.2346 C   0  0  0  0  0  0  0  0  0  0  0  0
   69.6029   41.8081   57.5720 C   0  0  0  0  0  0  0  0  0  0  0  0
   68.4170   41.2275   57.2046 C   0  0  0  0  0  0  0  0  0  0  0  0
   68.1691   39.9071   57.4964 C   0  0  0  0  0  0  0  0  0  0  0  0
   69.1239   39.1776   58.1588 C   0  0  0  0  0  0  0  0  0  0  0  0
 15 16  1  0
 16 17  2  0
 16 21  1  0
 17 18  1  0
 18 19  2  0
 19 14  1  0
 19 20  1  0
 14 13  1  0
 13  1  1  0
  1  2  1  0
  2  3  2  0
  2  4  1  0
  4  5  2  0
  4  9  1  0
  5  6  1  0
  6  7  2  0
  7  8  1  0
  8 10  1  0
  8  9  2  0
 10 11  2  0
 10 12  1  0
 20 21  2  0
M  CHG  2  10   1  12  -1
M  END
>  <minimizedAffinity>  (2) 
-8.94048

$$$$
cs_full_output_folder/data/smiles/17.pdb
     RDKit          3D

 21 22  0  0  0  0  0  0  0  0999 V2000
   68.0202   46.8120   55.9783 O   0  0  0  0  0  0  0  0  0  0  0  0
   68.2449   46.8471   54.6182 C   0  0  0  0  0  0  0  0  0  0  0  0
   67.5691   46.0250   53.7306 C   0  0  0  0  0  0  0  0  0  0  0  0
   67.7889   46.0571   52.3787 C   0  0  0  0  0  0  0  0  0  0  0  0
   67.0737   45.1977   51.5211 N   0  0  0  0  0  0  0  0  0  0  0  0
   68.7064   46.9212   51.8414 C   0  0  0  0  0  0  0  0  0  0  0  0
   69.3969   47.7539   52.6964 C   0  0  0  0  0  0  0  0  0  0  0  0
   69.1629   47.7098   54.0640 C   0  0  0  0  0  0  0  0  0  0  0  0
   70.3492   48.6529   52.1427 N   0  0  0  0  0  0  0  0  0  0  0  0
   70.2601   49.0662   50.9934 O   0  0  0  0  0  0  0  0  0  0  0  0
   71.4087   49.0796   52.9059 O   0  0  0  0  0  0  0  0  0  0  0  0
   71.1977   47.9546   58.5550 C   0  0  0  0  0  0  0  0  0  0  0  0
   71.0042   46.6292   58.1077 C   0  0  0  0  0  0  0  0  0  0  0  0
   69.9688   46.2966   57.2767 C   0  0  0  0  0  0  0  0  0  0  0  0
   69.0474   47.2141   56.8188 C   0  0  0  0  0  0  0  0  0  0  0  0
   69.2284   48.5064   57.2481 C   0  0  0  0  0  0  0  0  0  0  0  0
   70.2843   48.8645   58.0993 C   0  0  0  0  0  0  0  0  0  0  0  0
   73.7118   47.9438   61.4771 C   0  0  0  0  0  0  0  0  0  0  0  0
   72.5151   47.5894   60.6390 C   0  0  0  0  0  0  0  0  0  0  0  0
   71.7515   46.7139   61.1056 O   0  0  0  0  0  0  0  0  0  0  0  0
   72.2913   48.2185   59.4120 N   0  0  0  0  0  0  0  0  0  0  0  0
 18 19  1  0
 19 20  2  0
 19 21  1  0
 21 12  1  0
 12 13  2  0
 12 17  1  0
 13 14  1  0
 14 15  2  0
 15  1  1  0
 15 16  1  0
  1  2  1  0
  2  3  2  0
  2  8  1  0
  3  4  1  0
  4  5  1  0
  4  6  2  0
  6  7  1  0
  7  9  1  0
  7  8  2  0
  9 10  2  0
  9 11  1  0
 16 17  2  0
M  CHG  2   9   1  11  -1
M  END
>  <minimizedAffinity>  (3) 
-9.11599

$$$$
cs_full_output_folder/data/smiles/24.pdb
     RDKit          3D

 20 21  0  0  0  0  0  0  0  0999 V2000
   68.9468   46.9332   54.9100 C   0  0  0  0  0  0  0  0  0  0  0  0
   68.0902   46.0246   54.3284 C   0  0  0  0  0  0  0  0  0  0  0  0
   67.8406   46.0051   52.9563 C   0  0  0  0  0  0  0  0  0  0  0  0
   66.9834   45.0903   52.3754 O   0  0  0  0  0  0  0  0  0  0  0  0
   68.4569   46.9202   52.1064 C   0  0  0  0  0  0  0  0  0  0  0  0
   68.2179   46.9103   50.7397 O   0  0  0  0  0  0  0  0  0  0  0  0
   69.3079   47.8257   52.6874 C   0  0  0  0  0  0  0  0  0  0  0  0
   69.5564   47.8428   54.0466 C   0  0  0  0  0  0  0  0  0  0  0  0
   69.9453   48.7994   51.8323 N   0  0  0  0  0  0  0  0  0  0  0  0
   70.6591   48.4728   50.8627 O   0  0  0  0  0  0  0  0  0  0  0  0
   69.7532   50.1161   52.1193 O   0  0  0  0  0  0  0  0  0  0  0  0
   69.0103   45.9217   57.0091 O   0  0  0  0  0  0  0  0  0  0  0  0
   69.2100   46.9855   56.3445 C   0  0  0  0  0  0  0  0  0  0  0  0
   69.6864   48.1525   57.0930 C   0  0  0  0  0  0  0  0  0  0  0  0
   68.5930   49.1815   57.2304 C   0  0  0  0  0  0  0  0  0  0  0  0
   67.4058   48.9010   57.8459 C   0  0  0  0  0  0  0  0  0  0  0  0
   66.4108   49.8764   57.9706 C   0  0  0  0  0  0  0  0  0  0  0  0
   66.6468   51.1274   57.4656 C   0  0  0  0  0  0  0  0  0  0  0  0
   67.8494   51.4472   56.8305 C   0  0  0  0  0  0  0  0  0  0  0  0
   68.8090   50.4658   56.7218 C   0  0  0  0  0  0  0  0  0  0  0  0
 12 13  2  0
 13 14  1  0
 13  1  1  0
 14 15  1  0
 15 16  2  0
 15 20  1  0
 16 17  1  0
 17 18  2  0
 18 19  1  0
 19 20  2  0
  1  2  2  0
  1  8  1  0
  2  3  1  0
  3  4  1  0
  3  5  2  0
  5  6  1  0
  5  7  1  0
  7  9  1  0
  7  8  2  0
  9 10  2  0
  9 11  1  0
M  CHG  2   9   1  11  -1
M  END
>  <minimizedAffinity>  (4) 
-8.91885

$$$$
cs_full_output_folder/data/smiles/41.pdb
     RDKit          3D

 23 25  0  0  0  0  0  0  0  0999 V2000
   71.4481   49.8185   54.6035 O   0  0  0  0  0  0  0  0  0  0  0  0
   70.7094   50.0099   53.4489 C   0  0  0  0  0  0  0  0  0  0  0  0
   70.4603   51.2163   53.1468 O   0  0  0  0  0  0  0  0  0  0  0  0
   70.2517   48.9131   52.6396 C   0  0  0  0  0  0  0  0  0  0  0  0
   70.5202   48.6041   51.3752 N   0  0  0  0  0  0  0  0  0  0  0  0
   69.8631   47.4796   51.0333 N   0  0  0  0  0  0  0  0  0  0  0  0
   69.1458   47.0221   52.0699 C   0  0  0  0  0  0  0  0  0  0  0  0
   68.3230   45.9251   52.2140 C   0  0  0  0  0  0  0  0  0  0  0  0
   67.7132   45.7286   53.4465 C   0  0  0  0  0  0  0  0  0  0  0  0
   67.9114   46.5830   54.4885 C   0  0  0  0  0  0  0  0  0  0  0  0
   68.7515   47.6738   54.2909 C   0  0  0  0  0  0  0  0  0  0  0  0
   69.3787   47.9128   53.0897 C   0  0  0  0  0  0  0  0  0  0  0  0
   71.8929   50.8606   55.4184 C   0  0  0  0  0  0  0  0  0  0  0  0
   71.2468   52.2959   57.1087 O   0  0  0  0  0  0  0  0  0  0  0  0
   70.9626   51.1921   56.4726 C   0  0  0  0  0  0  0  0  0  0  0  0
   69.7905   50.4879   56.9093 C   0  0  0  0  0  0  0  0  0  0  0  0
   69.6928   49.1657   57.2455 C   0  0  0  0  0  0  0  0  0  0  0  0
   68.5072   48.5433   57.6657 C   0  0  0  0  0  0  0  0  0  0  0  0
   67.3691   49.2618   57.7574 C   0  0  0  0  0  0  0  0  0  0  0  0
   66.2104   48.6663   58.1655 F   0  0  0  0  0  0  0  0  0  0  0  0
   67.4105   50.5917   57.4333 C   0  0  0  0  0  0  0  0  0  0  0  0
   66.2591   51.3127   57.5279 F   0  0  0  0  0  0  0  0  0  0  0  0
   68.5684   51.1969   57.0226 C   0  0  0  0  0  0  0  0  0  0  0  0
 14 15  2  0
 15 13  1  0
 15 16  1  0
 13  1  1  0
  1  2  1  0
  2  3  2  0
  2  4  1  0
  4  5  1  0
  4 12  2  0
  5  6  1  0
  6  7  2  0
  7  8  1  0
  7 12  1  0
  8  9  2  0
  9 10  1  0
 10 11  2  0
 11 12  1  0
 16 17  2  0
 16 23  1  0
 17 18  1  0
 18 19  2  0
 19 20  1  0
 19 21  1  0
 21 22  1  0
 21 23  2  0
M  END
>  <minimizedAffinity>  (5) 
-8.84608

$$$$
cs_full_output_folder/data/smiles/48.pdb
     RDKit          3D

 25 27  0  0  0  0  0  0  0  0999 V2000
   68.7134   47.7531   56.6868 C   0  0  0  0  0  0  0  0  0  0  0  0
   67.5495   47.5813   57.0158 O   0  0  0  0  0  0  0  0  0  0  0  0
   69.1420   48.0450   55.3313 C   0  0  0  0  0  0  0  0  0  0  0  0
   69.9831   49.1724   55.1515 C   0  0  0  0  0  0  0  0  0  0  0  0
   70.3903   49.4562   53.8964 C   0  0  0  0  0  0  0  0  0  0  0  0
   71.1427   50.4527   53.6870 O   0  0  0  0  0  0  0  0  0  0  0  0
   70.0352   48.7288   52.8417 N   0  0  0  0  0  0  0  0  0  0  0  0
   69.2386   47.6535   52.9716 C   0  0  0  0  0  0  0  0  0  0  0  0
   68.8943   46.9296   51.8667 C   0  0  0  0  0  0  0  0  0  0  0  0
   68.0880   45.8384   51.9876 C   0  0  0  0  0  0  0  0  0  0  0  0
   67.6288   45.4791   53.2307 C   0  0  0  0  0  0  0  0  0  0  0  0
   67.9625   46.1987   54.3787 C   0  0  0  0  0  0  0  0  0  0  0  0
   68.7794   47.2977   54.2347 C   0  0  0  0  0  0  0  0  0  0  0  0
   69.6423   47.6485   57.7294 O   0  0  0  0  0  0  0  0  0  0  0  0
   70.5511   46.6237   57.9132 C   0  0  0  0  0  0  0  0  0  0  0  0
   69.7590   44.8033   59.1204 O   0  0  0  0  0  0  0  0  0  0  0  0
   70.0635   45.2627   57.9789 C   0  0  0  0  0  0  0  0  0  0  0  0
   69.8954   44.3926   56.8782 N   0  0  0  0  0  0  0  0  0  0  0  0
   69.4018   43.0754   57.0769 C   0  0  0  0  0  0  0  0  0  0  0  0
   70.0528   42.1041   57.8087 C   0  0  0  0  0  0  0  0  0  0  0  0
   69.5502   40.8407   57.9825 C   0  0  0  0  0  0  0  0  0  0  0  0
   68.3480   40.4881   57.4197 C   0  0  0  0  0  0  0  0  0  0  0  0
   67.8294   39.2574   57.5728 F   0  0  0  0  0  0  0  0  0  0  0  0
   67.6709   41.4300   56.6846 C   0  0  0  0  0  0  0  0  0  0  0  0
   68.1989   42.7132   56.5176 C   0  0  0  0  0  0  0  0  0  0  0  0
 16 17  2  0
 17 15  1  0
 17 18  1  0
 15 14  1  0
 14  1  1  0
  1  2  2  0
  1  3  1  0
  3  4  2  0
  3 13  1  0
  4  5  1  0
  5  6  2  0
  5  7  1  0
  7  8  1  0
  8  9  1  0
  8 13  2  0
  9 10  2  0
 10 11  1  0
 11 12  2  0
 12 13  1  0
 18 19  1  0
 19 20  2  0
 19 25  1  0
 20 21  1  0
 21 22  2  0
 22 23  1  0
 22 24  1  0
 24 25  2  0
M  END
>  <minimizedAffinity>  (6) 
-8.98362

$$$$
cs_full_output_folder/data/smiles/49.pdb
     RDKit          3D

 21 23  0  0  0  0  0  0  0  0999 V2000
   71.6018   49.1831   53.0216 O   0  0  0  0  0  0  0  0  0  0  0  0
   70.1979   49.2349   52.4193 S   0  0  0  0  0  0  0  0  0  0  0  0
   70.4160   48.9582   50.9477 O   0  0  0  0  0  0  0  0  0  0  0  0
   69.3027   47.9594   53.1685 C   0  0  0  0  0  0  0  0  0  0  0  0
   69.3411   47.7689   54.5497 C   0  0  0  0  0  0  0  0  0  0  0  0
   68.6599   46.7735   55.1852 C   0  0  0  0  0  0  0  0  0  0  0  0
   67.8886   45.9000   54.4497 C   0  0  0  0  0  0  0  0  0  0  0  0
   67.8180   46.0483   53.0841 C   0  0  0  0  0  0  0  0  0  0  0  0
   67.1768   45.3938   52.1057 N   0  0  0  0  0  0  0  0  0  0  0  0
   67.4360   45.9354   50.9597 O   0  0  0  0  0  0  0  0  0  0  0  0
   68.2364   46.9380   51.1476 N   0  0  0  0  0  0  0  0  0  0  0  0
   68.5312   47.0821   52.4596 C   0  0  0  0  0  0  0  0  0  0  0  0
   69.5685   50.8057   52.6614 N   0  0  0  0  0  0  0  0  0  0  0  0
   69.4603   51.3547   53.9615 C   0  0  0  0  0  0  0  0  0  0  0  0
   68.2871   51.2202   54.7160 C   0  0  0  0  0  0  0  0  0  0  0  0
   68.1931   51.7186   55.9970 C   0  0  0  0  0  0  0  0  0  0  0  0
   67.0450   51.5703   56.6960 F   0  0  0  0  0  0  0  0  0  0  0  0
   69.2452   52.3714   56.5978 C   0  0  0  0  0  0  0  0  0  0  0  0
   70.4173   52.5141   55.8650 C   0  0  0  0  0  0  0  0  0  0  0  0
   70.4986   52.0114   54.5841 C   0  0  0  0  0  0  0  0  0  0  0  0
   71.6467   52.1562   53.8758 F   0  0  0  0  0  0  0  0  0  0  0  0
  1  2  2  0
  2  3  2  0
  2 13  1  0
  2  4  1  0
 13 14  1  0
 14 15  2  0
 14 20  1  0
 15 16  1  0
 16 17  1  0
 16 18  2  0
 18 19  1  0
 19 20  2  0
 20 21  1  0
  4  5  2  0
  4 12  1  0
  5  6  1  0
  6  7  2  0
  7  8  1  0
  8  9  2  0
  8 12  1  0
  9 10  1  0
 10 11  1  0
 11 12  2  0
M  END
>  <minimizedAffinity>  (7) 
-9.03960

$$$$
cs_full_output_folder/data/smiles/96.pdb
     RDKit          3D

 25 26  0  0  0  0  0  0  0  0999 V2000
   70.0439   49.1339   52.4982 S   0  0  0  0  0  0  0  0  0  0  0  0
   70.7631   48.6806   51.2362 O   0  0  0  0  0  0  0  0  0  0  0  0
   69.0084   50.1431   52.0694 O   0  0  0  0  0  0  0  0  0  0  0  0
   69.2929   47.7479   53.2338 C   0  0  0  0  0  0  0  0  0  0  0  0
   69.3221   47.5184   54.5828 C   0  0  0  0  0  0  0  0  0  0  0  0
   69.9659   48.3468   55.4441 F   0  0  0  0  0  0  0  0  0  0  0  0
   68.6917   46.4002   55.1165 C   0  0  0  0  0  0  0  0  0  0  0  0
   68.7206   46.1689   56.4667 F   0  0  0  0  0  0  0  0  0  0  0  0
   68.0402   45.5246   54.2969 C   0  0  0  0  0  0  0  0  0  0  0  0
   67.4357   44.4384   54.8739 F   0  0  0  0  0  0  0  0  0  0  0  0
   67.9994   45.7371   52.9396 C   0  0  0  0  0  0  0  0  0  0  0  0
   67.3516   44.8614   52.1461 F   0  0  0  0  0  0  0  0  0  0  0  0
   68.6174   46.8359   52.4125 C   0  0  0  0  0  0  0  0  0  0  0  0
   68.5892   47.0654   51.0655 F   0  0  0  0  0  0  0  0  0  0  0  0
   71.1765   49.8128   53.5872 N   0  0  0  0  0  0  0  0  0  0  0  0
   71.9454   51.6013   54.9808 C   0  0  0  0  0  0  0  0  0  0  0  0
   71.7569   52.7493   55.7263 C   0  0  0  0  0  0  0  0  0  0  0  0
   70.5150   53.3375   55.8353 C   0  0  0  0  0  0  0  0  0  0  0  0
   69.4701   52.7357   55.1702 C   0  0  0  0  0  0  0  0  0  0  0  0
   69.6433   51.5753   54.4119 C   0  0  0  0  0  0  0  0  0  0  0  0
   70.8843   50.9851   54.3018 C   0  0  0  0  0  0  0  0  0  0  0  0
   74.7779   51.9475   55.3044 N   0  0  0  0  0  0  0  0  0  0  0  0
   73.5172   50.8659   54.8523 S   0  0  0  0  0  0  0  0  0  0  0  0
   73.8093   50.3181   53.4987 O   0  0  0  0  0  0  0  0  0  0  0  0
   73.5670   49.7237   55.8487 O   0  0  0  0  0  0  0  0  0  0  0  0
 22 23  1  0
 23 24  2  0
 23 25  2  0
 23 16  1  0
 16 17  2  0
 16 21  1  0
 17 18  1  0
 18 19  2  0
 19 20  1  0
 20 21  2  0
 21 15  1  0
 15  1  1  0
  1  2  2  0
  1  3  2  0
  1  4  1  0
  4  5  2  0
  4 13  1  0
  5  6  1  0
  5  7  1  0
  7  8  1  0
  7  9  2  0
  9 10  1  0
  9 11  1  0
 11 12  1  0
 11 13  2  0
 13 14  1  0
M  END
>  <minimizedAffinity>  (8) 
-9.28620

$$$$
cs_full_output_folder/data/smiles/130.pdb
     RDKit          3D

 24 27  0  0  0  0  0  0  0  0999 V2000
   69.5305   48.3565   53.1983 C   0  0  0  0  0  0  0  0  0  0  0  0
   69.7274   47.9535   51.8629 C   0  0  0  0  0  0  0  0  0  0  0  0
   70.0638   49.0418   51.1815 N   0  0  0  0  0  0  0  0  0  0  0  0
   70.0971   50.0820   51.9527 N   0  0  0  0  0  0  0  0  0  0  0  0
   69.7683   49.6831   53.2296 C   0  0  0  0  0  0  0  0  0  0  0  0
   69.2999   46.6592   57.8459 N   0  0  0  0  0  0  0  0  0  0  0  0
   69.0239   46.5790   56.4600 C   0  0  0  0  0  0  0  0  0  0  0  0
   69.3955   47.5336   55.5446 C   0  0  0  0  0  0  0  0  0  0  0  0
   69.0982   47.4055   54.1897 C   0  0  0  0  0  0  0  0  0  0  0  0
   68.4140   46.2684   53.8408 C   0  0  0  0  0  0  0  0  0  0  0  0
   68.0335   45.3021   54.7446 C   0  0  0  0  0  0  0  0  0  0  0  0
   68.3481   45.4802   56.0355 N   0  0  0  0  0  0  0  0  0  0  0  0
   69.7741   50.6238   54.3414 C   0  0  2  0  0  0  0  0  0  0  0  0
   68.3907   51.2471   54.5479 C   0  0  0  0  0  0  0  0  0  0  0  0
   68.6393   52.7123   54.7694 C   0  0  0  0  0  0  0  0  0  0  0  0
   70.0662   52.7242   55.1422 N   0  0  0  0  0  0  0  0  0  0  0  0
   70.7071   53.3925   56.1567 C   0  0  0  0  0  0  0  0  0  0  0  0
   69.9903   54.1311   56.9262 O   0  0  0  0  0  0  0  0  0  0  0  0
   70.6383   51.8187   54.1304 C   0  0  0  0  0  0  0  0  0  0  0  0
   72.1478   53.3286   56.4284 C   0  0  0  0  0  0  0  0  0  0  0  0
   72.5182   53.5298   57.8665 C   0  0  0  0  0  0  0  0  0  0  0  0
   73.7135   54.4477   57.9211 C   0  0  0  0  0  0  0  0  0  0  0  0
   73.9897   54.8693   56.5201 C   0  0  0  0  0  0  0  0  0  0  0  0
   72.9414   54.3039   55.6300 C   0  0  0  0  0  0  0  0  0  0  0  0
  6  7  1  0
  7  8  2  0
  7 12  1  0
  8  9  1  0
  9  1  1  0
  9 10  2  0
  1  2  2  0
  1  5  1  0
  2  3  1  0
  3  4  1  0
  4  5  2  0
 13  5  1  6
 13 14  1  0
 13 19  1  0
 14 15  1  0
 15 16  1  0
 16 17  1  0
 16 19  1  0
 17 18  2  0
 17 20  1  0
 20 21  1  0
 20 24  1  0
 21 22  1  0
 22 23  1  0
 23 24  1  0
 10 11  1  0
 11 12  2  0
M  END
>  <minimizedAffinity>  (9) 
-8.96816

$$$$
cs_full_output_folder/data/smiles/164.pdb
     RDKit          3D

 20 22  0  0  0  0  0  0  0  0999 V2000
   70.0257   49.1967   52.5028 S   0  0  0  0  0  0  0  0  0  0  0  0
   70.1874   49.1701   50.9809 O   0  0  0  0  0  0  0  0  0  0  0  0
   71.4613   49.1602   53.0272 O   0  0  0  0  0  0  0  0  0  0  0  0
   69.1878   47.7650   53.0196 C   0  0  0  0  0  0  0  0  0  0  0  0
   68.6081   46.9517   52.0601 C   0  0  0  0  0  0  0  0  0  0  0  0
   67.8933   45.8178   52.3845 C   0  0  0  0  0  0  0  0  0  0  0  0
   67.7737   45.5144   53.7240 C   0  0  0  0  0  0  0  0  0  0  0  0
   68.3562   46.3310   54.6930 C   0  0  0  0  0  0  0  0  0  0  0  0
   68.2706   46.0377   56.0683 N   0  0  0  0  0  0  0  0  0  0  0  0
   69.1370   47.2663   56.8853 S   0  0  0  0  0  0  0  0  0  0  0  0
   69.5989   48.1481   55.4205 N   0  0  0  0  0  0  0  0  0  0  0  0
   69.0350   47.4095   54.3681 C   0  0  0  0  0  0  0  0  0  0  0  0
   69.3435   50.6680   52.9609 N   0  0  0  0  0  0  0  0  0  0  0  0
   71.4896   53.7801   56.1113 C   0  0  0  0  0  0  0  0  0  0  0  0
   70.3348   52.8761   55.7531 C   0  0  0  0  0  0  0  0  0  0  0  0
   69.2567   52.7528   56.6150 C   0  0  0  0  0  0  0  0  0  0  0  0
   68.2087   51.9257   56.2764 C   0  0  0  0  0  0  0  0  0  0  0  0
   68.2368   51.2269   55.0897 C   0  0  0  0  0  0  0  0  0  0  0  0
   69.2786   51.3185   54.2127 C   0  0  0  0  0  0  0  0  0  0  0  0
   70.3312   52.1719   54.5880 C   0  0  0  0  0  0  0  0  0  0  0  0
 14 15  1  0
 15 16  2  0
 15 20  1  0
 16 17  1  0
 17 18  2  0
 18 19  1  0
 19 13  1  0
 19 20  2  0
 13  1  1  0
  1  2  2  0
  1  3  2  0
  1  4  1  0
  4  5  2  0
  4 12  1  0
  5  6  1  0
  6  7  2  0
  7  8  1  0
  8  9  2  0
  8 12  1  0
  9 10  1  0
 10 11  1  0
 11 12  2  0
M  END
>  <minimizedAffinity>  (10) 
-8.61613

$$$$
cs_full_output_folder/data/smiles/261.pdb
     RDKit          3D

 19 21  0  0  0  0  0  0  0  0999 V2000
   71.6486   49.1090   52.9570 O   0  0  0  0  0  0  0  0  0  0  0  0
   70.2124   49.2737   52.4130 S   0  0  0  0  0  0  0  0  0  0  0  0
   70.2752   49.0830   50.9019 O   0  0  0  0  0  0  0  0  0  0  0  0
   69.3009   47.9875   53.1407 C   0  0  0  0  0  0  0  0  0  0  0  0
   69.3334   47.7903   54.5343 C   0  0  0  0  0  0  0  0  0  0  0  0
   68.6492   46.7694   55.1470 C   0  0  0  0  0  0  0  0  0  0  0  0
   67.8887   45.8776   54.4260 C   0  0  0  0  0  0  0  0  0  0  0  0
   67.8379   46.0467   53.0603 C   0  0  0  0  0  0  0  0  0  0  0  0
   67.1927   45.3816   52.0739 N   0  0  0  0  0  0  0  0  0  0  0  0
   67.4689   45.9614   50.9510 O   0  0  0  0  0  0  0  0  0  0  0  0
   68.2594   46.9719   51.1336 N   0  0  0  0  0  0  0  0  0  0  0  0
   68.5353   47.0871   52.4365 C   0  0  0  0  0  0  0  0  0  0  0  0
   69.6443   50.8044   52.7882 N   0  0  0  0  0  0  0  0  0  0  0  0
   69.7202   51.5430   53.9741 C   0  0  0  0  0  0  0  0  0  0  0  0
   68.5159   51.7413   54.6743 C   0  0  0  0  0  0  0  0  0  0  0  0
   68.5288   52.4659   55.8105 C   0  0  0  0  0  0  0  0  0  0  0  0
   69.6819   53.0321   56.3292 C   0  0  0  0  0  0  0  0  0  0  0  0
   70.8638   52.8357   55.6421 C   0  0  0  0  0  0  0  0  0  0  0  0
   70.8610   52.1018   54.4881 C   0  0  0  0  0  0  0  0  0  0  0  0
  1  2  2  0
  2  3  2  0
  2 13  1  0
  2  4  1  0
 13 14  1  0
 14 15  2  0
 14 19  1  0
 15 16  1  0
 16 17  2  0
 17 18  1  0
 18 19  2  0
  4  5  2  0
  4 12  1  0
  5  6  1  0
  6  7  2  0
  7  8  1  0
  8  9  2  0
  8 12  1  0
  9 10  1  0
 10 11  1  0
 11 12  2  0
M  END
>  <minimizedAffinity>  (11) 
-8.54674

$$$$
cs_full_output_folder/data/smiles/460.pdb
     RDKit          3D

 25 27  0  0  0  0  0  0  0  0999 V2000
   68.9772   47.6568   56.8765 C   0  0  0  0  0  0  0  0  0  0  0  0
   67.7411   47.4974   57.2085 O   0  0  0  0  0  0  0  0  0  0  0  0
   69.2438   47.9690   55.4967 C   0  0  0  0  0  0  0  0  0  0  0  0
   69.9915   49.1169   55.1946 C   0  0  0  0  0  0  0  0  0  0  0  0
   70.2843   49.4763   53.8940 C   0  0  0  0  0  0  0  0  0  0  0  0
   70.9683   50.5297   53.6774 O   0  0  0  0  0  0  0  0  0  0  0  0
   69.8585   48.7342   52.8598 N   0  0  0  0  0  0  0  0  0  0  0  0
   69.1371   47.6263   53.1082 C   0  0  0  0  0  0  0  0  0  0  0  0
   68.7194   46.8921   52.0192 C   0  0  0  0  0  0  0  0  0  0  0  0
   67.9831   45.7585   52.2569 C   0  0  0  0  0  0  0  0  0  0  0  0
   67.6673   45.3588   53.5230 C   0  0  0  0  0  0  0  0  0  0  0  0
   68.0835   46.0899   54.6055 C   0  0  0  0  0  0  0  0  0  0  0  0
   68.8235   47.2333   54.4171 C   0  0  0  0  0  0  0  0  0  0  0  0
   69.8167   47.4952   57.9289 O   0  0  0  0  0  0  0  0  0  0  0  0
   70.8404   46.5275   58.0199 C   0  0  0  0  0  0  0  0  0  0  0  0
   69.7343   44.7806   59.2058 O   0  0  0  0  0  0  0  0  0  0  0  0
   70.1789   45.2060   58.1109 C   0  0  0  0  0  0  0  0  0  0  0  0
   70.0045   44.3454   56.9922 N   0  0  0  0  0  0  0  0  0  0  0  0
   69.3701   43.0739   57.0703 C   0  0  0  0  0  0  0  0  0  0  0  0
   68.1738   42.7642   56.5031 C   0  0  0  0  0  0  0  0  0  0  0  0
   67.6571   41.4888   56.6492 C   0  0  0  0  0  0  0  0  0  0  0  0
   68.3273   40.5153   57.3602 C   0  0  0  0  0  0  0  0  0  0  0  0
   67.8393   39.2646   57.5140 F   0  0  0  0  0  0  0  0  0  0  0  0
   69.5298   40.8225   57.9321 C   0  0  0  0  0  0  0  0  0  0  0  0
   70.0355   42.0947   57.7801 C   0  0  0  0  0  0  0  0  0  0  0  0
 16 17  2  0
 17 15  1  0
 17 18  1  0
 15 14  1  0
 14  1  1  0
  1  2  2  0
  1  3  1  0
  3  4  2  0
  3 13  1  0
  4  5  1  0
  5  6  2  0
  5  7  1  0
  7  8  1  0
  8  9  1  0
  8 13  2  0
  9 10  2  0
 10 11  1  0
 11 12  2  0
 12 13  1  0
 18 19  1  0
 19 20  2  0
 19 25  1  0
 20 21  1  0
 21 22  2  0
 22 23  1  0
 22 24  1  0
 24 25  2  0
M  END
>  <minimizedAffinity>  (12) 
-8.93651

$$$$
cs_full_output_folder/data/smiles/504.pdb
     RDKit          3D

 19 21  0  0  0  0  0  0  0  0999 V2000
   70.6612   50.5325   53.4418 N   0  0  0  0  0  0  0  0  0  0  0  0
   69.9688   49.3711   53.0700 C   0  0  0  0  0  0  0  0  0  0  0  0
   69.5675   48.4822   54.0487 C   0  0  0  0  0  0  0  0  0  0  0  0
   68.8890   47.3538   53.6280 C   0  0  0  0  0  0  0  0  0  0  0  0
   68.4588   46.4246   54.5517 C   0  0  0  0  0  0  0  0  0  0  0  0
   67.7870   45.3032   54.1653 C   0  0  0  0  0  0  0  0  0  0  0  0
   67.5153   45.0603   52.8379 C   0  0  0  0  0  0  0  0  0  0  0  0
   67.9322   45.9711   51.8969 C   0  0  0  0  0  0  0  0  0  0  0  0
   68.6079   47.0963   52.3038 C   0  0  0  0  0  0  0  0  0  0  0  0
   69.0165   47.9812   51.4072 O   0  0  0  0  0  0  0  0  0  0  0  0
   69.6657   49.0742   51.7414 C   0  0  0  0  0  0  0  0  0  0  0  0
   70.0187   49.8656   50.8193 O   0  0  0  0  0  0  0  0  0  0  0  0
   69.8309   48.6993   55.4333 N   0  0  0  0  0  0  0  0  0  0  0  0
   68.8439   49.3601   56.2178 C   0  0  0  0  0  0  0  0  0  0  0  0
   68.0507   48.6239   57.0757 C   0  0  0  0  0  0  0  0  0  0  0  0
   67.0968   49.2869   57.8299 C   0  0  0  0  0  0  0  0  0  0  0  0
   66.9125   50.6518   57.7535 C   0  0  0  0  0  0  0  0  0  0  0  0
   67.6977   51.3811   56.9034 C   0  0  0  0  0  0  0  0  0  0  0  0
   68.6563   50.7118   56.1472 C   0  0  0  0  0  0  0  0  0  0  0  0
  1  2  1  0
  2  3  2  0
  2 11  1  0
  3 13  1  0
  3  4  1  0
 13 14  1  0
 14 15  2  0
 14 19  1  0
 15 16  1  0
 16 17  2  0
 17 18  1  0
 18 19  2  0
  4  5  2  0
  4  9  1  0
  5  6  1  0
  6  7  2  0
  7  8  1  0
  8  9  2  0
  9 10  1  0
 10 11  1  0
 11 12  2  0
M  END
>  <minimizedAffinity>  (13) 
-8.64194

$$$$
cs_full_output_folder/data/smiles/519.pdb
     RDKit          3D

 25 27  0  0  0  0  0  0  0  0999 V2000
   68.8059   47.6720   56.6988 C   0  0  0  0  0  0  0  0  0  0  0  0
   67.5565   47.5742   56.9844 O   0  0  0  0  0  0  0  0  0  0  0  0
   69.2068   48.0309   55.3548 C   0  0  0  0  0  0  0  0  0  0  0  0
   70.0391   49.1472   55.1704 C   0  0  0  0  0  0  0  0  0  0  0  0
   70.4204   49.4904   53.8958 C   0  0  0  0  0  0  0  0  0  0  0  0
   71.1713   50.4939   53.7043 O   0  0  0  0  0  0  0  0  0  0  0  0
   70.0408   48.8133   52.8091 N   0  0  0  0  0  0  0  0  0  0  0  0
   69.2493   47.7443   52.9460 C   0  0  0  0  0  0  0  0  0  0  0  0
   68.8673   47.0601   51.8205 C   0  0  0  0  0  0  0  0  0  0  0  0
   68.0565   45.9606   51.9250 C   0  0  0  0  0  0  0  0  0  0  0  0
   67.6310   45.5523   53.1630 C   0  0  0  0  0  0  0  0  0  0  0  0
   68.0321   46.2637   54.2860 C   0  0  0  0  0  0  0  0  0  0  0  0
   68.8457   47.3723   54.2195 C   0  0  0  0  0  0  0  0  0  0  0  0
   69.5902   47.4013   57.7919 O   0  0  0  0  0  0  0  0  0  0  0  0
   70.6632   46.4869   57.8164 C   0  0  0  0  0  0  0  0  0  0  0  0
   69.7417   44.7727   59.1560 O   0  0  0  0  0  0  0  0  0  0  0  0
   70.0906   45.1363   58.0090 C   0  0  0  0  0  0  0  0  0  0  0  0
   69.9072   44.2065   56.9599 N   0  0  0  0  0  0  0  0  0  0  0  0
   69.3574   42.9056   57.1393 C   0  0  0  0  0  0  0  0  0  0  0  0
   69.9551   41.9582   57.9391 C   0  0  0  0  0  0  0  0  0  0  0  0
   69.3827   40.6997   58.0854 C   0  0  0  0  0  0  0  0  0  0  0  0
   68.2107   40.3492   57.4471 C   0  0  0  0  0  0  0  0  0  0  0  0
   67.6129   41.2990   56.6459 C   0  0  0  0  0  0  0  0  0  0  0  0
   68.1860   42.5579   56.5002 C   0  0  0  0  0  0  0  0  0  0  0  0
   67.5988   43.4803   55.7184 F   0  0  0  0  0  0  0  0  0  0  0  0
 16 17  2  0
 17 15  1  0
 17 18  1  0
 15 14  1  0
 14  1  1  0
  1  2  2  0
  1  3  1  0
  3  4  2  0
  3 13  1  0
  4  5  1  0
  5  6  2  0
  5  7  1  0
  7  8  1  0
  8  9  1  0
  8 13  2  0
  9 10  2  0
 10 11  1  0
 11 12  2  0
 12 13  1  0
 18 19  1  0
 19 20  2  0
 19 24  1  0
 20 21  1  0
 21 22  2  0
 22 23  1  0
 23 24  2  0
 24 25  1  0
M  END
>  <minimizedAffinity>  (14) 
-9.12452

$$$$
cs_full_output_folder/data/smiles/539.pdb
     RDKit          3D

 21 22  0  0  0  0  0  0  0  0999 V2000
   68.1942   44.1746   55.5483 N   0  0  0  0  0  0  0  0  0  0  0  0
   68.2373   45.5690   55.2819 C   0  0  0  0  0  0  0  0  0  0  0  0
   68.1519   46.3459   56.2904 O   0  0  0  0  0  0  0  0  0  0  0  0
   68.3713   46.1041   53.9380 C   0  0  0  0  0  0  0  0  0  0  0  0
   67.6206   45.5593   52.9034 C   0  0  0  0  0  0  0  0  0  0  0  0
   67.7207   46.0416   51.6080 C   0  0  0  0  0  0  0  0  0  0  0  0
   68.5735   47.0818   51.3084 C   0  0  0  0  0  0  0  0  0  0  0  0
   69.3225   47.6302   52.3200 C   0  0  0  0  0  0  0  0  0  0  0  0
   69.2074   47.1292   53.6251 C   0  0  0  0  0  0  0  0  0  0  0  0
   70.2001   48.6997   52.0168 N   0  0  0  0  0  0  0  0  0  0  0  0
   70.0212   49.3931   51.0106 O   0  0  0  0  0  0  0  0  0  0  0  0
   71.2801   49.0180   52.8117 O   0  0  0  0  0  0  0  0  0  0  0  0
   68.0732   43.6597   56.7654 O   0  0  0  0  0  0  0  0  0  0  0  0
   68.9767   42.6824   57.1097 C   0  0  0  0  0  0  0  0  0  0  0  0
   74.3244   44.3356   58.5352 C   0  0  0  0  0  0  0  0  0  0  0  0
   72.9422   43.9717   58.1831 C   0  0  0  0  0  0  0  0  0  0  0  0
   72.6653   42.6929   57.7462 C   0  0  0  0  0  0  0  0  0  0  0  0
   71.3975   42.2866   57.4012 C   0  0  0  0  0  0  0  0  0  0  0  0
   70.3218   43.1692   57.4812 C   0  0  0  0  0  0  0  0  0  0  0  0
   70.5904   44.4449   57.9150 C   0  0  0  0  0  0  0  0  0  0  0  0
   71.8688   44.8307   58.2561 C   0  0  0  0  0  0  0  0  0  0  0  0
 15 16  1  0
 16 17  2  0
 16 21  1  0
 17 18  1  0
 18 19  2  0
 19 14  1  0
 19 20  1  0
 14 13  1  0
 13  1  1  0
  1  2  1  0
  2  3  2  0
  2  4  1  0
  4  5  2  0
  4  9  1  0
  5  6  1  0
  6  7  2  0
  7  8  1  0
  8 10  1  0
  8  9  2  0
 10 11  2  0
 10 12  1  0
 20 21  2  0
M  CHG  2  10   1  12  -1
M  END
>  <minimizedAffinity>  (15) 
-8.86764

$$$$
cs_full_output_folder/data/smiles/720.pdb
     RDKit          3D

 21 22  0  0  0  0  0  0  0  0999 V2000
   68.1187   46.8210   56.1356 O   0  0  0  0  0  0  0  0  0  0  0  0
   68.3191   46.8617   54.7643 C   0  0  0  0  0  0  0  0  0  0  0  0
   67.5971   46.0203   53.9432 C   0  0  0  0  0  0  0  0  0  0  0  0
   67.7821   46.0435   52.5596 C   0  0  0  0  0  0  0  0  0  0  0  0
   67.0399   45.1784   51.7150 N   0  0  0  0  0  0  0  0  0  0  0  0
   68.6911   46.9117   51.9951 C   0  0  0  0  0  0  0  0  0  0  0  0
   69.4215   47.7586   52.7966 C   0  0  0  0  0  0  0  0  0  0  0  0
   69.2156   47.7109   54.1611 C   0  0  0  0  0  0  0  0  0  0  0  0
   70.3526   48.6437   52.1950 N   0  0  0  0  0  0  0  0  0  0  0  0
   70.1899   49.0253   51.0241 O   0  0  0  0  0  0  0  0  0  0  0  0
   71.4593   49.1179   52.8560 O   0  0  0  0  0  0  0  0  0  0  0  0
   71.3170   47.7803   58.7100 C   0  0  0  0  0  0  0  0  0  0  0  0
   70.4326   48.7509   58.2917 C   0  0  0  0  0  0  0  0  0  0  0  0
   69.3842   48.4348   57.4480 C   0  0  0  0  0  0  0  0  0  0  0  0
   69.1852   47.1460   56.9960 C   0  0  0  0  0  0  0  0  0  0  0  0
   70.0745   46.1812   57.4195 C   0  0  0  0  0  0  0  0  0  0  0  0
   71.1214   46.4916   58.2613 C   0  0  0  0  0  0  0  0  0  0  0  0
   73.7277   47.9203   61.7334 C   0  0  0  0  0  0  0  0  0  0  0  0
   72.6127   47.5327   60.8278 C   0  0  0  0  0  0  0  0  0  0  0  0
   71.8168   46.6057   61.1739 O   0  0  0  0  0  0  0  0  0  0  0  0
   72.3808   48.1477   59.5774 N   0  0  0  0  0  0  0  0  0  0  0  0
 18 19  1  0
 19 20  2  0
 19 21  1  0
 21 12  1  0
 12 13  2  0
 12 17  1  0
 13 14  1  0
 14 15  2  0
 15  1  1  0
 15 16  1  0
  1  2  1  0
  2  3  2  0
  2  8  1  0
  3  4  1  0
  4  5  1  0
  4  6  2  0
  6  7  1  0
  7  9  1  0
  7  8  2  0
  9 10  2  0
  9 11  1  0
 16 17  2  0
M  CHG  2   9   1  11  -1
M  END
>  <minimizedAffinity>  (16) 
-8.97049

$$$$
cs_full_output_folder/data/smiles/800.pdb
     RDKit          3D

 21 22  0  0  0  0  0  0  0  0999 V2000
   68.0455   46.9276   56.0620 O   0  0  0  0  0  0  0  0  0  0  0  0
   68.2220   46.8737   54.6857 C   0  0  0  0  0  0  0  0  0  0  0  0
   67.5192   46.0521   53.8423 C   0  0  0  0  0  0  0  0  0  0  0  0
   67.7227   46.0264   52.4723 C   0  0  0  0  0  0  0  0  0  0  0  0
   67.0055   45.1848   51.5987 N   0  0  0  0  0  0  0  0  0  0  0  0
   68.6973   46.8933   51.9708 C   0  0  0  0  0  0  0  0  0  0  0  0
   69.4251   47.7330   52.7762 C   0  0  0  0  0  0  0  0  0  0  0  0
   69.1726   47.7072   54.1232 C   0  0  0  0  0  0  0  0  0  0  0  0
   70.3993   48.5883   52.2032 N   0  0  0  0  0  0  0  0  0  0  0  0
   70.3800   48.8383   50.9827 O   0  0  0  0  0  0  0  0  0  0  0  0
   71.3978   49.1765   52.9404 O   0  0  0  0  0  0  0  0  0  0  0  0
   71.4013   47.7609   58.4651 C   0  0  0  0  0  0  0  0  0  0  0  0
   70.5443   48.7678   58.0624 C   0  0  0  0  0  0  0  0  0  0  0  0
   69.4397   48.4900   57.2706 C   0  0  0  0  0  0  0  0  0  0  0  0
   69.1504   47.2076   56.8543 C   0  0  0  0  0  0  0  0  0  0  0  0
   70.0235   46.2078   57.2691 C   0  0  0  0  0  0  0  0  0  0  0  0
   71.1204   46.4805   58.0544 C   0  0  0  0  0  0  0  0  0  0  0  0
   73.8022   47.8959   61.4977 C   0  0  0  0  0  0  0  0  0  0  0  0
   72.6207   47.5982   60.6274 C   0  0  0  0  0  0  0  0  0  0  0  0
   71.6422   46.9265   61.0512 O   0  0  0  0  0  0  0  0  0  0  0  0
   72.5451   48.0568   59.2860 N   0  0  0  0  0  0  0  0  0  0  0  0
 18 19  1  0
 19 20  2  0
 19 21  1  0
 21 12  1  0
 12 13  2  0
 12 17  1  0
 13 14  1  0
 14 15  2  0
 15  1  1  0
 15 16  1  0
  1  2  1  0
  2  3  2  0
  2  8  1  0
  3  4  1  0
  4  5  1  0
  4  6  2  0
  6  7  1  0
  7  9  1  0
  7  8  2  0
  9 10  2  0
  9 11  1  0
 16 17  2  0
M  CHG  2   9   1  11  -1
M  END
>  <minimizedAffinity>  (17) 
-8.96547

$$$$
cs_full_output_folder/data/smiles/948.pdb
     RDKit          3D

 20 21  0  0  0  0  0  0  0  0999 V2000
   68.8517   46.8793   54.9042 C   0  0  0  0  0  0  0  0  0  0  0  0
   68.0460   45.9737   54.2517 C   0  0  0  0  0  0  0  0  0  0  0  0
   67.8306   45.9478   52.8899 C   0  0  0  0  0  0  0  0  0  0  0  0
   66.9874   44.9801   52.3317 O   0  0  0  0  0  0  0  0  0  0  0  0
   68.4541   46.8835   52.0928 C   0  0  0  0  0  0  0  0  0  0  0  0
   68.2522   46.8788   50.7213 O   0  0  0  0  0  0  0  0  0  0  0  0
   69.2831   47.8279   52.6879 C   0  0  0  0  0  0  0  0  0  0  0  0
   69.4636   47.8114   54.0490 C   0  0  0  0  0  0  0  0  0  0  0  0
   69.9025   48.7559   51.8350 N   0  0  0  0  0  0  0  0  0  0  0  0
   70.6191   48.3681   50.9041 O   0  0  0  0  0  0  0  0  0  0  0  0
   69.7263   50.0895   52.0237 O   0  0  0  0  0  0  0  0  0  0  0  0
   69.0756   45.7097   56.8684 O   0  0  0  0  0  0  0  0  0  0  0  0
   69.1172   46.8832   56.3076 C   0  0  0  0  0  0  0  0  0  0  0  0
   69.4184   47.9526   57.2311 C   0  0  0  0  0  0  0  0  0  0  0  0
   68.5034   49.0728   57.3471 C   0  0  0  0  0  0  0  0  0  0  0  0
   68.8623   50.3399   56.8960 C   0  0  0  0  0  0  0  0  0  0  0  0
   67.9930   51.4010   56.9560 C   0  0  0  0  0  0  0  0  0  0  0  0
   66.7294   51.2261   57.4695 C   0  0  0  0  0  0  0  0  0  0  0  0
   66.3669   49.9656   57.9180 C   0  0  0  0  0  0  0  0  0  0  0  0
   67.2379   48.9172   57.8574 C   0  0  0  0  0  0  0  0  0  0  0  0
 12 13  2  0
 13 14  1  0
 13  1  1  0
 14 15  1  0
 15 16  2  0
 15 20  1  0
 16 17  1  0
 17 18  2  0
 18 19  1  0
 19 20  2  0
  1  2  2  0
  1  8  1  0
  2  3  1  0
  3  4  1  0
  3  5  2  0
  5  6  1  0
  5  7  1  0
  7  9  1  0
  7  8  2  0
  9 10  2  0
  9 11  1  0
M  CHG  2   9   1  11  -1
M  END
>  <minimizedAffinity>  (18) 
-9.05117

$$$$
cs_full_output_folder/data/smiles/986.pdb
     RDKit          3D

 28 31  0  0  0  0  0  0  0  0999 V2000
   73.4177   49.4559   56.1567 O   0  0  0  0  0  0  0  0  0  0  0  0
   72.4888   49.4315   57.0063 C   0  0  0  0  0  0  0  0  0  0  0  0
   72.7194   48.7462   58.2174 N   0  0  0  0  0  0  0  0  0  0  0  0
   71.7369   48.6446   59.2818 C   0  0  0  0  0  0  0  0  0  0  0  0
   71.9434   47.2675   59.9076 C   0  0  0  0  0  0  0  0  0  0  0  0
   72.4416   46.3497   58.9026 N   0  0  0  0  0  0  0  0  0  0  0  0
   73.7988   46.5931   58.4345 C   0  0  0  0  0  0  0  0  0  0  0  0
   73.9928   48.0985   58.4426 C   0  0  0  0  0  0  0  0  0  0  0  0
   71.6885   45.2785   58.3766 C   0  0  0  0  0  0  0  0  0  0  0  0
   70.4613   45.5219   57.7704 C   0  0  0  0  0  0  0  0  0  0  0  0
   69.7335   44.4568   57.2688 C   0  0  0  0  0  0  0  0  0  0  0  0
   70.1549   43.1517   57.3339 C   0  0  0  0  0  0  0  0  0  0  0  0
   69.4150   42.1318   56.8300 F   0  0  0  0  0  0  0  0  0  0  0  0
   71.3833   42.9035   57.9392 C   0  0  0  0  0  0  0  0  0  0  0  0
   72.1185   43.9678   58.4452 C   0  0  0  0  0  0  0  0  0  0  0  0
   71.2218   50.1096   56.6951 C   0  0  0  0  0  0  0  0  0  0  0  0
   71.0325   50.5468   55.3174 C   0  0  0  0  0  0  0  0  0  0  0  0
   70.4734   49.5883   54.3511 C   0  0  0  0  0  0  0  0  0  0  0  0
   69.6930   48.6114   54.8932 N   0  0  0  0  0  0  0  0  0  0  0  0
   69.1194   47.6863   54.1028 C   0  0  0  0  0  0  0  0  0  0  0  0
   68.3159   46.6783   54.6496 C   0  0  0  0  0  0  0  0  0  0  0  0
   67.7346   45.7369   53.8228 C   0  0  0  0  0  0  0  0  0  0  0  0
   67.9895   45.8518   52.4724 C   0  0  0  0  0  0  0  0  0  0  0  0
   68.7735   46.8308   51.9129 C   0  0  0  0  0  0  0  0  0  0  0  0
   69.3491   47.7660   52.7463 C   0  0  0  0  0  0  0  0  0  0  0  0
   70.1426   48.7637   52.2189 C   0  0  0  0  0  0  0  0  0  0  0  0
   70.3653   48.8569   50.9965 O   0  0  0  0  0  0  0  0  0  0  0  0
   70.6999   49.6731   53.0476 N   0  0  0  0  0  0  0  0  0  0  0  0
  1  2  2  0
  2 16  1  0
  2  3  1  0
 16 17  1  0
 17 18  1  0
 18 19  2  0
 18 28  1  0
 19 20  1  0
 20 21  2  0
 20 25  1  0
 21 22  1  0
 22 23  2  0
 23 24  1  0
 24 25  2  0
 25 26  1  0
 26 27  2  0
 26 28  1  0
  3  4  1  0
  3  8  1  0
  4  5  1  0
  5  6  1  0
  6  9  1  0
  6  7  1  0
  9 10  2  0
  9 15  1  0
 10 11  1  0
 11 12  2  0
 12 13  1  0
 12 14  1  0
 14 15  2  0
  7  8  1  0
M  END
>  <minimizedAffinity>  (19) 
-8.81779

$$$$
cs_full_output_folder/data/smiles/1030.pdb
     RDKit          3D

 20 22  0  0  0  0  0  0  0  0999 V2000
   71.4853   49.0957   53.0832 O   0  0  0  0  0  0  0  0  0  0  0  0
   70.1054   49.1264   52.4404 S   0  0  0  0  0  0  0  0  0  0  0  0
   70.3497   49.0125   50.9592 O   0  0  0  0  0  0  0  0  0  0  0  0
   69.1677   47.7418   52.9480 C   0  0  0  0  0  0  0  0  0  0  0  0
   68.6314   46.8158   52.0905 C   0  0  0  0  0  0  0  0  0  0  0  0
   67.8915   45.7362   52.5509 C   0  0  0  0  0  0  0  0  0  0  0  0
   67.6979   45.5994   53.9030 C   0  0  0  0  0  0  0  0  0  0  0  0
   68.2131   46.4992   54.7982 C   0  0  0  0  0  0  0  0  0  0  0  0
   68.1945   46.6308   56.1344 N   0  0  0  0  0  0  0  0  0  0  0  0
   68.8588   47.6862   56.4336 O   0  0  0  0  0  0  0  0  0  0  0  0
   69.3278   48.2802   55.3836 N   0  0  0  0  0  0  0  0  0  0  0  0
   68.9463   47.5646   54.2951 C   0  0  0  0  0  0  0  0  0  0  0  0
   69.2982   50.5895   52.7997 N   0  0  0  0  0  0  0  0  0  0  0  0
   69.6498   51.4117   53.8857 C   0  0  0  0  0  0  0  0  0  0  0  0
   70.9414   51.6614   54.2501 C   0  0  0  0  0  0  0  0  0  0  0  0
   71.2878   52.4615   55.3034 C   0  0  0  0  0  0  0  0  0  0  0  0
   70.3170   53.0653   56.0606 C   0  0  0  0  0  0  0  0  0  0  0  0
   68.9978   52.8375   55.7228 C   0  0  0  0  0  0  0  0  0  0  0  0
   68.6608   52.0281   54.6587 C   0  0  0  0  0  0  0  0  0  0  0  0
   67.3664   51.8227   54.3508 F   0  0  0  0  0  0  0  0  0  0  0  0
  1  2  2  0
  2  3  2  0
  2 13  1  0
  2  4  1  0
 13 14  1  0
 14 15  2  0
 14 19  1  0
 15 16  1  0
 16 17  2  0
 17 18  1  0
 18 19  2  0
 19 20  1  0
  4  5  2  0
  4 12  1  0
  5  6  1  0
  6  7  2  0
  7  8  1  0
  8  9  2  0
  8 12  1  0
  9 10  1  0
 10 11  1  0
 11 12  2  0
M  END
>  <minimizedAffinity>  (20) 
-8.55490

$$$$
cs_full_output_folder/data/smiles/1202.pdb
     RDKit          3D

 32 36  0  0  0  0  0  0  0  0999 V2000
   71.8280   47.2805   58.8715 C   0  0  0  0  0  0  0  0  0  0  0  0
   70.7368   47.6668   58.1353 C   0  0  0  0  0  0  0  0  0  0  0  0
   70.8115   48.6933   57.1840 C   0  0  0  0  0  0  0  0  0  0  0  0
   72.0221   49.2956   57.0192 C   0  0  0  0  0  0  0  0  0  0  0  0
   73.1517   48.9176   57.7604 C   0  0  0  0  0  0  0  0  0  0  0  0
   73.0345   47.9086   58.6811 C   0  0  0  0  0  0  0  0  0  0  0  0
   74.1167   47.5278   59.4085 F   0  0  0  0  0  0  0  0  0  0  0  0
   71.7658   46.5385   61.0729 O   0  0  0  0  0  0  0  0  0  0  0  0
   71.7609   46.2179   59.8591 C   0  0  0  0  0  0  0  0  0  0  0  0
   71.6898   44.8467   59.5165 N   0  0  0  0  0  0  0  0  0  0  0  0
   71.6249   43.8221   60.5245 C   0  0  0  0  0  0  0  0  0  0  0  0
   70.4237   42.8939   60.2771 C   0  0  0  0  0  0  0  0  0  0  0  0
   70.1520   42.8067   58.8619 N   0  0  0  0  0  0  0  0  0  0  0  0
   68.8802   42.4923   58.3605 C   0  0  0  0  0  0  0  0  0  0  0  0
   67.9451   42.2765   59.2023 O   0  0  0  0  0  0  0  0  0  0  0  0
   71.2495   43.0573   57.9665 C   0  0  0  0  0  0  0  0  0  0  0  0
   71.6820   44.4805   58.1269 C   0  0  0  0  0  0  0  0  0  0  0  0
   68.5006   42.3837   56.9395 C   0  0  0  0  0  0  0  0  0  0  0  0
   68.0493   41.0380   56.4068 C   0  0  0  0  0  0  0  0  0  0  0  0
   67.0396   42.0804   56.6926 C   0  0  0  0  0  0  0  0  0  0  0  0
   69.5938   49.0301   56.4147 C   0  0  0  0  0  0  0  0  0  0  0  0
   69.7124   48.9356   54.9745 C   0  0  0  0  0  0  0  0  0  0  0  0
   70.4319   49.8949   54.3067 N   0  0  0  0  0  0  0  0  0  0  0  0
   70.6208   49.8534   53.0001 N   0  0  0  0  0  0  0  0  0  0  0  0
   70.1315   48.8844   52.2263 C   0  0  0  0  0  0  0  0  0  0  0  0
   70.3256   48.8614   50.9654 O   0  0  0  0  0  0  0  0  0  0  0  0
   69.3931   47.8794   52.8238 C   0  0  0  0  0  0  0  0  0  0  0  0
   68.8628   46.8672   52.0525 C   0  0  0  0  0  0  0  0  0  0  0  0
   68.1232   45.8934   52.6862 C   0  0  0  0  0  0  0  0  0  0  0  0
   67.9037   45.9054   54.0447 C   0  0  0  0  0  0  0  0  0  0  0  0
   68.4543   46.9389   54.7782 C   0  0  0  0  0  0  0  0  0  0  0  0
   69.1961   47.9265   54.2021 C   0  0  0  0  0  0  0  0  0  0  0  0
  8  9  2  0
  9  1  1  0
  9 10  1  0
  1  2  2  0
  1  6  1  0
  2  3  1  0
  3 21  1  0
  3  4  2  0
 21 22  1  0
 22 23  2  0
 22 32  1  0
 23 24  1  0
 24 25  1  0
 25 26  2  0
 25 27  1  0
 27 28  1  0
 27 32  2  0
 28 29  2  0
 29 30  1  0
 30 31  2  0
 31 32  1  0
  4  5  1  0
  5  6  2  0
  6  7  1  0
 10 11  1  0
 10 17  1  0
 11 12  1  0
 12 13  1  0
 13 14  1  0
 13 16  1  0
 14 15  2  0
 14 18  1  0
 18 19  1  0
 18 20  1  0
 19 20  1  0
 16 17  1  0
M  END
>  <minimizedAffinity>  (21) 
-9.27852

$$$$
cs_full_output_folder/data/smiles/1403.pdb
     RDKit          3D

 25 27  0  0  0  0  0  0  0  0999 V2000
   68.9542   47.6161   56.6454 C   0  0  0  0  0  0  0  0  0  0  0  0
   67.7128   47.4405   56.9278 O   0  0  0  0  0  0  0  0  0  0  0  0
   69.2405   48.0001   55.2851 C   0  0  0  0  0  0  0  0  0  0  0  0
   69.9926   49.1576   55.0130 C   0  0  0  0  0  0  0  0  0  0  0  0
   70.2843   49.5517   53.7439 C   0  0  0  0  0  0  0  0  0  0  0  0
   70.9649   50.6041   53.5799 O   0  0  0  0  0  0  0  0  0  0  0  0
   69.8520   48.8310   52.6990 N   0  0  0  0  0  0  0  0  0  0  0  0
   69.1215   47.7028   52.8665 C   0  0  0  0  0  0  0  0  0  0  0  0
   68.7161   47.0218   51.7443 C   0  0  0  0  0  0  0  0  0  0  0  0
   67.9750   45.8750   51.8951 C   0  0  0  0  0  0  0  0  0  0  0  0
   67.6630   45.4483   53.1547 C   0  0  0  0  0  0  0  0  0  0  0  0
   68.0833   46.1547   54.2872 C   0  0  0  0  0  0  0  0  0  0  0  0
   68.8282   47.3061   54.1682 C   0  0  0  0  0  0  0  0  0  0  0  0
   69.8060   47.4091   57.6834 O   0  0  0  0  0  0  0  0  0  0  0  0
   70.6946   46.3768   57.9054 C   0  0  0  0  0  0  0  0  0  0  0  0
   69.7567   44.7256   59.3102 O   0  0  0  0  0  0  0  0  0  0  0  0
   70.0608   45.0291   58.1361 C   0  0  0  0  0  0  0  0  0  0  0  0
   69.8103   44.1247   57.0980 N   0  0  0  0  0  0  0  0  0  0  0  0
   69.2096   42.8546   57.1668 C   0  0  0  0  0  0  0  0  0  0  0  0
   69.8372   41.8527   57.9364 C   0  0  0  0  0  0  0  0  0  0  0  0
   69.3570   40.5743   58.0478 C   0  0  0  0  0  0  0  0  0  0  0  0
   68.2068   40.1847   57.4010 C   0  0  0  0  0  0  0  0  0  0  0  0
   67.5746   41.1292   56.6481 C   0  0  0  0  0  0  0  0  0  0  0  0
   68.0715   42.4387   56.5355 C   0  0  0  0  0  0  0  0  0  0  0  0
   67.4007   43.3117   55.7331 F   0  0  0  0  0  0  0  0  0  0  0  0
 16 17  2  0
 17 15  1  0
 17 18  1  0
 15 14  1  0
 14  1  1  0
  1  2  2  0
  1  3  1  0
  3  4  2  0
  3 13  1  0
  4  5  1  0
  5  6  2  0
  5  7  1  0
  7  8  1  0
  8  9  1  0
  8 13  2  0
  9 10  2  0
 10 11  1  0
 11 12  2  0
 12 13  1  0
 18 19  1  0
 19 20  2  0
 19 24  1  0
 20 21  1  0
 21 22  2  0
 22 23  1  0
 23 24  2  0
 24 25  1  0
M  END
>  <minimizedAffinity>  (22) 
-9.22089

$$$$
cs_full_output_folder/data/smiles/1537.pdb
     RDKit          3D

 29 32  0  0  0  0  0  0  0  0999 V2000
   71.4480   47.0794   58.8773 C   0  0  0  0  0  0  0  0  0  0  0  0
   70.6031   47.8368   58.0532 C   0  0  0  0  0  0  0  0  0  0  0  0
   69.7573   47.2916   57.1262 C   0  0  0  0  0  0  0  0  0  0  0  0
   69.7589   45.8977   57.0175 C   0  0  0  0  0  0  0  0  0  0  0  0
   70.5701   45.1158   57.8043 C   0  0  0  0  0  0  0  0  0  0  0  0
   71.4071   45.7069   58.7255 C   0  0  0  0  0  0  0  0  0  0  0  0
   72.2254   44.9389   59.5202 F   0  0  0  0  0  0  0  0  0  0  0  0
   73.9488   50.9065   58.7524 C   0  0  0  0  0  0  0  0  0  0  0  0
   74.7723   50.4311   59.9268 C   0  0  0  0  0  0  0  0  0  0  0  0
   74.3517   49.0608   60.4012 C   0  0  0  0  0  0  0  0  0  0  0  0
   73.4959   48.4235   59.4470 N   0  0  0  0  0  0  0  0  0  0  0  0
   72.3235   47.7300   59.8441 C   0  0  0  0  0  0  0  0  0  0  0  0
   72.0372   47.6803   61.0599 O   0  0  0  0  0  0  0  0  0  0  0  0
   73.8630   48.5057   58.0463 C   0  0  0  0  0  0  0  0  0  0  0  0
   74.0458   49.9365   57.5953 C   0  0  0  0  0  0  0  0  0  0  0  0
   71.9192   51.8222   58.2163 C   0  0  0  0  0  0  0  0  0  0  0  0
   72.6129   51.0097   59.1036 O   0  0  0  0  0  0  0  0  0  0  0  0
   68.8987   48.1273   56.2747 C   0  0  0  0  0  0  0  0  0  0  0  0
   69.2840   48.2036   54.8585 C   0  0  0  0  0  0  0  0  0  0  0  0
   70.1977   49.1639   54.5141 N   0  0  0  0  0  0  0  0  0  0  0  0
   70.5996   49.3659   53.2882 N   0  0  0  0  0  0  0  0  0  0  0  0
   70.1488   48.6439   52.2476 C   0  0  0  0  0  0  0  0  0  0  0  0
   70.5321   48.8360   51.0680 O   0  0  0  0  0  0  0  0  0  0  0  0
   69.2224   47.6562   52.5285 C   0  0  0  0  0  0  0  0  0  0  0  0
   68.7228   46.8674   51.5149 C   0  0  0  0  0  0  0  0  0  0  0  0
   67.8056   45.8723   51.7981 C   0  0  0  0  0  0  0  0  0  0  0  0
   67.3935   45.6719   53.1067 C   0  0  0  0  0  0  0  0  0  0  0  0
   67.8796   46.4471   54.1301 C   0  0  0  0  0  0  0  0  0  0  0  0
   68.7905   47.4382   53.8448 C   0  0  0  0  0  0  0  0  0  0  0  0
 16 17  1  0
 17  8  1  0
  8  9  1  0
  8 15  1  0
  9 10  1  0
 10 11  1  0
 11 12  1  0
 11 14  1  0
 12 13  2  0
 12  1  1  0
  1  2  2  0
  1  6  1  0
  2  3  1  0
  3 18  1  0
  3  4  2  0
 18 19  1  0
 19 20  2  0
 19 29  1  0
 20 21  1  0
 21 22  1  0
 22 23  2  0
 22 24  1  0
 24 25  1  0
 24 29  2  0
 25 26  2  0
 26 27  1  0
 27 28  2  0
 28 29  1  0
  4  5  1  0
  5  6  2  0
  6  7  1  0
 14 15  1  0
M  END
>  <minimizedAffinity>  (23) 
-9.49257

$$$$
cs_full_output_folder/data/smiles/1585.pdb
     RDKit          3D

 20 22  0  0  0  0  0  0  0  0999 V2000
   71.5998   49.1959   53.0107 O   0  0  0  0  0  0  0  0  0  0  0  0
   70.1144   49.2087   52.6391 S   0  0  0  0  0  0  0  0  0  0  0  0
   70.1246   49.0579   51.1104 O   0  0  0  0  0  0  0  0  0  0  0  0
   69.3057   47.8627   53.3251 C   0  0  0  0  0  0  0  0  0  0  0  0
   69.3033   47.5714   54.6629 C   0  0  0  0  0  0  0  0  0  0  0  0
   68.5809   46.5212   55.1945 C   0  0  0  0  0  0  0  0  0  0  0  0
   67.8389   45.7417   54.3545 C   0  0  0  0  0  0  0  0  0  0  0  0
   67.8161   46.0073   52.9939 C   0  0  0  0  0  0  0  0  0  0  0  0
   67.1987   45.4379   51.9415 N   0  0  0  0  0  0  0  0  0  0  0  0
   67.5292   46.0992   50.8578 O   0  0  0  0  0  0  0  0  0  0  0  0
   68.3455   47.0867   51.1727 N   0  0  0  0  0  0  0  0  0  0  0  0
   68.5395   47.0546   52.4808 C   0  0  0  0  0  0  0  0  0  0  0  0
   69.4167   50.7077   53.0074 N   0  0  0  0  0  0  0  0  0  0  0  0
   69.3726   51.4075   54.2300 C   0  0  0  0  0  0  0  0  0  0  0  0
   70.2367   52.3560   54.6878 C   0  0  0  0  0  0  0  0  0  0  0  0
   70.0703   53.0153   55.9123 C   0  0  0  0  0  0  0  0  0  0  0  0
   68.9892   52.7026   56.7002 C   0  0  0  0  0  0  0  0  0  0  0  0
   68.1052   51.7396   56.2396 C   0  0  0  0  0  0  0  0  0  0  0  0
   67.0281   51.4368   57.0361 F   0  0  0  0  0  0  0  0  0  0  0  0
   68.2645   51.0955   55.0481 C   0  0  0  0  0  0  0  0  0  0  0  0
  1  2  2  0
  2  3  2  0
  2 13  1  0
  2  4  1  0
 13 14  1  0
 14 15  2  0
 14 20  1  0
 15 16  1  0
 16 17  2  0
 17 18  1  0
 18 19  1  0
 18 20  2  0
  4  5  2  0
  4 12  1  0
  5  6  1  0
  6  7  2  0
  7  8  1  0
  8  9  2  0
  8 12  1  0
  9 10  1  0
 10 11  1  0
 11 12  2  0
M  END
>  <minimizedAffinity>  (24) 
-9.06702

$$$$
cs_full_output_folder/data/smiles/1605.pdb
     RDKit          3D

 29 32  0  0  0  0  0  0  0  0999 V2000
   68.5006   42.1638   57.1962 C   0  0  0  0  0  0  0  0  0  0  0  0
   68.7274   43.5273   56.7868 N   0  0  0  0  0  0  0  0  0  0  0  0
   68.1322   44.2192   55.7247 C   0  0  0  0  0  0  0  0  0  0  0  0
   67.3001   43.6398   55.0231 O   0  0  0  0  0  0  0  0  0  0  0  0
   68.4221   45.6192   55.3649 C   0  0  0  0  0  0  0  0  0  0  0  0
   68.7493   45.9377   54.0876 N   0  0  0  0  0  0  0  0  0  0  0  0
   69.0237   47.1954   53.7014 C   0  0  0  0  0  0  0  0  0  0  0  0
   69.3561   47.5177   52.4012 C   0  0  0  0  0  0  0  0  0  0  0  0
   69.6414   48.7909   51.9760 C   0  0  0  0  0  0  0  0  0  0  0  0
   69.5952   49.8252   52.9038 C   0  0  0  0  0  0  0  0  0  0  0  0
   69.2642   49.5323   54.2205 C   0  0  0  0  0  0  0  0  0  0  0  0
   68.9840   48.2387   54.6057 C   0  0  0  0  0  0  0  0  0  0  0  0
   68.6518   47.9104   55.9002 C   0  0  0  0  0  0  0  0  0  0  0  0
   68.6091   48.8358   56.7381 O   0  0  0  0  0  0  0  0  0  0  0  0
   68.3786   46.6148   56.2527 N   0  0  0  0  0  0  0  0  0  0  0  0
   69.5436   41.5626   57.9803 C   0  0  0  0  0  0  0  0  0  0  0  0
   72.0237   40.4926   58.5130 O   0  0  0  0  0  0  0  0  0  0  0  0
   71.1272   39.6496   58.4012 C   0  0  0  0  0  0  0  0  0  0  0  0
   69.8267   40.2136   58.1216 N   0  0  0  0  0  0  0  0  0  0  0  0
   71.3227   38.2128   58.5321 C   0  0  0  0  0  0  0  0  0  0  0  0
   70.7538   37.5049   59.5559 C   0  0  0  0  0  0  0  0  0  0  0  0
   70.9463   36.1324   59.6740 C   0  0  0  0  0  0  0  0  0  0  0  0
   71.7244   35.4608   58.7460 C   0  0  0  0  0  0  0  0  0  0  0  0
   71.9220   34.1001   58.8536 C   0  0  0  0  0  0  0  0  0  0  0  0
   72.7063   33.4508   57.9103 C   0  0  0  0  0  0  0  0  0  0  0  0
   73.2616   34.1784   56.9003 C   0  0  0  0  0  0  0  0  0  0  0  0
   73.0619   35.5376   56.7972 C   0  0  0  0  0  0  0  0  0  0  0  0
   72.2827   36.2055   57.7275 C   0  0  0  0  0  0  0  0  0  0  0  0
   72.0756   37.5469   57.6392 N   0  0  0  0  0  0  0  0  0  0  0  0
 17 18  2  0
 18 19  1  0
 18 20  1  0
 19 16  1  0
 16  1  1  0
  1  2  1  0
  2  3  1  0
  3  4  2  0
  3  5  1  0
  5  6  2  0
  5 15  1  0
  6  7  1  0
  7  8  2  0
  7 12  1  0
  8  9  1  0
  9 10  2  0
 10 11  1  0
 11 12  2  0
 12 13  1  0
 13 14  2  0
 13 15  1  0
 20 21  2  0
 20 29  1  0
 21 22  1  0
 22 23  2  0
 23 24  1  0
 23 28  1  0
 24 25  2  0
 25 26  1  0
 26 27  2  0
 27 28  1  0
 28 29  2  0
M  END
>  <minimizedAffinity>  (25) 
-9.27126

$$$$
cs_full_output_folder/data/smiles/1855.pdb
     RDKit          3D

 21 23  0  0  0  0  0  0  0  0999 V2000
   68.6550   46.9987   56.0961 C   0  0  0  0  0  0  0  0  0  0  0  0
   69.1131   46.1126   56.8906 N   0  0  0  0  0  0  0  0  0  0  0  0
   68.5396   46.7764   51.8371 C   0  0  0  0  0  0  0  0  0  0  0  0
   67.8541   45.8639   52.6085 C   0  0  0  0  0  0  0  0  0  0  0  0
   67.9710   45.9620   53.9683 C   0  0  0  0  0  0  0  0  0  0  0  0
   68.7190   46.8984   54.6598 C   0  0  0  0  0  0  0  0  0  0  0  0
   69.3964   47.8050   53.8535 C   0  0  0  0  0  0  0  0  0  0  0  0
   69.3070   47.7416   52.4516 C   0  0  0  0  0  0  0  0  0  0  0  0
   68.0797   48.1695   56.7879 C   0  0  0  0  0  0  0  0  0  0  0  0
   68.5467   49.4450   56.6906 C   0  0  0  0  0  0  0  0  0  0  0  0
   67.9087   50.5406   57.2865 C   0  0  0  0  0  0  0  0  0  0  0  0
   66.7657   50.3175   58.0017 C   0  0  0  0  0  0  0  0  0  0  0  0
   66.2947   49.0215   58.1023 C   0  0  0  0  0  0  0  0  0  0  0  0
   66.9273   47.9979   57.5191 N   0  0  0  0  0  0  0  0  0  0  0  0
   69.7316   44.9300   56.7722 N   0  0  0  0  0  0  0  0  0  0  0  0
   68.9956   43.6825   56.7226 C   0  0  0  0  0  0  0  0  0  0  0  0
   69.4071   42.5458   57.3821 C   0  0  0  0  0  0  0  0  0  0  0  0
   68.7058   41.3670   57.3311 C   0  0  0  0  0  0  0  0  0  0  0  0
   67.5450   41.3163   56.5911 C   0  0  0  0  0  0  0  0  0  0  0  0
   67.1438   42.4557   55.9377 C   0  0  0  0  0  0  0  0  0  0  0  0
   67.8540   43.5960   56.0080 N   0  0  0  0  0  0  0  0  0  0  0  0
  3  4  2  0
  3  8  1  0
  4  5  1  0
  5  6  2  0
  6  1  1  0
  6  7  1  0
  1  2  2  0
  1  9  1  0
  2 15  1  0
 15 16  1  0
 16 17  2  0
 16 21  1  0
 17 18  1  0
 18 19  2  0
 19 20  1  0
 20 21  2  0
  9 10  2  0
  9 14  1  0
 10 11  1  0
 11 12  2  0
 12 13  1  0
 13 14  2  0
  7  8  2  0
M  END
>  <minimizedAffinity>  (26) 
-9.16736

$$$$
cs_full_output_folder/data/smiles/2077.pdb
     RDKit          3D

 31 34  0  0  0  0  0  0  0  0999 V2000
   71.3562   47.7655   58.6449 C   0  0  0  0  0  0  0  0  0  0  0  0
   71.8292   48.9551   58.0217 C   0  0  0  0  0  0  0  0  0  0  0  0
   72.9862   48.7907   57.4046 O   0  0  0  0  0  0  0  0  0  0  0  0
   71.3384   50.2400   57.9224 N   0  0  0  0  0  0  0  0  0  0  0  0
   70.2156   50.8777   58.5834 C   0  0  0  0  0  0  0  0  0  0  0  0
   69.1371   51.0938   57.5092 C   0  0  0  0  0  0  0  0  0  0  0  0
   69.7526   50.5189   56.3016 N   0  0  0  0  0  0  0  0  0  0  0  0
   70.8470   51.3012   55.7907 C   0  0  0  0  0  0  0  0  0  0  0  0
   71.9399   51.1719   56.8928 C   0  0  0  0  0  0  0  0  0  0  0  0
   69.3531   49.2977   55.7386 C   0  0  0  0  0  0  0  0  0  0  0  0
   69.6782   48.9630   54.4224 C   0  0  0  0  0  0  0  0  0  0  0  0
   69.2648   47.7939   53.8386 C   0  0  0  0  0  0  0  0  0  0  0  0
   68.4951   46.8769   54.5359 C   0  0  0  0  0  0  0  0  0  0  0  0
   68.0646   45.7176   54.0063 F   0  0  0  0  0  0  0  0  0  0  0  0
   68.1567   47.1709   55.8295 C   0  0  0  0  0  0  0  0  0  0  0  0
   68.5869   48.3598   56.3986 C   0  0  0  0  0  0  0  0  0  0  0  0
   69.7465   45.6753   59.0404 O   0  0  0  0  0  0  0  0  0  0  0  0
   70.7940   45.3599   58.3599 C   0  0  0  0  0  0  0  0  0  0  0  0
   71.6775   46.4721   58.1187 N   0  0  0  0  0  0  0  0  0  0  0  0
   70.9690   43.9807   57.9178 C   0  0  0  0  0  0  0  0  0  0  0  0
   69.7763   43.3827   57.3860 C   0  0  0  0  0  0  0  0  0  0  0  0
   68.9432   44.1236   56.6218 N   0  0  0  0  0  0  0  0  0  0  0  0
   67.8571   43.6249   56.0442 N   0  0  0  0  0  0  0  0  0  0  0  0
   67.4946   42.3433   56.1716 C   0  0  0  0  0  0  0  0  0  0  0  0
   66.4656   41.8435   55.6296 O   0  0  0  0  0  0  0  0  0  0  0  0
   68.2858   41.5075   56.9371 C   0  0  0  0  0  0  0  0  0  0  0  0
   67.9735   40.1936   57.1558 C   0  0  0  0  0  0  0  0  0  0  0  0
   68.7705   39.4009   57.9613 C   0  0  0  0  0  0  0  0  0  0  0  0
   69.8976   39.9085   58.5633 C   0  0  0  0  0  0  0  0  0  0  0  0
   70.2050   41.2572   58.3274 C   0  0  0  0  0  0  0  0  0  0  0  0
   69.4152   42.0346   57.5331 C   0  0  0  0  0  0  0  0  0  0  0  0
 17 18  2  0
 18 20  1  0
 18 19  1  0
 20 21  1  0
 21 22  2  0
 21 31  1  0
 22 23  1  0
 23 24  1  0
 24 25  2  0
 24 26  1  0
 26 27  1  0
 26 31  2  0
 27 28  2  0
 28 29  1  0
 29 30  2  0
 30 31  1  0
 19  1  1  0
  1  2  1  0
  2  3  2  0
  2  4  1  0
  4  5  1  0
  4  9  1  0
  5  6  1  0
  6  7  1  0
  7 10  1  0
  7  8  1  0
 10 11  2  0
 10 16  1  0
 11 12  1  0
 12 13  2  0
 13 14  1  0
 13 15  1  0
 15 16  2  0
  8  9  1  0
M  END
>  <minimizedAffinity>  (27) 
-8.80940

$$$$
cs_full_output_folder/data/smiles/2239.pdb
     RDKit          3D

 27 29  0  0  0  0  0  0  0  0999 V2000
   70.6658   46.2153   58.4022 C   0  0  0  0  0  0  0  0  0  0  0  0
   71.6302   46.5714   59.2957 C   0  0  0  0  0  0  0  0  0  0  0  0
   72.2452   47.8111   59.2499 C   0  0  0  0  0  0  0  0  0  0  0  0
   71.9171   48.7503   58.3037 C   0  0  0  0  0  0  0  0  0  0  0  0
   70.9363   48.4105   57.3822 C   0  0  0  0  0  0  0  0  0  0  0  0
   70.3343   47.1716   57.4415 C   0  0  0  0  0  0  0  0  0  0  0  0
   69.6134   44.4399   59.4707 O   0  0  0  0  0  0  0  0  0  0  0  0
   69.9689   44.9103   58.3927 C   0  0  0  0  0  0  0  0  0  0  0  0
   69.7003   44.1955   57.2121 N   0  0  0  0  0  0  0  0  0  0  0  0
   69.0461   42.9593   57.0354 C   0  0  0  0  0  0  0  0  0  0  0  0
   69.6015   41.9138   57.8125 C   0  0  0  0  0  0  0  0  0  0  0  0
   69.1013   40.6485   57.7495 C   0  0  0  0  0  0  0  0  0  0  0  0
   68.0396   40.3503   56.9269 C   0  0  0  0  0  0  0  0  0  0  0  0
   67.5063   41.3652   56.1781 C   0  0  0  0  0  0  0  0  0  0  0  0
   68.0052   42.6614   56.2298 C   0  0  0  0  0  0  0  0  0  0  0  0
   67.4185   43.6115   55.4488 O   0  0  0  0  0  0  0  0  0  0  0  0
   70.4584   49.5379   56.1648 S   0  0  0  0  0  0  0  0  0  0  0  0
   70.3362   50.9117   56.7822 O   0  0  0  0  0  0  0  0  0  0  0  0
   71.5502   49.6547   55.1196 O   0  0  0  0  0  0  0  0  0  0  0  0
   68.9846   49.0769   55.4252 N   0  0  0  0  0  0  0  0  0  0  0  0
   68.9290   48.2187   54.3112 C   0  0  0  0  0  0  0  0  0  0  0  0
   69.5360   48.4971   53.1114 C   0  0  0  0  0  0  0  0  0  0  0  0
   69.4881   47.6543   52.0324 C   0  0  0  0  0  0  0  0  0  0  0  0
   68.8049   46.4659   52.1358 C   0  0  0  0  0  0  0  0  0  0  0  0
   68.1799   46.1467   53.3272 C   0  0  0  0  0  0  0  0  0  0  0  0
   68.2416   47.0091   54.3957 C   0  0  0  0  0  0  0  0  0  0  0  0
   67.6127   46.6676   55.5646 O   0  0  0  0  0  0  0  0  0  0  0  0
  7  8  2  0
  8  9  1  0
  8  1  1  0
  9 10  1  0
 10 11  2  0
 10 15  1  0
 11 12  1  0
 12 13  2  0
 13 14  1  0
 14 15  2  0
 15 16  1  0
  1  2  2  0
  1  6  1  0
  2  3  1  0
  3  4  2  0
  4  5  1  0
  5 17  1  0
  5  6  2  0
 17 18  2  0
 17 19  2  0
 17 20  1  0
 20 21  1  0
 21 22  2  0
 21 26  1  0
 22 23  1  0
 23 24  2  0
 24 25  1  0
 25 26  2  0
 26 27  1  0
M  END
>  <minimizedAffinity>  (28) 
-8.86643

$$$$
cs_full_output_folder/data/smiles/2258.pdb
     RDKit          3D

 20 21  0  0  0  0  0  0  0  0999 V2000
   68.5180   47.2968   55.0654 C   0  0  0  0  0  0  0  0  0  0  0  0
   67.7632   46.3654   54.4120 C   0  0  0  0  0  0  0  0  0  0  0  0
   67.8464   46.2081   53.0156 C   0  0  0  0  0  0  0  0  0  0  0  0
   67.0746   45.2615   52.3774 O   0  0  0  0  0  0  0  0  0  0  0  0
   68.7147   47.0179   52.2905 C   0  0  0  0  0  0  0  0  0  0  0  0
   68.8116   46.8808   50.8970 O   0  0  0  0  0  0  0  0  0  0  0  0
   69.4796   47.9610   52.9456 C   0  0  0  0  0  0  0  0  0  0  0  0
   69.3627   48.0790   54.3235 C   0  0  0  0  0  0  0  0  0  0  0  0
   70.3405   48.7724   52.1680 N   0  0  0  0  0  0  0  0  0  0  0  0
   71.5313   48.9152   52.5861 O   0  0  0  0  0  0  0  0  0  0  0  0
   70.0175   49.4120   51.0201 O   0  0  0  0  0  0  0  0  0  0  0  0
   68.4159   47.4743   56.4893 C   0  0  0  0  0  0  0  0  0  0  0  0
   67.2422   47.5735   56.9709 O   0  0  0  0  0  0  0  0  0  0  0  0
   72.8507   47.5829   60.2144 C   0  0  0  0  0  0  0  0  0  0  0  0
   71.7132   47.5603   59.2345 C   0  0  0  0  0  0  0  0  0  0  0  0
   71.1256   48.7309   58.7762 C   0  0  0  0  0  0  0  0  0  0  0  0
   70.0680   48.7203   57.8802 C   0  0  0  0  0  0  0  0  0  0  0  0
   69.5444   47.5426   57.3971 C   0  0  0  0  0  0  0  0  0  0  0  0
   70.1454   46.3687   57.8657 C   0  0  0  0  0  0  0  0  0  0  0  0
   71.1965   46.3788   58.7564 C   0  0  0  0  0  0  0  0  0  0  0  0
 14 15  1  0
 15 16  2  0
 15 20  1  0
 16 17  1  0
 17 18  2  0
 18 12  1  0
 18 19  1  0
 12 13  2  0
 12  1  1  0
  1  2  2  0
  1  8  1  0
  2  3  1  0
  3  4  1  0
  3  5  2  0
  5  6  1  0
  5  7  1  0
  7  9  1  0
  7  8  2  0
  9 10  2  0
  9 11  1  0
 19 20  2  0
M  CHG  2   9   1  11  -1
M  END
>  <minimizedAffinity>  (29) 
-8.71988

$$$$
cs_full_output_folder/data/smiles/2663.pdb
     RDKit          3D

 20 21  0  0  0  0  0  0  0  0999 V2000
   68.8979   46.8286   54.8786 C   0  0  0  0  0  0  0  0  0  0  0  0
   68.0575   45.9232   54.2700 C   0  0  0  0  0  0  0  0  0  0  0  0
   67.8450   45.9531   52.9050 C   0  0  0  0  0  0  0  0  0  0  0  0
   66.9744   44.9914   52.3796 O   0  0  0  0  0  0  0  0  0  0  0  0
   68.4668   46.8955   52.0863 C   0  0  0  0  0  0  0  0  0  0  0  0
   68.2315   46.8897   50.7332 O   0  0  0  0  0  0  0  0  0  0  0  0
   69.3226   47.8228   52.6755 C   0  0  0  0  0  0  0  0  0  0  0  0
   69.5040   47.7571   54.0219 C   0  0  0  0  0  0  0  0  0  0  0  0
   69.9520   48.7968   51.8487 N   0  0  0  0  0  0  0  0  0  0  0  0
   70.6339   48.4498   50.8864 O   0  0  0  0  0  0  0  0  0  0  0  0
   69.7896   50.1088   52.1383 O   0  0  0  0  0  0  0  0  0  0  0  0
   69.0256   45.7913   56.9733 O   0  0  0  0  0  0  0  0  0  0  0  0
   69.1670   46.8718   56.3027 C   0  0  0  0  0  0  0  0  0  0  0  0
   69.5900   48.0613   57.0372 C   0  0  0  0  0  0  0  0  0  0  0  0
   68.5447   49.1116   57.1804 C   0  0  0  0  0  0  0  0  0  0  0  0
   67.3600   48.8924   57.8350 C   0  0  0  0  0  0  0  0  0  0  0  0
   66.4088   49.8930   57.9815 C   0  0  0  0  0  0  0  0  0  0  0  0
   66.6065   51.1625   57.4780 C   0  0  0  0  0  0  0  0  0  0  0  0
   67.8178   51.3878   56.8083 C   0  0  0  0  0  0  0  0  0  0  0  0
   68.7477   50.3885   56.6697 C   0  0  0  0  0  0  0  0  0  0  0  0
 12 13  2  0
 13 14  1  0
 13  1  1  0
 14 15  1  0
 15 16  2  0
 15 20  1  0
 16 17  1  0
 17 18  2  0
 18 19  1  0
 19 20  2  0
  1  2  2  0
  1  8  1  0
  2  3  1  0
  3  4  1  0
  3  5  2  0
  5  6  1  0
  5  7  1  0
  7  9  1  0
  7  8  2  0
  9 10  2  0
  9 11  1  0
M  CHG  2   9   1  11  -1
M  END
>  <minimizedAffinity>  (30) 
-8.99591

$$$$
cs_full_output_folder/data/smiles/3327.pdb
     RDKit          3D

 24 26  0  0  0  0  0  0  0  0999 V2000
   71.3532   49.1612   52.9273 O   0  0  0  0  0  0  0  0  0  0  0  0
   70.4078   49.4437   53.7661 C   0  0  0  0  0  0  0  0  0  0  0  0
   69.5965   48.3633   54.2869 C   0  0  0  0  0  0  0  0  0  0  0  0
   69.4899   48.2195   55.6896 C   0  0  0  0  0  0  0  0  0  0  0  0
   68.7378   47.2180   56.2356 C   0  0  0  0  0  0  0  0  0  0  0  0
   68.6399   47.0872   57.4790 O   0  0  0  0  0  0  0  0  0  0  0  0
   68.0966   46.3648   55.4463 N   0  0  0  0  0  0  0  0  0  0  0  0
   68.1545   46.4419   54.1123 C   0  0  0  0  0  0  0  0  0  0  0  0
   67.4632   45.5216   53.3164 C   0  0  0  0  0  0  0  0  0  0  0  0
   67.5102   45.5858   51.9436 C   0  0  0  0  0  0  0  0  0  0  0  0
   68.2610   46.5861   51.3895 C   0  0  0  0  0  0  0  0  0  0  0  0
   68.9624   47.5195   52.1597 C   0  0  0  0  0  0  0  0  0  0  0  0
   68.9149   47.4562   53.5288 C   0  0  0  0  0  0  0  0  0  0  0  0
   70.3311   50.7853   54.0329 O   0  0  0  0  0  0  0  0  0  0  0  0
   71.2773   51.5653   54.6926 C   0  0  0  0  0  0  0  0  0  0  0  0
   70.7607   52.8721   55.2168 C   0  0  0  0  0  0  0  0  0  0  0  0
   70.4897   52.7273   56.5982 O   0  0  0  0  0  0  0  0  0  0  0  0
   69.5105   51.8963   57.0961 C   0  0  0  0  0  0  0  0  0  0  0  0
   68.2467   51.9663   56.5482 C   0  0  0  0  0  0  0  0  0  0  0  0
   67.2192   51.1562   57.0050 C   0  0  0  0  0  0  0  0  0  0  0  0
   67.4548   50.2511   58.0358 C   0  0  0  0  0  0  0  0  0  0  0  0
   66.4002   49.4853   58.4370 F   0  0  0  0  0  0  0  0  0  0  0  0
   68.7035   50.1672   58.5918 C   0  0  0  0  0  0  0  0  0  0  0  0
   69.7118   50.9887   58.1155 C   0  0  0  0  0  0  0  0  0  0  0  0
  1  2  2  0
  2 14  1  0
  2  3  1  0
 14 15  1  0
 15 16  1  0
 16 17  1  0
 17 18  1  0
 18 19  2  0
 18 24  1  0
 19 20  1  0
 20 21  2  0
 21 22  1  0
 21 23  1  0
 23 24  2  0
  3  4  2  0
  3 13  1  0
  4  5  1  0
  5  6  2  0
  5  7  1  0
  7  8  1  0
  8  9  1  0
  8 13  2  0
  9 10  2  0
 10 11  1  0
 11 12  2  0
 12 13  1  0
M  END
>  <minimizedAffinity>  (31) 
-8.60951

$$$$
cs_full_output_folder/data/smiles/3565.pdb
     RDKit          3D

 26 28  0  0  0  0  0  0  0  0999 V2000
   70.8393   41.8977   59.0448 C   0  0  0  0  0  0  0  0  0  0  0  0
   69.7677   41.5738   58.0539 C   0  0  0  0  0  0  0  0  0  0  0  0
   69.1185   42.4116   57.2025 C   0  0  0  0  0  0  0  0  0  0  0  0
   68.1866   41.6794   56.4664 C   0  0  0  0  0  0  0  0  0  0  0  0
   68.3056   40.4332   56.8965 N   0  0  0  0  0  0  0  0  0  0  0  0
   69.2506   40.3448   57.8504 N   0  0  0  0  0  0  0  0  0  0  0  0
   69.6142   39.1417   58.4880 C   0  0  0  0  0  0  0  0  0  0  0  0
   70.7659   38.4422   58.1420 C   0  0  0  0  0  0  0  0  0  0  0  0
   71.1132   37.2647   58.7682 C   0  0  0  0  0  0  0  0  0  0  0  0
   70.3222   36.7480   59.7565 C   0  0  0  0  0  0  0  0  0  0  0  0
   69.1741   37.4183   60.1220 C   0  0  0  0  0  0  0  0  0  0  0  0
   68.8334   38.6096   59.4802 C   0  0  0  0  0  0  0  0  0  0  0  0
   67.7168   39.2266   59.8619 F   0  0  0  0  0  0  0  0  0  0  0  0
   69.3303   43.8448   57.0342 C   0  0  0  0  0  0  0  0  0  0  0  0
   70.2970   44.3857   57.6203 O   0  0  0  0  0  0  0  0  0  0  0  0
   68.4698   44.6298   56.2243 N   0  0  0  0  0  0  0  0  0  0  0  0
   68.6163   46.0438   56.0017 C   0  0  0  0  0  0  0  0  0  0  0  0
   68.6611   46.3918   54.5682 C   0  0  0  0  0  0  0  0  0  0  0  0
   67.9070   45.6692   53.6654 C   0  0  0  0  0  0  0  0  0  0  0  0
   67.8976   45.9538   52.3194 C   0  0  0  0  0  0  0  0  0  0  0  0
   68.6609   46.9932   51.8385 C   0  0  0  0  0  0  0  0  0  0  0  0
   69.4213   47.7322   52.7145 C   0  0  0  0  0  0  0  0  0  0  0  0
   69.4168   47.4236   54.0841 C   0  0  0  0  0  0  0  0  0  0  0  0
   70.2255   48.8336   52.2033 C   0  0  0  0  0  0  0  0  0  0  0  0
   69.7859   49.5704   51.0592 N   0  0  0  0  0  0  0  0  0  0  0  0
   71.3260   49.1443   52.7747 O   0  0  0  0  0  0  0  0  0  0  0  0
  1  2  1  0
  2  3  2  0
  2  6  1  0
  3 14  1  0
  3  4  1  0
 14 15  2  0
 14 16  1  0
 16 17  1  0
 17 18  1  0
 18 19  2  0
 18 23  1  0
 19 20  1  0
 20 21  2  0
 21 22  1  0
 22 24  1  0
 22 23  2  0
 24 25  1  0
 24 26  2  0
  4  5  2  0
  5  6  1  0
  6  7  1  0
  7  8  2  0
  7 12  1  0
  8  9  1  0
  9 10  2  0
 10 11  1  0
 11 12  2  0
 12 13  1  0
M  END
>  <minimizedAffinity>  (32) 
-9.02174

$$$$
cs_full_output_folder/data/smiles/3608.pdb
     RDKit          3D

 26 28  0  0  0  0  0  0  0  0999 V2000
   68.3643   45.7657   54.2402 C   0  0  0  0  0  0  0  0  0  0  0  0
   67.8473   45.4757   53.0012 C   0  0  0  0  0  0  0  0  0  0  0  0
   67.9760   46.3754   51.9496 C   0  0  0  0  0  0  0  0  0  0  0  0
   68.6252   47.5746   52.1362 C   0  0  0  0  0  0  0  0  0  0  0  0
   69.1596   47.9013   53.3758 C   0  0  0  0  0  0  0  0  0  0  0  0
   69.0070   46.9784   54.3817 C   0  0  0  0  0  0  0  0  0  0  0  0
   68.6192   45.2583   56.5350 O   0  0  0  0  0  0  0  0  0  0  0  0
   68.2645   44.8631   55.3912 C   0  0  0  0  0  0  0  0  0  0  0  0
   67.7830   43.5325   55.3137 N   0  0  0  0  0  0  0  0  0  0  0  0
   67.6940   42.6713   56.4434 C   0  0  0  0  0  0  0  0  0  0  0  0
   68.8189   42.0290   56.9146 C   0  0  0  0  0  0  0  0  0  0  0  0
   68.7832   41.1798   58.0139 C   0  0  0  0  0  0  0  0  0  0  0  0
   67.5856   40.9655   58.6630 C   0  0  0  0  0  0  0  0  0  0  0  0
   66.4758   41.6208   58.1701 C   0  0  0  0  0  0  0  0  0  0  0  0
   66.5391   42.4464   57.0931 N   0  0  0  0  0  0  0  0  0  0  0  0
   69.9925   49.3730   53.7234 S   0  0  0  0  0  0  0  0  0  0  0  0
   71.3886   49.3075   53.1118 O   0  0  0  0  0  0  0  0  0  0  0  0
   69.2950   50.4724   52.9539 O   0  0  0  0  0  0  0  0  0  0  0  0
   70.1540   49.7579   55.3728 N   0  0  0  0  0  0  0  0  0  0  0  0
   69.0292   49.9144   56.2122 C   0  0  0  0  0  0  0  0  0  0  0  0
   68.4706   48.9148   56.9785 C   0  0  0  0  0  0  0  0  0  0  0  0
   67.3625   49.1182   57.7630 C   0  0  0  0  0  0  0  0  0  0  0  0
   66.7876   50.3750   57.7795 C   0  0  0  0  0  0  0  0  0  0  0  0
   67.3112   51.4040   57.0295 C   0  0  0  0  0  0  0  0  0  0  0  0
   68.4175   51.1803   56.2545 C   0  0  0  0  0  0  0  0  0  0  0  0
   68.9440   52.1889   55.5071 F   0  0  0  0  0  0  0  0  0  0  0  0
  7  8  2  0
  8  9  1  0
  8  1  1  0
  9 10  1  0
 10 11  2  0
 10 15  1  0
 11 12  1  0
 12 13  2  0
 13 14  1  0
 14 15  2  0
  1  2  2  0
  1  6  1  0
  2  3  1  0
  3  4  2  0
  4  5  1  0
  5 16  1  0
  5  6  2  0
 16 17  2  0
 16 18  2  0
 16 19  1  0
 19 20  1  0
 20 21  2  0
 20 25  1  0
 21 22  1  0
 22 23  2  0
 23 24  1  0
 24 25  2  0
 25 26  1  0
M  END
>  <minimizedAffinity>  (33) 
-8.64302

$$$$
cs_full_output_folder/data/smiles/3722.pdb
     RDKit          3D

 20 21  0  0  0  0  0  0  0  0999 V2000
   68.5238   47.3301   55.0536 C   0  0  0  0  0  0  0  0  0  0  0  0
   67.7502   46.3985   54.3897 C   0  0  0  0  0  0  0  0  0  0  0  0
   67.8424   46.2485   53.0221 C   0  0  0  0  0  0  0  0  0  0  0  0
   67.0636   45.3076   52.3366 O   0  0  0  0  0  0  0  0  0  0  0  0
   68.7186   47.0336   52.2870 C   0  0  0  0  0  0  0  0  0  0  0  0
   68.8158   46.8821   50.8939 O   0  0  0  0  0  0  0  0  0  0  0  0
   69.5055   47.9731   52.9153 C   0  0  0  0  0  0  0  0  0  0  0  0
   69.3831   48.0943   54.2948 C   0  0  0  0  0  0  0  0  0  0  0  0
   70.4051   48.7805   52.1696 N   0  0  0  0  0  0  0  0  0  0  0  0
   71.5811   48.9325   52.5461 O   0  0  0  0  0  0  0  0  0  0  0  0
   70.0141   49.4169   51.0198 O   0  0  0  0  0  0  0  0  0  0  0  0
   68.3943   47.4714   56.4941 C   0  0  0  0  0  0  0  0  0  0  0  0
   67.2373   47.5721   56.9709 O   0  0  0  0  0  0  0  0  0  0  0  0
   72.8883   47.6360   60.1432 C   0  0  0  0  0  0  0  0  0  0  0  0
   71.7315   47.5780   59.1997 C   0  0  0  0  0  0  0  0  0  0  0  0
   71.1153   48.7276   58.7526 C   0  0  0  0  0  0  0  0  0  0  0  0
   70.0463   48.7022   57.8814 C   0  0  0  0  0  0  0  0  0  0  0  0
   69.5297   47.5011   57.4060 C   0  0  0  0  0  0  0  0  0  0  0  0
   70.1537   46.3594   57.8601 C   0  0  0  0  0  0  0  0  0  0  0  0
   71.2287   46.3821   58.7359 C   0  0  0  0  0  0  0  0  0  0  0  0
 14 15  1  0
 15 16  2  0
 15 20  1  0
 16 17  1  0
 17 18  2  0
 18 12  1  0
 18 19  1  0
 12 13  2  0
 12  1  1  0
  1  2  2  0
  1  8  1  0
  2  3  1  0
  3  4  1  0
  3  5  2  0
  5  6  1  0
  5  7  1  0
  7  9  1  0
  7  8  2  0
  9 10  2  0
  9 11  1  0
 19 20  2  0
M  CHG  2   9   1  11  -1
M  END
>  <minimizedAffinity>  (34) 
-8.57917

$$$$
cs_full_output_folder/data/smiles/3732.pdb
     RDKit          3D

 22 24  0  0  0  0  0  0  0  0999 V2000
   68.3266   44.7975   55.9199 O   0  0  0  0  0  0  0  0  0  0  0  0
   68.2950   45.9925   55.5758 C   0  0  0  0  0  0  0  0  0  0  0  0
   68.4048   46.3333   54.1558 C   0  0  0  0  0  0  0  0  0  0  0  0
   67.7040   45.6673   53.1747 C   0  0  0  0  0  0  0  0  0  0  0  0
   67.8327   46.0171   51.8461 C   0  0  0  0  0  0  0  0  0  0  0  0
   68.6632   47.0408   51.4387 C   0  0  0  0  0  0  0  0  0  0  0  0
   69.3676   47.7107   52.4155 C   0  0  0  0  0  0  0  0  0  0  0  0
   69.2341   47.3559   53.7458 C   0  0  0  0  0  0  0  0  0  0  0  0
   70.2374   48.7736   52.0538 N   0  0  0  0  0  0  0  0  0  0  0  0
   69.9965   49.4550   51.0410 O   0  0  0  0  0  0  0  0  0  0  0  0
   71.3555   49.0899   52.7838 O   0  0  0  0  0  0  0  0  0  0  0  0
   68.1571   46.8937   56.5850 O   0  0  0  0  0  0  0  0  0  0  0  0
   69.1489   47.5236   57.2753 C   0  0  0  0  0  0  0  0  0  0  0  0
   70.2292   46.9010   57.8586 C   0  0  0  0  0  0  0  0  0  0  0  0
   71.2100   47.5809   58.5482 C   0  0  0  0  0  0  0  0  0  0  0  0
   71.1320   48.9536   58.6749 C   0  0  0  0  0  0  0  0  0  0  0  0
   70.0619   49.6116   58.1019 C   0  0  0  0  0  0  0  0  0  0  0  0
   69.9963   50.9792   58.2370 C   0  0  0  0  0  0  0  0  0  0  0  0
   68.9446   51.6669   57.6786 C   0  0  0  0  0  0  0  0  0  0  0  0
   67.9754   50.9824   56.9963 C   0  0  0  0  0  0  0  0  0  0  0  0
   68.0268   49.6323   56.8552 C   0  0  0  0  0  0  0  0  0  0  0  0
   69.0703   48.9091   57.4038 C   0  0  0  0  0  0  0  0  0  0  0  0
  1  2  2  0
  2 12  1  0
  2  3  1  0
 12 13  1  0
 13 14  2  0
 13 22  1  0
 14 15  1  0
 15 16  2  0
 16 17  1  0
 17 18  1  0
 17 22  2  0
 18 19  2  0
 19 20  1  0
 20 21  2  0
 21 22  1  0
  3  4  2  0
  3  8  1  0
  4  5  1  0
  5  6  2  0
  6  7  1  0
  7  9  1  0
  7  8  2  0
  9 10  2  0
  9 11  1  0
M  CHG  2   9   1  11  -1
M  END
>  <minimizedAffinity>  (35) 
-9.10834

$$$$
cs_full_output_folder/data/smiles/4230.pdb
     RDKit          3D

 20 21  0  0  0  0  0  0  0  0999 V2000
   68.5975   47.1671   55.0724 C   0  0  0  0  0  0  0  0  0  0  0  0
   67.8137   46.2628   54.3912 C   0  0  0  0  0  0  0  0  0  0  0  0
   67.8559   46.1662   52.9963 C   0  0  0  0  0  0  0  0  0  0  0  0
   67.0479   45.2391   52.3463 O   0  0  0  0  0  0  0  0  0  0  0  0
   68.6902   46.9825   52.2593 C   0  0  0  0  0  0  0  0  0  0  0  0
   68.7178   46.8711   50.8656 O   0  0  0  0  0  0  0  0  0  0  0  0
   69.4755   47.8891   52.9354 C   0  0  0  0  0  0  0  0  0  0  0  0
   69.4291   47.9775   54.3098 C   0  0  0  0  0  0  0  0  0  0  0  0
   70.3477   48.7447   52.2138 N   0  0  0  0  0  0  0  0  0  0  0  0
   70.0647   49.2457   51.1183 O   0  0  0  0  0  0  0  0  0  0  0  0
   71.6022   49.0692   52.7269 O   0  0  0  0  0  0  0  0  0  0  0  0
   67.5003   47.6133   57.1382 O   0  0  0  0  0  0  0  0  0  0  0  0
   68.5662   47.2806   56.5253 C   0  0  0  0  0  0  0  0  0  0  0  0
   69.7232   47.0265   57.3638 C   0  0  0  0  0  0  0  0  0  0  0  0
   70.4102   48.0250   58.0109 C   0  0  0  0  0  0  0  0  0  0  0  0
   71.5197   47.7439   58.8089 C   0  0  0  0  0  0  0  0  0  0  0  0
   71.9353   46.4345   58.9509 C   0  0  0  0  0  0  0  0  0  0  0  0
   71.2650   45.4235   58.3144 C   0  0  0  0  0  0  0  0  0  0  0  0
   70.1534   45.7315   57.5183 C   0  0  0  0  0  0  0  0  0  0  0  0
   69.5108   44.7081   56.9018 F   0  0  0  0  0  0  0  0  0  0  0  0
 12 13  2  0
 13  1  1  0
 13 14  1  0
  1  2  2  0
  1  8  1  0
  2  3  1  0
  3  4  1  0
  3  5  2  0
  5  6  1  0
  5  7  1  0
  7  9  1  0
  7  8  2  0
  9 10  2  0
  9 11  1  0
 14 15  2  0
 14 19  1  0
 15 16  1  0
 16 17  2  0
 17 18  1  0
 18 19  2  0
 19 20  1  0
M  CHG  2   9   1  11  -1
M  END
>  <minimizedAffinity>  (36) 
-8.77519

$$$$
cs_full_output_folder/data/smiles/4649.pdb
     RDKit          3D

 22 23  0  0  0  0  0  0  0  0999 V2000
   69.3925   47.8622   53.0043 C   0  0  0  0  0  0  0  0  0  0  0  0
   69.2516   47.8847   54.3853 C   0  0  0  0  0  0  0  0  0  0  0  0
   68.3855   47.0301   55.0285 C   0  0  0  0  0  0  0  0  0  0  0  0
   67.6503   46.1314   54.2225 C   0  0  0  0  0  0  0  0  0  0  0  0
   67.8055   46.1291   52.8733 C   0  0  0  0  0  0  0  0  0  0  0  0
   68.6740   46.9883   52.2411 C   0  0  0  0  0  0  0  0  0  0  0  0
   68.8268   46.9762   50.8426 O   0  0  0  0  0  0  0  0  0  0  0  0
   71.4192   49.0289   52.9015 O   0  0  0  0  0  0  0  0  0  0  0  0
   70.3246   48.7894   52.3633 C   0  0  0  0  0  0  0  0  0  0  0  0
   69.9822   49.3819   51.1813 O   0  0  0  0  0  0  0  0  0  0  0  0
   67.0725   45.2286   52.0261 N   0  0  0  0  0  0  0  0  0  0  0  0
   66.8056   44.0861   52.4200 O   0  0  0  0  0  0  0  0  0  0  0  0
   66.6827   45.6599   50.7879 O   0  0  0  0  0  0  0  0  0  0  0  0
   68.2135   47.0160   56.3668 O   0  0  0  0  0  0  0  0  0  0  0  0
   68.6127   47.7126   57.4497 C   0  0  0  0  0  0  0  0  0  0  0  0
   68.6014   49.1953   57.3786 C   0  0  0  0  0  0  0  0  0  0  0  0
   69.7901   49.8910   57.2485 C   0  0  0  0  0  0  0  0  0  0  0  0
   69.8082   51.2499   57.1479 C   0  0  0  0  0  0  0  0  0  0  0  0
   68.6377   51.9780   57.1720 C   0  0  0  0  0  0  0  0  0  0  0  0
   68.7057   53.3282   57.0684 F   0  0  0  0  0  0  0  0  0  0  0  0
   67.4611   51.3043   57.2992 C   0  0  0  0  0  0  0  0  0  0  0  0
   67.4428   49.9135   57.4021 C   0  0  0  0  0  0  0  0  0  0  0  0
  8  9  2  0
  9 10  1  0
  9  1  1  0
  1  2  2  0
  1  6  1  0
  2  3  1  0
  3 14  1  0
  3  4  2  0
 14 15  1  0
 15 16  1  0
 16 17  2  0
 16 22  1  0
 17 18  1  0
 18 19  2  0
 19 20  1  0
 19 21  1  0
 21 22  2  0
  4  5  1  0
  5 11  1  0
  5  6  2  0
 11 12  2  0
 11 13  1  0
  6  7  1  0
M  CHG  2  11   1  13  -1
M  END
>  <minimizedAffinity>  (37) 
-8.82616

$$$$
cs_full_output_folder/data/smiles/4757.pdb
     RDKit          3D

 21 22  0  0  0  0  0  0  0  0999 V2000
   69.4162   47.8505   52.9545 C   0  0  0  0  0  0  0  0  0  0  0  0
   69.3416   47.8575   54.3293 C   0  0  0  0  0  0  0  0  0  0  0  0
   68.5113   46.9879   55.0045 C   0  0  0  0  0  0  0  0  0  0  0  0
   67.7560   46.1081   54.2343 C   0  0  0  0  0  0  0  0  0  0  0  0
   67.8456   46.1188   52.8717 C   0  0  0  0  0  0  0  0  0  0  0  0
   68.6737   46.9863   52.1858 C   0  0  0  0  0  0  0  0  0  0  0  0
   68.7559   46.9865   50.7969 O   0  0  0  0  0  0  0  0  0  0  0  0
   71.4555   49.0304   52.7387 O   0  0  0  0  0  0  0  0  0  0  0  0
   70.3159   48.7928   52.2562 C   0  0  0  0  0  0  0  0  0  0  0  0
   69.9323   49.4202   51.0836 O   0  0  0  0  0  0  0  0  0  0  0  0
   67.0865   45.2287   52.0463 N   0  0  0  0  0  0  0  0  0  0  0  0
   66.8027   44.1002   52.4575 O   0  0  0  0  0  0  0  0  0  0  0  0
   66.6690   45.6089   50.8017 O   0  0  0  0  0  0  0  0  0  0  0  0
   68.4715   47.0300   56.3409 O   0  0  0  0  0  0  0  0  0  0  0  0
   68.7685   47.7625   57.3964 C   0  0  0  0  0  0  0  0  0  0  0  0
   68.7301   49.2251   57.3942 C   0  0  0  0  0  0  0  0  0  0  0  0
   69.7977   50.0752   57.3745 C   0  0  0  0  0  0  0  0  0  0  0  0
   69.5857   51.4393   57.3679 C   0  0  0  0  0  0  0  0  0  0  0  0
   68.3133   51.9812   57.3805 C   0  0  0  0  0  0  0  0  0  0  0  0
   67.2199   51.1405   57.4008 C   0  0  0  0  0  0  0  0  0  0  0  0
   67.4468   49.7951   57.4083 C   0  0  0  0  0  0  0  0  0  0  0  0
  8  9  2  0
  9 10  1  0
  9  1  1  0
  1  2  2  0
  1  6  1  0
  2  3  1  0
  3 14  1  0
  3  4  2  0
 14 15  1  0
 15 16  1  0
 16 17  2  0
 16 21  1  0
 17 18  1  0
 18 19  2  0
 19 20  1  0
 20 21  2  0
  4  5  1  0
  5 11  1  0
  5  6  2  0
 11 12  2  0
 11 13  1  0
  6  7  1  0
M  CHG  2  11   1  13  -1
M  END
>  <minimizedAffinity>  (38) 
-8.52781

$$$$
cs_full_output_folder/data/smiles/5083.pdb
     RDKit          3D

 20 21  0  0  0  0  0  0  0  0999 V2000
   68.2039   46.0060   55.5862 C   0  0  0  0  0  0  0  0  0  0  0  0
   68.4106   44.8165   55.9393 O   0  0  0  0  0  0  0  0  0  0  0  0
   68.3841   46.3627   54.1796 C   0  0  0  0  0  0  0  0  0  0  0  0
   67.6962   45.7033   53.1899 C   0  0  0  0  0  0  0  0  0  0  0  0
   67.8227   45.9910   51.8520 C   0  0  0  0  0  0  0  0  0  0  0  0
   68.6995   47.0083   51.5170 C   0  0  0  0  0  0  0  0  0  0  0  0
   69.4105   47.6972   52.4746 C   0  0  0  0  0  0  0  0  0  0  0  0
   69.2456   47.3677   53.7919 C   0  0  0  0  0  0  0  0  0  0  0  0
   70.2901   48.7274   52.0346 N   0  0  0  0  0  0  0  0  0  0  0  0
   70.0583   49.3477   50.9704 O   0  0  0  0  0  0  0  0  0  0  0  0
   71.4072   49.0759   52.7431 O   0  0  0  0  0  0  0  0  0  0  0  0
   67.8190   46.8980   56.5573 O   0  0  0  0  0  0  0  0  0  0  0  0
   71.0322   51.2140   58.3845 C   0  0  0  0  0  0  0  0  0  0  0  0
   70.2193   50.0610   57.9160 C   0  0  0  0  0  0  0  0  0  0  0  0
   70.6517   48.7622   57.9896 C   0  0  0  0  0  0  0  0  0  0  0  0
   69.8500   47.7257   57.5380 C   0  0  0  0  0  0  0  0  0  0  0  0
   68.6029   47.9452   57.0032 C   0  0  0  0  0  0  0  0  0  0  0  0
   68.1704   49.2500   56.9303 C   0  0  0  0  0  0  0  0  0  0  0  0
   68.9748   50.3038   57.3851 C   0  0  0  0  0  0  0  0  0  0  0  0
   68.4573   51.7029   57.2831 C   0  0  0  0  0  0  0  0  0  0  0  0
 13 14  1  0
 14 15  2  0
 14 19  1  0
 15 16  1  0
 16 17  2  0
 17 12  1  0
 17 18  1  0
 12  1  1  0
  1  2  2  0
  1  3  1  0
  3  4  2  0
  3  8  1  0
  4  5  1  0
  5  6  2  0
  6  7  1  0
  7  9  1  0
  7  8  2  0
  9 10  2  0
  9 11  1  0
 18 19  2  0
 19 20  1  0
M  CHG  2   9   1  11  -1
M  END
>  <minimizedAffinity>  (39) 
-8.52380

$$$$
cs_full_output_folder/data/smiles/5225.pdb
     RDKit          3D

 22 23  0  0  0  0  0  0  0  0999 V2000
   69.3604   47.7875   52.9912 C   0  0  0  0  0  0  0  0  0  0  0  0
   69.2214   47.7049   54.3489 C   0  0  0  0  0  0  0  0  0  0  0  0
   68.3683   46.7934   54.9549 C   0  0  0  0  0  0  0  0  0  0  0  0
   67.6632   45.9677   54.1212 C   0  0  0  0  0  0  0  0  0  0  0  0
   67.7794   46.0217   52.7243 C   0  0  0  0  0  0  0  0  0  0  0  0
   68.6273   46.9314   52.1740 C   0  0  0  0  0  0  0  0  0  0  0  0
   68.7856   47.0336   50.7976 O   0  0  0  0  0  0  0  0  0  0  0  0
   71.3963   49.0090   52.9244 O   0  0  0  0  0  0  0  0  0  0  0  0
   70.2762   48.7705   52.4137 C   0  0  0  0  0  0  0  0  0  0  0  0
   69.8981   49.4550   51.2750 O   0  0  0  0  0  0  0  0  0  0  0  0
   67.0097   45.1266   51.9127 N   0  0  0  0  0  0  0  0  0  0  0  0
   66.6931   43.9892   52.3255 O   0  0  0  0  0  0  0  0  0  0  0  0
   66.5992   45.4952   50.6623 O   0  0  0  0  0  0  0  0  0  0  0  0
   68.3003   46.7858   56.2958 O   0  0  0  0  0  0  0  0  0  0  0  0
   68.9079   47.5158   57.2885 C   0  0  0  0  0  0  0  0  0  0  0  0
   68.5852   48.9604   57.3188 C   0  0  0  0  0  0  0  0  0  0  0  0
   69.4835   49.9680   57.0553 C   0  0  0  0  0  0  0  0  0  0  0  0
   69.1301   51.3025   57.0687 C   0  0  0  0  0  0  0  0  0  0  0  0
   67.8460   51.6887   57.3496 C   0  0  0  0  0  0  0  0  0  0  0  0
   66.9148   50.7156   57.6192 C   0  0  0  0  0  0  0  0  0  0  0  0
   67.2830   49.3912   57.6017 C   0  0  0  0  0  0  0  0  0  0  0  0
   66.3732   48.4274   57.8670 F   0  0  0  0  0  0  0  0  0  0  0  0
  8  9  2  0
  9 10  1  0
  9  1  1  0
  1  2  2  0
  1  6  1  0
  2  3  1  0
  3 14  1  0
  3  4  2  0
 14 15  1  0
 15 16  1  0
 16 17  2  0
 16 21  1  0
 17 18  1  0
 18 19  2  0
 19 20  1  0
 20 21  2  0
 21 22  1  0
  4  5  1  0
  5 11  1  0
  5  6  2  0
 11 12  2  0
 11 13  1  0
  6  7  1  0
M  CHG  2  11   1  13  -1
M  END
>  <minimizedAffinity>  (40) 
-9.33462

$$$$
cs_full_output_folder/data/smiles/5911.pdb
     RDKit          3D

 23 26  0  0  0  0  0  0  0  0999 V2000
   70.8602   48.0989   57.2982 O   0  0  0  0  0  0  0  0  0  0  0  0
   69.6378   48.3410   56.9772 C   0  0  0  0  0  0  0  0  0  0  0  0
   68.9944   49.3925   57.6275 N   0  0  0  0  0  0  0  0  0  0  0  0
   67.6520   49.8639   57.4581 C   0  0  0  0  0  0  0  0  0  0  0  0
   67.6526   51.3277   57.1190 C   0  0  0  0  0  0  0  0  0  0  0  0
   69.0045   51.9402   57.1339 C   0  0  0  0  0  0  0  0  0  0  0  0
   69.2144   53.0951   56.3593 C   0  0  0  0  0  0  0  0  0  0  0  0
   70.4561   53.7046   56.3367 C   0  0  0  0  0  0  0  0  0  0  0  0
   71.4980   53.1711   57.0835 C   0  0  0  0  0  0  0  0  0  0  0  0
   71.2674   52.0192   57.8511 C   0  0  0  0  0  0  0  0  0  0  0  0
   70.0530   51.4150   57.8767 C   0  0  0  0  0  0  0  0  0  0  0  0
   69.7564   50.1804   58.6333 C   0  0  0  0  0  0  0  0  0  0  0  0
   69.1202   47.4578   55.9648 C   0  0  0  0  0  0  0  0  0  0  0  0
   68.4659   46.3322   56.2885 N   0  0  0  0  0  0  0  0  0  0  0  0
   67.9522   45.5101   55.3850 N   0  0  0  0  0  0  0  0  0  0  0  0
   68.0503   45.7494   54.0651 C   0  0  0  0  0  0  0  0  0  0  0  0
   67.5664   44.9813   53.1972 O   0  0  0  0  0  0  0  0  0  0  0  0
   68.7203   46.9033   53.6763 C   0  0  0  0  0  0  0  0  0  0  0  0
   68.8192   47.1476   52.3258 C   0  0  0  0  0  0  0  0  0  0  0  0
   69.4658   48.2695   51.8823 C   0  0  0  0  0  0  0  0  0  0  0  0
   70.0056   49.1283   52.8443 C   0  0  0  0  0  0  0  0  0  0  0  0
   69.9056   48.8824   54.1855 C   0  0  0  0  0  0  0  0  0  0  0  0
   69.2543   47.7552   54.6213 C   0  0  0  0  0  0  0  0  0  0  0  0
  1  2  2  0
  2 13  1  0
  2  3  1  0
 13 14  2  0
 13 23  1  0
 14 15  1  0
 15 16  1  0
 16 17  2  0
 16 18  1  0
 18 19  1  0
 18 23  2  0
 19 20  2  0
 20 21  1  0
 21 22  2  0
 22 23  1  0
  3  4  1  0
  3 12  1  0
  4  5  1  0
  5  6  1  0
  6  7  2  0
  6 11  1  0
  7  8  1  0
  8  9  2  0
  9 10  1  0
 10 11  2  0
 11 12  1  0
M  END
>  <minimizedAffinity>  (41) 
-8.59558

$$$$
cs_full_output_folder/data/smiles/6054.pdb
     RDKit          3D

 25 27  0  0  0  0  0  0  0  0999 V2000
   71.2446   43.7266   57.9392 C   0  0  0  0  0  0  0  0  0  0  0  0
   67.0256   42.1017   56.0831 C   0  0  0  0  0  0  0  0  0  0  0  0
   68.2769   41.8662   56.7820 N   0  0  0  0  0  0  0  0  0  0  0  0
   69.1624   42.8207   57.0115 N   0  0  0  0  0  0  0  0  0  0  0  0
   70.3160   42.6119   57.6671 C   0  0  0  0  0  0  0  0  0  0  0  0
   70.5590   41.3292   58.1055 C   0  0  0  0  0  0  0  0  0  0  0  0
   71.7223   41.0064   58.7765 C   0  0  0  0  0  0  0  0  0  0  0  0
   72.0545   39.7692   59.2350 C   0  0  0  0  0  0  0  0  0  0  0  0
   71.1390   38.7323   59.0102 C   0  0  0  0  0  0  0  0  0  0  0  0
   69.9638   39.0285   58.3400 C   0  0  0  0  0  0  0  0  0  0  0  0
   69.6600   40.2949   57.8887 C   0  0  0  0  0  0  0  0  0  0  0  0
   68.5018   40.6060   57.2078 C   0  0  0  0  0  0  0  0  0  0  0  0
   67.6682   39.6804   56.9979 O   0  0  0  0  0  0  0  0  0  0  0  0
   70.4103   44.9442   58.0190 C   0  0  0  0  0  0  0  0  0  0  0  0
   69.7843   45.0514   59.1189 O   0  0  0  0  0  0  0  0  0  0  0  0
   70.2306   45.9512   57.0801 N   0  0  0  0  0  0  0  0  0  0  0  0
   69.4465   47.1194   57.1406 C   0  0  0  0  0  0  0  0  0  0  0  0
   68.3772   47.3816   56.1857 C   0  0  0  0  0  0  0  0  0  0  0  0
   68.5924   47.2458   54.7556 C   0  0  0  0  0  0  0  0  0  0  0  0
   69.1572   48.2913   54.0509 C   0  0  0  0  0  0  0  0  0  0  0  0
   69.4255   48.2271   52.6821 C   0  0  0  0  0  0  0  0  0  0  0  0
   69.1197   47.0795   51.9858 C   0  0  0  0  0  0  0  0  0  0  0  0
   68.5519   46.0325   52.6993 C   0  0  0  0  0  0  0  0  0  0  0  0
   68.2930   46.1010   54.0407 C   0  0  0  0  0  0  0  0  0  0  0  0
   67.7475   45.0697   54.6679 F   0  0  0  0  0  0  0  0  0  0  0  0
  2  3  1  0
  3  4  1  0
  3 12  1  0
  4  5  2  0
  5  1  1  0
  5  6  1  0
  1 14  1  0
 14 15  2  0
 14 16  1  0
 16 17  1  0
 17 18  1  0
 18 19  1  0
 19 20  2  0
 19 24  1  0
 20 21  1  0
 21 22  2  0
 22 23  1  0
 23 24  2  0
 24 25  1  0
  6  7  1  0
  6 11  2  0
  7  8  2  0
  8  9  1  0
  9 10  2  0
 10 11  1  0
 11 12  1  0
 12 13  2  0
M  END
>  <minimizedAffinity>  (42) 
-8.54471

$$$$
cs_full_output_folder/data/smiles/6146.pdb
     RDKit          3D

 23 25  0  0  0  0  0  0  0  0999 V2000
   69.0254   48.3458   56.3077 C   0  0  0  0  0  0  0  0  0  0  0  0
   69.4746   48.3733   54.8798 C   0  0  0  0  0  0  0  0  0  0  0  0
   70.3489   49.2920   54.4585 N   0  0  0  0  0  0  0  0  0  0  0  0
   70.6659   49.4162   53.2110 N   0  0  0  0  0  0  0  0  0  0  0  0
   70.1352   48.6260   52.2780 C   0  0  0  0  0  0  0  0  0  0  0  0
   70.4753   48.7854   51.0665 O   0  0  0  0  0  0  0  0  0  0  0  0
   69.2333   47.6565   52.6238 C   0  0  0  0  0  0  0  0  0  0  0  0
   68.7005   46.8436   51.6599 C   0  0  0  0  0  0  0  0  0  0  0  0
   67.8127   45.8740   52.0289 C   0  0  0  0  0  0  0  0  0  0  0  0
   67.4432   45.6959   53.3360 C   0  0  0  0  0  0  0  0  0  0  0  0
   68.0010   46.5366   54.2781 C   0  0  0  0  0  0  0  0  0  0  0  0
   68.9028   47.5367   53.9739 C   0  0  0  0  0  0  0  0  0  0  0  0
   70.9971   47.8482   57.5453 O   0  0  0  0  0  0  0  0  0  0  0  0
   69.9453   47.4221   57.0631 C   0  0  0  0  0  0  0  0  0  0  0  0
   69.5794   46.0697   57.1909 N   0  0  0  0  0  0  0  0  0  0  0  0
   70.3865   45.0519   57.8631 C   0  0  0  0  0  0  0  0  0  0  0  0
   69.6906   43.7627   57.5043 C   0  0  0  0  0  0  0  0  0  0  0  0
   70.0120   42.5778   58.0909 C   0  0  0  0  0  0  0  0  0  0  0  0
   69.3972   41.3725   57.7531 C   0  0  0  0  0  0  0  0  0  0  0  0
   68.4335   41.3952   56.7893 C   0  0  0  0  0  0  0  0  0  0  0  0
   67.7977   40.2371   56.4312 F   0  0  0  0  0  0  0  0  0  0  0  0
   68.0845   42.5606   56.1785 C   0  0  0  0  0  0  0  0  0  0  0  0
   68.7150   43.7585   56.5345 C   0  0  0  0  0  0  0  0  0  0  0  0
 13 14  2  0
 14  1  1  0
 14 15  1  0
  1  2  1  0
  2  3  2  0
  2 12  1  0
  3  4  1  0
  4  5  1  0
  5  6  2  0
  5  7  1  0
  7  8  1  0
  7 12  2  0
  8  9  2  0
  9 10  1  0
 10 11  2  0
 11 12  1  0
 15 16  1  0
 16 17  1  0
 17 18  2  0
 17 23  1  0
 18 19  1  0
 19 20  2  0
 20 21  1  0
 20 22  1  0
 22 23  2  0
M  END
>  <minimizedAffinity>  (43) 
-8.74267

$$$$
cs_full_output_folder/data/smiles/6159.pdb
     RDKit          3D

 26 28  0  0  0  0  0  0  0  0999 V2000
   68.6391   47.2246   56.5699 C   0  0  0  0  0  0  0  0  0  0  0  0
   71.3019   50.5505   54.1832 C   0  0  0  0  0  0  0  0  0  0  0  0
   70.4088   49.3775   54.1411 N   0  0  0  0  0  0  0  0  0  0  0  0
   69.9406   48.8390   55.2433 N   0  0  0  0  0  0  0  0  0  0  0  0
   69.1264   47.7751   55.2955 C   0  0  0  0  0  0  0  0  0  0  0  0
   68.7542   47.2054   54.0920 C   0  0  0  0  0  0  0  0  0  0  0  0
   67.9059   46.0949   54.1020 C   0  0  0  0  0  0  0  0  0  0  0  0
   67.5635   45.5639   52.8903 C   0  0  0  0  0  0  0  0  0  0  0  0
   68.0315   46.0973   51.7080 C   0  0  0  0  0  0  0  0  0  0  0  0
   68.8660   47.1908   51.7195 C   0  0  0  0  0  0  0  0  0  0  0  0
   69.2419   47.7658   52.9263 C   0  0  0  0  0  0  0  0  0  0  0  0
   70.0791   48.8639   52.9492 C   0  0  0  0  0  0  0  0  0  0  0  0
   70.4939   49.3331   51.8634 O   0  0  0  0  0  0  0  0  0  0  0  0
   69.5646   46.2162   57.1543 C   0  0  0  0  0  0  0  0  0  0  0  0
   70.5637   46.5560   57.8004 O   0  0  0  0  0  0  0  0  0  0  0  0
   69.2901   44.8408   56.9663 N   0  0  0  0  0  0  0  0  0  0  0  0
   70.0467   43.7443   57.4413 C   0  0  0  0  0  0  0  0  0  0  0  0
   71.2836   43.8052   58.0115 C   0  0  0  0  0  0  0  0  0  0  0  0
   71.9575   42.6923   58.4501 C   0  0  0  0  0  0  0  0  0  0  0  0
   71.3833   41.4517   58.3212 C   0  0  0  0  0  0  0  0  0  0  0  0
   70.1466   41.3744   57.7525 C   0  0  0  0  0  0  0  0  0  0  0  0
   69.4517   42.4768   57.3052 C   0  0  0  0  0  0  0  0  0  0  0  0
   68.1141   42.2833   56.7007 C   0  0  0  0  0  0  0  0  0  0  0  0
   68.0755   41.0594   56.0570 F   0  0  0  0  0  0  0  0  0  0  0  0
   67.8214   43.2603   55.7581 F   0  0  0  0  0  0  0  0  0  0  0  0
   67.0912   42.2715   57.6115 F   0  0  0  0  0  0  0  0  0  0  0  0
  2  3  1  0
  3  4  1  0
  3 12  1  0
  4  5  2  0
  5  1  1  0
  5  6  1  0
  1 14  1  0
 14 15  2  0
 14 16  1  0
 16 17  1  0
 17 18  2  0
 17 22  1  0
 18 19  1  0
 19 20  2  0
 20 21  1  0
 21 22  2  0
 22 23  1  0
 23 24  1  0
 23 25  1  0
 23 26  1  0
  6  7  1  0
  6 11  2  0
  7  8  2  0
  8  9  1  0
  9 10  2  0
 10 11  1  0
 11 12  1  0
 12 13  2  0
M  END
>  <minimizedAffinity>  (44) 
-8.90884

$$$$
cs_full_output_folder/data/smiles/6206.pdb
     RDKit          3D

 24 26  0  0  0  0  0  0  0  0999 V2000
   70.8554   47.7827   57.6846 N   0  0  0  0  0  0  0  0  0  0  0  0
   69.5520   47.5661   57.1281 C   0  0  0  0  0  0  0  0  0  0  0  0
   69.0368   46.4630   57.3912 O   0  0  0  0  0  0  0  0  0  0  0  0
   72.1257   44.4680   58.8951 C   0  0  0  0  0  0  0  0  0  0  0  0
   72.5594   44.8383   60.1511 C   0  0  0  0  0  0  0  0  0  0  0  0
   72.4460   46.1497   60.5993 C   0  0  0  0  0  0  0  0  0  0  0  0
   71.8814   47.0881   59.7520 C   0  0  0  0  0  0  0  0  0  0  0  0
   71.4303   46.7544   58.4771 C   0  0  0  0  0  0  0  0  0  0  0  0
   71.5717   45.4405   58.0925 C   0  0  0  0  0  0  0  0  0  0  0  0
   73.4463   43.0428   57.4857 C   0  0  0  0  0  0  0  0  0  0  0  0
   72.2511   43.0534   58.4569 C   0  0  0  0  0  0  0  0  0  0  0  0
   71.0768   42.5299   57.7150 C   0  0  0  0  0  0  0  0  0  0  0  0
   68.8930   48.6140   56.2954 C   0  0  0  0  0  0  0  0  0  0  0  0
   69.3047   48.6053   54.8760 C   0  0  0  0  0  0  0  0  0  0  0  0
   70.2293   49.5271   54.4555 N   0  0  0  0  0  0  0  0  0  0  0  0
   70.6763   49.5451   53.2284 N   0  0  0  0  0  0  0  0  0  0  0  0
   70.2746   48.6749   52.2906 C   0  0  0  0  0  0  0  0  0  0  0  0
   70.6699   48.6473   51.1048 O   0  0  0  0  0  0  0  0  0  0  0  0
   69.3379   47.7164   52.6545 C   0  0  0  0  0  0  0  0  0  0  0  0
   68.8766   46.7979   51.7487 C   0  0  0  0  0  0  0  0  0  0  0  0
   67.9333   45.8512   52.1325 C   0  0  0  0  0  0  0  0  0  0  0  0
   67.4532   45.8253   53.4215 C   0  0  0  0  0  0  0  0  0  0  0  0
   67.9211   46.7595   54.3490 C   0  0  0  0  0  0  0  0  0  0  0  0
   68.8582   47.6933   53.9590 C   0  0  0  0  0  0  0  0  0  0  0  0
 10 11  1  0
 11 12  1  0
 11  4  1  0
  4  5  2  0
  4  9  1  0
  5  6  1  0
  6  7  2  0
  7  8  1  0
  8  1  1  0
  8  9  2  0
  1  2  1  0
  2  3  2  0
  2 13  1  0
 13 14  1  0
 14 15  2  0
 14 24  1  0
 15 16  1  0
 16 17  1  0
 17 18  2  0
 17 19  1  0
 19 20  1  0
 19 24  2  0
 20 21  2  0
 21 22  1  0
 22 23  2  0
 23 24  1  0
M  END
>  <minimizedAffinity>  (45) 
-8.77573

$$$$
cs_full_output_folder/data/smiles/6354.pdb
     RDKit          3D

 22 24  0  0  0  0  0  0  0  0999 V2000
   68.8330   47.7574   56.3378 C   0  0  0  0  0  0  0  0  0  0  0  0
   69.2338   48.0162   54.9552 C   0  0  0  0  0  0  0  0  0  0  0  0
   70.0901   49.0103   54.6926 N   0  0  0  0  0  0  0  0  0  0  0  0
   70.5205   49.3500   53.4888 N   0  0  0  0  0  0  0  0  0  0  0  0
   70.0512   48.6274   52.4581 C   0  0  0  0  0  0  0  0  0  0  0  0
   70.4476   48.9345   51.3012 O   0  0  0  0  0  0  0  0  0  0  0  0
   69.1684   47.5907   52.6533 C   0  0  0  0  0  0  0  0  0  0  0  0
   68.6901   46.8532   51.5772 C   0  0  0  0  0  0  0  0  0  0  0  0
   67.8063   45.8223   51.8074 C   0  0  0  0  0  0  0  0  0  0  0  0
   67.3776   45.4963   53.0782 C   0  0  0  0  0  0  0  0  0  0  0  0
   67.8308   46.2028   54.1584 C   0  0  0  0  0  0  0  0  0  0  0  0
   68.7281   47.2505   53.9269 C   0  0  0  0  0  0  0  0  0  0  0  0
   70.7242   47.0478   57.6477 O   0  0  0  0  0  0  0  0  0  0  0  0
   69.6900   46.7456   57.0034 C   0  0  0  0  0  0  0  0  0  0  0  0
   69.3449   45.3849   56.9185 N   0  0  0  0  0  0  0  0  0  0  0  0
   70.0761   44.2870   57.5176 C   0  0  0  0  0  0  0  0  0  0  0  0
   69.3213   43.0365   57.2768 C   0  0  0  0  0  0  0  0  0  0  0  0
   68.2586   43.0319   56.3597 C   0  0  0  0  0  0  0  0  0  0  0  0
   67.5267   41.8908   56.0941 C   0  0  0  0  0  0  0  0  0  0  0  0
   67.8193   40.7110   56.7287 C   0  0  0  0  0  0  0  0  0  0  0  0
   68.8424   40.6812   57.6223 C   0  0  0  0  0  0  0  0  0  0  0  0
   69.5663   41.8270   57.8775 C   0  0  0  0  0  0  0  0  0  0  0  0
 13 14  2  0
 14  1  1  0
 14 15  1  0
  1  2  1  0
  2  3  2  0
  2 12  1  0
  3  4  1  0
  4  5  1  0
  5  6  2  0
  5  7  1  0
  7  8  1  0
  7 12  2  0
  8  9  2  0
  9 10  1  0
 10 11  2  0
 11 12  1  0
 15 16  1  0
 16 17  1  0
 17 18  2  0
 17 22  1  0
 18 19  1  0
 19 20  2  0
 20 21  1  0
 21 22  2  0
M  END
>  <minimizedAffinity>  (46) 
-8.65694

$$$$
cs_full_output_folder/data/smiles/6828.pdb
     RDKit          3D

 21 23  0  0  0  0  0  0  0  0999 V2000
   68.7993   46.9325   55.4895 C   0  0  0  0  0  0  0  0  0  0  0  0
   68.0509   45.7999   55.6687 N   0  0  0  0  0  0  0  0  0  0  0  0
   67.5802   45.0976   54.6592 N   0  0  0  0  0  0  0  0  0  0  0  0
   67.8090   45.4540   53.3849 C   0  0  0  0  0  0  0  0  0  0  0  0
   67.3322   44.7444   52.4364 O   0  0  0  0  0  0  0  0  0  0  0  0
   68.5525   46.5788   53.1011 C   0  0  0  0  0  0  0  0  0  0  0  0
   68.8011   46.9432   51.7958 C   0  0  0  0  0  0  0  0  0  0  0  0
   69.5577   48.0609   51.5339 C   0  0  0  0  0  0  0  0  0  0  0  0
   70.0368   48.7713   52.6122 C   0  0  0  0  0  0  0  0  0  0  0  0
   69.7996   48.4249   53.9270 C   0  0  0  0  0  0  0  0  0  0  0  0
   69.0402   47.3039   54.1952 C   0  0  0  0  0  0  0  0  0  0  0  0
   69.2475   47.6862   56.6814 C   0  0  0  0  0  0  0  0  0  0  0  0
   68.2423   51.2753   56.6606 C   0  0  0  0  0  0  0  0  0  0  0  0
   67.0884   51.3136   57.4138 C   0  0  0  0  0  0  0  0  0  0  0  0
   66.6158   50.1422   57.9431 C   0  0  0  0  0  0  0  0  0  0  0  0
   67.2901   48.9333   57.7230 C   0  0  0  0  0  0  0  0  0  0  0  0
   68.4227   48.8661   56.9895 C   0  0  0  0  0  0  0  0  0  0  0  0
   68.8915   50.0761   56.4555 C   0  0  0  0  0  0  0  0  0  0  0  0
   69.2430   53.4331   56.7882 O   0  0  0  0  0  0  0  0  0  0  0  0
   68.7736   52.5075   56.0817 C   0  0  0  0  0  0  0  0  0  0  0  0
   68.7891   52.7229   54.7033 O   0  0  0  0  0  0  0  0  0  0  0  0
 19 20  2  0
 20 21  1  0
 20 13  1  0
 13 14  2  0
 13 18  1  0
 14 15  1  0
 15 16  2  0
 16 17  1  0
 17 12  1  0
 17 18  2  0
 12  1  1  0
  1  2  2  0
  1 11  1  0
  2  3  1  0
  3  4  1  0
  4  5  2  0
  4  6  1  0
  6  7  1  0
  6 11  2  0
  7  8  2  0
  8  9  1  0
  9 10  2  0
 10 11  1  0
M  END
>  <minimizedAffinity>  (47) 
-8.82824

$$$$
cs_full_output_folder/data/smiles/6940.pdb
     RDKit          3D

 27 30  0  0  0  0  0  0  0  0999 V2000
   73.7424   34.9493   53.1668 C   0  0  0  0  0  0  0  0  0  0  0  0
   72.5175   35.3969   52.7155 C   0  0  0  0  0  0  0  0  0  0  0  0
   72.1037   35.0949   51.4369 C   0  0  0  0  0  0  0  0  0  0  0  0
   72.9125   34.3430   50.5985 C   0  0  0  0  0  0  0  0  0  0  0  0
   72.5661   34.0482   49.4271 O   0  0  0  0  0  0  0  0  0  0  0  0
   74.0983   33.9211   51.0629 N   0  0  0  0  0  0  0  0  0  0  0  0
   74.4780   34.2252   52.3053 N   0  0  0  0  0  0  0  0  0  0  0  0
   75.4400   35.4808   54.6755 O   0  0  0  0  0  0  0  0  0  0  0  0
   74.2175   35.2482   54.5163 C   0  0  0  0  0  0  0  0  0  0  0  0
   73.3808   35.2921   55.6516 N   0  0  0  0  0  0  0  0  0  0  0  0
   73.8064   35.5801   56.9848 C   0  0  2  0  0  0  0  0  0  0  0  0
   74.4616   34.4105   57.6802 C   0  0  0  0  0  0  0  0  0  0  0  0
   73.4743   33.2909   57.8175 C   0  0  0  0  0  0  0  0  0  0  0  0
   72.2594   33.6537   58.6004 C   0  0  0  0  0  0  0  0  0  0  0  0
   71.9941   35.1177   58.6068 C   0  0  0  0  0  0  0  0  0  0  0  0
   70.9700   35.6005   59.4126 C   0  0  0  0  0  0  0  0  0  0  0  0
   70.6425   36.9300   59.4928 C   0  0  0  0  0  0  0  0  0  0  0  0
   71.3570   37.8418   58.7424 C   0  0  0  0  0  0  0  0  0  0  0  0
   72.3852   37.3806   57.9308 C   0  0  0  0  0  0  0  0  0  0  0  0
   72.6983   36.0327   57.8653 C   0  0  0  0  0  0  0  0  0  0  0  0
   74.9961   33.1298   50.2257 C   0  0  0  0  0  0  0  0  0  0  0  0
   76.0254   34.0475   49.6919 C   0  0  0  0  0  0  0  0  0  0  0  0
   76.2530   34.1080   48.3388 C   0  0  0  0  0  0  0  0  0  0  0  0
   77.1931   34.9433   47.7723 C   0  0  0  0  0  0  0  0  0  0  0  0
   77.9429   35.7572   48.5954 C   0  0  0  0  0  0  0  0  0  0  0  0
   77.7423   35.7240   49.9571 C   0  0  0  0  0  0  0  0  0  0  0  0
   76.7834   34.8679   50.4961 C   0  0  0  0  0  0  0  0  0  0  0  0
  8  9  2  0
  9 10  1  0
  9  1  1  0
 11 10  1  6
 11 12  1  0
 11 20  1  0
 12 13  1  0
 13 14  1  0
 14 15  1  0
 15 16  2  0
 15 20  1  0
 16 17  1  0
 17 18  2  0
 18 19  1  0
 19 20  2  0
  1  2  1  0
  1  7  2  0
  2  3  2  0
  3  4  1  0
  4  5  2  0
  4  6  1  0
  6 21  1  0
  6  7  1  0
 21 22  1  0
 22 23  2  0
 22 27  1  0
 23 24  1  0
 24 25  2  0
 25 26  1  0
 26 27  2  0
M  END
>  <minimizedAffinity>  (48) 
-8.56117

$$$$
cs_full_output_folder/data/smiles/7143.pdb
     RDKit          3D

 26 28  0  0  0  0  0  0  0  0999 V2000
   70.3009   47.1692   57.8793 C   0  0  0  0  0  0  0  0  0  0  0  0
   69.3834   46.3097   57.7602 O   0  0  0  0  0  0  0  0  0  0  0  0
   70.2220   48.4053   57.1629 N   0  0  0  0  0  0  0  0  0  0  0  0
   71.1935   46.3560   59.9095 O   0  0  0  0  0  0  0  0  0  0  0  0
   71.4180   46.8581   58.7581 C   0  0  0  0  0  0  0  0  0  0  0  0
   72.7542   47.1063   58.3553 N   0  0  0  0  0  0  0  0  0  0  0  0
   73.9129   46.8213   59.1839 C   0  0  0  0  0  0  0  0  0  0  0  0
   74.9308   45.9744   58.4670 C   0  0  0  0  0  0  0  0  0  0  0  0
   74.6151   44.5348   58.5250 C   0  0  0  0  0  0  0  0  0  0  0  0
   73.7038   44.0508   57.6890 C   0  0  0  0  0  0  0  0  0  0  0  0
   73.2601   42.6535   57.5995 C   0  0  0  0  0  0  0  0  0  0  0  0
   73.7876   41.7925   58.7223 C   0  0  0  0  0  0  0  0  0  0  0  0
   75.2022   42.1863   59.0873 C   0  0  0  0  0  0  0  0  0  0  0  0
   75.2905   43.6234   59.4962 C   0  0  0  0  0  0  0  0  0  0  0  0
   69.0914   48.6450   56.3159 C   0  0  0  0  0  0  0  0  0  0  0  0
   69.4885   48.6631   54.8760 C   0  0  0  0  0  0  0  0  0  0  0  0
   70.3549   49.5650   54.3625 N   0  0  0  0  0  0  0  0  0  0  0  0
   70.7247   49.6086   53.1034 N   0  0  0  0  0  0  0  0  0  0  0  0
   70.2032   48.6878   52.2535 C   0  0  0  0  0  0  0  0  0  0  0  0
   70.5827   48.7658   51.0608 O   0  0  0  0  0  0  0  0  0  0  0  0
   69.3159   47.7320   52.6817 C   0  0  0  0  0  0  0  0  0  0  0  0
   68.8213   46.8268   51.7786 C   0  0  0  0  0  0  0  0  0  0  0  0
   67.9123   45.8391   52.1858 C   0  0  0  0  0  0  0  0  0  0  0  0
   67.5517   45.8295   53.5178 C   0  0  0  0  0  0  0  0  0  0  0  0
   68.0679   46.7548   54.4009 C   0  0  0  0  0  0  0  0  0  0  0  0
   68.9604   47.7293   54.0108 C   0  0  0  0  0  0  0  0  0  0  0  0
  4  5  2  0
  5  6  1  0
  5  1  1  0
  6  7  1  0
  7  8  1  0
  8  9  1  0
  9 10  2  0
  9 14  1  0
 10 11  1  0
 11 12  1  0
 12 13  1  0
 13 14  1  0
  1  2  2  0
  1  3  1  0
  3 15  1  0
 15 16  1  0
 16 17  2  0
 16 26  1  0
 17 18  1  0
 18 19  1  0
 19 20  2  0
 19 21  1  0
 21 22  1  0
 21 26  2  0
 22 23  2  0
 23 24  1  0
 24 25  2  0
 25 26  1  0
M  END
>  <minimizedAffinity>  (49) 
-8.88494

$$$$
cs_full_output_folder/data/smiles/7158.pdb
     RDKit          3D

 23 25  0  0  0  0  0  0  0  0999 V2000
   68.8447   48.4138   56.2877 C   0  0  0  0  0  0  0  0  0  0  0  0
   69.2805   48.4952   54.8749 C   0  0  0  0  0  0  0  0  0  0  0  0
   70.1380   49.4331   54.4605 N   0  0  0  0  0  0  0  0  0  0  0  0
   70.5656   49.5472   53.2102 N   0  0  0  0  0  0  0  0  0  0  0  0
   70.1221   48.6715   52.2744 C   0  0  0  0  0  0  0  0  0  0  0  0
   70.5351   48.7851   51.0770 O   0  0  0  0  0  0  0  0  0  0  0  0
   69.2355   47.6668   52.6003 C   0  0  0  0  0  0  0  0  0  0  0  0
   68.7721   46.7670   51.6652 C   0  0  0  0  0  0  0  0  0  0  0  0
   67.8830   45.7636   51.9994 C   0  0  0  0  0  0  0  0  0  0  0  0
   67.4716   45.6917   53.3106 C   0  0  0  0  0  0  0  0  0  0  0  0
   67.9332   46.5920   54.2561 C   0  0  0  0  0  0  0  0  0  0  0  0
   68.8197   47.5943   53.9284 C   0  0  0  0  0  0  0  0  0  0  0  0
   71.0254   48.5615   57.1773 O   0  0  0  0  0  0  0  0  0  0  0  0
   69.9856   47.8783   57.1373 C   0  0  0  0  0  0  0  0  0  0  0  0
   69.8285   46.6752   57.8223 N   0  0  0  0  0  0  0  0  0  0  0  0
   70.7841   46.0378   58.6478 C   0  0  0  0  0  0  0  0  0  0  0  0
   71.3786   44.7796   58.1977 C   0  0  0  0  0  0  0  0  0  0  0  0
   70.5093   43.7061   57.9723 C   0  0  0  0  0  0  0  0  0  0  0  0
   70.9929   42.4695   57.6314 C   0  0  0  0  0  0  0  0  0  0  0  0
   72.3346   42.2045   57.4883 C   0  0  0  0  0  0  0  0  0  0  0  0
   73.1982   43.2454   57.7031 C   0  0  0  0  0  0  0  0  0  0  0  0
   72.7201   44.5095   58.0502 C   0  0  0  0  0  0  0  0  0  0  0  0
   73.8907   45.8126   58.1870 Cl  0  0  0  0  0  0  0  0  0  0  0  0
 13 14  2  0
 14  1  1  0
 14 15  1  0
  1  2  1  0
  2  3  2  0
  2 12  1  0
  3  4  1  0
  4  5  1  0
  5  6  2  0
  5  7  1  0
  7  8  1  0
  7 12  2  0
  8  9  2  0
  9 10  1  0
 10 11  2  0
 11 12  1  0
 15 16  1  0
 16 17  1  0
 17 18  2  0
 17 22  1  0
 18 19  1  0
 19 20  2  0
 20 21  1  0
 21 22  2  0
 22 23  1  0
M  END
>  <minimizedAffinity>  (50) 
-8.73806

$$$$
cs_full_output_folder/data/smiles/7189.pdb
     RDKit          3D

 23 25  0  0  0  0  0  0  0  0999 V2000
   70.7254   44.0770   57.9620 C   0  0  0  0  0  0  0  0  0  0  0  0
   69.5954   43.3820   57.3464 C   0  0  0  0  0  0  0  0  0  0  0  0
   68.7530   44.0522   56.5446 N   0  0  0  0  0  0  0  0  0  0  0  0
   67.7056   43.4531   55.9599 N   0  0  0  0  0  0  0  0  0  0  0  0
   67.4263   42.1495   56.1327 C   0  0  0  0  0  0  0  0  0  0  0  0
   66.4118   41.6360   55.5473 O   0  0  0  0  0  0  0  0  0  0  0  0
   68.2492   41.4116   56.9397 C   0  0  0  0  0  0  0  0  0  0  0  0
   68.0118   40.0701   57.1531 C   0  0  0  0  0  0  0  0  0  0  0  0
   68.8542   39.3333   57.9740 C   0  0  0  0  0  0  0  0  0  0  0  0
   69.9252   39.9732   58.5652 C   0  0  0  0  0  0  0  0  0  0  0  0
   70.1509   41.3121   58.3439 C   0  0  0  0  0  0  0  0  0  0  0  0
   69.3288   42.0440   57.5388 C   0  0  0  0  0  0  0  0  0  0  0  0
   70.4908   46.1174   59.1198 O   0  0  0  0  0  0  0  0  0  0  0  0
   70.4316   45.5295   58.0145 C   0  0  0  0  0  0  0  0  0  0  0  0
   70.0837   46.2971   56.8739 N   0  0  0  0  0  0  0  0  0  0  0  0
   69.8139   47.6210   56.9104 O   0  0  0  0  0  0  0  0  0  0  0  0
   68.6003   47.8109   56.2490 C   0  0  0  0  0  0  0  0  0  0  0  0
   68.6832   47.4984   54.7998 C   0  0  0  0  0  0  0  0  0  0  0  0
   67.9715   46.4562   54.2874 C   0  0  0  0  0  0  0  0  0  0  0  0
   68.0046   46.1173   52.9590 C   0  0  0  0  0  0  0  0  0  0  0  0
   68.7967   46.8633   52.0804 C   0  0  0  0  0  0  0  0  0  0  0  0
   69.5185   47.9168   52.5903 C   0  0  0  0  0  0  0  0  0  0  0  0
   69.4643   48.2306   53.9275 C   0  0  0  0  0  0  0  0  0  0  0  0
 13 14  2  0
 14  1  1  0
 14 15  1  0
  1  2  1  0
  2  3  2  0
  2 12  1  0
  3  4  1  0
  4  5  1  0
  5  6  2  0
  5  7  1  0
  7  8  1  0
  7 12  2  0
  8  9  2  0
  9 10  1  0
 10 11  2  0
 11 12  1  0
 15 16  1  0
 16 17  1  0
 17 18  1  0
 18 19  2  0
 18 23  1  0
 19 20  1  0
 20 21  2  0
 21 22  1  0
 22 23  2  0
M  END
>  <minimizedAffinity>  (51) 
-8.59354

$$$$
cs_full_output_folder/data/smiles/7210.pdb
     RDKit          3D

 26 28  0  0  0  0  0  0  0  0999 V2000
   70.8936   48.2660   57.1795 N   0  0  0  0  0  0  0  0  0  0  0  0
   69.7789   48.7184   56.4490 C   0  0  0  0  0  0  0  0  0  0  0  0
   68.7909   49.1016   57.0556 O   0  0  0  0  0  0  0  0  0  0  0  0
   69.8296   48.7182   54.9966 C   0  0  0  0  0  0  0  0  0  0  0  0
   70.5269   49.7160   54.3807 N   0  0  0  0  0  0  0  0  0  0  0  0
   70.6324   49.8104   53.0776 N   0  0  0  0  0  0  0  0  0  0  0  0
   70.0620   48.9336   52.2546 C   0  0  0  0  0  0  0  0  0  0  0  0
   70.1978   49.0754   51.0036 O   0  0  0  0  0  0  0  0  0  0  0  0
   69.3383   47.8930   52.7752 C   0  0  0  0  0  0  0  0  0  0  0  0
   68.7363   46.9744   51.9326 C   0  0  0  0  0  0  0  0  0  0  0  0
   68.0159   45.9465   52.4909 C   0  0  0  0  0  0  0  0  0  0  0  0
   67.9067   45.8503   53.8510 C   0  0  0  0  0  0  0  0  0  0  0  0
   68.5096   46.7702   54.7131 C   0  0  0  0  0  0  0  0  0  0  0  0
   69.2315   47.8005   54.1677 C   0  0  0  0  0  0  0  0  0  0  0  0
   71.0585   48.1595   58.5822 C   0  0  0  0  0  0  0  0  0  0  0  0
   71.0823   46.8493   59.1925 C   0  0  0  0  0  0  0  0  0  0  0  0
   71.9326   44.7220   57.7419 O   0  0  0  0  0  0  0  0  0  0  0  0
   70.7259   44.6808   58.0358 C   0  0  0  0  0  0  0  0  0  0  0  0
   70.2111   45.7919   58.8122 N   0  0  0  0  0  0  0  0  0  0  0  0
   69.8973   43.5711   57.6131 C   0  0  0  0  0  0  0  0  0  0  0  0
   70.1265   42.3217   58.1870 C   0  0  0  0  0  0  0  0  0  0  0  0
   69.3793   41.2228   57.8346 C   0  0  0  0  0  0  0  0  0  0  0  0
   68.3695   41.2896   56.9025 C   0  0  0  0  0  0  0  0  0  0  0  0
   67.6500   40.1893   56.5752 F   0  0  0  0  0  0  0  0  0  0  0  0
   68.1325   42.5171   56.3285 C   0  0  0  0  0  0  0  0  0  0  0  0
   68.8888   43.6432   56.6811 C   0  0  0  0  0  0  0  0  0  0  0  0
 17 18  2  0
 18 19  1  0
 18 20  1  0
 19 16  1  0
 16 15  1  0
 15  1  1  0
  1  2  1  0
  2  3  2  0
  2  4  1  0
  4  5  2  0
  4 14  1  0
  5  6  1  0
  6  7  1  0
  7  8  2  0
  7  9  1  0
  9 10  1  0
  9 14  2  0
 10 11  2  0
 11 12  1  0
 12 13  2  0
 13 14  1  0
 20 21  2  0
 20 26  1  0
 21 22  1  0
 22 23  2  0
 23 24  1  0
 23 25  1  0
 25 26  2  0
M  END
>  <minimizedAffinity>  (52) 
-8.68754

$$$$
cs_full_output_folder/data/smiles/7242.pdb
     RDKit          3D

 27 29  0  0  0  0  0  0  0  0999 V2000
   69.6461   46.1128   57.0514 N   0  0  0  0  0  0  0  0  0  0  0  0
   69.1850   44.8698   56.9865 N   0  0  0  0  0  0  0  0  0  0  0  0
   69.8495   43.8238   57.5218 C   0  0  0  0  0  0  0  0  0  0  0  0
   71.0379   44.1215   58.1396 C   0  0  0  0  0  0  0  0  0  0  0  0
   71.5389   45.4124   58.2199 C   0  0  0  0  0  0  0  0  0  0  0  0
   70.8057   46.4293   57.6510 C   0  0  0  0  0  0  0  0  0  0  0  0
   71.2175   47.6414   57.6936 O   0  0  0  0  0  0  0  0  0  0  0  0
   69.3053   42.4645   57.4283 C   0  0  0  0  0  0  0  0  0  0  0  0
   69.7680   41.4012   58.1604 C   0  0  0  0  0  0  0  0  0  0  0  0
   69.2575   40.1205   58.0744 C   0  0  0  0  0  0  0  0  0  0  0  0
   68.2321   39.8742   57.2198 C   0  0  0  0  0  0  0  0  0  0  0  0
   67.7302   40.9128   56.4605 C   0  0  0  0  0  0  0  0  0  0  0  0
   68.2515   42.1906   56.5564 C   0  0  0  0  0  0  0  0  0  0  0  0
   72.8258   45.7185   58.8917 C   0  0  0  0  0  0  0  0  0  0  0  0
   72.6526   46.5793   59.9613 F   0  0  0  0  0  0  0  0  0  0  0  0
   73.3445   44.5231   59.3575 F   0  0  0  0  0  0  0  0  0  0  0  0
   73.7110   46.2262   57.9721 F   0  0  0  0  0  0  0  0  0  0  0  0
   68.8931   47.2201   56.4507 C   0  0  0  0  0  0  0  0  0  0  0  0
   69.3519   47.9660   52.7619 C   0  0  0  0  0  0  0  0  0  0  0  0
   68.6725   46.8931   52.1824 C   0  0  0  0  0  0  0  0  0  0  0  0
   68.0822   45.9502   52.9946 C   0  0  0  0  0  0  0  0  0  0  0  0
   68.1604   46.0635   54.3642 C   0  0  0  0  0  0  0  0  0  0  0  0
   68.8317   47.1236   54.9731 C   0  0  0  0  0  0  0  0  0  0  0  0
   69.4121   48.0516   54.1348 C   0  0  0  0  0  0  0  0  0  0  0  0
   69.9699   50.3372   52.3607 N   0  0  0  0  0  0  0  0  0  0  0  0
   69.9897   48.9840   51.9630 C   0  0  0  0  0  0  0  0  0  0  0  0
   70.5710   48.6688   50.9013 O   0  0  0  0  0  0  0  0  0  0  0  0
 25 26  1  0
 26 27  2  0
 26 19  1  0
 19 20  2  0
 19 24  1  0
 20 21  1  0
 21 22  2  0
 22 23  1  0
 23 18  1  0
 23 24  2  0
 18  1  1  0
  1  2  1  0
  1  6  1  0
  2  3  2  0
  3  8  1  0
  3  4  1  0
  8  9  2  0
  8 13  1  0
  9 10  1  0
 10 11  2  0
 11 12  1  0
 12 13  2  0
  4  5  2  0
  5 14  1  0
  5  6  1  0
 14 15  1  0
 14 16  1  0
 14 17  1  0
  6  7  2  0
M  END
>  <minimizedAffinity>  (53) 
-8.89595

$$$$
cs_full_output_folder/data/smiles/7315.pdb
     RDKit          3D

 25 28  0  0  0  0  0  0  0  0999 V2000
   69.5453   46.1638   58.1742 O   0  0  0  0  0  0  0  0  0  0  0  0
   70.5044   46.9947   58.0884 C   0  0  0  0  0  0  0  0  0  0  0  0
   70.3596   48.0127   57.1110 N   0  0  0  0  0  0  0  0  0  0  0  0
   71.6802   46.8970   58.9487 C   0  0  0  0  0  0  0  0  0  0  0  0
   71.9030   47.8393   59.9360 C   0  0  0  0  0  0  0  0  0  0  0  0
   73.0104   47.7574   60.7557 C   0  0  0  0  0  0  0  0  0  0  0  0
   73.9171   46.7370   60.6099 C   0  0  0  0  0  0  0  0  0  0  0  0
   73.7254   45.7795   59.6350 C   0  0  0  0  0  0  0  0  0  0  0  0
   74.6329   44.7557   59.4878 C   0  0  0  0  0  0  0  0  0  0  0  0
   74.4715   43.7856   58.5267 C   0  0  0  0  0  0  0  0  0  0  0  0
   73.3486   43.8940   57.7168 C   0  0  0  0  0  0  0  0  0  0  0  0
   72.4383   44.9201   57.8635 C   0  0  0  0  0  0  0  0  0  0  0  0
   72.6005   45.8830   58.8187 C   0  0  0  0  0  0  0  0  0  0  0  0
   69.1613   48.0369   56.2974 C   0  0  0  0  0  0  0  0  0  0  0  0
   69.4956   48.2419   54.8690 C   0  0  0  0  0  0  0  0  0  0  0  0
   70.3379   49.1968   54.4724 N   0  0  0  0  0  0  0  0  0  0  0  0
   70.6767   49.4341   53.2228 N   0  0  0  0  0  0  0  0  0  0  0  0
   70.1389   48.6608   52.2633 C   0  0  0  0  0  0  0  0  0  0  0  0
   70.4536   48.8760   51.0571 O   0  0  0  0  0  0  0  0  0  0  0  0
   69.2605   47.6539   52.5876 C   0  0  0  0  0  0  0  0  0  0  0  0
   68.7091   46.8647   51.6222 C   0  0  0  0  0  0  0  0  0  0  0  0
   67.8291   45.8565   51.9598 C   0  0  0  0  0  0  0  0  0  0  0  0
   67.5040   45.6473   53.2977 C   0  0  0  0  0  0  0  0  0  0  0  0
   68.0494   46.4345   54.2973 C   0  0  0  0  0  0  0  0  0  0  0  0
   68.9235   47.4298   53.9222 C   0  0  0  0  0  0  0  0  0  0  0  0
  1  2  2  0
  2  3  1  0
  2  4  1  0
  3 14  1  0
 14 15  1  0
 15 16  2  0
 15 25  1  0
 16 17  1  0
 17 18  1  0
 18 19  2  0
 18 20  1  0
 20 21  1  0
 20 25  2  0
 21 22  2  0
 22 23  1  0
 23 24  2  0
 24 25  1  0
  4  5  2  0
  4 13  1  0
  5  6  1  0
  6  7  2  0
  7  8  1  0
  8  9  1  0
  8 13  2  0
  9 10  2  0
 10 11  1  0
 11 12  2  0
 12 13  1  0
M  END
>  <minimizedAffinity>  (54) 
-8.53257

$$$$
cs_full_output_folder/data/smiles/7318.pdb
     RDKit          3D

 26 28  0  0  0  0  0  0  0  0999 V2000
   69.5065   47.4161   57.7495 O   0  0  0  0  0  0  0  0  0  0  0  0
   71.4170   46.8052   58.9816 C   0  0  0  0  0  0  0  0  0  0  0  0
   70.5358   46.4784   57.7957 C   0  0  1  0  0  0  0  0  0  0  0  0
   69.9571   45.1049   58.0780 C   0  0  0  0  0  0  0  0  0  0  0  0
   69.7618   44.7814   59.2648 O   0  0  0  0  0  0  0  0  0  0  0  0
   69.6465   44.2119   57.0495 N   0  0  0  0  0  0  0  0  0  0  0  0
   69.0977   42.9212   57.1097 C   0  0  0  0  0  0  0  0  0  0  0  0
   69.7105   41.9807   57.9705 C   0  0  0  0  0  0  0  0  0  0  0  0
   69.2830   40.6879   58.0917 C   0  0  0  0  0  0  0  0  0  0  0  0
   68.2006   40.2702   57.3414 C   0  0  0  0  0  0  0  0  0  0  0  0
   67.5708   41.1487   56.4904 C   0  0  0  0  0  0  0  0  0  0  0  0
   68.0345   42.4816   56.3831 C   0  0  0  0  0  0  0  0  0  0  0  0
   67.4067   43.2965   55.5094 F   0  0  0  0  0  0  0  0  0  0  0  0
   68.7146   47.7128   56.6973 C   0  0  0  0  0  0  0  0  0  0  0  0
   67.4587   47.6799   56.9454 O   0  0  0  0  0  0  0  0  0  0  0  0
   69.1393   48.0521   55.3581 C   0  0  0  0  0  0  0  0  0  0  0  0
   69.9733   49.1692   55.1768 C   0  0  0  0  0  0  0  0  0  0  0  0
   70.3980   49.5142   53.9334 C   0  0  0  0  0  0  0  0  0  0  0  0
   71.1616   50.5334   53.7433 O   0  0  0  0  0  0  0  0  0  0  0  0
   70.0536   48.8243   52.8401 N   0  0  0  0  0  0  0  0  0  0  0  0
   69.2627   47.7547   52.9613 C   0  0  0  0  0  0  0  0  0  0  0  0
   68.8854   47.0208   51.8540 C   0  0  0  0  0  0  0  0  0  0  0  0
   68.0710   45.9214   51.9781 C   0  0  0  0  0  0  0  0  0  0  0  0
   67.6003   45.5069   53.1868 C   0  0  0  0  0  0  0  0  0  0  0  0
   67.9788   46.2484   54.3175 C   0  0  0  0  0  0  0  0  0  0  0  0
   68.7936   47.3533   54.2259 C   0  0  0  0  0  0  0  0  0  0  0  0
  3  2  1  1
  3  1  1  0
  3  4  1  0
  1 14  1  0
 14 15  2  0
 14 16  1  0
 16 17  2  0
 16 26  1  0
 17 18  1  0
 18 19  2  0
 18 20  1  0
 20 21  1  0
 21 22  1  0
 21 26  2  0
 22 23  2  0
 23 24  1  0
 24 25  2  0
 25 26  1  0
  4  5  2  0
  4  6  1  0
  6  7  1  0
  7  8  2  0
  7 12  1  0
  8  9  1  0
  9 10  2  0
 10 11  1  0
 11 12  2  0
 12 13  1  0
M  END
>  <minimizedAffinity>  (55) 
-9.54025

$$$$
cs_full_output_folder/data/smiles/7544.pdb
     RDKit          3D

 23 25  0  0  0  0  0  0  0  0999 V2000
   72.0406   49.8134   54.9924 O   0  0  0  0  0  0  0  0  0  0  0  0
   71.0387   50.2487   54.3248 C   0  0  0  0  0  0  0  0  0  0  0  0
   70.7848   51.6276   54.4538 N   0  0  0  0  0  0  0  0  0  0  0  0
   70.3121   49.2831   53.5288 C   0  0  0  0  0  0  0  0  0  0  0  0
   70.4512   49.3844   52.1721 N   0  0  0  0  0  0  0  0  0  0  0  0
   69.8413   48.5501   51.3590 N   0  0  0  0  0  0  0  0  0  0  0  0
   69.0545   47.5564   51.7993 C   0  0  0  0  0  0  0  0  0  0  0  0
   68.4838   46.7743   50.9638 O   0  0  0  0  0  0  0  0  0  0  0  0
   68.8629   47.3821   53.1478 C   0  0  0  0  0  0  0  0  0  0  0  0
   68.0817   46.3492   53.6125 C   0  0  0  0  0  0  0  0  0  0  0  0
   67.9377   46.1834   54.9706 C   0  0  0  0  0  0  0  0  0  0  0  0
   68.5856   47.0591   55.8077 C   0  0  0  0  0  0  0  0  0  0  0  0
   69.3762   48.1062   55.3607 C   0  0  0  0  0  0  0  0  0  0  0  0
   69.5172   48.2760   54.0048 C   0  0  0  0  0  0  0  0  0  0  0  0
   71.5063   52.5626   55.2551 C   0  0  0  0  0  0  0  0  0  0  0  0
   70.6127   53.1603   56.3139 C   0  0  0  0  0  0  0  0  0  0  0  0
   69.6056   52.1941   56.8004 C   0  0  0  0  0  0  0  0  0  0  0  0
   68.3126   52.1633   56.3314 C   0  0  0  0  0  0  0  0  0  0  0  0
   67.3777   51.2532   56.7880 C   0  0  0  0  0  0  0  0  0  0  0  0
   67.7234   50.3412   57.7388 C   0  0  0  0  0  0  0  0  0  0  0  0
   66.5618   49.1611   58.3506 Cl  0  0  0  0  0  0  0  0  0  0  0  0
   69.0172   50.3561   58.2220 C   0  0  0  0  0  0  0  0  0  0  0  0
   69.9602   51.2550   57.7782 C   0  0  0  0  0  0  0  0  0  0  0  0
  1  2  2  0
  2  3  1  0
  2  4  1  0
  3 15  1  0
 15 16  1  0
 16 17  1  0
 17 18  2  0
 17 23  1  0
 18 19  1  0
 19 20  2  0
 20 21  1  0
 20 22  1  0
 22 23  2  0
  4  5  2  0
  4 14  1  0
  5  6  1  0
  6  7  1  0
  7  8  2  0
  7  9  1  0
  9 10  1  0
  9 14  2  0
 10 11  2  0
 11 12  1  0
 12 13  2  0
 13 14  1  0
M  END
>  <minimizedAffinity>  (56) 
-8.80095

$$$$
cs_full_output_folder/data/smiles/7719.pdb
     RDKit          3D

 25 27  0  0  0  0  0  0  0  0999 V2000
   71.0702   45.8561   57.8597 O   0  0  0  0  0  0  0  0  0  0  0  0
   70.0187   45.3523   57.4200 C   0  0  0  0  0  0  0  0  0  0  0  0
   69.1117   46.1789   56.7438 N   0  0  0  0  0  0  0  0  0  0  0  0
   69.7826   43.9047   57.6334 C   0  0  0  0  0  0  0  0  0  0  0  0
   70.3768   43.1607   58.6150 C   0  0  0  0  0  0  0  0  0  0  0  0
   70.0817   41.7944   58.7522 C   0  0  0  0  0  0  0  0  0  0  0  0
   69.1949   41.1577   57.9132 C   0  0  0  0  0  0  0  0  0  0  0  0
   68.6012   41.9166   56.9236 C   0  0  0  0  0  0  0  0  0  0  0  0
   68.8954   43.2600   56.7958 C   0  0  0  0  0  0  0  0  0  0  0  0
   68.9040   39.6916   58.0761 C   0  0  0  0  0  0  0  0  0  0  0  0
   68.0087   39.3065   57.1258 F   0  0  0  0  0  0  0  0  0  0  0  0
   68.3440   39.4352   59.3120 F   0  0  0  0  0  0  0  0  0  0  0  0
   70.0639   38.9676   57.9616 F   0  0  0  0  0  0  0  0  0  0  0  0
   69.1443   47.5746   56.4469 C   0  0  0  0  0  0  0  0  0  0  0  0
   69.2999   47.8536   55.0463 C   0  0  0  0  0  0  0  0  0  0  0  0
   70.1373   48.9092   54.7573 N   0  0  0  0  0  0  0  0  0  0  0  0
   70.4569   49.2353   53.5366 N   0  0  0  0  0  0  0  0  0  0  0  0
   70.0068   48.5866   52.4619 C   0  0  0  0  0  0  0  0  0  0  0  0
   70.3532   48.9483   51.2963 O   0  0  0  0  0  0  0  0  0  0  0  0
   69.1620   47.5198   52.6518 C   0  0  0  0  0  0  0  0  0  0  0  0
   68.6529   46.8524   51.5673 C   0  0  0  0  0  0  0  0  0  0  0  0
   67.7727   45.8054   51.8078 C   0  0  0  0  0  0  0  0  0  0  0  0
   67.4285   45.4579   53.1083 C   0  0  0  0  0  0  0  0  0  0  0  0
   67.9409   46.1275   54.1758 C   0  0  0  0  0  0  0  0  0  0  0  0
   68.8302   47.1828   53.9583 C   0  0  0  0  0  0  0  0  0  0  0  0
  1  2  2  0
  2  3  1  0
  2  4  1  0
  3 14  1  0
 14 15  1  0
 15 16  2  0
 15 25  1  0
 16 17  1  0
 17 18  1  0
 18 19  2  0
 18 20  1  0
 20 21  1  0
 20 25  2  0
 21 22  2  0
 22 23  1  0
 23 24  2  0
 24 25  1  0
  4  5  2  0
  4  9  1  0
  5  6  1  0
  6  7  2  0
  7 10  1  0
  7  8  1  0
 10 11  1  0
 10 12  1  0
 10 13  1  0
  8  9  2  0
M  END
>  <minimizedAffinity>  (57) 
-8.58226

$$$$
cs_full_output_folder/data/smiles/7874.pdb
     RDKit          3D

 25 27  0  0  0  0  0  0  0  0999 V2000
   70.9873   48.2229   57.3021 O   0  0  0  0  0  0  0  0  0  0  0  0
   69.9186   47.6243   57.0383 C   0  0  0  0  0  0  0  0  0  0  0  0
   69.7865   46.2890   57.4721 N   0  0  0  0  0  0  0  0  0  0  0  0
   70.7887   45.5795   58.1905 C   0  0  0  0  0  0  0  0  0  0  0  0
   71.2644   46.0776   59.3848 C   0  0  0  0  0  0  0  0  0  0  0  0
   72.2454   45.4113   60.1145 C   0  0  0  0  0  0  0  0  0  0  0  0
   72.7784   44.2218   59.6660 C   0  0  0  0  0  0  0  0  0  0  0  0
   72.3048   43.7217   58.4719 C   0  0  0  0  0  0  0  0  0  0  0  0
   71.3195   44.3902   57.7384 C   0  0  0  0  0  0  0  0  0  0  0  0
   72.8487   42.4531   57.9577 C   0  0  0  0  0  0  0  0  0  0  0  0
   71.8618   41.5403   57.6477 F   0  0  0  0  0  0  0  0  0  0  0  0
   73.7351   41.9619   58.8920 F   0  0  0  0  0  0  0  0  0  0  0  0
   73.5562   42.6913   56.8010 F   0  0  0  0  0  0  0  0  0  0  0  0
   68.8748   48.3609   56.2917 C   0  0  0  0  0  0  0  0  0  0  0  0
   69.3004   48.5146   54.8795 C   0  0  0  0  0  0  0  0  0  0  0  0
   70.1285   49.4704   54.4453 N   0  0  0  0  0  0  0  0  0  0  0  0
   70.4971   49.5918   53.1757 N   0  0  0  0  0  0  0  0  0  0  0  0
   70.0600   48.7491   52.2166 C   0  0  0  0  0  0  0  0  0  0  0  0
   70.4141   48.8703   51.0157 O   0  0  0  0  0  0  0  0  0  0  0  0
   69.2017   47.7451   52.6171 C   0  0  0  0  0  0  0  0  0  0  0  0
   68.7098   46.8423   51.6942 C   0  0  0  0  0  0  0  0  0  0  0  0
   67.8507   45.8188   52.0320 C   0  0  0  0  0  0  0  0  0  0  0  0
   67.4840   45.7185   53.3612 C   0  0  0  0  0  0  0  0  0  0  0  0
   67.9669   46.6178   54.3150 C   0  0  0  0  0  0  0  0  0  0  0  0
   68.8153   47.6160   53.9364 C   0  0  0  0  0  0  0  0  0  0  0  0
  1  2  2  0
  2 14  1  0
  2  3  1  0
 14 15  1  0
 15 16  2  0
 15 25  1  0
 16 17  1  0
 17 18  1  0
 18 19  2  0
 18 20  1  0
 20 21  1  0
 20 25  2  0
 21 22  2  0
 22 23  1  0
 23 24  2  0
 24 25  1  0
  3  4  1  0
  4  5  2  0
  4  9  1  0
  5  6  1  0
  6  7  2  0
  7  8  1  0
  8 10  1  0
  8  9  2  0
 10 11  1  0
 10 12  1  0
 10 13  1  0
M  END
>  <minimizedAffinity>  (58) 
-8.55833

$$$$
cs_full_output_folder/data/smiles/7959.pdb
     RDKit          3D

 23 25  0  0  0  0  0  0  0  0999 V2000
   68.9415   47.9594   56.2630 C   0  0  0  0  0  0  0  0  0  0  0  0
   69.4025   48.1810   54.8994 C   0  0  0  0  0  0  0  0  0  0  0  0
   70.3345   49.0864   54.5690 N   0  0  0  0  0  0  0  0  0  0  0  0
   70.7322   49.2609   53.3093 N   0  0  0  0  0  0  0  0  0  0  0  0
   70.2429   48.5553   52.2791 C   0  0  0  0  0  0  0  0  0  0  0  0
   70.6124   48.7137   51.0897 O   0  0  0  0  0  0  0  0  0  0  0  0
   69.2786   47.6058   52.5538 C   0  0  0  0  0  0  0  0  0  0  0  0
   68.7215   46.8331   51.5325 C   0  0  0  0  0  0  0  0  0  0  0  0
   67.7604   45.8913   51.8300 C   0  0  0  0  0  0  0  0  0  0  0  0
   67.3366   45.6974   53.1253 C   0  0  0  0  0  0  0  0  0  0  0  0
   67.9012   46.4713   54.1122 C   0  0  0  0  0  0  0  0  0  0  0  0
   68.8664   47.4268   53.8666 C   0  0  0  0  0  0  0  0  0  0  0  0
   70.6021   47.0846   57.7871 O   0  0  0  0  0  0  0  0  0  0  0  0
   69.6713   46.8832   56.9761 C   0  0  0  0  0  0  0  0  0  0  0  0
   69.2763   45.5418   56.7078 N   0  0  0  0  0  0  0  0  0  0  0  0
   69.8676   44.3860   57.3038 C   0  0  0  0  0  0  0  0  0  0  0  0
   69.1294   43.1408   57.0849 C   0  0  0  0  0  0  0  0  0  0  0  0
   69.4814   42.0076   57.7811 C   0  0  0  0  0  0  0  0  0  0  0  0
   68.8206   40.8102   57.6137 C   0  0  0  0  0  0  0  0  0  0  0  0
   67.7701   40.7240   56.7248 C   0  0  0  0  0  0  0  0  0  0  0  0
   67.4324   41.8742   56.0353 C   0  0  0  0  0  0  0  0  0  0  0  0
   66.0853   41.7479   54.9020 Cl  0  0  0  0  0  0  0  0  0  0  0  0
   68.0840   43.0751   56.1936 C   0  0  0  0  0  0  0  0  0  0  0  0
 13 14  2  0
 14  1  1  0
 14 15  1  0
  1  2  1  0
  2  3  2  0
  2 12  1  0
  3  4  1  0
  4  5  1  0
  5  6  2  0
  5  7  1  0
  7  8  1  0
  7 12  2  0
  8  9  2  0
  9 10  1  0
 10 11  2  0
 11 12  1  0
 15 16  1  0
 16 17  1  0
 17 18  2  0
 17 23  1  0
 18 19  1  0
 19 20  2  0
 20 21  1  0
 21 22  1  0
 21 23  2  0
M  END
>  <minimizedAffinity>  (59) 
-9.20128

$$$$
cs_full_output_folder/data/smiles/8039.pdb
     RDKit          3D

 26 28  0  0  0  0  0  0  0  0999 V2000
   69.3237   45.4250   56.9987 O   0  0  0  0  0  0  0  0  0  0  0  0
   69.6393   46.6059   57.2325 C   0  0  0  0  0  0  0  0  0  0  0  0
   70.7449   46.8685   58.0696 N   0  0  0  0  0  0  0  0  0  0  0  0
   71.5372   45.8551   58.6722 C   0  0  0  0  0  0  0  0  0  0  0  0
   71.9149   44.7205   57.9844 C   0  0  0  0  0  0  0  0  0  0  0  0
   72.6850   43.7787   58.6377 C   0  0  0  0  0  0  0  0  0  0  0  0
   73.0686   43.9709   59.9547 C   0  0  0  0  0  0  0  0  0  0  0  0
   72.6906   45.0821   60.6075 N   0  0  0  0  0  0  0  0  0  0  0  0
   71.9380   46.0057   59.9725 C   0  0  0  0  0  0  0  0  0  0  0  0
   71.5833   47.0485   60.5836 O   0  0  0  0  0  0  0  0  0  0  0  0
   73.1089   42.5434   57.9275 C   0  0  0  0  0  0  0  0  0  0  0  0
   73.7059   42.8711   56.7493 F   0  0  0  0  0  0  0  0  0  0  0  0
   73.9266   41.8020   58.7503 F   0  0  0  0  0  0  0  0  0  0  0  0
   71.9549   41.8259   57.6165 F   0  0  0  0  0  0  0  0  0  0  0  0
   68.8213   47.6976   56.6090 C   0  0  0  0  0  0  0  0  0  0  0  0
   69.3082   48.0064   55.2747 C   0  0  0  0  0  0  0  0  0  0  0  0
   70.2384   48.9615   55.1008 N   0  0  0  0  0  0  0  0  0  0  0  0
   70.7170   49.2832   53.9077 N   0  0  0  0  0  0  0  0  0  0  0  0
   70.3083   48.6789   52.7783 C   0  0  0  0  0  0  0  0  0  0  0  0
   70.7710   48.9936   51.6456 O   0  0  0  0  0  0  0  0  0  0  0  0
   69.3659   47.6989   52.8763 C   0  0  0  0  0  0  0  0  0  0  0  0
   68.8917   47.0306   51.7677 C   0  0  0  0  0  0  0  0  0  0  0  0
   67.9334   46.0366   51.8684 C   0  0  0  0  0  0  0  0  0  0  0  0
   67.4368   45.7046   53.1236 C   0  0  0  0  0  0  0  0  0  0  0  0
   67.9323   46.3937   54.2162 C   0  0  0  0  0  0  0  0  0  0  0  0
   68.8750   47.3724   54.1246 C   0  0  0  0  0  0  0  0  0  0  0  0
  1  2  2  0
  2 15  1  0
  2  3  1  0
 15 16  1  0
 16 17  2  0
 16 26  1  0
 17 18  1  0
 18 19  1  0
 19 20  2  0
 19 21  1  0
 21 22  1  0
 21 26  2  0
 22 23  2  0
 23 24  1  0
 24 25  2  0
 25 26  1  0
  3  4  1  0
  4  5  2  0
  4  9  1  0
  5  6  1  0
  6 11  1  0
  6  7  2  0
 11 12  1  0
 11 13  1  0
 11 14  1  0
  7  8  1  0
  8  9  1  0
  9 10  2  0
M  END
>  <minimizedAffinity>  (60) 
-9.05398

$$$$
cs_full_output_folder/data/smiles/8155.pdb
     RDKit          3D

 23 25  0  0  0  0  0  0  0  0999 V2000
   71.9766   49.9256   54.9658 O   0  0  0  0  0  0  0  0  0  0  0  0
   70.9591   50.3080   54.2969 C   0  0  0  0  0  0  0  0  0  0  0  0
   70.6113   51.6600   54.4446 N   0  0  0  0  0  0  0  0  0  0  0  0
   70.2988   49.2986   53.4887 C   0  0  0  0  0  0  0  0  0  0  0  0
   70.4364   49.3689   52.1197 N   0  0  0  0  0  0  0  0  0  0  0  0
   69.8559   48.4967   51.3472 N   0  0  0  0  0  0  0  0  0  0  0  0
   69.0985   47.4852   51.8001 C   0  0  0  0  0  0  0  0  0  0  0  0
   68.5660   46.6719   50.9755 O   0  0  0  0  0  0  0  0  0  0  0  0
   68.9071   47.3439   53.1550 C   0  0  0  0  0  0  0  0  0  0  0  0
   68.1053   46.3229   53.6144 C   0  0  0  0  0  0  0  0  0  0  0  0
   67.9023   46.2233   54.9729 C   0  0  0  0  0  0  0  0  0  0  0  0
   68.5021   47.1393   55.8025 C   0  0  0  0  0  0  0  0  0  0  0  0
   69.3110   48.1648   55.3310 C   0  0  0  0  0  0  0  0  0  0  0  0
   69.5269   48.2779   53.9867 C   0  0  0  0  0  0  0  0  0  0  0  0
   71.3489   52.5965   55.2726 C   0  0  0  0  0  0  0  0  0  0  0  0
   70.5805   53.1013   56.4489 C   0  0  0  0  0  0  0  0  0  0  0  0
   69.6532   52.1049   57.0284 C   0  0  0  0  0  0  0  0  0  0  0  0
   70.1690   51.1105   57.8230 C   0  0  0  0  0  0  0  0  0  0  0  0
   69.3387   50.1508   58.3893 C   0  0  0  0  0  0  0  0  0  0  0  0
   67.9830   50.1784   58.1635 C   0  0  0  0  0  0  0  0  0  0  0  0
   67.4446   51.1798   57.3607 C   0  0  0  0  0  0  0  0  0  0  0  0
   66.1065   51.1860   57.1532 F   0  0  0  0  0  0  0  0  0  0  0  0
   68.2955   52.1262   56.8087 C   0  0  0  0  0  0  0  0  0  0  0  0
  1  2  2  0
  2  3  1  0
  2  4  1  0
  3 15  1  0
 15 16  1  0
 16 17  1  0
 17 18  2  0
 17 23  1  0
 18 19  1  0
 19 20  2  0
 20 21  1  0
 21 22  1  0
 21 23  2  0
  4  5  2  0
  4 14  1  0
  5  6  1  0
  6  7  1  0
  7  8  2  0
  7  9  1  0
  9 10  1  0
  9 14  2  0
 10 11  2  0
 11 12  1  0
 12 13  2  0
 13 14  1  0
M  END
>  <minimizedAffinity>  (61) 
-8.88850

$$$$
cs_full_output_folder/data/smiles/8207.pdb
     RDKit          3D

 19 21  0  0  0  0  0  0  0  0999 V2000
   70.6540   48.5167   50.8287 O   0  0  0  0  0  0  0  0  0  0  0  0
   70.3919   48.4783   52.0639 C   0  0  0  0  0  0  0  0  0  0  0  0
   71.0624   49.2836   52.8970 N   0  0  0  0  0  0  0  0  0  0  0  0
   70.8405   49.2898   54.1854 N   0  0  0  0  0  0  0  0  0  0  0  0
   69.9058   48.4771   54.7975 C   0  0  0  0  0  0  0  0  0  0  0  0
   69.2271   47.6624   53.9609 C   0  0  0  0  0  0  0  0  0  0  0  0
   68.2808   46.7998   54.4592 C   0  0  0  0  0  0  0  0  0  0  0  0
   67.5959   45.9652   53.6088 C   0  0  0  0  0  0  0  0  0  0  0  0
   67.8289   45.9642   52.2553 C   0  0  0  0  0  0  0  0  0  0  0  0
   68.7682   46.8106   51.7192 C   0  0  0  0  0  0  0  0  0  0  0  0
   69.4413   47.6336   52.5817 C   0  0  0  0  0  0  0  0  0  0  0  0
   69.7625   48.6392   56.2503 C   0  0  0  0  0  0  0  0  0  0  0  0
   68.5860   49.3894   56.7117 C   0  0  0  0  0  0  0  0  0  0  0  0
   67.6415   48.6288   57.4221 C   0  0  0  0  0  0  0  0  0  0  0  0
   66.5309   49.2062   58.0333 C   0  0  0  0  0  0  0  0  0  0  0  0
   66.3492   50.5632   57.9391 C   0  0  0  0  0  0  0  0  0  0  0  0
   67.2680   51.3196   57.2445 C   0  0  0  0  0  0  0  0  0  0  0  0
   68.3812   50.7026   56.6369 C   0  0  0  0  0  0  0  0  0  0  0  0
   69.3785   51.7654   55.6782 Cl  0  0  0  0  0  0  0  0  0  0  0  0
  1  2  2  0
  2  3  1  0
  2 11  1  0
  3  4  1  0
  4  5  2  0
  5 12  1  0
  5  6  1  0
 12 13  1  0
 13 14  2  0
 13 18  1  0
 14 15  1  0
 15 16  2  0
 16 17  1  0
 17 18  2  0
 18 19  1  0
  6  7  1  0
  6 11  2  0
  7  8  2  0
  8  9  1  0
  9 10  2  0
 10 11  1  0
M  END
>  <minimizedAffinity>  (62) 
-8.81559

$$$$
cs_full_output_folder/data/smiles/8349.pdb
     RDKit          3D

 24 26  0  0  0  0  0  0  0  0999 V2000
   70.6277   46.8676   57.9614 C   0  0  0  0  0  0  0  0  0  0  0  0
   69.4746   46.4204   58.0503 O   0  0  0  0  0  0  0  0  0  0  0  0
   70.7859   48.0075   57.0951 N   0  0  0  0  0  0  0  0  0  0  0  0
   71.8142   46.3283   58.6623 C   0  0  2  0  0  0  0  0  0  0  0  0
   72.0576   44.9150   58.2734 C   0  0  0  0  0  0  0  0  0  0  0  0
   73.3236   44.4353   57.9216 C   0  0  0  0  0  0  0  0  0  0  0  0
   73.5368   43.1243   57.5571 C   0  0  0  0  0  0  0  0  0  0  0  0
   72.4840   42.2482   57.5345 C   0  0  0  0  0  0  0  0  0  0  0  0
   71.2349   42.6667   57.8688 C   0  0  0  0  0  0  0  0  0  0  0  0
   71.0427   43.9990   58.2338 C   0  0  0  0  0  0  0  0  0  0  0  0
   72.7053   47.6683   60.5838 C   0  0  0  0  0  0  0  0  0  0  0  0
   71.8271   46.5363   60.1340 C   0  0  0  0  0  0  0  0  0  0  0  0
   69.6717   48.5677   56.3937 C   0  0  0  0  0  0  0  0  0  0  0  0
   69.8588   48.6017   54.9299 C   0  0  0  0  0  0  0  0  0  0  0  0
   70.6780   49.5001   54.3537 N   0  0  0  0  0  0  0  0  0  0  0  0
   70.8775   49.5685   53.0457 N   0  0  0  0  0  0  0  0  0  0  0  0
   70.2670   48.7333   52.1912 C   0  0  0  0  0  0  0  0  0  0  0  0
   70.4457   48.7864   50.9522 O   0  0  0  0  0  0  0  0  0  0  0  0
   69.4148   47.7916   52.7295 C   0  0  0  0  0  0  0  0  0  0  0  0
   68.7353   46.8820   51.9265 C   0  0  0  0  0  0  0  0  0  0  0  0
   67.8878   45.9495   52.4880 C   0  0  0  0  0  0  0  0  0  0  0  0
   67.7037   45.9084   53.8682 C   0  0  0  0  0  0  0  0  0  0  0  0
   68.3620   46.7962   54.6923 C   0  0  0  0  0  0  0  0  0  0  0  0
   69.2027   47.7166   54.1035 C   0  0  0  0  0  0  0  0  0  0  0  0
 11 12  1  0
  4 12  1  1
  4  1  1  0
  4  5  1  0
  1  2  2  0
  1  3  1  0
  3 13  1  0
 13 14  1  0
 14 15  2  0
 14 24  1  0
 15 16  1  0
 16 17  1  0
 17 18  2  0
 17 19  1  0
 19 20  1  0
 19 24  2  0
 20 21  2  0
 21 22  1  0
 22 23  2  0
 23 24  1  0
  5  6  2  0
  5 10  1  0
  6  7  1  0
  7  8  2  0
  8  9  1  0
  9 10  2  0
M  END
>  <minimizedAffinity>  (63) 
-8.84230

$$$$
cs_full_output_folder/data/smiles/8483.pdb
     RDKit          3D

 28 31  0  0  0  0  0  0  0  0999 V2000
   71.8156   47.4781   57.9470 O   0  0  0  0  0  0  0  0  0  0  0  0
   70.9661   46.6835   58.4007 C   0  0  0  0  0  0  0  0  0  0  0  0
   69.6189   46.7942   57.9606 N   0  0  0  0  0  0  0  0  0  0  0  0
   69.2180   47.8121   56.9968 C   0  0  0  0  0  0  0  0  0  0  0  0
   68.8024   47.0857   55.7636 C   0  0  0  0  0  0  0  0  0  0  0  0
   68.1068   45.9191   55.8517 N   0  0  0  0  0  0  0  0  0  0  0  0
   67.7171   45.2335   54.7943 N   0  0  0  0  0  0  0  0  0  0  0  0
   67.9717   45.6246   53.5332 C   0  0  0  0  0  0  0  0  0  0  0  0
   67.5917   44.9565   52.5294 O   0  0  0  0  0  0  0  0  0  0  0  0
   68.6723   46.7993   53.3673 C   0  0  0  0  0  0  0  0  0  0  0  0
   68.9558   47.2404   52.1012 C   0  0  0  0  0  0  0  0  0  0  0  0
   69.6567   48.4159   51.9514 C   0  0  0  0  0  0  0  0  0  0  0  0
   70.0641   49.1328   53.0569 C   0  0  0  0  0  0  0  0  0  0  0  0
   69.7830   48.6963   54.3332 C   0  0  0  0  0  0  0  0  0  0  0  0
   69.0862   47.5278   54.4860 C   0  0  0  0  0  0  0  0  0  0  0  0
   71.4141   45.6689   59.3733 C   0  0  0  0  0  0  0  0  0  0  0  0
   72.3149   46.2854   60.3653 C   0  0  0  0  0  0  0  0  0  0  0  0
   72.5265   47.6356   60.5105 C   0  0  0  0  0  0  0  0  0  0  0  0
   73.3958   48.1328   61.4877 C   0  0  0  0  0  0  0  0  0  0  0  0
   74.0774   47.2943   62.3439 C   0  0  0  0  0  0  0  0  0  0  0  0
   73.8609   45.9462   62.1915 C   0  0  0  0  0  0  0  0  0  0  0  0
   73.0096   45.4501   61.2349 C   0  0  0  0  0  0  0  0  0  0  0  0
   72.0647   44.5780   58.6115 C   0  0  0  0  0  0  0  0  0  0  0  0
   71.3715   43.4155   58.3592 C   0  0  0  0  0  0  0  0  0  0  0  0
   71.9442   42.3649   57.6486 C   0  0  0  0  0  0  0  0  0  0  0  0
   73.2351   42.4598   57.1723 C   0  0  0  0  0  0  0  0  0  0  0  0
   73.9298   43.6188   57.4211 C   0  0  0  0  0  0  0  0  0  0  0  0
   73.3484   44.6470   58.1254 C   0  0  0  0  0  0  0  0  0  0  0  0
  1  2  2  0
  2  3  1  0
  2 16  1  0
  3  4  1  0
  4  5  1  0
  5  6  2  0
  5 15  1  0
  6  7  1  0
  7  8  1  0
  8  9  2  0
  8 10  1  0
 10 11  1  0
 10 15  2  0
 11 12  2  0
 12 13  1  0
 13 14  2  0
 14 15  1  0
 16 17  1  0
 16 23  1  0
 17 18  2  0
 17 22  1  0
 18 19  1  0
 19 20  2  0
 20 21  1  0
 21 22  2  0
 23 24  2  0
 23 28  1  0
 24 25  1  0
 25 26  2  0
 26 27  1  0
 27 28  2  0
M  END
>  <minimizedAffinity>  (64) 
-9.03620

$$$$
cs_full_output_folder/data/smiles/8517.pdb
     RDKit          3D

 25 27  0  0  0  0  0  0  0  0999 V2000
   69.7326   47.9945   55.9758 C   0  0  0  0  0  0  0  0  0  0  0  0
   69.2889   46.6720   56.0974 C   0  0  0  0  0  0  0  0  0  0  0  0
   69.7386   45.8400   57.0992 C   0  0  0  0  0  0  0  0  0  0  0  0
   70.6512   46.2815   58.0312 C   0  0  0  0  0  0  0  0  0  0  0  0
   71.1030   47.5697   57.9370 C   0  0  0  0  0  0  0  0  0  0  0  0
   70.6437   48.4139   56.9165 C   0  0  0  0  0  0  0  0  0  0  0  0
   71.1982   45.1832   59.3024 S   0  0  0  0  0  0  0  0  0  0  0  0
   70.0103   44.3155   59.6932 O   0  0  0  0  0  0  0  0  0  0  0  0
   71.5243   46.0292   60.4785 O   0  0  0  0  0  0  0  0  0  0  0  0
   72.4421   44.1797   58.7883 N   0  0  0  0  0  0  0  0  0  0  0  0
   73.7153   44.7955   58.6137 C   0  0  0  0  0  0  0  0  0  0  0  0
   74.8272   43.7520   58.6699 C   0  0  0  0  0  0  0  0  0  0  0  0
   74.5672   42.6249   57.7139 C   0  0  0  0  0  0  0  0  0  0  0  0
   73.2126   42.0483   57.9888 C   0  0  0  0  0  0  0  0  0  0  0  0
   72.1473   43.1261   57.9019 C   0  0  1  0  0  0  0  0  0  0  0  0
   70.8062   42.5101   58.0262 C   0  0  0  0  0  0  0  0  0  0  0  0
   69.2099   48.8403   54.8731 C   0  0  0  0  0  0  0  0  0  0  0  0
   67.4075   45.6885   51.4225 C   0  0  0  0  0  0  0  0  0  0  0  0
   68.4250   46.6889   51.8960 C   0  0  0  0  0  0  0  0  0  0  0  0
   68.3461   47.2779   53.1326 C   0  0  0  0  0  0  0  0  0  0  0  0
   69.3020   48.2017   53.5435 C   0  0  0  0  0  0  0  0  0  0  0  0
   70.2994   48.4682   52.6384 C   0  0  0  0  0  0  0  0  0  0  0  0
   71.2106   49.3047   52.9469 O   0  0  0  0  0  0  0  0  0  0  0  0
   70.3566   47.8719   51.4174 N   0  0  0  0  0  0  0  0  0  0  0  0
   69.4240   46.9841   51.0435 N   0  0  0  0  0  0  0  0  0  0  0  0
 18 19  1  0
 19 20  1  0
 19 25  2  0
 20 21  2  0
 21 17  1  0
 21 22  1  0
 17  1  1  0
  1  2  2  0
  1  6  1  0
  2  3  1  0
  3  4  2  0
  4  7  1  0
  4  5  1  0
  7  8  2  0
  7  9  2  0
  7 10  1  0
 10 11  1  0
 10 15  1  0
 11 12  1  0
 12 13  1  0
 13 14  1  0
 14 15  1  0
 15 16  1  1
  5  6  2  0
 22 23  2  0
 22 24  1  0
 24 25  1  0
M  END
>  <minimizedAffinity>  (65) 
-8.69599

$$$$
cs_full_output_folder/data/smiles/8612.pdb
     RDKit          3D

 30 33  0  0  0  0  0  0  0  0999 V2000
   69.6911   46.0034   57.3650 O   0  0  0  0  0  0  0  0  0  0  0  0
   69.7345   47.3037   57.3349 C   0  0  0  0  0  0  0  0  0  0  0  0
   70.6371   47.8911   58.2153 N   0  0  0  0  0  0  0  0  0  0  0  0
   70.9923   49.2679   58.3980 C   0  0  0  0  0  0  0  0  0  0  0  0
   72.4865   49.4711   58.2235 C   0  0  0  0  0  0  0  0  0  0  0  0
   73.2689   48.2953   58.2632 N   0  0  0  0  0  0  0  0  0  0  0  0
   72.7609   46.9383   58.5250 C   0  0  0  0  0  0  0  0  0  0  0  0
   71.3818   47.0246   59.1696 C   0  0  0  0  0  0  0  0  0  0  0  0
   74.6634   48.3572   58.0496 C   0  0  0  0  0  0  0  0  0  0  0  0
   75.5024   47.6666   58.9154 C   0  0  0  0  0  0  0  0  0  0  0  0
   76.8793   47.6967   58.7993 C   0  0  0  0  0  0  0  0  0  0  0  0
   77.4223   48.4454   57.7791 C   0  0  0  0  0  0  0  0  0  0  0  0
   76.6337   49.1514   56.8908 C   0  0  0  0  0  0  0  0  0  0  0  0
   75.2682   49.0870   57.0507 C   0  0  0  0  0  0  0  0  0  0  0  0
   77.2754   49.9750   55.7998 C   0  0  0  0  0  0  0  0  0  0  0  0
   78.5293   50.3182   56.2458 F   0  0  0  0  0  0  0  0  0  0  0  0
   77.4876   49.0619   54.7583 F   0  0  0  0  0  0  0  0  0  0  0  0
   76.4946   51.0244   55.4262 F   0  0  0  0  0  0  0  0  0  0  0  0
   68.8251   47.8943   56.3828 C   0  0  0  0  0  0  0  0  0  0  0  0
   69.2444   48.1031   55.0092 C   0  0  0  0  0  0  0  0  0  0  0  0
   70.0823   49.1000   54.7385 N   0  0  0  0  0  0  0  0  0  0  0  0
   70.4812   49.4029   53.5413 N   0  0  0  0  0  0  0  0  0  0  0  0
   70.0397   48.6827   52.4932 C   0  0  0  0  0  0  0  0  0  0  0  0
   70.4263   48.9720   51.3238 O   0  0  0  0  0  0  0  0  0  0  0  0
   69.1674   47.6230   52.6594 C   0  0  0  0  0  0  0  0  0  0  0  0
   68.7211   46.8773   51.5793 C   0  0  0  0  0  0  0  0  0  0  0  0
   67.8575   45.8295   51.8113 C   0  0  0  0  0  0  0  0  0  0  0  0
   67.4382   45.5209   53.1077 C   0  0  0  0  0  0  0  0  0  0  0  0
   67.9111   46.2917   54.1442 C   0  0  0  0  0  0  0  0  0  0  0  0
   68.7797   47.3539   53.9572 C   0  0  0  0  0  0  0  0  0  0  0  0
  1  2  2  0
  2 19  1  0
  2  3  1  0
 19 20  1  0
 20 21  2  0
 20 30  1  0
 21 22  1  0
 22 23  1  0
 23 24  2  0
 23 25  1  0
 25 26  1  0
 25 30  2  0
 26 27  2  0
 27 28  1  0
 28 29  2  0
 29 30  1  0
  3  4  1  0
  3  8  1  0
  4  5  1  0
  5  6  1  0
  6  9  1  0
  6  7  1  0
  9 10  2  0
  9 14  1  0
 10 11  1  0
 11 12  2  0
 12 13  1  0
 13 15  1  0
 13 14  2  0
 15 16  1  0
 15 17  1  0
 15 18  1  0
  7  8  1  0
M  END
>  <minimizedAffinity>  (66) 
-8.77574

$$$$
cs_full_output_folder/data/smiles/8697.pdb
     RDKit          3D

 23 25  0  0  0  0  0  0  0  0999 V2000
   68.8896   48.3277   56.3688 C   0  0  0  0  0  0  0  0  0  0  0  0
   69.2819   48.3948   54.9476 C   0  0  0  0  0  0  0  0  0  0  0  0
   70.1657   49.3413   54.5809 N   0  0  0  0  0  0  0  0  0  0  0  0
   70.5703   49.4615   53.3261 N   0  0  0  0  0  0  0  0  0  0  0  0
   70.1325   48.6571   52.3430 C   0  0  0  0  0  0  0  0  0  0  0  0
   70.5354   48.7972   51.1549 O   0  0  0  0  0  0  0  0  0  0  0  0
   69.2246   47.6596   52.6374 C   0  0  0  0  0  0  0  0  0  0  0  0
   68.7558   46.8080   51.6591 C   0  0  0  0  0  0  0  0  0  0  0  0
   67.8538   45.8142   51.9707 C   0  0  0  0  0  0  0  0  0  0  0  0
   67.4465   45.7129   53.2981 C   0  0  0  0  0  0  0  0  0  0  0  0
   67.9193   46.5704   54.2827 C   0  0  0  0  0  0  0  0  0  0  0  0
   68.8173   47.5590   53.9667 C   0  0  0  0  0  0  0  0  0  0  0  0
   71.0044   48.0396   57.4533 O   0  0  0  0  0  0  0  0  0  0  0  0
   69.9414   47.5277   57.0559 C   0  0  0  0  0  0  0  0  0  0  0  0
   69.7009   46.1516   57.2559 N   0  0  0  0  0  0  0  0  0  0  0  0
   70.5936   45.2215   57.9065 C   0  0  0  0  0  0  0  0  0  0  0  0
   69.9847   43.8493   57.7436 C   0  0  0  0  0  0  0  0  0  0  0  0
   70.3788   42.8055   58.5365 C   0  0  0  0  0  0  0  0  0  0  0  0
   69.8191   41.5262   58.4147 C   0  0  0  0  0  0  0  0  0  0  0  0
   68.8352   41.3118   57.4598 C   0  0  0  0  0  0  0  0  0  0  0  0
   68.1156   39.7280   57.2675 Cl  0  0  0  0  0  0  0  0  0  0  0  0
   68.4248   42.3513   56.6523 C   0  0  0  0  0  0  0  0  0  0  0  0
   69.0059   43.6092   56.8038 C   0  0  0  0  0  0  0  0  0  0  0  0
 13 14  2  0
 14  1  1  0
 14 15  1  0
  1  2  1  0
  2  3  2  0
  2 12  1  0
  3  4  1  0
  4  5  1  0
  5  6  2  0
  5  7  1  0
  7  8  1  0
  7 12  2  0
  8  9  2  0
  9 10  1  0
 10 11  2  0
 11 12  1  0
 15 16  1  0
 16 17  1  0
 17 18  2  0
 17 23  1  0
 18 19  1  0
 19 20  2  0
 20 21  1  0
 20 22  1  0
 22 23  2  0
M  END
>  <minimizedAffinity>  (67) 
-8.52785

$$$$
cs_full_output_folder/data/smiles/8729.pdb
     RDKit          3D

 27 30  0  0  0  0  0  0  0  0999 V2000
   71.6232   47.1969   57.7217 O   0  0  0  0  0  0  0  0  0  0  0  0
   70.6282   46.4148   57.9208 C   0  0  0  0  0  0  0  0  0  0  0  0
   69.4600   46.6727   57.1882 N   0  0  0  0  0  0  0  0  0  0  0  0
   70.8086   45.3548   58.8838 C   0  0  0  0  0  0  0  0  0  0  0  0
   71.4151   45.5774   60.0784 N   0  0  0  0  0  0  0  0  0  0  0  0
   71.6294   44.6540   60.9914 N   0  0  0  0  0  0  0  0  0  0  0  0
   71.2553   43.3876   60.8059 C   0  0  0  0  0  0  0  0  0  0  0  0
   71.4753   42.5167   61.7098 O   0  0  0  0  0  0  0  0  0  0  0  0
   70.6387   43.0788   59.6256 C   0  0  0  0  0  0  0  0  0  0  0  0
   70.2743   41.7872   59.4009 C   0  0  0  0  0  0  0  0  0  0  0  0
   69.6750   41.3815   58.2243 C   0  0  0  0  0  0  0  0  0  0  0  0
   69.4460   42.3225   57.2589 C   0  0  0  0  0  0  0  0  0  0  0  0
   69.8209   43.6422   57.4959 C   0  0  0  0  0  0  0  0  0  0  0  0
   70.4127   44.0576   58.6598 C   0  0  0  0  0  0  0  0  0  0  0  0
   69.4222   47.7634   56.2428 C   0  0  0  0  0  0  0  0  0  0  0  0
   69.0097   47.3130   54.8891 C   0  0  0  0  0  0  0  0  0  0  0  0
   69.3460   48.0040   53.7514 C   0  0  0  0  0  0  0  0  0  0  0  0
   68.9471   47.5542   52.5255 C   0  0  0  0  0  0  0  0  0  0  0  0
   68.2046   46.4133   52.3777 C   0  0  0  0  0  0  0  0  0  0  0  0
   67.8558   45.7048   53.5088 C   0  0  0  0  0  0  0  0  0  0  0  0
   68.2637   46.1640   54.7517 C   0  0  0  0  0  0  0  0  0  0  0  0
   68.5038   48.8077   56.7432 C   0  0  0  0  0  0  0  0  0  0  0  0
   68.7140   50.1544   56.4987 C   0  0  0  0  0  0  0  0  0  0  0  0
   67.8225   51.0627   56.9929 C   0  0  0  0  0  0  0  0  0  0  0  0
   66.7098   50.7175   57.7338 C   0  0  0  0  0  0  0  0  0  0  0  0
   66.5128   49.3568   57.9726 C   0  0  0  0  0  0  0  0  0  0  0  0
   67.4119   48.4392   57.4732 C   0  0  0  0  0  0  0  0  0  0  0  0
  1  2  2  0
  2  3  1  0
  2  4  1  0
  3 15  1  0
 15 16  1  0
 15 22  1  0
 16 17  2  0
 16 21  1  0
 17 18  1  0
 18 19  2  0
 19 20  1  0
 20 21  2  0
 22 23  2  0
 22 27  1  0
 23 24  1  0
 24 25  2  0
 25 26  1  0
 26 27  2  0
  4  5  2  0
  4 14  1  0
  5  6  1  0
  6  7  1  0
  7  8  2  0
  7  9  1  0
  9 10  1  0
  9 14  2  0
 10 11  2  0
 11 12  1  0
 12 13  2  0
 13 14  1  0
M  END
>  <minimizedAffinity>  (68) 
-8.53446

$$$$
cs_full_output_folder/data/smiles/8834.pdb
     RDKit          3D

 29 32  0  0  0  0  0  0  0  0999 V2000
   69.2381   47.6688   54.8851 C   0  0  0  0  0  0  0  0  0  0  0  0
   69.9398   48.8361   54.7794 N   0  0  0  0  0  0  0  0  0  0  0  0
   70.1742   49.4388   53.6298 N   0  0  0  0  0  0  0  0  0  0  0  0
   69.6887   48.8544   52.5253 C   0  0  0  0  0  0  0  0  0  0  0  0
   69.8617   49.3524   51.3851 O   0  0  0  0  0  0  0  0  0  0  0  0
   68.9680   47.6703   52.5575 C   0  0  0  0  0  0  0  0  0  0  0  0
   68.4731   47.0764   51.4295 C   0  0  0  0  0  0  0  0  0  0  0  0
   67.7504   45.8885   51.4789 C   0  0  0  0  0  0  0  0  0  0  0  0
   67.5102   45.2661   52.6844 C   0  0  0  0  0  0  0  0  0  0  0  0
   68.0134   45.8687   53.8286 C   0  0  0  0  0  0  0  0  0  0  0  0
   68.7329   47.0539   53.7805 C   0  0  0  0  0  0  0  0  0  0  0  0
   68.0216   47.1044   56.9002 O   0  0  0  0  0  0  0  0  0  0  0  0
   69.0603   47.1116   56.2132 C   0  0  0  0  0  0  0  0  0  0  0  0
   70.1707   46.4717   56.8839 N   0  0  0  0  0  0  0  0  0  0  0  0
   70.0897   45.8846   58.1962 C   0  0  0  0  0  0  0  0  0  0  0  0
   70.6067   44.5051   58.1562 C   0  0  0  0  0  0  0  0  0  0  0  0
   69.8234   43.4728   57.6567 C   0  0  0  0  0  0  0  0  0  0  0  0
   70.2715   42.1793   57.5847 C   0  0  0  0  0  0  0  0  0  0  0  0
   71.5364   41.8999   58.0219 C   0  0  0  0  0  0  0  0  0  0  0  0
   71.9456   40.6034   57.9360 F   0  0  0  0  0  0  0  0  0  0  0  0
   72.3281   42.8850   58.5160 C   0  0  0  0  0  0  0  0  0  0  0  0
   71.8656   44.1999   58.5866 C   0  0  0  0  0  0  0  0  0  0  0  0
   70.9149   50.6609   53.5820 C   0  0  0  0  0  0  0  0  0  0  0  0
   70.4730   51.6717   54.5470 C   0  0  0  0  0  0  0  0  0  0  0  0
   71.4536   52.4105   55.1946 C   0  0  0  0  0  0  0  0  0  0  0  0
   71.1371   53.3882   56.1178 C   0  0  0  0  0  0  0  0  0  0  0  0
   69.8315   53.6677   56.4320 C   0  0  0  0  0  0  0  0  0  0  0  0
   68.8583   52.9365   55.7902 C   0  0  0  0  0  0  0  0  0  0  0  0
   69.1762   51.9579   54.8664 C   0  0  0  0  0  0  0  0  0  0  0  0
 12 13  2  0
 13 14  1  0
 13  1  1  0
 14 15  1  0
 15 16  1  0
 16 17  2  0
 16 22  1  0
 17 18  1  0
 18 19  2  0
 19 20  1  0
 19 21  1  0
 21 22  2  0
  1  2  2  0
  1 11  1  0
  2  3  1  0
  3 23  1  0
  3  4  1  0
 23 24  1  0
 24 25  2  0
 24 29  1  0
 25 26  1  0
 26 27  2  0
 27 28  1  0
 28 29  2  0
  4  5  2  0
  4  6  1  0
  6  7  1  0
  6 11  2  0
  7  8  2  0
  8  9  1  0
  9 10  2  0
 10 11  1  0
M  END
>  <minimizedAffinity>  (69) 
-8.83241

$$$$
cs_full_output_folder/data/smiles/9009.pdb
     RDKit          3D

 25 28  0  0  0  0  0  0  0  0999 V2000
   70.7462   46.4480   58.5152 O   0  0  0  0  0  0  0  0  0  0  0  0
   70.2743   45.6024   57.7198 C   0  0  0  0  0  0  0  0  0  0  0  0
   69.4096   46.0355   56.7378 N   0  0  0  0  0  0  0  0  0  0  0  0
   70.6808   44.1784   57.8881 C   0  0  0  0  0  0  0  0  0  0  0  0
   71.9680   43.7629   58.0381 C   0  0  0  0  0  0  0  0  0  0  0  0
   72.3010   42.4126   58.1949 C   0  0  0  0  0  0  0  0  0  0  0  0
   71.2892   41.4726   58.1979 C   0  0  0  0  0  0  0  0  0  0  0  0
   71.5558   40.1173   58.3507 C   0  0  0  0  0  0  0  0  0  0  0  0
   70.5770   39.1564   58.3598 C   0  0  0  0  0  0  0  0  0  0  0  0
   69.2637   39.5636   58.2083 C   0  0  0  0  0  0  0  0  0  0  0  0
   68.9890   40.9013   58.0561 C   0  0  0  0  0  0  0  0  0  0  0  0
   69.9785   41.8618   58.0486 C   0  0  0  0  0  0  0  0  0  0  0  0
   69.6901   43.2236   57.8939 C   0  0  0  0  0  0  0  0  0  0  0  0
   68.9045   47.3348   56.4186 C   0  0  0  0  0  0  0  0  0  0  0  0
   69.2025   47.7355   55.0410 C   0  0  0  0  0  0  0  0  0  0  0  0
   70.0638   48.7903   54.8090 N   0  0  0  0  0  0  0  0  0  0  0  0
   70.4302   49.1534   53.5966 N   0  0  0  0  0  0  0  0  0  0  0  0
   70.0025   48.5381   52.4927 C   0  0  0  0  0  0  0  0  0  0  0  0
   70.3918   48.9361   51.3778 O   0  0  0  0  0  0  0  0  0  0  0  0
   69.1379   47.4788   52.6449 C   0  0  0  0  0  0  0  0  0  0  0  0
   68.6439   46.8447   51.5166 C   0  0  0  0  0  0  0  0  0  0  0  0
   67.7490   45.8149   51.6384 C   0  0  0  0  0  0  0  0  0  0  0  0
   67.3359   45.4034   52.8938 C   0  0  0  0  0  0  0  0  0  0  0  0
   67.8478   46.0544   53.9945 C   0  0  0  0  0  0  0  0  0  0  0  0
   68.7502   47.0938   53.9324 C   0  0  0  0  0  0  0  0  0  0  0  0
  1  2  2  0
  2  3  1  0
  2  4  1  0
  3 14  1  0
 14 15  1  0
 15 16  2  0
 15 25  1  0
 16 17  1  0
 17 18  1  0
 18 19  2  0
 18 20  1  0
 20 21  1  0
 20 25  2  0
 21 22  2  0
 22 23  1  0
 23 24  2  0
 24 25  1  0
  4  5  2  0
  4 13  1  0
  5  6  1  0
  6  7  2  0
  7  8  1  0
  7 12  1  0
  8  9  2  0
  9 10  1  0
 10 11  2  0
 11 12  1  0
 12 13  2  0
M  END
>  <minimizedAffinity>  (70) 
-8.96186

$$$$
cs_full_output_folder/data/smiles/9616.pdb
     RDKit          3D

 27 29  0  0  0  0  0  0  0  0999 V2000
   68.6153   42.9453   56.7310 C   0  0  0  0  0  0  0  0  0  0  0  0
   67.5978   42.1989   56.2170 C   0  0  0  0  0  0  0  0  0  0  0  0
   67.3512   40.9032   56.6893 C   0  0  0  0  0  0  0  0  0  0  0  0
   68.1310   40.3515   57.6843 C   0  0  0  0  0  0  0  0  0  0  0  0
   69.1551   41.1177   58.1941 C   0  0  0  0  0  0  0  0  0  0  0  0
   69.3867   42.3827   57.7252 C   0  0  0  0  0  0  0  0  0  0  0  0
   68.1979   44.9897   55.2923 N   0  0  0  0  0  0  0  0  0  0  0  0
   68.9340   44.2949   56.2948 C   0  0  0  0  0  0  0  0  0  0  0  0
   69.8984   44.9308   56.7933 O   0  0  0  0  0  0  0  0  0  0  0  0
   69.2826   47.8845   53.1655 C   0  0  0  0  0  0  0  0  0  0  0  0
   69.1418   48.9204   54.0852 C   0  0  0  0  0  0  0  0  0  0  0  0
   68.7047   48.6714   55.3605 C   0  0  0  0  0  0  0  0  0  0  0  0
   68.3950   47.3706   55.7494 C   0  0  0  0  0  0  0  0  0  0  0  0
   68.5200   46.3129   54.8722 C   0  0  0  0  0  0  0  0  0  0  0  0
   68.9636   46.6098   53.6002 C   0  0  0  0  0  0  0  0  0  0  0  0
   69.9968   47.2288   51.0409 O   0  0  0  0  0  0  0  0  0  0  0  0
   69.7463   48.1637   51.8210 C   0  0  0  0  0  0  0  0  0  0  0  0
   69.9081   49.4664   51.4120 O   0  0  0  0  0  0  0  0  0  0  0  0
   67.8497   39.0236   58.1433 N   0  0  0  0  0  0  0  0  0  0  0  0
   67.0148   38.8351   59.2720 C   0  0  0  0  0  0  0  0  0  0  0  0
   66.5525   39.9043   59.8218 O   0  0  0  0  0  0  0  0  0  0  0  0
   66.6469   37.5540   59.8448 C   0  0  0  0  0  0  0  0  0  0  0  0
   67.4146   36.9272   60.8011 C   0  0  0  0  0  0  0  0  0  0  0  0
   67.0431   35.7088   61.3299 C   0  0  0  0  0  0  0  0  0  0  0  0
   65.8848   35.0670   60.9217 C   0  0  0  0  0  0  0  0  0  0  0  0
   65.1141   35.6893   59.9659 C   0  0  0  0  0  0  0  0  0  0  0  0
   65.5016   36.9296   59.4354 C   0  0  0  0  0  0  0  0  0  0  0  0
 16 17  2  0
 17 18  1  0
 17 10  1  0
 10 11  2  0
 10 15  1  0
 11 12  1  0
 12 13  2  0
 13 14  1  0
 14  7  1  0
 14 15  2  0
  7  8  1  0
  8  9  2  0
  8  1  1  0
  1  2  2  0
  1  6  1  0
  2  3  1  0
  3  4  2  0
  4 19  1  0
  4  5  1  0
 19 20  1  0
 20 21  2  0
 20 22  1  0
 22 23  2  0
 22 27  1  0
 23 24  1  0
 24 25  2  0
 25 26  1  0
 26 27  2  0
  5  6  2  0
M  END
>  <minimizedAffinity>  (71) 
-8.59079

$$$$
