cs_full_output_folder/data/smiles/1.pdb
     RDKit          3D

 22 24  0  0  0  0  0  0  0  0999 V2000
   68.9073   45.4454   56.5443 C   0  0  0  0  0  0  0  0  0  0  0  0
   70.0325   45.9369   57.1097 N   0  0  0  0  0  0  0  0  0  0  0  0
   70.8782   45.1433   57.7788 C   0  0  0  0  0  0  0  0  0  0  0  0
   70.5819   43.8058   57.8817 C   0  0  0  0  0  0  0  0  0  0  0  0
   69.4563   43.2588   57.3267 C   0  0  0  0  0  0  0  0  0  0  0  0
   68.6513   44.1485   56.6632 N   0  0  0  0  0  0  0  0  0  0  0  0
   69.0753   41.8588   57.4166 C   0  0  0  0  0  0  0  0  0  0  0  0
   69.7198   41.0215   58.3083 C   0  0  0  0  0  0  0  0  0  0  0  0
   69.3530   39.6719   58.3859 C   0  0  0  0  0  0  0  0  0  0  0  0
   68.3505   39.1640   57.5799 C   0  0  0  0  0  0  0  0  0  0  0  0
   67.7481   40.0110   56.7268 N   0  0  0  0  0  0  0  0  0  0  0  0
   68.0888   41.3346   56.6316 C   0  0  0  0  0  0  0  0  0  0  0  0
   68.0570   46.3603   55.8649 N   0  0  0  0  0  0  0  0  0  0  0  0
   69.3735   47.7417   52.6504 C   0  0  0  0  0  0  0  0  0  0  0  0
   68.7332   46.8996   51.7375 C   0  0  0  0  0  0  0  0  0  0  0  0
   67.8978   45.9069   52.1900 C   0  0  0  0  0  0  0  0  0  0  0  0
   67.6749   45.7200   53.5612 C   0  0  0  0  0  0  0  0  0  0  0  0
   68.3020   46.5445   54.4681 C   0  0  0  0  0  0  0  0  0  0  0  0
   69.1206   47.5155   53.9805 C   0  0  0  0  0  0  0  0  0  0  0  0
   71.3359   49.0668   52.6871 O   0  0  0  0  0  0  0  0  0  0  0  0
   70.2448   48.7876   52.1428 C   0  0  0  0  0  0  0  0  0  0  0  0
   69.8953   49.5296   51.0130 O   0  0  0  0  0  0  0  0  0  0  0  0
 20 21  2  0
 21 22  1  0
 21 14  1  0
 14 15  2  0
 14 19  1  0
 15 16  1  0
 16 17  2  0
 17 18  1  0
 18 13  1  0
 18 19  2  0
 13  1  1  0
  1  2  2  0
  1  6  1  0
  2  3  1  0
  3  4  2  0
  4  5  1  0
  5  7  1  0
  5  6  2  0
  7  8  2  0
  7 12  1  0
  8  9  1  0
  9 10  2  0
 10 11  1  0
 11 12  2  0
M  END
>  <minimizedAffinity>  (1) 
-9.37032

$$$$
cs_full_output_folder/data/smiles/5107.pdb
     RDKit          3D

 22 24  0  0  0  0  0  0  0  0999 V2000
   68.8490   47.5250   57.0313 C   0  0  0  0  0  0  0  0  0  0  0  0
   68.2552   48.8572   57.1601 C   0  0  0  0  0  0  0  0  0  0  0  0
   66.9874   49.0267   57.7161 C   0  0  0  0  0  0  0  0  0  0  0  0
   66.3422   47.8685   58.1266 O   0  0  0  0  0  0  0  0  0  0  0  0
   66.4044   50.2649   57.8542 C   0  0  0  0  0  0  0  0  0  0  0  0
   67.0704   51.3875   57.4382 C   0  0  0  0  0  0  0  0  0  0  0  0
   68.3229   51.2535   56.8846 C   0  0  0  0  0  0  0  0  0  0  0  0
   68.9592   52.4098   56.4823 C   0  0  0  0  0  0  0  0  0  0  0  0
   70.2094   52.3072   55.9293 C   0  0  0  0  0  0  0  0  0  0  0  0
   70.8064   51.0705   55.7864 C   0  0  0  0  0  0  0  0  0  0  0  0
   70.1740   49.9181   56.1873 C   0  0  0  0  0  0  0  0  0  0  0  0
   68.9171   49.9858   56.7450 C   0  0  0  0  0  0  0  0  0  0  0  0
   68.1501   46.6928   56.0717 N   0  0  0  0  0  0  0  0  0  0  0  0
   69.3880   47.7839   52.7159 C   0  0  0  0  0  0  0  0  0  0  0  0
   68.7262   46.8743   51.8995 C   0  0  0  0  0  0  0  0  0  0  0  0
   67.8889   45.9220   52.4659 C   0  0  0  0  0  0  0  0  0  0  0  0
   67.7144   45.8793   53.8314 C   0  0  0  0  0  0  0  0  0  0  0  0
   68.3634   46.7774   54.6760 C   0  0  0  0  0  0  0  0  0  0  0  0
   69.1749   47.6934   54.0754 C   0  0  0  0  0  0  0  0  0  0  0  0
   71.3687   49.0029   52.6260 O   0  0  0  0  0  0  0  0  0  0  0  0
   70.2586   48.7692   52.1105 C   0  0  0  0  0  0  0  0  0  0  0  0
   69.8843   49.4532   50.9776 O   0  0  0  0  0  0  0  0  0  0  0  0
 20 21  2  0
 21 22  1  0
 21 14  1  0
 14 15  2  0
 14 19  1  0
 15 16  1  0
 16 17  2  0
 17 18  1  0
 18 13  1  0
 18 19  2  0
 13  1  1  0
  1  2  1  0
  2  3  2  0
  2 12  1  0
  3  4  1  0
  3  5  1  0
  5  6  2  0
  6  7  1  0
  7  8  1  0
  7 12  2  0
  8  9  2  0
  9 10  1  0
 10 11  2  0
 11 12  1  0
M  END
>  <minimizedAffinity>  (2) 
-9.31060

$$$$
cs_full_output_folder/data/smiles/5289.pdb
     RDKit          3D

 21 22  0  0  0  0  0  0  0  0999 V2000
   68.3113   46.5998   56.0866 N   0  0  0  0  0  0  0  0  0  0  0  0
   69.1834   47.6184   52.6218 C   0  0  0  0  0  0  0  0  0  0  0  0
   68.4515   46.7090   51.8560 C   0  0  0  0  0  0  0  0  0  0  0  0
   67.6826   45.7901   52.5328 C   0  0  0  0  0  0  0  0  0  0  0  0
   66.9284   44.8523   51.8356 O   0  0  0  0  0  0  0  0  0  0  0  0
   67.6537   45.7892   53.8843 C   0  0  0  0  0  0  0  0  0  0  0  0
   68.3788   46.6936   54.6850 C   0  0  0  0  0  0  0  0  0  0  0  0
   69.1336   47.5935   53.9891 C   0  0  0  0  0  0  0  0  0  0  0  0
   70.6160   48.2186   50.8891 O   0  0  0  0  0  0  0  0  0  0  0  0
   69.9933   48.5875   51.9120 C   0  0  0  0  0  0  0  0  0  0  0  0
   70.0884   49.8974   52.3383 O   0  0  0  0  0  0  0  0  0  0  0  0
   68.9531   47.4500   57.0277 C   0  0  0  0  0  0  0  0  0  0  0  0
   68.1988   48.7046   57.1847 C   0  0  0  0  0  0  0  0  0  0  0  0
   67.0494   48.8052   57.8868 C   0  0  0  0  0  0  0  0  0  0  0  0
   66.3655   50.0263   58.0372 C   0  0  0  0  0  0  0  0  0  0  0  0
   66.8913   51.1552   57.4431 C   0  0  0  0  0  0  0  0  0  0  0  0
   68.0692   51.0786   56.7156 C   0  0  0  0  0  0  0  0  0  0  0  0
   68.7078   49.8709   56.5930 C   0  0  0  0  0  0  0  0  0  0  0  0
   68.5979   52.2591   56.1075 N   0  0  0  0  0  0  0  0  0  0  0  0
   69.0784   53.1688   56.7952 O   0  0  0  0  0  0  0  0  0  0  0  0
   68.5680   52.3723   54.7544 O   0  0  0  0  0  0  0  0  0  0  0  0
  9 10  2  0
 10 11  1  0
 10  2  1  0
  2  3  2  0
  2  8  1  0
  3  4  1  0
  4  5  1  0
  4  6  2  0
  6  7  1  0
  7  1  1  0
  7  8  2  0
  1 12  1  0
 12 13  1  0
 13 14  2  0
 13 18  1  0
 14 15  1  0
 15 16  2  0
 16 17  1  0
 17 19  1  0
 17 18  2  0
 19 20  2  0
 19 21  1  0
M  CHG  2  19   1  21  -1
M  END
>  <minimizedAffinity>  (3) 
-9.24498

$$$$
cs_full_output_folder/data/smiles/4629.pdb
     RDKit          3D

 22 24  0  0  0  0  0  0  0  0999 V2000
   68.8108   45.6967   56.3660 C   0  0  0  0  0  0  0  0  0  0  0  0
   69.8663   46.2928   56.9740 N   0  0  0  0  0  0  0  0  0  0  0  0
   70.7191   45.6067   57.7277 C   0  0  0  0  0  0  0  0  0  0  0  0
   70.5016   44.2438   57.8836 C   0  0  0  0  0  0  0  0  0  0  0  0
   69.4417   43.6058   57.2820 C   0  0  0  0  0  0  0  0  0  0  0  0
   68.6296   44.3770   56.5363 N   0  0  0  0  0  0  0  0  0  0  0  0
   69.1924   42.1815   57.4281 C   0  0  0  0  0  0  0  0  0  0  0  0
   68.1682   41.5078   56.8403 C   0  0  0  0  0  0  0  0  0  0  0  0
   67.9939   40.1509   57.0254 C   0  0  0  0  0  0  0  0  0  0  0  0
   68.8587   39.4560   57.8115 C   0  0  0  0  0  0  0  0  0  0  0  0
   69.9203   40.0950   58.4342 C   0  0  0  0  0  0  0  0  0  0  0  0
   70.0561   41.4365   58.2249 C   0  0  0  0  0  0  0  0  0  0  0  0
   67.9340   46.4507   55.5800 O   0  0  0  0  0  0  0  0  0  0  0  0
   69.4009   47.7821   52.4888 C   0  0  0  0  0  0  0  0  0  0  0  0
   68.7940   46.9352   51.5827 C   0  0  0  0  0  0  0  0  0  0  0  0
   67.9169   45.9441   51.9980 C   0  0  0  0  0  0  0  0  0  0  0  0
   67.6173   45.7680   53.3307 C   0  0  0  0  0  0  0  0  0  0  0  0
   68.2209   46.6115   54.2396 C   0  0  0  0  0  0  0  0  0  0  0  0
   69.0974   47.6016   53.8222 C   0  0  0  0  0  0  0  0  0  0  0  0
   71.3177   49.0395   52.6866 O   0  0  0  0  0  0  0  0  0  0  0  0
   70.2965   48.7929   52.0543 N   0  0  0  0  0  0  0  0  0  0  0  0
   70.0218   49.5037   50.9180 O   0  0  0  0  0  0  0  0  0  0  0  0
 20 21  2  0
 21 22  1  0
 21 14  1  0
 14 15  2  0
 14 19  1  0
 15 16  1  0
 16 17  2  0
 17 18  1  0
 18 13  1  0
 18 19  2  0
 13  1  1  0
  1  2  2  0
  1  6  1  0
  2  3  1  0
  3  4  2  0
  4  5  1  0
  5  7  1  0
  5  6  2  0
  7  8  2  0
  7 12  1  0
  8  9  1  0
  9 10  2  0
 10 11  1  0
 11 12  2  0
M  CHG  2  21   1  22  -1
M  END
>  <minimizedAffinity>  (4) 
-9.23143

$$$$
cs_full_output_folder/data/smiles/3.pdb
     RDKit          3D

 21 23  0  0  0  0  0  0  0  0999 V2000
   69.5017   48.3025   54.0443 C   0  0  0  0  0  0  0  0  0  0  0  0
   69.2757   48.0851   55.3977 C   0  0  0  0  0  0  0  0  0  0  0  0
   68.3929   47.1361   55.8636 C   0  0  0  0  0  0  0  0  0  0  0  0
   68.2295   46.9872   57.1192 O   0  0  0  0  0  0  0  0  0  0  0  0
   67.7165   46.3823   55.0321 O   0  0  0  0  0  0  0  0  0  0  0  0
   67.8685   46.5147   53.7438 C   0  0  0  0  0  0  0  0  0  0  0  0
   67.1925   45.7471   52.8651 N   0  0  0  0  0  0  0  0  0  0  0  0
   67.3316   45.8490   51.5313 C   0  0  0  0  0  0  0  0  0  0  0  0
   66.6764   45.1095   50.7277 O   0  0  0  0  0  0  0  0  0  0  0  0
   68.1816   46.7535   51.0175 N   0  0  0  0  0  0  0  0  0  0  0  0
   68.8895   47.5556   51.8701 C   0  0  0  0  0  0  0  0  0  0  0  0
   69.6599   48.3608   51.3519 O   0  0  0  0  0  0  0  0  0  0  0  0
   68.7533   47.4651   53.2158 C   0  0  0  0  0  0  0  0  0  0  0  0
   70.3873   49.3572   53.5574 C   0  0  0  0  0  0  0  0  0  0  0  0
   70.2455   50.7166   54.0884 C   0  0  0  0  0  0  0  0  0  0  0  0
   68.9545   51.1497   54.7108 C   0  0  0  0  0  0  0  0  0  0  0  0
   69.0188   51.7978   56.0417 C   0  0  0  0  0  0  0  0  0  0  0  0
   69.1833   50.9408   57.2852 C   0  0  0  0  0  0  0  0  0  0  0  0
   67.8123   51.3934   56.9391 C   0  0  0  0  0  0  0  0  0  0  0  0
   70.6890   53.6420   56.3513 C   0  0  0  0  0  0  0  0  0  0  0  0
   69.2310   53.3031   56.1299 C   0  0  0  0  0  0  0  0  0  0  0  0
 20 21  1  0
 21 17  1  0
 17 16  1  0
 17 18  1  0
 17 19  1  0
 16 15  1  0
 15 14  1  0
 14  1  1  0
  1  2  2  0
  1 13  1  0
  2  3  1  0
  3  4  2  0
  3  5  1  0
  5  6  1  0
  6  7  1  0
  6 13  2  0
  7  8  1  0
  8  9  2  0
  8 10  1  0
 10 11  1  0
 11 12  2  0
 11 13  1  0
 18 19  1  0
M  END
>  <minimizedAffinity>  (5) 
-9.20642

$$$$
cs_full_output_folder/data/smiles/8523.pdb
     RDKit          3D

 22 24  0  0  0  0  0  0  0  0999 V2000
   71.5729   48.1990   58.9744 C   0  0  0  0  0  0  0  0  0  0  0  0
   70.8471   47.0909   58.3016 C   0  0  0  0  0  0  0  0  0  0  0  0
   69.7808   47.3921   57.4562 C   0  0  0  0  0  0  0  0  0  0  0  0
   69.0987   46.3746   56.8263 C   0  0  0  0  0  0  0  0  0  0  0  0
   69.4788   45.1264   57.0429 N   0  0  0  0  0  0  0  0  0  0  0  0
   70.5131   44.7961   57.8611 C   0  0  0  0  0  0  0  0  0  0  0  0
   71.1649   45.7990   58.4650 N   0  0  0  0  0  0  0  0  0  0  0  0
   70.8592   43.3925   58.0389 C   0  0  0  0  0  0  0  0  0  0  0  0
   70.0330   42.3854   58.2717 C   0  0  0  0  0  0  0  0  0  0  0  0
   70.8133   41.1354   58.3835 C   0  0  0  0  0  0  0  0  0  0  0  0
   72.0465   41.5189   58.2020 C   0  0  0  0  0  0  0  0  0  0  0  0
   72.1970   42.8171   57.9943 C   0  0  0  0  0  0  0  0  0  0  0  0
   68.0446   46.6803   55.9902 O   0  0  0  0  0  0  0  0  0  0  0  0
   68.2896   46.7568   54.6275 C   0  0  0  0  0  0  0  0  0  0  0  0
   67.7260   45.8494   53.7541 C   0  0  0  0  0  0  0  0  0  0  0  0
   67.9628   45.9140   52.3919 C   0  0  0  0  0  0  0  0  0  0  0  0
   68.7752   46.8954   51.8610 C   0  0  0  0  0  0  0  0  0  0  0  0
   69.3426   47.8070   52.7246 C   0  0  0  0  0  0  0  0  0  0  0  0
   69.1036   47.7370   54.0811 C   0  0  0  0  0  0  0  0  0  0  0  0
   70.1981   48.8431   52.1843 C   0  0  0  0  0  0  0  0  0  0  0  0
   69.8143   49.6060   51.0305 N   0  0  0  0  0  0  0  0  0  0  0  0
   71.3077   49.1146   52.7001 O   0  0  0  0  0  0  0  0  0  0  0  0
  1  2  1  0
  2  3  2  0
  2  7  1  0
  3  4  1  0
  4 13  1  0
  4  5  2  0
 13 14  1  0
 14 15  2  0
 14 19  1  0
 15 16  1  0
 16 17  2  0
 17 18  1  0
 18 20  1  0
 18 19  2  0
 20 21  1  0
 20 22  2  0
  5  6  1  0
  6  8  1  0
  6  7  2  0
  8  9  2  0
  8 12  1  0
  9 10  1  0
 10 11  2  0
 11 12  2  0
M  END
>  <minimizedAffinity>  (6) 
-9.19208

$$$$
cs_full_output_folder/data/smiles/8042.pdb
     RDKit          3D

 21 23  0  0  0  0  0  0  0  0999 V2000
   70.4055   49.1500   53.9952 C   0  0  0  0  0  0  0  0  0  0  0  0
   71.5407   49.4717   53.3601 N   0  0  0  0  0  0  0  0  0  0  0  0
   72.1130   50.5211   53.9562 N   0  0  0  0  0  0  0  0  0  0  0  0
   71.3559   50.9200   55.0136 C   0  0  0  0  0  0  0  0  0  0  0  0
   70.2672   50.0405   55.0332 C   0  0  0  0  0  0  0  0  0  0  0  0
   66.9321   44.9456   52.5311 O   0  0  0  0  0  0  0  0  0  0  0  0
   67.7948   45.9857   52.9163 C   0  0  0  0  0  0  0  0  0  0  0  0
   68.1506   46.1883   54.2267 C   0  0  0  0  0  0  0  0  0  0  0  0
   68.9867   47.1971   54.5939 C   0  0  0  0  0  0  0  0  0  0  0  0
   69.5209   48.0763   53.6439 C   0  0  0  0  0  0  0  0  0  0  0  0
   69.1644   47.8723   52.3297 C   0  0  0  0  0  0  0  0  0  0  0  0
   69.6670   48.7184   51.3393 O   0  0  0  0  0  0  0  0  0  0  0  0
   68.3134   46.8435   51.9683 C   0  0  0  0  0  0  0  0  0  0  0  0
   67.9787   46.6766   50.6165 O   0  0  0  0  0  0  0  0  0  0  0  0
   69.1765   50.0561   55.9775 C   0  0  0  0  0  0  0  0  0  0  0  0
   68.9580   48.9914   56.8155 C   0  0  0  0  0  0  0  0  0  0  0  0
   67.9384   48.9429   57.7382 C   0  0  0  0  0  0  0  0  0  0  0  0
   67.0821   50.0121   57.8377 C   0  0  0  0  0  0  0  0  0  0  0  0
   66.0473   50.0034   58.7496 F   0  0  0  0  0  0  0  0  0  0  0  0
   67.2697   51.0984   57.0130 C   0  0  0  0  0  0  0  0  0  0  0  0
   68.3165   51.1250   56.0798 C   0  0  0  0  0  0  0  0  0  0  0  0
  6  7  1  0
  7  8  2  0
  7 13  1  0
  8  9  1  0
  9 10  2  0
 10  1  1  0
 10 11  1  0
  1  2  1  0
  1  5  2  0
  2  3  1  0
  3  4  2  0
  4  5  1  0
  5 15  1  0
 15 16  2  0
 15 21  1  0
 16 17  1  0
 17 18  2  0
 18 19  1  0
 18 20  1  0
 20 21  2  0
 11 12  1  0
 11 13  2  0
 13 14  1  0
M  END
>  <minimizedAffinity>  (7) 
-9.18648

$$$$
cs_full_output_folder/data/smiles/3951.pdb
     RDKit          3D

 22 24  0  0  0  0  0  0  0  0999 V2000
   68.7512   45.5999   56.3586 C   0  0  0  0  0  0  0  0  0  0  0  0
   69.8192   46.2050   56.9188 N   0  0  0  0  0  0  0  0  0  0  0  0
   70.7256   45.5625   57.6556 C   0  0  0  0  0  0  0  0  0  0  0  0
   70.5504   44.1873   57.8523 C   0  0  0  0  0  0  0  0  0  0  0  0
   69.4777   43.5336   57.3007 C   0  0  0  0  0  0  0  0  0  0  0  0
   68.6195   44.2825   56.5703 N   0  0  0  0  0  0  0  0  0  0  0  0
   69.2768   42.1078   57.4919 C   0  0  0  0  0  0  0  0  0  0  0  0
   70.2124   41.3672   58.2076 C   0  0  0  0  0  0  0  0  0  0  0  0
   70.0808   40.0114   58.4238 C   0  0  0  0  0  0  0  0  0  0  0  0
   68.9907   39.3315   57.9261 C   0  0  0  0  0  0  0  0  0  0  0  0
   68.0531   40.0423   57.2156 C   0  0  0  0  0  0  0  0  0  0  0  0
   68.1964   41.4233   57.0004 C   0  0  0  0  0  0  0  0  0  0  0  0
   67.8448   46.3339   55.6009 O   0  0  0  0  0  0  0  0  0  0  0  0
   69.2876   47.7003   52.4897 C   0  0  0  0  0  0  0  0  0  0  0  0
   68.7093   46.8605   51.5636 C   0  0  0  0  0  0  0  0  0  0  0  0
   67.8460   45.8483   51.9682 C   0  0  0  0  0  0  0  0  0  0  0  0
   67.5672   45.6879   53.3320 C   0  0  0  0  0  0  0  0  0  0  0  0
   68.1395   46.5197   54.2646 C   0  0  0  0  0  0  0  0  0  0  0  0
   68.9849   47.5036   53.8224 C   0  0  0  0  0  0  0  0  0  0  0  0
   71.2755   49.1512   52.9177 N   0  0  0  0  0  0  0  0  0  0  0  0
   70.1944   48.7655   52.0843 C   0  0  0  0  0  0  0  0  0  0  0  0
   70.0394   49.3641   50.9906 O   0  0  0  0  0  0  0  0  0  0  0  0
 20 21  1  0
 21 22  2  0
 21 14  1  0
 14 15  2  0
 14 19  1  0
 15 16  1  0
 16 17  2  0
 17 18  1  0
 18 13  1  0
 18 19  2  0
 13  1  1  0
  1  2  2  0
  1  6  1  0
  2  3  1  0
  3  4  2  0
  4  5  1  0
  5  7  1  0
  5  6  2  0
  7  8  2  0
  7 12  1  0
  8  9  1  0
  9 10  2  0
 10 11  1  0
 11 12  2  0
M  END
>  <minimizedAffinity>  (8) 
-9.18421

$$$$
cs_full_output_folder/data/smiles/7.pdb
     RDKit          3D

 19 21  0  0  0  0  0  0  0  0999 V2000
   66.8435   45.3784   51.0466 N   0  0  0  0  0  0  0  0  0  0  0  0
   67.7462   46.1769   51.8063 C   0  0  0  0  0  0  0  0  0  0  0  0
   67.7346   46.1298   53.2014 C   0  0  0  0  0  0  0  0  0  0  0  0
   68.5944   46.8881   53.9558 C   0  0  0  0  0  0  0  0  0  0  0  0
   69.4703   47.6997   53.2148 C   0  0  0  0  0  0  0  0  0  0  0  0
   70.4230   48.5514   53.6568 N   0  0  0  0  0  0  0  0  0  0  0  0
   70.9791   49.0832   52.5673 N   0  0  0  0  0  0  0  0  0  0  0  0
   70.4300   48.6139   51.4803 N   0  0  0  0  0  0  0  0  0  0  0  0
   69.4753   47.7399   51.8577 C   0  0  0  0  0  0  0  0  0  0  0  0
   68.6096   46.9738   51.1960 N   0  0  0  0  0  0  0  0  0  0  0  0
   68.6448   46.9007   55.2828 O   0  0  0  0  0  0  0  0  0  0  0  0
   69.2045   47.6232   56.2813 C   0  0  0  0  0  0  0  0  0  0  0  0
   68.4658   48.8114   56.7305 C   0  0  0  0  0  0  0  0  0  0  0  0
   67.3701   48.7429   57.5301 C   0  0  0  0  0  0  0  0  0  0  0  0
   66.7135   49.9066   57.9323 C   0  0  0  0  0  0  0  0  0  0  0  0
   67.1807   51.1273   57.5153 C   0  0  0  0  0  0  0  0  0  0  0  0
   68.2859   51.2153   56.7064 C   0  0  0  0  0  0  0  0  0  0  0  0
   68.8266   52.7987   56.2108 Cl  0  0  0  0  0  0  0  0  0  0  0  0
   68.9266   50.0490   56.3150 C   0  0  0  0  0  0  0  0  0  0  0  0
  1  2  1  0
  2  3  2  0
  2 10  1  0
  3  4  1  0
  4 11  1  0
  4  5  2  0
 11 12  1  0
 12 13  1  0
 13 14  2  0
 13 19  1  0
 14 15  1  0
 15 16  2  0
 16 17  1  0
 17 18  1  0
 17 19  2  0
  5  6  1  0
  5  9  1  0
  6  7  2  0
  7  8  1  0
  8  9  1  0
  9 10  2  0
M  END
>  <minimizedAffinity>  (9) 
-9.17792

$$$$
cs_full_output_folder/data/smiles/5396.pdb
     RDKit          3D

 22 24  0  0  0  0  0  0  0  0999 V2000
   68.4845   51.3656   56.2721 C   0  0  0  0  0  0  0  0  0  0  0  0
   67.4637   51.2773   57.1821 C   0  0  0  0  0  0  0  0  0  0  0  0
   67.0601   50.0625   57.6931 C   0  0  0  0  0  0  0  0  0  0  0  0
   66.0466   49.9805   58.5969 F   0  0  0  0  0  0  0  0  0  0  0  0
   67.7269   48.9271   57.2517 C   0  0  0  0  0  0  0  0  0  0  0  0
   67.3319   47.8399   57.7405 O   0  0  0  0  0  0  0  0  0  0  0  0
   68.7452   48.9795   56.3475 N   0  0  0  0  0  0  0  0  0  0  0  0
   69.1039   50.1847   55.8789 C   0  0  0  0  0  0  0  0  0  0  0  0
   68.9046   52.6600   55.7337 C   0  0  0  0  0  0  0  0  0  0  0  0
   68.4915   52.9571   54.5560 O   0  0  0  0  0  0  0  0  0  0  0  0
   71.0362   53.5865   56.2574 C   0  0  0  0  0  0  0  0  0  0  0  0
   69.7333   53.6029   56.4224 C   0  0  0  0  0  0  0  0  0  0  0  0
   69.3844   47.7434   55.9547 C   0  0  0  0  0  0  0  0  0  0  0  0
   69.0133   47.3147   54.5934 C   0  0  0  0  0  0  0  0  0  0  0  0
   68.0727   46.2886   54.4005 C   0  0  0  0  0  0  0  0  0  0  0  0
   67.6701   45.8982   53.1520 C   0  0  0  0  0  0  0  0  0  0  0  0
   68.1773   46.4991   52.0329 C   0  0  0  0  0  0  0  0  0  0  0  0
   69.1133   47.5193   52.1595 C   0  0  0  0  0  0  0  0  0  0  0  0
   69.7722   48.2505   51.2292 N   0  0  0  0  0  0  0  0  0  0  0  0
   70.5582   49.0639   51.8954 N   0  0  0  0  0  0  0  0  0  0  0  0
   70.4292   48.8839   53.2238 C   0  0  0  0  0  0  0  0  0  0  0  0
   69.5060   47.8980   53.4394 C   0  0  0  0  0  0  0  0  0  0  0  0
 11 12  2  0
 12  9  1  0
  9 10  2  0
  9  1  1  0
  1  2  1  0
  1  8  2  0
  2  3  2  0
  3  4  1  0
  3  5  1  0
  5  6  2  0
  5  7  1  0
  7 13  1  0
  7  8  1  0
 13 14  1  0
 14 15  2  0
 14 22  1  0
 15 16  1  0
 16 17  2  0
 17 18  1  0
 18 19  1  0
 18 22  2  0
 19 20  1  0
 20 21  2  0
 21 22  1  0
M  END
>  <minimizedAffinity>  (10) 
-9.15263

$$$$
cs_full_output_folder/data/smiles/12.pdb
     RDKit          3D

 21 23  0  0  0  0  0  0  0  0999 V2000
   70.3199   50.0640   54.9826 N   0  0  0  0  0  0  0  0  0  0  0  0
   70.3914   49.2285   53.9479 C   0  0  0  0  0  0  0  0  0  0  0  0
   71.6280   49.4430   53.3675 N   0  0  0  0  0  0  0  0  0  0  0  0
   72.2562   50.3718   54.0370 N   0  0  0  0  0  0  0  0  0  0  0  0
   71.4951   50.7865   55.0382 C   0  0  0  0  0  0  0  0  0  0  0  0
   71.7145   51.6457   55.9015 O   0  0  0  0  0  0  0  0  0  0  0  0
   69.5170   48.1987   53.4053 C   0  0  0  0  0  0  0  0  0  0  0  0
   68.7245   47.4926   54.3153 C   0  0  0  0  0  0  0  0  0  0  0  0
   67.9034   46.4826   53.9175 C   0  0  0  0  0  0  0  0  0  0  0  0
   67.8261   46.1151   52.5854 C   0  0  0  0  0  0  0  0  0  0  0  0
   66.9807   45.0812   52.2001 O   0  0  0  0  0  0  0  0  0  0  0  0
   68.5865   46.7825   51.6767 C   0  0  0  0  0  0  0  0  0  0  0  0
   69.4267   47.8215   52.1072 C   0  0  0  0  0  0  0  0  0  0  0  0
   70.1717   48.4447   51.1302 O   0  0  0  0  0  0  0  0  0  0  0  0
   68.4852   52.0955   54.5866 C   0  0  0  0  0  0  0  0  0  0  0  0
   68.3545   51.2095   55.7724 C   0  0  0  0  0  0  0  0  0  0  0  0
   67.3399   51.3901   56.7060 C   0  0  0  0  0  0  0  0  0  0  0  0
   67.2518   50.5455   57.7932 C   0  0  0  0  0  0  0  0  0  0  0  0
   68.1773   49.5236   57.9437 C   0  0  0  0  0  0  0  0  0  0  0  0
   69.1874   49.3353   57.0241 C   0  0  0  0  0  0  0  0  0  0  0  0
   69.2723   50.1931   55.9248 C   0  0  0  0  0  0  0  0  0  0  0  0
 15 16  1  0
 16 17  2  0
 16 21  1  0
 17 18  1  0
 18 19  2  0
 19 20  1  0
 20 21  2  0
 21  1  1  0
  1  2  1  0
  1  5  1  0
  2  7  1  0
  2  3  2  0
  7  8  2  0
  7 13  1  0
  8  9  1  0
  9 10  2  0
 10 11  1  0
 10 12  1  0
 12 13  2  0
 13 14  1  0
  3  4  1  0
  4  5  1  0
  5  6  2  0
M  END
>  <minimizedAffinity>  (11) 
-9.11401

$$$$
cs_full_output_folder/data/smiles/5259.pdb
     RDKit          3D

 22 24  0  0  0  0  0  0  0  0999 V2000
   68.8101   45.5291   56.3753 C   0  0  0  0  0  0  0  0  0  0  0  0
   69.8798   46.1249   56.9649 N   0  0  0  0  0  0  0  0  0  0  0  0
   70.7540   45.4387   57.7077 C   0  0  0  0  0  0  0  0  0  0  0  0
   70.5809   44.1176   57.8851 N   0  0  0  0  0  0  0  0  0  0  0  0
   69.5207   43.4837   57.3106 C   0  0  0  0  0  0  0  0  0  0  0  0
   68.6703   44.2084   56.5747 N   0  0  0  0  0  0  0  0  0  0  0  0
   69.3501   42.0588   57.5125 C   0  0  0  0  0  0  0  0  0  0  0  0
   68.2468   41.4064   57.0080 C   0  0  0  0  0  0  0  0  0  0  0  0
   68.0958   40.0353   57.2099 C   0  0  0  0  0  0  0  0  0  0  0  0
   69.0322   39.3053   57.9105 C   0  0  0  0  0  0  0  0  0  0  0  0
   70.1327   39.9659   58.4109 C   0  0  0  0  0  0  0  0  0  0  0  0
   70.2821   41.3336   58.2093 C   0  0  0  0  0  0  0  0  0  0  0  0
   67.9234   46.2727   55.6112 O   0  0  0  0  0  0  0  0  0  0  0  0
   69.2857   47.7199   52.4917 C   0  0  0  0  0  0  0  0  0  0  0  0
   68.7087   46.9268   51.5262 C   0  0  0  0  0  0  0  0  0  0  0  0
   67.8712   45.9173   51.9513 C   0  0  0  0  0  0  0  0  0  0  0  0
   67.6025   45.6896   53.2858 C   0  0  0  0  0  0  0  0  0  0  0  0
   68.1754   46.4795   54.2616 C   0  0  0  0  0  0  0  0  0  0  0  0
   69.0161   47.4918   53.8462 C   0  0  0  0  0  0  0  0  0  0  0  0
   71.2307   49.1762   52.9236 N   0  0  0  0  0  0  0  0  0  0  0  0
   70.1678   48.7856   52.0868 C   0  0  0  0  0  0  0  0  0  0  0  0
   69.9923   49.3634   50.9970 O   0  0  0  0  0  0  0  0  0  0  0  0
 20 21  1  0
 21 22  2  0
 21 14  1  0
 14 15  2  0
 14 19  1  0
 15 16  1  0
 16 17  2  0
 17 18  1  0
 18 13  1  0
 18 19  2  0
 13  1  1  0
  1  2  2  0
  1  6  1  0
  2  3  1  0
  3  4  2  0
  4  5  1  0
  5  7  1  0
  5  6  2  0
  7  8  2  0
  7 12  1  0
  8  9  1  0
  9 10  2  0
 10 11  1  0
 11 12  2  0
M  END
>  <minimizedAffinity>  (12) 
-9.11349

$$$$
cs_full_output_folder/data/smiles/4676.pdb
     RDKit          3D

 21 23  0  0  0  0  0  0  0  0999 V2000
   69.7182   48.1236   54.7996 C   0  0  0  0  0  0  0  0  0  0  0  0
   70.6235   49.0395   54.3764 N   0  0  0  0  0  0  0  0  0  0  0  0
   70.9131   49.2669   53.1143 N   0  0  0  0  0  0  0  0  0  0  0  0
   70.2818   48.5566   52.1711 C   0  0  0  0  0  0  0  0  0  0  0  0
   70.5160   48.7269   50.9287 O   0  0  0  0  0  0  0  0  0  0  0  0
   69.3453   47.6051   52.5003 C   0  0  0  0  0  0  0  0  0  0  0  0
   68.6738   46.8791   51.5453 C   0  0  0  0  0  0  0  0  0  0  0  0
   67.7253   45.9431   51.8916 C   0  0  0  0  0  0  0  0  0  0  0  0
   67.4353   45.7226   53.2172 C   0  0  0  0  0  0  0  0  0  0  0  0
   68.0938   46.4375   54.1989 C   0  0  0  0  0  0  0  0  0  0  0  0
   69.0554   47.3848   53.8572 C   0  0  0  0  0  0  0  0  0  0  0  0
   69.5157   47.9055   56.2506 C   0  0  0  0  0  0  0  0  0  0  0  0
   67.9769   51.1290   57.3023 C   0  0  0  0  0  0  0  0  0  0  0  0
   66.8014   50.7259   57.8982 C   0  0  0  0  0  0  0  0  0  0  0  0
   66.4535   49.3982   57.9840 C   0  0  0  0  0  0  0  0  0  0  0  0
   67.3341   48.4508   57.4444 C   0  0  0  0  0  0  0  0  0  0  0  0
   68.5106   48.8337   56.8471 C   0  0  0  0  0  0  0  0  0  0  0  0
   68.8333   50.1959   56.7773 C   0  0  0  0  0  0  0  0  0  0  0  0
   68.3276   52.4848   57.2155 O   0  0  0  0  0  0  0  0  0  0  0  0
   68.9305   52.7744   54.5788 N   0  0  0  0  0  0  0  0  0  0  0  0
   69.4116   53.0900   56.0491 S   0  0  0  0  0  0  0  0  0  0  0  0
 20 21  2  0
 21 19  1  0
 19 13  1  0
 13 14  2  0
 13 18  1  0
 14 15  1  0
 15 16  2  0
 16 17  1  0
 17 12  1  0
 17 18  2  0
 12  1  1  0
  1  2  2  0
  1 11  1  0
  2  3  1  0
  3  4  1  0
  4  5  2  0
  4  6  1  0
  6  7  1  0
  6 11  2  0
  7  8  2  0
  8  9  1  0
  9 10  2  0
 10 11  1  0
M  END
>  <minimizedAffinity>  (13) 
-9.09360

$$$$
cs_full_output_folder/data/smiles/6454.pdb
     RDKit          3D

 21 23  0  0  0  0  0  0  0  0999 V2000
   70.6207   48.4892   50.8107 O   0  0  0  0  0  0  0  0  0  0  0  0
   70.3423   48.3767   52.0443 C   0  0  0  0  0  0  0  0  0  0  0  0
   70.9708   49.0628   52.9934 N   0  0  0  0  0  0  0  0  0  0  0  0
   70.6587   48.9222   54.2595 N   0  0  0  0  0  0  0  0  0  0  0  0
   69.6989   48.0938   54.7077 C   0  0  0  0  0  0  0  0  0  0  0  0
   69.0281   47.3647   53.7345 C   0  0  0  0  0  0  0  0  0  0  0  0
   68.0408   46.5067   54.1615 C   0  0  0  0  0  0  0  0  0  0  0  0
   67.3626   45.7739   53.2047 C   0  0  0  0  0  0  0  0  0  0  0  0
   67.6774   45.9089   51.8723 C   0  0  0  0  0  0  0  0  0  0  0  0
   68.6638   46.7635   51.4259 C   0  0  0  0  0  0  0  0  0  0  0  0
   69.3411   47.4983   52.4027 C   0  0  0  0  0  0  0  0  0  0  0  0
   69.3641   47.9527   56.1519 C   0  0  0  0  0  0  0  0  0  0  0  0
   68.6584   49.1873   56.5568 C   0  0  0  0  0  0  0  0  0  0  0  0
   67.6279   49.0957   57.4637 C   0  0  0  0  0  0  0  0  0  0  0  0
   66.9292   50.2377   57.8786 C   0  0  0  0  0  0  0  0  0  0  0  0
   67.2996   51.4798   57.3501 C   0  0  0  0  0  0  0  0  0  0  0  0
   68.3304   51.5807   56.4419 C   0  0  0  0  0  0  0  0  0  0  0  0
   68.9794   50.4175   56.0734 C   0  0  0  0  0  0  0  0  0  0  0  0
   68.6646   52.8593   55.9397 N   0  0  0  0  0  0  0  0  0  0  0  0
   69.0716   53.7360   56.7219 O   0  0  0  0  0  0  0  0  0  0  0  0
   68.5627   53.1883   54.6143 O   0  0  0  0  0  0  0  0  0  0  0  0
  1  2  2  0
  2  3  1  0
  2 11  1  0
  3  4  1  0
  4  5  2  0
  5 12  1  0
  5  6  1  0
 12 13  1  0
 13 14  2  0
 13 18  1  0
 14 15  1  0
 15 16  2  0
 16 17  1  0
 17 19  1  0
 17 18  2  0
 19 20  2  0
 19 21  1  0
  6  7  1  0
  6 11  2  0
  7  8  2  0
  8  9  1  0
  9 10  2  0
 10 11  1  0
M  CHG  2  19   1  21  -1
M  END
>  <minimizedAffinity>  (14) 
-9.07546

$$$$
