cs_full_output_folder/data/smiles/4827.pdb
     RDKit          3D

 29 32  0  0  0  0  0  0  0  0999 V2000
   70.6558   46.1812   58.4130 C   0  0  0  0  0  0  0  0  0  0  0  0
   69.8083   46.7248   57.4524 C   0  0  0  0  0  0  0  0  0  0  0  0
   69.7698   48.0623   57.2023 C   0  0  0  0  0  0  0  0  0  0  0  0
   70.6030   48.9218   57.9275 C   0  0  0  0  0  0  0  0  0  0  0  0
   71.4414   48.4174   58.8725 C   0  0  0  0  0  0  0  0  0  0  0  0
   71.4586   47.0469   59.1056 C   0  0  0  0  0  0  0  0  0  0  0  0
   72.3237   46.6175   60.0652 F   0  0  0  0  0  0  0  0  0  0  0  0
   70.7122   44.7728   58.6925 C   0  0  0  0  0  0  0  0  0  0  0  0
   70.5512   44.3659   59.8951 O   0  0  0  0  0  0  0  0  0  0  0  0
   70.9268   43.7651   57.7715 O   0  0  0  0  0  0  0  0  0  0  0  0
   70.2709   42.4903   57.8906 C   0  0  0  0  0  0  0  0  0  0  0  0
   68.1790   40.2057   57.3805 C   0  0  0  0  0  0  0  0  0  0  0  0
   68.0955   41.5895   56.8125 C   0  0  0  0  0  0  0  0  0  0  0  0
   67.1175   42.0948   55.9895 C   0  0  0  0  0  0  0  0  0  0  0  0
   67.4581   43.3652   55.7415 N   0  0  0  0  0  0  0  0  0  0  0  0
   68.5890   43.6425   56.3735 N   0  0  0  0  0  0  0  0  0  0  0  0
   69.0420   42.5781   57.0611 C   0  0  0  0  0  0  0  0  0  0  0  0
   68.8934   48.7153   56.2164 C   0  0  0  0  0  0  0  0  0  0  0  0
   69.3446   48.6508   54.8285 C   0  0  0  0  0  0  0  0  0  0  0  0
   70.2428   49.5599   54.3378 N   0  0  0  0  0  0  0  0  0  0  0  0
   70.6440   49.5786   53.0943 N   0  0  0  0  0  0  0  0  0  0  0  0
   70.1964   48.6869   52.1845 C   0  0  0  0  0  0  0  0  0  0  0  0
   70.5784   48.6968   50.9780 O   0  0  0  0  0  0  0  0  0  0  0  0
   69.2936   47.7373   52.5919 C   0  0  0  0  0  0  0  0  0  0  0  0
   68.8276   46.8073   51.7054 C   0  0  0  0  0  0  0  0  0  0  0  0
   67.9373   45.8402   52.0932 C   0  0  0  0  0  0  0  0  0  0  0  0
   67.5083   45.8045   53.3952 C   0  0  0  0  0  0  0  0  0  0  0  0
   67.9824   46.7506   54.2957 C   0  0  0  0  0  0  0  0  0  0  0  0
   68.8762   47.7347   53.9294 C   0  0  0  0  0  0  0  0  0  0  0  0
 12 13  1  0
 13 14  2  0
 13 17  1  0
 14 15  1  0
 15 16  1  0
 16 17  2  0
 17 11  1  0
 11 10  1  0
 10  8  1  0
  8  9  2  0
  8  1  1  0
  1  2  2  0
  1  6  1  0
  2  3  1  0
  3 18  1  0
  3  4  2  0
 18 19  1  0
 19 20  2  0
 19 29  1  0
 20 21  1  0
 21 22  1  0
 22 23  2  0
 22 24  1  0
 24 25  1  0
 24 29  2  0
 25 26  2  0
 26 27  1  0
 27 28  2  0
 28 29  1  0
  4  5  1  0
  5  6  2  0
  6  7  1  0
M  END
>  <minimizedAffinity>  (1) 
-10.86775

$$$$
cs_full_output_folder/data/smiles/3422.pdb
     RDKit          3D

 28 30  0  0  0  0  0  0  0  0999 V2000
   68.2895   45.8591   54.0312 C   0  0  0  0  0  0  0  0  0  0  0  0
   67.6582   45.3447   52.9193 C   0  0  0  0  0  0  0  0  0  0  0  0
   67.7190   46.0043   51.6994 C   0  0  0  0  0  0  0  0  0  0  0  0
   68.4216   47.1932   51.5944 C   0  0  0  0  0  0  0  0  0  0  0  0
   69.0630   47.7282   52.6939 C   0  0  0  0  0  0  0  0  0  0  0  0
   68.9687   47.0322   53.8759 C   0  0  0  0  0  0  0  0  0  0  0  0
   67.8094   43.8016   55.4328 N   0  0  0  0  0  0  0  0  0  0  0  0
   68.2095   45.1460   55.2983 C   0  0  0  0  0  0  0  0  0  0  0  0
   68.5146   45.7550   56.3537 O   0  0  0  0  0  0  0  0  0  0  0  0
   67.4751   41.1576   55.4981 O   0  0  0  0  0  0  0  0  0  0  0  0
   67.5607   41.7199   56.6276 C   0  0  0  0  0  0  0  0  0  0  0  0
   67.7387   43.1248   56.6694 N   0  0  0  0  0  0  0  0  0  0  0  0
   67.4666   40.8619   57.8072 C   0  0  0  0  0  0  0  0  0  0  0  0
   68.1059   39.6508   57.8478 C   0  0  0  0  0  0  0  0  0  0  0  0
   67.9928   38.8709   58.9783 C   0  0  0  0  0  0  0  0  0  0  0  0
   67.2494   39.2870   60.0660 C   0  0  0  0  0  0  0  0  0  0  0  0
   66.6086   40.5093   60.0162 C   0  0  0  0  0  0  0  0  0  0  0  0
   66.7278   41.2785   58.8849 C   0  0  0  0  0  0  0  0  0  0  0  0
   69.9194   49.2148   52.4826 S   0  0  0  0  0  0  0  0  0  0  0  0
   71.2794   49.0617   53.0980 O   0  0  0  0  0  0  0  0  0  0  0  0
   70.1576   49.3807   50.9881 O   0  0  0  0  0  0  0  0  0  0  0  0
   69.1568   50.5889   53.0668 N   0  0  0  0  0  0  0  0  0  0  0  0
   69.0510   50.9882   54.4285 C   0  0  0  0  0  0  0  0  0  0  0  0
   69.0544   52.3399   54.6784 C   0  0  0  0  0  0  0  0  0  0  0  0
   68.9601   52.8708   55.9477 C   0  0  0  0  0  0  0  0  0  0  0  0
   68.8609   51.9584   56.9762 C   0  0  0  0  0  0  0  0  0  0  0  0
   68.8544   50.5943   56.7623 C   0  0  0  0  0  0  0  0  0  0  0  0
   68.9502   50.1308   55.4817 C   0  0  0  0  0  0  0  0  0  0  0  0
 10 11  2  0
 11 12  1  0
 11 13  1  0
 12  7  1  0
  7  8  1  0
  8  9  2  0
  8  1  1  0
  1  2  2  0
  1  6  1  0
  2  3  1  0
  3  4  2  0
  4  5  1  0
  5 19  1  0
  5  6  2  0
 19 20  2  0
 19 21  2  0
 19 22  1  0
 22 23  1  0
 23 24  2  0
 23 28  1  0
 24 25  1  0
 25 26  2  0
 26 27  1  0
 27 28  2  0
 13 14  2  0
 13 18  1  0
 14 15  1  0
 15 16  2  0
 16 17  1  0
 17 18  2  0
M  END
>  <minimizedAffinity>  (2) 
-10.54740

$$$$
cs_full_output_folder/data/smiles/5438.pdb
     RDKit          3D

 29 32  0  0  0  0  0  0  0  0999 V2000
   70.6194   46.3381   58.3362 C   0  0  0  0  0  0  0  0  0  0  0  0
   69.9150   47.1599   57.4436 C   0  0  0  0  0  0  0  0  0  0  0  0
   70.1680   48.5092   57.3005 C   0  0  0  0  0  0  0  0  0  0  0  0
   71.1584   49.0453   58.0798 C   0  0  0  0  0  0  0  0  0  0  0  0
   71.8574   48.2601   58.9559 C   0  0  0  0  0  0  0  0  0  0  0  0
   71.5973   46.8966   59.0965 C   0  0  0  0  0  0  0  0  0  0  0  0
   72.3210   46.1621   59.9727 F   0  0  0  0  0  0  0  0  0  0  0  0
   70.4258   43.9845   57.3584 N   0  0  0  0  0  0  0  0  0  0  0  0
   70.2232   44.9378   58.3810 C   0  0  0  0  0  0  0  0  0  0  0  0
   69.6392   44.5114   59.4275 O   0  0  0  0  0  0  0  0  0  0  0  0
   69.9801   42.6084   57.5166 C   0  0  0  0  0  0  0  0  0  0  0  0
   68.3523   39.9067   57.5349 C   0  0  0  0  0  0  0  0  0  0  0  0
   67.9653   41.1878   56.9464 C   0  0  0  0  0  0  0  0  0  0  0  0
   66.7754   41.4254   56.2783 C   0  0  0  0  0  0  0  0  0  0  0  0
   66.7942   42.6834   55.9046 O   0  0  0  0  0  0  0  0  0  0  0  0
   67.8933   43.2524   56.2808 N   0  0  0  0  0  0  0  0  0  0  0  0
   68.6605   42.3729   56.9334 C   0  0  0  0  0  0  0  0  0  0  0  0
   69.3251   49.2676   56.3423 C   0  0  0  0  0  0  0  0  0  0  0  0
   69.6242   49.0297   54.9309 C   0  0  0  0  0  0  0  0  0  0  0  0
   70.4504   49.8824   54.2889 N   0  0  0  0  0  0  0  0  0  0  0  0
   70.7455   49.7504   52.9874 N   0  0  0  0  0  0  0  0  0  0  0  0
   70.2174   48.7492   52.2770 C   0  0  0  0  0  0  0  0  0  0  0  0
   70.5353   48.6750   51.0397 O   0  0  0  0  0  0  0  0  0  0  0  0
   69.3701   47.8398   52.8543 C   0  0  0  0  0  0  0  0  0  0  0  0
   68.8593   46.8246   52.1010 C   0  0  0  0  0  0  0  0  0  0  0  0
   68.0092   45.9042   52.7104 C   0  0  0  0  0  0  0  0  0  0  0  0
   67.6864   46.0083   54.0443 C   0  0  0  0  0  0  0  0  0  0  0  0
   68.2380   47.0672   54.7697 C   0  0  0  0  0  0  0  0  0  0  0  0
   69.0808   48.0033   54.2137 C   0  0  0  0  0  0  0  0  0  0  0  0
 12 13  1  0
 13 14  2  0
 13 17  1  0
 14 15  1  0
 15 16  1  0
 16 17  2  0
 17 11  1  0
 11  8  1  0
  8  9  1  0
  9 10  2  0
  9  1  1  0
  1  2  2  0
  1  6  1  0
  2  3  1  0
  3 18  1  0
  3  4  2  0
 18 19  1  0
 19 20  2  0
 19 29  1  0
 20 21  1  0
 21 22  1  0
 22 23  2  0
 22 24  1  0
 24 25  1  0
 24 29  2  0
 25 26  2  0
 26 27  1  0
 27 28  2  0
 28 29  1  0
  4  5  1  0
  5  6  2  0
  6  7  1  0
M  END
>  <minimizedAffinity>  (3) 
-10.49542

$$$$
cs_full_output_folder/data/smiles/1221.pdb
     RDKit          3D

 29 32  0  0  0  0  0  0  0  0999 V2000
   70.5667   45.5683   58.0649 C   0  0  0  0  0  0  0  0  0  0  0  0
   71.4284   46.3546   58.8439 C   0  0  0  0  0  0  0  0  0  0  0  0
   71.4470   47.7142   58.7930 C   0  0  0  0  0  0  0  0  0  0  0  0
   70.6001   48.3691   57.9561 C   0  0  0  0  0  0  0  0  0  0  0  0
   69.7072   47.6351   57.1479 C   0  0  0  0  0  0  0  0  0  0  0  0
   69.7405   46.2831   57.2447 C   0  0  0  0  0  0  0  0  0  0  0  0
   68.8439   43.6014   56.9476 O   0  0  0  0  0  0  0  0  0  0  0  0
   69.7842   43.2445   57.6764 C   0  0  0  0  0  0  0  0  0  0  0  0
   70.6380   44.1940   58.2325 N   0  0  0  0  0  0  0  0  0  0  0  0
   69.9382   41.7857   57.9153 C   0  0  0  0  0  0  0  0  0  0  0  0
   68.9032   40.9065   57.8629 C   0  0  0  0  0  0  0  0  0  0  0  0
   69.0724   39.5436   58.0945 C   0  0  0  0  0  0  0  0  0  0  0  0
   68.0395   38.6636   58.0417 F   0  0  0  0  0  0  0  0  0  0  0  0
   70.3430   39.0453   58.3951 C   0  0  0  0  0  0  0  0  0  0  0  0
   71.3846   39.9436   58.4460 C   0  0  0  0  0  0  0  0  0  0  0  0
   72.6187   39.4694   58.7353 F   0  0  0  0  0  0  0  0  0  0  0  0
   71.1850   41.3154   58.2057 C   0  0  0  0  0  0  0  0  0  0  0  0
   68.8206   48.4634   56.2845 C   0  0  0  0  0  0  0  0  0  0  0  0
   69.3621   48.4577   54.9014 C   0  0  0  0  0  0  0  0  0  0  0  0
   70.1988   49.4619   54.4967 N   0  0  0  0  0  0  0  0  0  0  0  0
   70.6259   49.5966   53.2572 N   0  0  0  0  0  0  0  0  0  0  0  0
   70.2234   48.7081   52.3343 C   0  0  0  0  0  0  0  0  0  0  0  0
   70.6186   48.8143   51.1277 O   0  0  0  0  0  0  0  0  0  0  0  0
   69.3732   47.6429   52.6318 C   0  0  0  0  0  0  0  0  0  0  0  0
   68.9517   47.5372   53.9478 C   0  0  0  0  0  0  0  0  0  0  0  0
   68.1553   46.3964   54.4566 C   0  0  0  0  0  0  0  0  0  0  0  0
   67.7529   45.4812   53.3391 C   0  0  0  0  0  0  0  0  0  0  0  0
   67.5647   46.2041   52.0297 C   0  0  0  0  0  0  0  0  0  0  0  0
   68.9472   46.7004   51.5570 C   0  0  0  0  0  0  0  0  0  0  0  0
  7  8  2  0
  8  9  1  0
  8 10  1  0
  9  1  1  0
  1  2  2  0
  1  6  1  0
  2  3  1  0
  3  4  2  0
  4  5  1  0
  5 18  1  0
  5  6  2  0
 18 19  1  0
 19 20  2  0
 19 25  1  0
 20 21  1  0
 21 22  1  0
 22 23  2  0
 22 24  1  0
 24 25  2  0
 24 29  1  0
 25 26  1  0
 26 27  1  0
 27 28  1  0
 28 29  1  0
 10 11  2  0
 10 17  1  0
 11 12  1  0
 12 13  1  0
 12 14  2  0
 14 15  1  0
 15 16  1  0
 15 17  2  0
M  END
>  <minimizedAffinity>  (4) 
-10.29588

$$$$
cs_full_output_folder/data/smiles/9016.pdb
     RDKit          3D

 27 29  0  0  0  0  0  0  0  0999 V2000
   70.6775   46.4755   58.3263 C   0  0  0  0  0  0  0  0  0  0  0  0
   69.8583   47.0853   57.3643 C   0  0  0  0  0  0  0  0  0  0  0  0
   69.8660   48.4190   57.0874 C   0  0  0  0  0  0  0  0  0  0  0  0
   70.7485   49.2021   57.8172 C   0  0  0  0  0  0  0  0  0  0  0  0
   71.5770   48.6617   58.7768 C   0  0  0  0  0  0  0  0  0  0  0  0
   71.5289   47.2966   59.0190 C   0  0  0  0  0  0  0  0  0  0  0  0
   72.3442   46.7775   59.9477 F   0  0  0  0  0  0  0  0  0  0  0  0
   71.2464   44.0721   57.8130 N   0  0  0  0  0  0  0  0  0  0  0  0
   70.5323   45.0501   58.5092 C   0  0  0  0  0  0  0  0  0  0  0  0
   69.6904   44.6162   59.3738 O   0  0  0  0  0  0  0  0  0  0  0  0
   71.0463   42.6423   58.0362 C   0  0  0  0  0  0  0  0  0  0  0  0
   68.7312   41.7678   56.9753 C   0  0  0  0  0  0  0  0  0  0  0  0
   69.7904   42.1764   57.4620 C   0  0  0  0  0  0  0  0  0  0  0  0
   67.5417   40.3619   55.4781 N   0  0  0  0  0  0  0  0  0  0  0  0
   67.5097   41.2796   56.4021 C   0  0  0  0  0  0  0  0  0  0  0  0
   69.0007   49.0872   56.0962 C   0  0  0  0  0  0  0  0  0  0  0  0
   69.4051   48.8477   54.6913 C   0  0  0  0  0  0  0  0  0  0  0  0
   70.3168   49.6973   54.1203 N   0  0  0  0  0  0  0  0  0  0  0  0
   70.7015   49.5506   52.8718 N   0  0  0  0  0  0  0  0  0  0  0  0
   70.2389   48.5663   52.0588 C   0  0  0  0  0  0  0  0  0  0  0  0
   70.6417   48.4812   50.8897 O   0  0  0  0  0  0  0  0  0  0  0  0
   69.3125   47.6713   52.5761 C   0  0  0  0  0  0  0  0  0  0  0  0
   68.8239   46.6581   51.7630 C   0  0  0  0  0  0  0  0  0  0  0  0
   67.9093   45.7670   52.2581 C   0  0  0  0  0  0  0  0  0  0  0  0
   67.5064   45.9261   53.5848 C   0  0  0  0  0  0  0  0  0  0  0  0
   68.0048   46.9386   54.3712 C   0  0  0  0  0  0  0  0  0  0  0  0
   68.9265   47.8480   53.8879 C   0  0  0  0  0  0  0  0  0  0  0  0
 14 15  2  0
 15 12  1  0
 12 13  3  0
 13 11  1  0
 11  8  1  0
  8  9  1  0
  9 10  2  0
  9  1  1  0
  1  2  2  0
  1  6  1  0
  2  3  1  0
  3 16  1  0
  3  4  2  0
 16 17  1  0
 17 18  2  0
 17 27  1  0
 18 19  1  0
 19 20  1  0
 20 21  2  0
 20 22  1  0
 22 23  1  0
 22 27  2  0
 23 24  2  0
 24 25  1  0
 25 26  2  0
 26 27  1  0
  4  5  1  0
  5  6  2  0
  6  7  1  0
M  END
>  <minimizedAffinity>  (5) 
-10.14183

$$$$
cs_full_output_folder/data/smiles/6749.pdb
     RDKit          3D

 28 31  0  0  0  0  0  0  0  0999 V2000
   70.4354   45.1626   57.8232 C   0  0  0  0  0  0  0  0  0  0  0  0
   71.4821   45.5282   58.6320 C   0  0  0  0  0  0  0  0  0  0  0  0
   71.8446   46.8547   58.6676 C   0  0  0  0  0  0  0  0  0  0  0  0
   71.1731   47.8075   57.9065 C   0  0  0  0  0  0  0  0  0  0  0  0
   70.1310   47.4559   57.0995 C   0  0  0  0  0  0  0  0  0  0  0  0
   69.7851   46.1097   57.0817 C   0  0  0  0  0  0  0  0  0  0  0  0
   68.5924   42.0239   56.8667 C   0  0  0  0  0  0  0  0  0  0  0  0
   69.2650   41.0924   57.6669 C   0  0  0  0  0  0  0  0  0  0  0  0
   70.2938   41.4826   58.4958 C   0  0  0  0  0  0  0  0  0  0  0  0
   70.6832   42.8025   58.5552 C   0  0  0  0  0  0  0  0  0  0  0  0
   70.0491   43.7629   57.7831 C   0  0  0  0  0  0  0  0  0  0  0  0
   69.0129   43.3248   56.9585 C   0  0  0  0  0  0  0  0  0  0  0  0
   67.5932   40.4389   55.4799 O   0  0  0  0  0  0  0  0  0  0  0  0
   67.5218   41.5611   56.0164 C   0  0  0  0  0  0  0  0  0  0  0  0
   66.3923   42.3709   55.7857 N   0  0  0  0  0  0  0  0  0  0  0  0
   65.3919   41.9047   54.9731 F   0  0  0  0  0  0  0  0  0  0  0  0
   69.3958   48.4580   56.2967 C   0  0  0  0  0  0  0  0  0  0  0  0
   69.5993   48.3775   54.8728 C   0  0  0  0  0  0  0  0  0  0  0  0
   70.6688   49.0529   54.3498 N   0  0  0  0  0  0  0  0  0  0  0  0
   70.9823   49.0281   53.0688 N   0  0  0  0  0  0  0  0  0  0  0  0
   70.2427   48.3125   52.1784 C   0  0  0  0  0  0  0  0  0  0  0  0
   70.5236   48.2732   50.9532 O   0  0  0  0  0  0  0  0  0  0  0  0
   69.1578   47.6132   52.6384 C   0  0  0  0  0  0  0  0  0  0  0  0
   68.8573   47.6676   54.0105 C   0  0  0  0  0  0  0  0  0  0  0  0
   67.6663   46.9273   54.4147 C   0  0  0  0  0  0  0  0  0  0  0  0
   67.8850   45.4821   53.9435 C   0  0  0  0  0  0  0  0  0  0  0  0
   68.0661   45.4267   52.4478 C   0  0  0  0  0  0  0  0  0  0  0  0
   68.2633   46.7833   51.8094 C   0  0  0  0  0  0  0  0  0  0  0  0
 13 14  2  0
 14 15  1  0
 14  7  1  0
 15 16  1  0
  7  8  2  0
  7 12  1  0
  8  9  1  0
  9 10  2  0
 10 11  1  0
 11  1  1  0
 11 12  2  0
  1  2  2  0
  1  6  1  0
  2  3  1  0
  3  4  2  0
  4  5  1  0
  5 17  1  0
  5  6  2  0
 17 18  1  0
 18 19  2  0
 18 24  1  0
 19 20  1  0
 20 21  1  0
 21 22  2  0
 21 23  1  0
 23 24  2  0
 23 28  1  0
 24 25  1  0
 25 26  1  0
 26 27  1  0
 27 28  1  0
M  END
>  <minimizedAffinity>  (6) 
-10.10955

$$$$
cs_full_output_folder/data/smiles/9581.pdb
     RDKit          3D

 30 33  0  0  0  0  0  0  0  0999 V2000
   70.6407   45.3073   57.9335 C   0  0  0  0  0  0  0  0  0  0  0  0
   71.5390   45.9852   58.7102 C   0  0  0  0  0  0  0  0  0  0  0  0
   71.6179   47.3939   58.7114 C   0  0  0  0  0  0  0  0  0  0  0  0
   70.7667   48.0925   57.9067 C   0  0  0  0  0  0  0  0  0  0  0  0
   69.8235   47.4491   57.0852 C   0  0  0  0  0  0  0  0  0  0  0  0
   69.8034   46.0957   57.1359 C   0  0  0  0  0  0  0  0  0  0  0  0
   69.8072   43.0701   58.7836 C   0  0  0  0  0  0  0  0  0  0  0  0
   69.2575   43.6018   59.7786 O   0  0  0  0  0  0  0  0  0  0  0  0
   70.4871   43.9146   57.8830 N   0  0  0  0  0  0  0  0  0  0  0  0
   68.6586   41.1125   57.8859 C   0  0  0  0  0  0  0  0  0  0  0  0
   68.5259   39.7393   57.7026 C   0  0  0  0  0  0  0  0  0  0  0  0
   69.4439   38.8690   58.2433 C   0  0  0  0  0  0  0  0  0  0  0  0
   70.5012   39.3666   58.9719 C   0  0  0  0  0  0  0  0  0  0  0  0
   70.6167   40.7548   59.1448 C   0  0  0  0  0  0  0  0  0  0  0  0
   69.7155   41.6249   58.6153 C   0  0  0  0  0  0  0  0  0  0  0  0
   66.5669   42.1479   57.8755 O   0  0  0  0  0  0  0  0  0  0  0  0
   67.6566   41.9739   57.2840 C   0  0  0  0  0  0  0  0  0  0  0  0
   67.8922   42.6155   56.0478 O   0  0  0  0  0  0  0  0  0  0  0  0
   68.9043   48.2802   56.2553 C   0  0  0  0  0  0  0  0  0  0  0  0
   69.2582   48.3505   54.8428 C   0  0  0  0  0  0  0  0  0  0  0  0
   70.1611   49.3092   54.4467 N   0  0  0  0  0  0  0  0  0  0  0  0
   70.5740   49.4477   53.2162 N   0  0  0  0  0  0  0  0  0  0  0  0
   70.1494   48.6613   52.2294 C   0  0  0  0  0  0  0  0  0  0  0  0
   70.5336   48.7829   51.0576 O   0  0  0  0  0  0  0  0  0  0  0  0
   69.2282   47.6550   52.5243 C   0  0  0  0  0  0  0  0  0  0  0  0
   68.7474   46.8179   51.5515 C   0  0  0  0  0  0  0  0  0  0  0  0
   67.8300   45.8273   51.8339 C   0  0  0  0  0  0  0  0  0  0  0  0
   67.4223   45.7229   53.1533 C   0  0  0  0  0  0  0  0  0  0  0  0
   67.9070   46.5704   54.1499 C   0  0  0  0  0  0  0  0  0  0  0  0
   68.8107   47.5325   53.8312 C   0  0  0  0  0  0  0  0  0  0  0  0
 16 17  2  0
 17 18  1  0
 17 10  1  0
 10 11  2  0
 10 15  1  0
 11 12  1  0
 12 13  2  0
 13 14  1  0
 14 15  2  0
 15  7  1  0
  7  8  2  0
  7  9  1  0
  9  1  1  0
  1  2  2  0
  1  6  1  0
  2  3  1  0
  3  4  2  0
  4  5  1  0
  5 19  1  0
  5  6  2  0
 19 20  1  0
 20 21  2  0
 20 30  1  0
 21 22  1  0
 22 23  1  0
 23 24  2  0
 23 25  1  0
 25 26  1  0
 25 30  2  0
 26 27  2  0
 27 28  1  0
 28 29  2  0
 29 30  1  0
M  END
>  <minimizedAffinity>  (7) 
-10.08375

$$$$
cs_full_output_folder/data/smiles/2382.pdb
     RDKit          3D

 28 31  0  0  0  0  0  0  0  0999 V2000
   71.1485   46.3764   58.0981 C   0  0  0  0  0  0  0  0  0  0  0  0
   71.9360   47.0578   58.9830 C   0  0  0  0  0  0  0  0  0  0  0  0
   71.7842   48.4487   59.0468 C   0  0  0  0  0  0  0  0  0  0  0  0
   70.8913   49.1262   58.2639 C   0  0  0  0  0  0  0  0  0  0  0  0
   70.1123   48.4142   57.3829 C   0  0  0  0  0  0  0  0  0  0  0  0
   70.2703   47.0918   57.3358 N   0  0  0  0  0  0  0  0  0  0  0  0
   69.6055   44.3920   59.4991 O   0  0  0  0  0  0  0  0  0  0  0  0
   70.4130   44.0429   58.6294 C   0  0  0  0  0  0  0  0  0  0  0  0
   71.1856   44.9820   57.9209 N   0  0  0  0  0  0  0  0  0  0  0  0
   70.6207   42.5910   58.2723 C   0  0  0  0  0  0  0  0  0  0  0  0
   69.4651   42.0479   57.5425 C   0  0  0  0  0  0  0  0  0  0  0  0
   68.7389   42.9320   56.7597 C   0  0  0  0  0  0  0  0  0  0  0  0
   67.6381   42.5399   56.0321 C   0  0  0  0  0  0  0  0  0  0  0  0
   67.2387   41.2064   56.0835 C   0  0  0  0  0  0  0  0  0  0  0  0
   67.9582   40.3279   56.8605 C   0  0  0  0  0  0  0  0  0  0  0  0
   69.0548   40.7424   57.5781 C   0  0  0  0  0  0  0  0  0  0  0  0
   69.1079   49.0373   56.4654 C   0  0  0  0  0  0  0  0  0  0  0  0
   69.4689   48.8735   55.0388 C   0  0  0  0  0  0  0  0  0  0  0  0
   70.3958   49.6964   54.4635 N   0  0  0  0  0  0  0  0  0  0  0  0
   70.7561   49.6165   53.2013 N   0  0  0  0  0  0  0  0  0  0  0  0
   70.2325   48.7061   52.3639 C   0  0  0  0  0  0  0  0  0  0  0  0
   70.5998   48.6619   51.1708 O   0  0  0  0  0  0  0  0  0  0  0  0
   69.2781   47.8290   52.8757 C   0  0  0  0  0  0  0  0  0  0  0  0
   68.9181   47.9268   54.1883 C   0  0  0  0  0  0  0  0  0  0  0  0
   67.9150   46.9786   54.7252 C   0  0  0  0  0  0  0  0  0  0  0  0
   67.9924   45.6310   54.0384 C   0  0  0  0  0  0  0  0  0  0  0  0
   67.9093   45.7467   52.5509 C   0  0  0  0  0  0  0  0  0  0  0  0
   68.7077   46.8538   51.9696 C   0  0  0  0  0  0  0  0  0  0  0  0
  7  8  2  0
  8 10  1  0
  8  9  1  0
 10 11  1  0
 11 12  2  0
 11 16  1  0
 12 13  1  0
 13 14  2  0
 14 15  1  0
 15 16  2  0
  9  1  1  0
  1  2  2  0
  1  6  1  0
  2  3  1  0
  3  4  2  0
  4  5  1  0
  5 17  1  0
  5  6  2  0
 17 18  1  0
 18 19  2  0
 18 24  1  0
 19 20  1  0
 20 21  1  0
 21 22  2  0
 21 23  1  0
 23 24  2  0
 23 28  1  0
 24 25  1  0
 25 26  1  0
 26 27  1  0
 27 28  1  0
M  END
>  <minimizedAffinity>  (8) 
-9.95604

$$$$
cs_full_output_folder/data/smiles/53.pdb
     RDKit          3D

 26 28  0  0  0  0  0  0  0  0999 V2000
   73.7923   52.5869   54.6838 O   0  0  0  0  0  0  0  0  0  0  0  0
   73.1063   51.5384   54.6696 C   0  0  0  0  0  0  0  0  0  0  0  0
   73.8029   50.3107   54.6746 N   0  0  0  0  0  0  0  0  0  0  0  0
   75.1870   50.1848   54.6939 N   0  0  0  0  0  0  0  0  0  0  0  0
   75.9889   50.2581   55.8400 C   0  0  0  0  0  0  0  0  0  0  0  0
   75.3919   50.4532   56.9367 O   0  0  0  0  0  0  0  0  0  0  0  0
   77.4434   50.1252   55.8545 C   0  0  0  0  0  0  0  0  0  0  0  0
   78.2745   51.0462   56.4560 C   0  0  0  0  0  0  0  0  0  0  0  0
   79.6634   50.8750   56.4437 C   0  0  0  0  0  0  0  0  0  0  0  0
   80.2504   49.7871   55.8342 C   0  0  0  0  0  0  0  0  0  0  0  0
   81.6020   49.6280   55.8273 F   0  0  0  0  0  0  0  0  0  0  0  0
   79.4170   48.8677   55.2340 C   0  0  0  0  0  0  0  0  0  0  0  0
   78.0495   49.0444   55.2507 C   0  0  0  0  0  0  0  0  0  0  0  0
   71.6344   51.6654   54.6492 C   0  0  0  0  0  0  0  0  0  0  0  0
   71.0149   50.5035   55.3855 C   0  0  0  0  0  0  0  0  0  0  0  0
   70.4054   49.5421   54.4360 C   0  0  0  0  0  0  0  0  0  0  0  0
   69.5899   48.5477   54.8033 N   0  0  0  0  0  0  0  0  0  0  0  0
   69.0312   47.6697   53.9614 C   0  0  0  0  0  0  0  0  0  0  0  0
   68.1943   46.6564   54.3733 C   0  0  0  0  0  0  0  0  0  0  0  0
   67.6222   45.7560   53.5038 C   0  0  0  0  0  0  0  0  0  0  0  0
   67.8991   45.8744   52.1529 C   0  0  0  0  0  0  0  0  0  0  0  0
   68.7394   46.8913   51.7349 C   0  0  0  0  0  0  0  0  0  0  0  0
   69.3076   47.7888   52.6159 C   0  0  0  0  0  0  0  0  0  0  0  0
   70.1494   48.8077   52.2035 C   0  0  0  0  0  0  0  0  0  0  0  0
   70.3798   48.8884   50.9797 O   0  0  0  0  0  0  0  0  0  0  0  0
   70.6700   49.6483   53.1148 N   0  0  0  0  0  0  0  0  0  0  0  0
  1  2  2  0
  2 14  1  0
  2  3  1  0
 14 15  1  0
 15 16  1  0
 16 17  2  0
 16 26  1  0
 17 18  1  0
 18 19  2  0
 18 23  1  0
 19 20  1  0
 20 21  2  0
 21 22  1  0
 22 23  2  0
 23 24  1  0
 24 25  2  0
 24 26  1  0
  3  4  1  0
  4  5  1  0
  5  6  2  0
  5  7  1  0
  7  8  2  0
  7 13  1  0
  8  9  1  0
  9 10  2  0
 10 11  1  0
 10 12  1  0
 12 13  2  0
M  END
>  <minimizedAffinity>  (9) 
-9.94250

$$$$
cs_full_output_folder/data/smiles/2083.pdb
     RDKit          3D

 26 27  0  0  0  0  0  0  0  0999 V2000
   69.9296   49.2575   52.5870 S   0  0  0  0  0  0  0  0  0  0  0  0
   71.3703   49.2232   53.0543 O   0  0  0  0  0  0  0  0  0  0  0  0
   69.9305   49.2393   51.0539 O   0  0  0  0  0  0  0  0  0  0  0  0
   69.1880   47.8045   53.1774 C   0  0  0  0  0  0  0  0  0  0  0  0
   68.5475   46.8982   52.3475 C   0  0  0  0  0  0  0  0  0  0  0  0
   68.4951   47.1500   51.0197 F   0  0  0  0  0  0  0  0  0  0  0  0
   67.9964   45.7827   52.9166 C   0  0  0  0  0  0  0  0  0  0  0  0
   67.3627   44.8815   52.1047 F   0  0  0  0  0  0  0  0  0  0  0  0
   68.0736   45.5656   54.2721 C   0  0  0  0  0  0  0  0  0  0  0  0
   67.5236   44.4532   54.8396 F   0  0  0  0  0  0  0  0  0  0  0  0
   68.7082   46.4648   55.0974 C   0  0  0  0  0  0  0  0  0  0  0  0
   68.7836   46.2491   56.4407 F   0  0  0  0  0  0  0  0  0  0  0  0
   69.2692   47.5888   54.5574 C   0  0  0  0  0  0  0  0  0  0  0  0
   69.9004   48.4844   55.3731 F   0  0  0  0  0  0  0  0  0  0  0  0
   69.1161   50.6353   53.1722 N   0  0  0  0  0  0  0  0  0  0  0  0
   71.5384   52.6610   55.2076 C   0  0  0  0  0  0  0  0  0  0  0  0
   70.5933   53.2036   56.0443 C   0  0  0  0  0  0  0  0  0  0  0  0
   69.2285   52.9408   55.9582 C   0  0  0  0  0  0  0  0  0  0  0  0
   68.7771   52.0990   54.9941 C   0  0  0  0  0  0  0  0  0  0  0  0
   69.6879   51.5118   54.1094 C   0  0  0  0  0  0  0  0  0  0  0  0
   71.0113   51.7922   54.2243 C   0  0  0  0  0  0  0  0  0  0  0  0
   73.3677   54.2938   55.4526 C   0  0  0  0  0  0  0  0  0  0  0  0
   72.9245   52.8902   55.2551 N   0  0  0  0  0  0  0  0  0  0  0  0
   73.9267   51.9546   55.1395 C   0  0  0  0  0  0  0  0  0  0  0  0
   73.7069   50.5811   54.9400 N   0  0  0  0  0  0  0  0  0  0  0  0
   75.1622   52.3615   55.2199 O   0  0  0  0  0  0  0  0  0  0  0  0
 22 23  1  0
 23 24  1  0
 23 16  1  0
 24 25  1  0
 24 26  2  0
 16 17  2  0
 16 21  1  0
 17 18  1  0
 18 19  2  0
 19 20  1  0
 20 15  1  0
 20 21  2  0
 15  1  1  0
  1  2  2  0
  1  3  2  0
  1  4  1  0
  4  5  2  0
  4 13  1  0
  5  6  1  0
  5  7  1  0
  7  8  1  0
  7  9  2  0
  9 10  1  0
  9 11  1  0
 11 12  1  0
 11 13  2  0
 13 14  1  0
M  END
>  <minimizedAffinity>  (10) 
-9.89820

$$$$
cs_full_output_folder/data/smiles/9026.pdb
     RDKit          3D

 27 31  0  0  0  0  0  0  0  0999 V2000
   70.7943   45.8463   58.0614 C   0  0  0  0  0  0  0  0  0  0  0  0
   71.2340   47.0410   58.6110 C   0  0  0  0  0  0  0  0  0  0  0  0
   71.4931   48.3482   58.9851 C   0  0  0  0  0  0  0  0  0  0  0  0
   70.5250   48.1401   57.9750 C   0  0  0  0  0  0  0  0  0  0  0  0
   69.6852   47.5837   57.0674 C   0  0  0  0  0  0  0  0  0  0  0  0
   69.8655   46.1967   57.1363 C   0  0  0  0  0  0  0  0  0  0  0  0
   69.1606   45.3431   56.3333 F   0  0  0  0  0  0  0  0  0  0  0  0
   73.5839   45.0051   58.1464 N   0  0  0  0  0  0  0  0  0  0  0  0
   72.6263   44.1660   58.1622 C   0  0  0  0  0  0  0  0  0  0  0  0
   72.9350   42.7189   57.8601 C   0  0  0  0  0  0  0  0  0  0  0  0
   71.6534   41.9606   57.7617 C   0  0  0  0  0  0  0  0  0  0  0  0
   70.8360   42.1626   59.0003 C   0  0  0  0  0  0  0  0  0  0  0  0
   70.5106   43.6045   59.1678 C   0  0  0  0  0  0  0  0  0  0  0  0
   69.5855   43.9477   59.9023 O   0  0  0  0  0  0  0  0  0  0  0  0
   71.2969   44.5751   58.4573 N   0  0  0  0  0  0  0  0  0  0  0  0
   68.7275   48.2969   56.1497 C   0  0  0  0  0  0  0  0  0  0  0  0
   69.2522   48.4585   54.7972 C   0  0  0  0  0  0  0  0  0  0  0  0
   70.1530   49.3740   54.4218 N   0  0  0  0  0  0  0  0  0  0  0  0
   70.6182   49.5087   53.1907 N   0  0  0  0  0  0  0  0  0  0  0  0
   70.1870   48.6914   52.2133 C   0  0  0  0  0  0  0  0  0  0  0  0
   70.5819   48.7590   51.0273 O   0  0  0  0  0  0  0  0  0  0  0  0
   69.2441   47.6976   52.5028 C   0  0  0  0  0  0  0  0  0  0  0  0
   68.7927   46.8484   51.4955 C   0  0  0  0  0  0  0  0  0  0  0  0
   67.8626   45.8830   51.8207 C   0  0  0  0  0  0  0  0  0  0  0  0
   67.3974   45.7687   53.1145 C   0  0  0  0  0  0  0  0  0  0  0  0
   67.8544   46.6165   54.0975 C   0  0  0  0  0  0  0  0  0  0  0  0
   68.7882   47.5964   53.7998 C   0  0  0  0  0  0  0  0  0  0  0  0
  8  9  2  0
  9 10  1  0
  9 15  1  0
 10 11  1  0
 11 12  1  0
 12 13  1  0
 13 14  2  0
 13 15  1  0
 15  1  1  0
  1  2  1  0
  1  6  2  0
  2  3  2  0
  2  4  1  0
  3  4  1  0
  4  5  2  0
  5 16  1  0
  5  6  1  0
 16 17  1  0
 17 18  2  0
 17 27  1  0
 18 19  1  0
 19 20  1  0
 20 21  2  0
 20 22  1  0
 22 23  1  0
 22 27  2  0
 23 24  2  0
 24 25  1  0
 25 26  2  0
 26 27  1  0
  6  7  1  0
M  CHG  1   8   1
M  END
>  <minimizedAffinity>  (11) 
-9.89572

$$$$
cs_full_output_folder/data/smiles/50.pdb
     RDKit          3D

 27 30  0  0  0  0  0  0  0  0999 V2000
   70.0432   48.2428   57.1245 C   0  0  0  0  0  0  0  0  0  0  0  0
   71.2504   48.7582   57.5365 C   0  0  0  0  0  0  0  0  0  0  0  0
   72.0515   48.0384   58.3934 C   0  0  0  0  0  0  0  0  0  0  0  0
   71.6467   46.8001   58.8425 C   0  0  0  0  0  0  0  0  0  0  0  0
   70.4117   46.2276   58.4469 C   0  0  0  0  0  0  0  0  0  0  0  0
   69.6802   47.0008   57.5994 C   0  0  0  0  0  0  0  0  0  0  0  0
   69.1638   49.0111   56.1757 C   0  0  0  0  0  0  0  0  0  0  0  0
   70.5561   48.6707   50.9191 O   0  0  0  0  0  0  0  0  0  0  0  0
   70.2004   48.6960   52.1276 C   0  0  0  0  0  0  0  0  0  0  0  0
   70.6375   49.6667   52.9158 N   0  0  0  0  0  0  0  0  0  0  0  0
   70.2785   49.7046   54.1603 N   0  0  0  0  0  0  0  0  0  0  0  0
   69.4538   48.7985   54.7674 C   0  0  0  0  0  0  0  0  0  0  0  0
   68.9916   47.7858   53.9681 C   0  0  0  0  0  0  0  0  0  0  0  0
   69.3648   47.7266   52.6291 C   0  0  0  0  0  0  0  0  0  0  0  0
   68.9123   46.6631   51.7092 C   0  0  0  0  0  0  0  0  0  0  0  0
   67.6455   46.0655   52.2733 C   0  0  0  0  0  0  0  0  0  0  0  0
   68.0073   45.5313   53.6550 C   0  0  0  0  0  0  0  0  0  0  0  0
   68.0984   46.7690   54.5616 C   0  0  0  0  0  0  0  0  0  0  0  0
   70.1127   44.9633   58.9823 N   0  0  0  0  0  0  0  0  0  0  0  0
   70.3473   43.4228   58.3815 S   0  0  0  0  0  0  0  0  0  0  0  0
   70.5615   42.4304   59.5225 O   0  0  0  0  0  0  0  0  0  0  0  0
   71.6907   43.3854   57.6399 O   0  0  0  0  0  0  0  0  0  0  0  0
   69.1083   42.7192   57.3990 C   0  0  0  0  0  0  0  0  0  0  0  0
   68.7092   41.4202   57.2775 C   0  0  0  0  0  0  0  0  0  0  0  0
   67.6870   41.3753   56.3603 C   0  0  0  0  0  0  0  0  0  0  0  0
   67.5191   42.6775   55.9667 C   0  0  0  0  0  0  0  0  0  0  0  0
   68.3555   43.4360   56.5856 O   0  0  0  0  0  0  0  0  0  0  0  0
  8  9  2  0
  9 10  1  0
  9 14  1  0
 10 11  1  0
 11 12  2  0
 12  7  1  0
 12 13  1  0
  7  1  1  0
  1  2  2  0
  1  6  1  0
  2  3  1  0
  3  4  2  0
  4  5  1  0
  5 19  1  0
  5  6  2  0
 19 20  1  0
 20 21  2  0
 20 22  2  0
 20 23  1  0
 23 24  2  0
 23 27  1  0
 24 25  1  0
 25 26  2  0
 26 27  1  0
 13 14  2  0
 13 18  1  0
 14 15  1  0
 15 16  1  0
 16 17  1  0
 17 18  1  0
M  END
>  <minimizedAffinity>  (12) 
-9.87049

$$$$
cs_full_output_folder/data/smiles/3408.pdb
     RDKit          3D

 27 29  0  0  0  0  0  0  0  0999 V2000
   69.1921   47.9071   52.9823 C   0  0  0  0  0  0  0  0  0  0  0  0
   68.6426   47.4584   51.8013 C   0  0  0  0  0  0  0  0  0  0  0  0
   67.9688   46.2540   51.7998 C   0  0  0  0  0  0  0  0  0  0  0  0
   67.8585   45.5272   52.9710 C   0  0  0  0  0  0  0  0  0  0  0  0
   68.4000   45.9552   54.1629 C   0  0  0  0  0  0  0  0  0  0  0  0
   69.0649   47.1454   54.1640 C   0  0  0  0  0  0  0  0  0  0  0  0
   70.0366   49.4119   52.9938 S   0  0  0  0  0  0  0  0  0  0  0  0
   71.5258   49.1205   52.8832 O   0  0  0  0  0  0  0  0  0  0  0  0
   69.6939   50.2876   51.8235 O   0  0  0  0  0  0  0  0  0  0  0  0
   68.7849   52.2958   56.6345 C   0  0  0  0  0  0  0  0  0  0  0  0
   69.2322   52.5154   55.2048 C   0  0  1  0  0  0  0  0  0  0  0  0
   70.7289   52.4672   55.0738 C   0  0  0  0  0  0  0  0  0  0  0  0
   71.0572   50.9802   54.9751 C   0  0  0  0  0  0  0  0  0  0  0  0
   69.8025   50.3252   54.4883 C   0  0  1  0  0  0  0  0  0  0  0  0
   68.7639   51.4094   54.3120 C   0  0  0  0  0  0  0  0  0  0  0  0
   68.2554   45.1494   55.3708 C   0  0  0  0  0  0  0  0  0  0  0  0
   68.5271   45.6965   56.4761 O   0  0  0  0  0  0  0  0  0  0  0  0
   67.8389   43.8085   55.4207 N   0  0  0  0  0  0  0  0  0  0  0  0
   67.6646   42.9545   56.4637 N   0  0  0  0  0  0  0  0  0  0  0  0
   67.4903   41.5681   56.5340 C   0  0  0  0  0  0  0  0  0  0  0  0
   67.4788   40.9039   55.4901 O   0  0  0  0  0  0  0  0  0  0  0  0
   67.3162   40.8334   57.7975 C   0  0  0  0  0  0  0  0  0  0  0  0
   67.9535   39.6370   58.0318 C   0  0  0  0  0  0  0  0  0  0  0  0
   67.8007   38.9334   59.2128 C   0  0  0  0  0  0  0  0  0  0  0  0
   66.9708   39.4520   60.2085 C   0  0  0  0  0  0  0  0  0  0  0  0
   66.3493   40.6443   59.9485 C   0  0  0  0  0  0  0  0  0  0  0  0
   66.5238   41.3070   58.7753 N   0  0  0  0  0  0  0  0  0  0  0  0
 11 10  1  1
 11 12  1  0
 11 15  1  0
 12 13  1  0
 13 14  1  0
 14  7  1  6
 14 15  1  0
  7  8  2  0
  7  9  2  0
  7  1  1  0
  1  2  2  0
  1  6  1  0
  2  3  1  0
  3  4  2  0
  4  5  1  0
  5 16  1  0
  5  6  2  0
 16 17  2  0
 16 18  1  0
 18 19  1  0
 19 20  1  0
 20 21  2  0
 20 22  1  0
 22 23  2  0
 22 27  1  0
 23 24  1  0
 24 25  2  0
 25 26  1  0
 26 27  2  0
M  END
>  <minimizedAffinity>  (13) 
-9.84866

$$$$
