cs_full_output_folder/data/smiles/1640.pdb
     RDKit          3D

 31 33  0  0  0  0  0  0  0  0999 V2000
   68.9774   47.6832   52.5737 C   0  0  0  0  0  0  0  0  0  0  0  0
   68.3918   47.0954   51.4795 C   0  0  0  0  0  0  0  0  0  0  0  0
   67.7319   45.8792   51.6057 C   0  0  0  0  0  0  0  0  0  0  0  0
   67.6872   45.2905   52.8535 C   0  0  0  0  0  0  0  0  0  0  0  0
   68.2613   45.8426   53.9782 C   0  0  0  0  0  0  0  0  0  0  0  0
   68.9023   47.0452   53.8115 C   0  0  0  0  0  0  0  0  0  0  0  0
   69.8191   49.2120   52.4894 S   0  0  0  0  0  0  0  0  0  0  0  0
   71.1863   48.9853   53.0671 O   0  0  0  0  0  0  0  0  0  0  0  0
   70.0457   49.6072   51.0455 O   0  0  0  0  0  0  0  0  0  0  0  0
   68.9812   50.4627   53.3314 N   0  0  0  0  0  0  0  0  0  0  0  0
   68.6562   53.0588   54.4300 N   0  0  0  0  0  0  0  0  0  0  0  0
   68.8335   51.9169   55.2523 C   0  0  0  0  0  0  0  0  0  0  0  0
   68.8409   52.0919   56.6188 C   0  0  0  0  0  0  0  0  0  0  0  0
   68.6774   53.3445   57.1047 F   0  0  0  0  0  0  0  0  0  0  0  0
   69.0078   51.0416   57.4900 C   0  0  0  0  0  0  0  0  0  0  0  0
   69.1707   49.7804   56.9685 C   0  0  0  0  0  0  0  0  0  0  0  0
   69.1631   49.6061   55.5909 C   0  0  0  0  0  0  0  0  0  0  0  0
   68.9972   50.6563   54.7175 C   0  0  0  0  0  0  0  0  0  0  0  0
   68.1651   45.1470   55.2541 C   0  0  0  0  0  0  0  0  0  0  0  0
   68.4509   45.7679   56.3074 O   0  0  0  0  0  0  0  0  0  0  0  0
   67.7630   43.7968   55.3894 N   0  0  0  0  0  0  0  0  0  0  0  0
   67.6786   43.1572   56.6390 N   0  0  0  0  0  0  0  0  0  0  0  0
   67.4624   41.7756   56.7737 C   0  0  0  0  0  0  0  0  0  0  0  0
   67.3470   41.1489   55.6693 O   0  0  0  0  0  0  0  0  0  0  0  0
   67.3562   41.0062   57.9969 C   0  0  0  0  0  0  0  0  0  0  0  0
   66.6279   41.5102   59.0839 C   0  0  0  0  0  0  0  0  0  0  0  0
   66.4974   40.8266   60.2689 C   0  0  0  0  0  0  0  0  0  0  0  0
   67.0820   39.5945   60.4550 C   0  0  0  0  0  0  0  0  0  0  0  0
   67.8036   39.0713   59.4075 C   0  0  0  0  0  0  0  0  0  0  0  0
   67.9320   39.7781   58.1987 C   0  0  0  0  0  0  0  0  0  0  0  0
   68.6563   39.1928   57.2167 F   0  0  0  0  0  0  0  0  0  0  0  0
 11 12  1  0
 12 13  2  0
 12 18  1  0
 13 14  1  0
 13 15  1  0
 15 16  2  0
 16 17  1  0
 17 18  2  0
 18 10  1  0
 10  7  1  0
  7  8  2  0
  7  9  2  0
  7  1  1  0
  1  2  2  0
  1  6  1  0
  2  3  1  0
  3  4  2  0
  4  5  1  0
  5 19  1  0
  5  6  2  0
 19 20  2  0
 19 21  1  0
 21 22  1  0
 22 23  1  0
 23 24  2  0
 23 25  1  0
 25 26  2  0
 25 30  1  0
 26 27  1  0
 27 28  2  0
 28 29  1  0
 29 30  2  0
 30 31  1  0
M  END
>  <minimizedAffinity>  (1) 
-10.74809

$$$$
cs_full_output_folder/data/smiles/1433.pdb
     RDKit          3D

 29 31  0  0  0  0  0  0  0  0999 V2000
   68.3299   45.9690   53.9950 C   0  0  0  0  0  0  0  0  0  0  0  0
   67.8360   45.4974   52.8210 C   0  0  0  0  0  0  0  0  0  0  0  0
   67.9928   46.2640   51.6592 C   0  0  0  0  0  0  0  0  0  0  0  0
   68.6374   47.4838   51.6822 C   0  0  0  0  0  0  0  0  0  0  0  0
   69.1415   47.9666   52.8753 C   0  0  0  0  0  0  0  0  0  0  0  0
   68.9722   47.1899   54.0026 C   0  0  0  0  0  0  0  0  0  0  0  0
   68.4704   45.8388   56.3628 O   0  0  0  0  0  0  0  0  0  0  0  0
   68.2263   45.2607   55.2650 C   0  0  0  0  0  0  0  0  0  0  0  0
   67.8519   43.8936   55.3713 N   0  0  0  0  0  0  0  0  0  0  0  0
   67.7627   43.2375   56.6321 N   0  0  0  0  0  0  0  0  0  0  0  0
   67.4411   41.8715   56.7338 C   0  0  0  0  0  0  0  0  0  0  0  0
   67.2417   41.2870   55.6065 O   0  0  0  0  0  0  0  0  0  0  0  0
   67.3166   41.0785   57.9354 C   0  0  0  0  0  0  0  0  0  0  0  0
   66.6037   41.6008   59.0250 C   0  0  0  0  0  0  0  0  0  0  0  0
   66.4263   40.9329   60.2076 C   0  0  0  0  0  0  0  0  0  0  0  0
   66.9726   39.6734   60.3608 C   0  0  0  0  0  0  0  0  0  0  0  0
   67.6821   39.1156   59.3211 C   0  0  0  0  0  0  0  0  0  0  0  0
   67.8419   39.8312   58.1219 C   0  0  0  0  0  0  0  0  0  0  0  0
   68.5415   39.2579   57.1225 F   0  0  0  0  0  0  0  0  0  0  0  0
   69.9675   49.5082   52.9606 S   0  0  0  0  0  0  0  0  0  0  0  0
   69.8859   50.2510   51.6626 O   0  0  0  0  0  0  0  0  0  0  0  0
   71.4377   49.1911   53.1807 O   0  0  0  0  0  0  0  0  0  0  0  0
   69.3786   50.4710   54.2957 C   0  0  0  0  0  0  0  0  0  0  0  0
   69.2466   51.8352   54.1800 C   0  0  0  0  0  0  0  0  0  0  0  0
   68.7790   52.5646   55.2530 C   0  0  0  0  0  0  0  0  0  0  0  0
   68.4339   51.9831   56.4542 C   0  0  0  0  0  0  0  0  0  0  0  0
   68.5655   50.6085   56.5754 C   0  0  0  0  0  0  0  0  0  0  0  0
   68.2241   50.0559   57.7543 F   0  0  0  0  0  0  0  0  0  0  0  0
   69.0364   49.8711   55.4954 C   0  0  0  0  0  0  0  0  0  0  0  0
  7  8  2  0
  8  9  1  0
  8  1  1  0
  9 10  1  0
 10 11  1  0
 11 12  2  0
 11 13  1  0
 13 14  2  0
 13 18  1  0
 14 15  1  0
 15 16  2  0
 16 17  1  0
 17 18  2  0
 18 19  1  0
  1  2  2  0
  1  6  1  0
  2  3  1  0
  3  4  2  0
  4  5  1  0
  5 20  1  0
  5  6  2  0
 20 21  2  0
 20 22  2  0
 20 23  1  0
 23 24  2  0
 23 29  1  0
 24 25  1  0
 25 26  2  0
 26 27  1  0
 27 28  1  0
 27 29  2  0
M  END
>  <minimizedAffinity>  (2) 
-10.67539

$$$$
cs_full_output_folder/data/smiles/6417.pdb
     RDKit          3D

 31 35  0  0  0  0  0  0  0  0999 V2000
   71.0526   45.9405   58.0771 C   0  0  0  0  0  0  0  0  0  0  0  0
   71.7162   46.7721   58.9473 C   0  0  0  0  0  0  0  0  0  0  0  0
   71.4234   48.1467   58.9792 C   0  0  0  0  0  0  0  0  0  0  0  0
   70.4716   48.6848   58.1421 C   0  0  0  0  0  0  0  0  0  0  0  0
   69.7976   47.8901   57.2717 C   0  0  0  0  0  0  0  0  0  0  0  0
   70.1167   46.5253   57.2679 C   0  0  0  0  0  0  0  0  0  0  0  0
   73.7047   44.4767   57.5155 O   0  0  0  0  0  0  0  0  0  0  0  0
   72.6044   43.9173   57.7885 C   0  0  0  0  0  0  0  0  0  0  0  0
   72.4187   42.4511   57.8824 C   0  0  0  0  0  0  0  0  0  0  0  0
   71.1694   42.1630   58.1805 C   0  0  0  0  0  0  0  0  0  0  0  0
   70.4766   43.4403   58.2969 C   0  0  0  0  0  0  0  0  0  0  0  0
   69.2502   43.5364   58.5766 O   0  0  0  0  0  0  0  0  0  0  0  0
   71.3596   44.5435   58.0546 N   0  0  0  0  0  0  0  0  0  0  0  0
   70.6467   40.8032   58.3488 C   0  0  0  0  0  0  0  0  0  0  0  0
   71.4554   39.7491   58.7130 C   0  0  0  0  0  0  0  0  0  0  0  0
   71.0068   38.4617   58.8811 C   0  0  0  0  0  0  0  0  0  0  0  0
   69.6587   38.1776   58.6770 C   0  0  0  0  0  0  0  0  0  0  0  0
   68.8275   39.2088   58.3131 C   0  0  0  0  0  0  0  0  0  0  0  0
   69.3185   40.5069   58.1516 C   0  0  0  0  0  0  0  0  0  0  0  0
   68.7537   48.4135   56.3605 C   0  0  0  0  0  0  0  0  0  0  0  0
   69.1684   48.4751   54.9398 C   0  0  0  0  0  0  0  0  0  0  0  0
   70.0440   49.4532   54.5321 N   0  0  0  0  0  0  0  0  0  0  0  0
   70.4884   49.5437   53.2975 N   0  0  0  0  0  0  0  0  0  0  0  0
   70.1239   48.6853   52.3314 C   0  0  0  0  0  0  0  0  0  0  0  0
   70.5806   48.8096   51.1442 O   0  0  0  0  0  0  0  0  0  0  0  0
   69.2502   47.6806   52.6603 C   0  0  0  0  0  0  0  0  0  0  0  0
   68.8572   46.8034   51.6794 C   0  0  0  0  0  0  0  0  0  0  0  0
   67.9682   45.7951   51.9875 C   0  0  0  0  0  0  0  0  0  0  0  0
   67.5101   45.7138   53.2815 C   0  0  0  0  0  0  0  0  0  0  0  0
   67.8870   46.5791   54.2848 C   0  0  0  0  0  0  0  0  0  0  0  0
   68.7879   47.5945   53.9605 C   0  0  0  0  0  0  0  0  0  0  0  0
  7  8  2  0
  8  9  1  0
  8 13  1  0
  9 10  2  0
 10 14  1  0
 10 11  1  0
 14 15  2  0
 14 19  1  0
 15 16  1  0
 16 17  2  0
 17 18  1  0
 18 19  2  0
 11 12  2  0
 11 13  1  0
 13  1  1  0
  1  2  2  0
  1  6  1  0
  2  3  1  0
  3  4  2  0
  4  5  1  0
  5 20  1  0
  5  6  2  0
 20 21  1  0
 21 22  2  0
 21 31  1  0
 22 23  1  0
 23 24  1  0
 24 25  2  0
 24 26  1  0
 26 27  1  0
 26 31  2  0
 27 28  2  0
 28 29  1  0
 29 30  2  0
 30 31  1  0
M  END
>  <minimizedAffinity>  (3) 
-10.36129

$$$$
cs_full_output_folder/data/smiles/2766.pdb
     RDKit          3D

 26 27  0  0  0  0  0  0  0  0999 V2000
   69.9921   49.1335   52.5566 S   0  0  0  0  0  0  0  0  0  0  0  0
   70.1011   49.0425   51.0519 O   0  0  0  0  0  0  0  0  0  0  0  0
   71.3913   49.2219   53.0796 O   0  0  0  0  0  0  0  0  0  0  0  0
   69.2017   47.7032   53.1707 C   0  0  0  0  0  0  0  0  0  0  0  0
   68.5654   46.8271   52.3170 C   0  0  0  0  0  0  0  0  0  0  0  0
   68.5274   47.0293   50.9726 F   0  0  0  0  0  0  0  0  0  0  0  0
   67.9394   45.6920   52.8398 C   0  0  0  0  0  0  0  0  0  0  0  0
   67.3211   44.8431   51.9946 F   0  0  0  0  0  0  0  0  0  0  0  0
   67.9870   45.5007   54.1874 C   0  0  0  0  0  0  0  0  0  0  0  0
   67.3768   44.3949   54.6977 F   0  0  0  0  0  0  0  0  0  0  0  0
   68.6248   46.3807   55.0390 C   0  0  0  0  0  0  0  0  0  0  0  0
   68.6608   46.1740   56.3692 F   0  0  0  0  0  0  0  0  0  0  0  0
   69.2473   47.5060   54.5370 C   0  0  0  0  0  0  0  0  0  0  0  0
   69.8795   48.3804   55.3704 F   0  0  0  0  0  0  0  0  0  0  0  0
   69.1415   50.5596   52.9370 N   0  0  0  0  0  0  0  0  0  0  0  0
   71.3089   52.3463   55.2720 C   0  0  0  0  0  0  0  0  0  0  0  0
   70.3640   53.0135   56.0490 C   0  0  0  0  0  0  0  0  0  0  0  0
   69.0236   52.8709   55.8008 C   0  0  0  0  0  0  0  0  0  0  0  0
   68.5969   52.0696   54.7848 C   0  0  0  0  0  0  0  0  0  0  0  0
   69.5188   51.4072   54.0130 C   0  0  0  0  0  0  0  0  0  0  0  0
   70.8564   51.5538   54.2656 C   0  0  0  0  0  0  0  0  0  0  0  0
   72.6888   52.5153   55.5574 N   0  0  0  0  0  0  0  0  0  0  0  0
   74.0283   50.5993   54.0086 N   0  0  0  0  0  0  0  0  0  0  0  0
   73.9176   52.2635   54.3769 S   0  0  0  0  0  0  0  0  0  0  0  0
   75.2366   52.7013   54.9469 O   0  0  0  0  0  0  0  0  0  0  0  0
   73.6561   53.0496   53.1454 O   0  0  0  0  0  0  0  0  0  0  0  0
 23 24  1  0
 24 25  2  0
 24 26  2  0
 24 22  1  0
 22 16  1  0
 16 17  2  0
 16 21  1  0
 17 18  1  0
 18 19  2  0
 19 20  1  0
 20 15  1  0
 20 21  2  0
 15  1  1  0
  1  2  2  0
  1  3  2  0
  1  4  1  0
  4  5  2  0
  4 13  1  0
  5  6  1  0
  5  7  1  0
  7  8  1  0
  7  9  2  0
  9 10  1  0
  9 11  1  0
 11 12  1  0
 11 13  2  0
 13 14  1  0
M  END
>  <minimizedAffinity>  (4) 
-10.25835

$$$$
cs_full_output_folder/data/smiles/1617.pdb
     RDKit          3D

 33 37  0  0  0  0  0  0  0  0999 V2000
   71.5234   47.2344   58.8166 C   0  0  0  0  0  0  0  0  0  0  0  0
   70.6736   48.0184   58.0468 C   0  0  0  0  0  0  0  0  0  0  0  0
   69.7819   47.4715   57.1685 C   0  0  0  0  0  0  0  0  0  0  0  0
   69.7275   46.0665   57.0492 C   0  0  0  0  0  0  0  0  0  0  0  0
   70.5475   45.2814   57.7924 C   0  0  0  0  0  0  0  0  0  0  0  0
   71.4369   45.8738   58.6695 C   0  0  0  0  0  0  0  0  0  0  0  0
   72.2386   45.0452   59.3951 F   0  0  0  0  0  0  0  0  0  0  0  0
   76.2572   48.9493   58.1118 N   0  0  0  0  0  0  0  0  0  0  0  0
   76.5164   47.9065   59.0719 C   0  0  0  0  0  0  0  0  0  0  0  0
   75.9271   48.2873   60.3940 C   0  0  0  0  0  0  0  0  0  0  0  0
   74.5999   48.9283   60.2180 C   0  0  0  0  0  0  0  0  0  0  0  0
   73.7370   48.3316   59.2391 N   0  0  0  0  0  0  0  0  0  0  0  0
   72.4930   47.8579   59.7152 C   0  0  0  0  0  0  0  0  0  0  0  0
   72.2258   47.9775   60.9265 O   0  0  0  0  0  0  0  0  0  0  0  0
   73.9731   48.1517   57.8172 C   0  0  0  0  0  0  0  0  0  0  0  0
   75.0464   49.0886   57.3111 C   0  0  0  0  0  0  0  0  0  0  0  0
   77.2075   51.0932   58.6877 N   0  0  0  0  0  0  0  0  0  0  0  0
   77.2448   49.9215   57.8995 C   0  0  0  0  0  0  0  0  0  0  0  0
   78.2106   49.7930   57.0077 C   0  0  0  0  0  0  0  0  0  0  0  0
   79.4333   50.3454   56.3412 C   0  0  0  0  0  0  0  0  0  0  0  0
   78.9493   49.0567   55.9138 C   0  0  0  0  0  0  0  0  0  0  0  0
   68.8565   48.2406   56.3191 C   0  0  0  0  0  0  0  0  0  0  0  0
   69.3220   48.2318   54.9248 C   0  0  0  0  0  0  0  0  0  0  0  0
   70.2913   49.1501   54.6160 N   0  0  0  0  0  0  0  0  0  0  0  0
   70.7636   49.3391   53.4164 N   0  0  0  0  0  0  0  0  0  0  0  0
   70.2751   48.5830   52.3894 C   0  0  0  0  0  0  0  0  0  0  0  0
   70.7052   48.7407   51.2256 O   0  0  0  0  0  0  0  0  0  0  0  0
   69.3000   47.6345   52.6113 C   0  0  0  0  0  0  0  0  0  0  0  0
   68.7963   46.8364   51.6018 C   0  0  0  0  0  0  0  0  0  0  0  0
   67.8377   45.8926   51.9103 C   0  0  0  0  0  0  0  0  0  0  0  0
   67.3717   45.7265   53.1941 C   0  0  0  0  0  0  0  0  0  0  0  0
   67.8776   46.5241   54.1950 C   0  0  0  0  0  0  0  0  0  0  0  0
   68.8313   47.4713   53.9033 C   0  0  0  0  0  0  0  0  0  0  0  0
 17 18  1  0
 18 19  2  0
 18  8  1  0
 19 20  1  0
 19 21  1  0
 20 21  1  0
  8  9  1  0
  8 16  1  0
  9 10  1  0
 10 11  1  0
 11 12  1  0
 12 13  1  0
 12 15  1  0
 13 14  2  0
 13  1  1  0
  1  2  2  0
  1  6  1  0
  2  3  1  0
  3 22  1  0
  3  4  2  0
 22 23  1  0
 23 24  2  0
 23 33  1  0
 24 25  1  0
 25 26  1  0
 26 27  2  0
 26 28  1  0
 28 29  1  0
 28 33  2  0
 29 30  2  0
 30 31  1  0
 31 32  2  0
 32 33  1  0
  4  5  1  0
  5  6  2  0
  6  7  1  0
 15 16  1  0
M  END
>  <minimizedAffinity>  (5) 
-10.18130

$$$$
cs_full_output_folder/data/smiles/1868.pdb
     RDKit          3D

 27 29  0  0  0  0  0  0  0  0999 V2000
   70.0716   49.1877   52.5280 S   0  0  0  0  0  0  0  0  0  0  0  0
   70.1655   49.0192   51.0400 O   0  0  0  0  0  0  0  0  0  0  0  0
   71.4663   49.2956   53.0829 O   0  0  0  0  0  0  0  0  0  0  0  0
   69.2669   47.7574   53.1645 C   0  0  0  0  0  0  0  0  0  0  0  0
   69.2959   47.5533   54.5354 C   0  0  0  0  0  0  0  0  0  0  0  0
   69.9305   48.4511   55.3320 F   0  0  0  0  0  0  0  0  0  0  0  0
   68.6813   46.4456   55.0742 C   0  0  0  0  0  0  0  0  0  0  0  0
   68.6983   46.2289   56.4186 F   0  0  0  0  0  0  0  0  0  0  0  0
   68.0389   45.5323   54.2926 C   0  0  0  0  0  0  0  0  0  0  0  0
   67.4385   44.4409   54.8709 F   0  0  0  0  0  0  0  0  0  0  0  0
   68.0043   45.7246   52.9277 C   0  0  0  0  0  0  0  0  0  0  0  0
   67.3858   44.8571   52.1091 F   0  0  0  0  0  0  0  0  0  0  0  0
   68.6245   46.8436   52.3807 C   0  0  0  0  0  0  0  0  0  0  0  0
   68.5844   47.0132   51.0558 F   0  0  0  0  0  0  0  0  0  0  0  0
   69.1537   50.5989   52.8667 N   0  0  0  0  0  0  0  0  0  0  0  0
   73.7362   52.2390   53.4725 N   0  0  0  0  0  0  0  0  0  0  0  0
   73.7504   52.7600   54.7758 C   0  0  0  0  0  0  0  0  0  0  0  0
   74.8564   53.1439   55.2651 O   0  0  0  0  0  0  0  0  0  0  0  0
   72.5927   52.8871   55.5941 N   0  0  0  0  0  0  0  0  0  0  0  0
   72.5008   53.4041   56.9318 C   0  0  0  0  0  0  0  0  0  0  0  0
   71.0612   53.8790   57.0526 C   0  0  0  0  0  0  0  0  0  0  0  0
   70.3428   53.0710   56.0465 C   0  0  0  0  0  0  0  0  0  0  0  0
   69.0005   52.8366   55.8610 C   0  0  0  0  0  0  0  0  0  0  0  0
   68.6204   52.0127   54.8043 C   0  0  0  0  0  0  0  0  0  0  0  0
   69.5137   51.4293   53.9479 C   0  0  0  0  0  0  0  0  0  0  0  0
   70.8641   51.7008   54.1829 C   0  0  0  0  0  0  0  0  0  0  0  0
   71.2692   52.5097   55.2175 C   0  0  0  0  0  0  0  0  0  0  0  0
 16 17  1  0
 17 18  2  0
 17 19  1  0
 19 20  1  0
 19 27  1  0
 20 21  1  0
 21 22  1  0
 22 23  2  0
 22 27  1  0
 23 24  1  0
 24 25  2  0
 25 15  1  0
 25 26  1  0
 15  1  1  0
  1  2  2  0
  1  3  2  0
  1  4  1  0
  4  5  2  0
  4 13  1  0
  5  6  1  0
  5  7  1  0
  7  8  1  0
  7  9  2  0
  9 10  1  0
  9 11  1  0
 11 12  1  0
 11 13  2  0
 13 14  1  0
 26 27  2  0
M  END
>  <minimizedAffinity>  (6) 
-10.07618

$$$$
cs_full_output_folder/data/smiles/161.pdb
     RDKit          3D

 28 30  0  0  0  0  0  0  0  0999 V2000
   68.3957   46.0296   54.1440 C   0  0  0  0  0  0  0  0  0  0  0  0
   67.8300   45.6709   52.9273 C   0  0  0  0  0  0  0  0  0  0  0  0
   67.9762   46.4378   51.7825 C   0  0  0  0  0  0  0  0  0  0  0  0
   68.7022   47.5941   51.8434 C   0  0  0  0  0  0  0  0  0  0  0  0
   69.2805   47.9858   53.0353 C   0  0  0  0  0  0  0  0  0  0  0  0
   69.1125   47.2016   54.1378 C   0  0  0  0  0  0  0  0  0  0  0  0
   67.7813   43.8700   55.3522 N   0  0  0  0  0  0  0  0  0  0  0  0
   68.2493   45.2100   55.3331 C   0  0  0  0  0  0  0  0  0  0  0  0
   68.5542   45.6941   56.4518 O   0  0  0  0  0  0  0  0  0  0  0  0
   67.6058   41.0248   55.6300 O   0  0  0  0  0  0  0  0  0  0  0  0
   67.6058   41.7372   56.6469 C   0  0  0  0  0  0  0  0  0  0  0  0
   67.6888   43.1318   56.5355 N   0  0  0  0  0  0  0  0  0  0  0  0
   67.5121   41.0503   57.9849 C   0  0  0  0  0  0  0  0  0  0  0  0
   68.7521   40.2787   58.2589 C   0  0  0  0  0  0  0  0  0  0  0  0
   69.9378   40.9846   58.2387 C   0  0  0  0  0  0  0  0  0  0  0  0
   71.1498   40.3725   58.4721 C   0  0  0  0  0  0  0  0  0  0  0  0
   71.1520   39.0120   58.7327 C   0  0  0  0  0  0  0  0  0  0  0  0
   69.9950   38.2701   58.7631 C   0  0  0  0  0  0  0  0  0  0  0  0
   68.7908   38.9278   58.5213 C   0  0  0  0  0  0  0  0  0  0  0  0
   70.2074   49.4582   53.0557 S   0  0  0  0  0  0  0  0  0  0  0  0
   71.6545   49.1035   52.8530 O   0  0  0  0  0  0  0  0  0  0  0  0
   69.7528   50.2701   51.8500 O   0  0  0  0  0  0  0  0  0  0  0  0
   70.0147   50.3920   54.4205 N   0  0  0  0  0  0  0  0  0  0  0  0
   69.9198   49.8155   55.6843 C   0  0  0  0  0  0  0  0  0  0  0  0
   68.7852   50.2888   56.5503 C   0  0  0  0  0  0  0  0  0  0  0  0
   68.2263   51.6209   56.2136 C   0  0  0  0  0  0  0  0  0  0  0  0
   68.2250   51.9559   54.7392 C   0  0  0  0  0  0  0  0  0  0  0  0
   69.6496   51.7489   54.2575 C   0  0  0  0  0  0  0  0  0  0  0  0
 10 11  2  0
 11 13  1  0
 11 12  1  0
 13 14  1  0
 14 15  2  0
 14 19  1  0
 15 16  1  0
 16 17  2  0
 17 18  1  0
 18 19  2  0
 12  7  1  0
  7  8  1  0
  8  9  2  0
  8  1  1  0
  1  2  2  0
  1  6  1  0
  2  3  1  0
  3  4  2  0
  4  5  1  0
  5 20  1  0
  5  6  2  0
 20 21  2  0
 20 22  2  0
 20 23  1  0
 23 24  1  0
 23 28  1  0
 24 25  1  0
 25 26  1  0
 26 27  1  0
 27 28  1  0
M  END
>  <minimizedAffinity>  (7) 
-10.03452

$$$$
cs_full_output_folder/data/smiles/75.pdb
     RDKit          3D

 29 31  0  0  0  0  0  0  0  0999 V2000
   68.4158   45.9330   54.2638 C   0  0  0  0  0  0  0  0  0  0  0  0
   67.9192   45.6054   53.0316 C   0  0  0  0  0  0  0  0  0  0  0  0
   68.0734   46.4444   51.9413 C   0  0  0  0  0  0  0  0  0  0  0  0
   68.7469   47.6360   52.1232 C   0  0  0  0  0  0  0  0  0  0  0  0
   69.2697   48.0241   53.3374 C   0  0  0  0  0  0  0  0  0  0  0  0
   69.0779   47.1315   54.3912 C   0  0  0  0  0  0  0  0  0  0  0  0
   67.7804   43.7690   55.4298 N   0  0  0  0  0  0  0  0  0  0  0  0
   68.2872   45.0974   55.4458 C   0  0  0  0  0  0  0  0  0  0  0  0
   68.6333   45.5350   56.5716 O   0  0  0  0  0  0  0  0  0  0  0  0
   67.5346   41.0316   55.4605 O   0  0  0  0  0  0  0  0  0  0  0  0
   67.5482   41.5834   56.5866 C   0  0  0  0  0  0  0  0  0  0  0  0
   67.6742   42.9965   56.5980 N   0  0  0  0  0  0  0  0  0  0  0  0
   67.4368   40.7635   57.7875 C   0  0  0  0  0  0  0  0  0  0  0  0
   66.7154   41.2197   58.8707 C   0  0  0  0  0  0  0  0  0  0  0  0
   66.5690   40.4974   60.0361 C   0  0  0  0  0  0  0  0  0  0  0  0
   67.1536   39.2884   60.1331 N   0  0  0  0  0  0  0  0  0  0  0  0
   67.8729   38.8011   59.0906 C   0  0  0  0  0  0  0  0  0  0  0  0
   68.0197   39.5236   57.9243 C   0  0  0  0  0  0  0  0  0  0  0  0
   70.1340   49.5312   53.5844 S   0  0  0  0  0  0  0  0  0  0  0  0
   71.5797   49.3500   53.1436 O   0  0  0  0  0  0  0  0  0  0  0  0
   69.5492   50.5709   52.7038 O   0  0  0  0  0  0  0  0  0  0  0  0
   70.1439   50.0570   55.2007 N   0  0  0  0  0  0  0  0  0  0  0  0
   69.0343   50.1612   56.0603 C   0  0  0  0  0  0  0  0  0  0  0  0
   68.6462   49.0896   56.8271 C   0  0  0  0  0  0  0  0  0  0  0  0
   67.5571   49.1445   57.7011 C   0  0  0  0  0  0  0  0  0  0  0  0
   66.8725   50.3356   57.7690 C   0  0  0  0  0  0  0  0  0  0  0  0
   67.2327   51.4265   57.0179 C   0  0  0  0  0  0  0  0  0  0  0  0
   68.3078   51.3236   56.1742 C   0  0  0  0  0  0  0  0  0  0  0  0
   68.6245   52.4373   55.4498 F   0  0  0  0  0  0  0  0  0  0  0  0
 10 11  2  0
 11 12  1  0
 11 13  1  0
 12  7  1  0
  7  8  1  0
  8  9  2  0
  8  1  1  0
  1  2  2  0
  1  6  1  0
  2  3  1  0
  3  4  2  0
  4  5  1  0
  5 19  1  0
  5  6  2  0
 19 20  2  0
 19 21  2  0
 19 22  1  0
 22 23  1  0
 23 24  2  0
 23 28  1  0
 24 25  1  0
 25 26  2  0
 26 27  1  0
 27 28  2  0
 28 29  1  0
 13 14  2  0
 13 18  1  0
 14 15  1  0
 15 16  2  0
 16 17  1  0
 17 18  2  0
M  END
>  <minimizedAffinity>  (8) 
-10.00645

$$$$
cs_full_output_folder/data/smiles/7297.pdb
     RDKit          3D

 31 35  0  0  0  0  0  0  0  0999 V2000
   71.4096   47.0148   58.8370 C   0  0  0  0  0  0  0  0  0  0  0  0
   71.3807   45.6419   58.7708 C   0  0  0  0  0  0  0  0  0  0  0  0
   70.5345   45.0404   57.8712 C   0  0  0  0  0  0  0  0  0  0  0  0
   69.7127   45.8158   57.0351 C   0  0  0  0  0  0  0  0  0  0  0  0
   69.7269   47.1802   57.0873 C   0  0  0  0  0  0  0  0  0  0  0  0
   70.6005   47.7480   58.0128 C   0  0  0  0  0  0  0  0  0  0  0  0
   72.0128   47.6838   61.0278 O   0  0  0  0  0  0  0  0  0  0  0  0
   72.2855   47.7057   59.7891 C   0  0  0  0  0  0  0  0  0  0  0  0
   73.4264   48.3936   59.3364 N   0  0  0  0  0  0  0  0  0  0  0  0
   74.2826   49.0806   60.2894 C   0  0  0  0  0  0  0  0  0  0  0  0
   74.3983   50.5571   59.9267 C   0  0  0  0  0  0  0  0  0  0  0  0
   73.7531   50.8003   58.5673 C   0  0  0  0  0  0  0  0  0  0  0  0
   74.3729   49.8003   57.6059 C   0  0  0  0  0  0  0  0  0  0  0  0
   73.7804   48.4376   57.9228 C   0  0  0  0  0  0  0  0  0  0  0  0
   74.0491   52.0631   58.0691 O   0  0  0  0  0  0  0  0  0  0  0  0
   72.8745   52.8283   58.1841 C   0  0  0  0  0  0  0  0  0  0  0  0
   71.6695   52.1432   57.5345 C   0  0  0  0  0  0  0  0  0  0  0  0
   71.3447   53.4097   56.7877 C   0  0  0  0  0  0  0  0  0  0  0  0
   72.7412   53.9155   57.1701 C   0  0  0  0  0  0  0  0  0  0  0  0
   68.8619   47.9872   56.2428 C   0  0  0  0  0  0  0  0  0  0  0  0
   69.3223   48.1828   54.8543 C   0  0  0  0  0  0  0  0  0  0  0  0
   70.2098   49.1390   54.5423 N   0  0  0  0  0  0  0  0  0  0  0  0
   70.5835   49.3573   53.3095 N   0  0  0  0  0  0  0  0  0  0  0  0
   70.1124   48.6486   52.2702 C   0  0  0  0  0  0  0  0  0  0  0  0
   70.4932   48.8843   51.0717 O   0  0  0  0  0  0  0  0  0  0  0  0
   69.1970   47.6473   52.5161 C   0  0  0  0  0  0  0  0  0  0  0  0
   68.7115   46.9002   51.4669 C   0  0  0  0  0  0  0  0  0  0  0  0
   67.8062   45.8829   51.6930 C   0  0  0  0  0  0  0  0  0  0  0  0
   67.3940   45.6244   52.9818 C   0  0  0  0  0  0  0  0  0  0  0  0
   67.9066   46.4023   54.0148 C   0  0  0  0  0  0  0  0  0  0  0  0
   68.8081   47.4257   53.8386 C   0  0  0  0  0  0  0  0  0  0  0  0
  7  8  2  0
  8  1  1  0
  8  9  1  0
  1  2  2  0
  1  6  1  0
  2  3  1  0
  3  4  2  0
  4  5  1  0
  5 20  1  0
  5  6  2  0
 20 21  1  0
 21 22  2  0
 21 31  1  0
 22 23  1  0
 23 24  1  0
 24 25  2  0
 24 26  1  0
 26 27  1  0
 26 31  2  0
 27 28  2  0
 28 29  1  0
 29 30  2  0
 30 31  1  0
  9 10  1  0
  9 14  1  0
 10 11  1  0
 11 12  1  0
 12 15  1  0
 12 13  1  0
 15 16  1  0
 16 17  1  0
 16 19  1  0
 17 18  1  0
 18 19  1  0
 13 14  1  0
M  END
>  <minimizedAffinity>  (9) 
-9.98685

$$$$
cs_full_output_folder/data/smiles/76.pdb
     RDKit          3D

 30 33  0  0  0  0  0  0  0  0999 V2000
   68.4216   46.0582   54.1671 C   0  0  0  0  0  0  0  0  0  0  0  0
   67.8602   45.6529   52.9808 C   0  0  0  0  0  0  0  0  0  0  0  0
   67.9961   46.4141   51.8124 C   0  0  0  0  0  0  0  0  0  0  0  0
   68.7198   47.6001   51.8835 C   0  0  0  0  0  0  0  0  0  0  0  0
   69.2909   48.0255   53.0608 C   0  0  0  0  0  0  0  0  0  0  0  0
   69.1273   47.2458   54.1690 C   0  0  0  0  0  0  0  0  0  0  0  0
   67.8182   43.9129   55.3968 N   0  0  0  0  0  0  0  0  0  0  0  0
   68.2592   45.2422   55.3555 C   0  0  0  0  0  0  0  0  0  0  0  0
   68.5439   45.7877   56.4701 O   0  0  0  0  0  0  0  0  0  0  0  0
   67.5621   41.2006   55.4611 O   0  0  0  0  0  0  0  0  0  0  0  0
   67.5463   41.7539   56.5922 C   0  0  0  0  0  0  0  0  0  0  0  0
   67.6785   43.1701   56.5792 N   0  0  0  0  0  0  0  0  0  0  0  0
   67.4016   40.9706   57.8002 C   0  0  0  0  0  0  0  0  0  0  0  0
   68.0030   39.7364   57.8671 C   0  0  0  0  0  0  0  0  0  0  0  0
   67.8814   38.9560   59.0217 C   0  0  0  0  0  0  0  0  0  0  0  0
   67.1612   39.4052   60.1082 C   0  0  0  0  0  0  0  0  0  0  0  0
   66.5654   40.6290   60.0406 C   0  0  0  0  0  0  0  0  0  0  0  0
   66.6885   41.4018   58.8914 C   0  0  0  0  0  0  0  0  0  0  0  0
   70.1807   49.5221   53.0645 S   0  0  0  0  0  0  0  0  0  0  0  0
   69.7653   50.3150   51.8575 O   0  0  0  0  0  0  0  0  0  0  0  0
   71.6434   49.2911   53.1177 O   0  0  0  0  0  0  0  0  0  0  0  0
   69.6345   50.4330   54.4501 N   0  0  0  0  0  0  0  0  0  0  0  0
   68.7687   51.5961   54.4427 C   0  0  0  0  0  0  0  0  0  0  0  0
   68.0345   51.5569   55.7420 C   0  0  0  0  0  0  0  0  0  0  0  0
   69.0139   50.8443   56.6277 C   0  0  0  0  0  0  0  0  0  0  0  0
   69.0648   50.7885   57.9922 C   0  0  0  0  0  0  0  0  0  0  0  0
   70.0740   50.0586   58.5710 C   0  0  0  0  0  0  0  0  0  0  0  0
   71.0087   49.4014   57.7933 C   0  0  0  0  0  0  0  0  0  0  0  0
   70.9545   49.4613   56.4165 C   0  0  0  0  0  0  0  0  0  0  0  0
   69.9430   50.1917   55.8233 C   0  0  0  0  0  0  0  0  0  0  0  0
 10 11  2  0
 11 12  1  0
 11 13  1  0
 12  7  1  0
  7  8  1  0
  8  9  2  0
  8  1  1  0
  1  2  2  0
  1  6  1  0
  2  3  1  0
  3  4  2  0
  4  5  1  0
  5 19  1  0
  5  6  2  0
 19 20  2  0
 19 21  2  0
 19 22  1  0
 22 23  1  0
 22 30  1  0
 23 24  1  0
 24 25  1  0
 25 26  1  0
 25 30  2  0
 26 27  2  0
 27 28  1  0
 28 29  2  0
 29 30  1  0
 13 14  2  0
 13 18  1  0
 14 15  1  0
 15 16  2  0
 16 17  1  0
 17 18  2  0
M  END
>  <minimizedAffinity>  (10) 
-9.98060

$$$$
cs_full_output_folder/data/smiles/3260.pdb
     RDKit          3D

 32 36  0  0  0  0  0  0  0  0999 V2000
   71.8709   46.9242   59.3464 C   0  0  0  0  0  0  0  0  0  0  0  0
   72.0882   45.5592   59.2195 C   0  0  0  0  0  0  0  0  0  0  0  0
   71.3280   44.8216   58.3417 C   0  0  0  0  0  0  0  0  0  0  0  0
   70.3356   45.4559   57.5818 C   0  0  0  0  0  0  0  0  0  0  0  0
   70.0933   46.7920   57.6802 C   0  0  0  0  0  0  0  0  0  0  0  0
   70.8938   47.5094   58.5896 C   0  0  0  0  0  0  0  0  0  0  0  0
   72.4290   47.7594   61.4936 O   0  0  0  0  0  0  0  0  0  0  0  0
   72.7044   47.7074   60.2769 C   0  0  0  0  0  0  0  0  0  0  0  0
   73.8360   48.4026   59.7291 N   0  0  0  0  0  0  0  0  0  0  0  0
   74.7146   49.1933   60.5447 C   0  0  0  0  0  0  0  0  0  0  0  0
   75.0212   50.5495   59.9371 C   0  0  0  0  0  0  0  0  0  0  0  0
   74.2697   50.7792   58.7260 N   0  0  0  0  0  0  0  0  0  0  0  0
   74.1398   49.7168   57.7372 C   0  0  0  0  0  0  0  0  0  0  0  0
   74.1579   48.3416   58.3118 C   0  0  0  0  0  0  0  0  0  0  0  0
   73.6610   52.0389   58.4733 C   0  0  0  0  0  0  0  0  0  0  0  0
   72.4327   52.1931   57.8857 C   0  0  0  0  0  0  0  0  0  0  0  0
   71.8939   53.4377   57.6566 C   0  0  0  0  0  0  0  0  0  0  0  0
   72.6169   54.5491   58.0312 C   0  0  0  0  0  0  0  0  0  0  0  0
   73.8494   54.3839   58.6210 C   0  0  0  0  0  0  0  0  0  0  0  0
   74.3533   53.1559   58.8342 N   0  0  0  0  0  0  0  0  0  0  0  0
   69.0824   47.5613   56.8991 C   0  0  0  0  0  0  0  0  0  0  0  0
   68.6455   46.9100   55.6553 C   0  0  0  0  0  0  0  0  0  0  0  0
   68.1094   45.6547   55.7600 N   0  0  0  0  0  0  0  0  0  0  0  0
   67.7376   44.9186   54.7328 N   0  0  0  0  0  0  0  0  0  0  0  0
   67.8829   45.4066   53.4966 C   0  0  0  0  0  0  0  0  0  0  0  0
   67.5229   44.6895   52.5323 O   0  0  0  0  0  0  0  0  0  0  0  0
   68.4179   46.6729   53.3184 C   0  0  0  0  0  0  0  0  0  0  0  0
   68.8032   47.4344   54.4159 C   0  0  0  0  0  0  0  0  0  0  0  0
   69.2888   48.7764   54.1655 C   0  0  0  0  0  0  0  0  0  0  0  0
   70.3054   48.8001   53.0156 C   0  0  0  0  0  0  0  0  0  0  0  0
   69.9298   47.9045   51.8830 C   0  0  0  0  0  0  0  0  0  0  0  0
   68.5943   47.2480   51.9805 C   0  0  0  0  0  0  0  0  0  0  0  0
  7  8  2  0
  8  1  1  0
  8  9  1  0
  1  2  2  0
  1  6  1  0
  2  3  1  0
  3  4  2  0
  4  5  1  0
  5 21  1  0
  5  6  2  0
 21 22  1  0
 22 23  2  0
 22 28  1  0
 23 24  1  0
 24 25  1  0
 25 26  2  0
 25 27  1  0
 27 28  2  0
 27 32  1  0
 28 29  1  0
 29 30  1  0
 30 31  1  0
 31 32  1  0
  9 10  1  0
  9 14  1  0
 10 11  1  0
 11 12  1  0
 12 15  1  0
 12 13  1  0
 15 16  2  0
 15 20  1  0
 16 17  1  0
 17 18  2  0
 18 19  1  0
 19 20  2  0
 13 14  1  0
M  END
>  <minimizedAffinity>  (11) 
-9.95287

$$$$
cs_full_output_folder/data/smiles/324.pdb
     RDKit          3D

 28 30  0  0  0  0  0  0  0  0999 V2000
   68.3814   45.9638   54.1264 C   0  0  0  0  0  0  0  0  0  0  0  0
   67.8234   45.5756   52.9350 C   0  0  0  0  0  0  0  0  0  0  0  0
   67.9530   46.3327   51.7759 C   0  0  0  0  0  0  0  0  0  0  0  0
   68.6630   47.5150   51.8102 C   0  0  0  0  0  0  0  0  0  0  0  0
   69.2405   47.9365   53.0002 C   0  0  0  0  0  0  0  0  0  0  0  0
   69.0827   47.1498   54.1207 C   0  0  0  0  0  0  0  0  0  0  0  0
   68.5513   45.7435   56.4588 O   0  0  0  0  0  0  0  0  0  0  0  0
   68.2698   45.2008   55.3647 C   0  0  0  0  0  0  0  0  0  0  0  0
   67.8544   43.8462   55.4199 N   0  0  0  0  0  0  0  0  0  0  0  0
   67.7582   43.1330   56.6470 N   0  0  0  0  0  0  0  0  0  0  0  0
   67.5745   41.7302   56.6707 C   0  0  0  0  0  0  0  0  0  0  0  0
   67.5086   41.1960   55.5068 O   0  0  0  0  0  0  0  0  0  0  0  0
   67.4620   40.8921   57.8503 C   0  0  0  0  0  0  0  0  0  0  0  0
   68.1242   39.6590   57.8033 C   0  0  0  0  0  0  0  0  0  0  0  0
   68.1303   38.7469   58.8108 C   0  0  0  0  0  0  0  0  0  0  0  0
   67.4277   39.0578   59.9758 C   0  0  0  0  0  0  0  0  0  0  0  0
   66.7666   40.2655   60.0500 C   0  0  0  0  0  0  0  0  0  0  0  0
   66.7859   41.1784   58.9867 C   0  0  0  0  0  0  0  0  0  0  0  0
   66.1124   42.3570   59.1168 O   0  0  0  0  0  0  0  0  0  0  0  0
   70.1207   49.4278   52.9894 S   0  0  0  0  0  0  0  0  0  0  0  0
   71.5972   49.1057   52.9096 O   0  0  0  0  0  0  0  0  0  0  0  0
   69.7863   50.1425   51.7003 O   0  0  0  0  0  0  0  0  0  0  0  0
   69.8709   50.3919   54.3588 N   0  0  0  0  0  0  0  0  0  0  0  0
   68.7355   51.2502   54.1302 C   0  0  0  0  0  0  0  0  0  0  0  0
   68.3509   51.9929   55.3973 C   0  0  0  0  0  0  0  0  0  0  0  0
   69.4886   52.7156   56.0297 C   0  0  0  0  0  0  0  0  0  0  0  0
   70.8077   52.0265   55.9333 C   0  0  0  0  0  0  0  0  0  0  0  0
   71.0010   51.2295   54.6932 C   0  0  0  0  0  0  0  0  0  0  0  0
  7  8  2  0
  8  9  1  0
  8  1  1  0
  9 10  1  0
 10 11  1  0
 11 12  2  0
 11 13  1  0
 13 14  2  0
 13 18  1  0
 14 15  1  0
 15 16  2  0
 16 17  1  0
 17 18  2  0
 18 19  1  0
  1  2  2  0
  1  6  1  0
  2  3  1  0
  3  4  2  0
  4  5  1  0
  5 20  1  0
  5  6  2  0
 20 21  2  0
 20 22  2  0
 20 23  1  0
 23 24  1  0
 23 28  1  0
 24 25  1  0
 25 26  1  0
 26 27  1  0
 27 28  1  0
M  END
>  <minimizedAffinity>  (12) 
-9.89880

$$$$
cs_full_output_folder/data/smiles/7931.pdb
     RDKit          3D

 32 36  0  0  0  0  0  0  0  0999 V2000
   71.5100   47.2091   58.7582 C   0  0  0  0  0  0  0  0  0  0  0  0
   70.6594   48.0378   58.0011 C   0  0  0  0  0  0  0  0  0  0  0  0
   69.7591   47.5382   57.1345 C   0  0  0  0  0  0  0  0  0  0  0  0
   69.7038   46.1426   57.0177 C   0  0  0  0  0  0  0  0  0  0  0  0
   70.5028   45.2926   57.7263 C   0  0  0  0  0  0  0  0  0  0  0  0
   71.4166   45.8554   58.6079 C   0  0  0  0  0  0  0  0  0  0  0  0
   72.1957   45.0072   59.2979 F   0  0  0  0  0  0  0  0  0  0  0  0
   72.1224   48.0120   60.8377 O   0  0  0  0  0  0  0  0  0  0  0  0
   72.4919   47.7820   59.6777 C   0  0  0  0  0  0  0  0  0  0  0  0
   73.8056   48.0459   59.2071 N   0  0  0  0  0  0  0  0  0  0  0  0
   74.4802   47.8702   57.9368 C   0  0  0  0  0  0  0  0  0  0  0  0
   75.8005   48.3191   58.5423 C   0  0  0  0  0  0  0  0  0  0  0  0
   75.0082   48.5906   59.7640 C   0  0  0  0  0  0  0  0  0  0  0  0
   76.4487   49.4231   57.8301 C   0  0  0  0  0  0  0  0  0  0  0  0
   75.6924   50.3496   57.3754 O   0  0  0  0  0  0  0  0  0  0  0  0
   77.8261   49.5674   57.5974 N   0  0  0  0  0  0  0  0  0  0  0  0
   78.9758   48.7800   57.9413 C   0  0  0  0  0  0  0  0  0  0  0  0
   79.6654   48.6635   56.5763 C   0  0  0  0  0  0  0  0  0  0  0  0
   79.5089   50.0812   56.0515 C   0  0  0  0  0  0  0  0  0  0  0  0
   78.4128   50.7130   56.8628 C   0  0  0  0  0  0  0  0  0  0  0  0
   68.8530   48.3521   56.3046 C   0  0  0  0  0  0  0  0  0  0  0  0
   69.2874   48.3457   54.9191 C   0  0  0  0  0  0  0  0  0  0  0  0
   70.2062   49.2898   54.5442 N   0  0  0  0  0  0  0  0  0  0  0  0
   70.6216   49.4304   53.3009 N   0  0  0  0  0  0  0  0  0  0  0  0
   70.1910   48.6683   52.2806 C   0  0  0  0  0  0  0  0  0  0  0  0
   70.5974   48.8168   51.0995 O   0  0  0  0  0  0  0  0  0  0  0  0
   69.2593   47.6873   52.5829 C   0  0  0  0  0  0  0  0  0  0  0  0
   68.7923   46.8668   51.6012 C   0  0  0  0  0  0  0  0  0  0  0  0
   67.8843   45.8850   51.9176 C   0  0  0  0  0  0  0  0  0  0  0  0
   67.4541   45.7367   53.2144 C   0  0  0  0  0  0  0  0  0  0  0  0
   67.9310   46.5745   54.2050 C   0  0  0  0  0  0  0  0  0  0  0  0
   68.8330   47.5523   53.8927 C   0  0  0  0  0  0  0  0  0  0  0  0
  8  9  2  0
  9  1  1  0
  9 10  1  0
  1  2  2  0
  1  6  1  0
  2  3  1  0
  3 21  1  0
  3  4  2  0
 21 22  1  0
 22 23  2  0
 22 32  1  0
 23 24  1  0
 24 25  1  0
 25 26  2  0
 25 27  1  0
 27 28  1  0
 27 32  2  0
 28 29  2  0
 29 30  1  0
 30 31  2  0
 31 32  1  0
  4  5  1  0
  5  6  2  0
  6  7  1  0
 10 11  1  0
 10 13  1  0
 11 12  1  0
 12 14  1  0
 12 13  1  0
 14 15  2  0
 14 16  1  0
 16 17  1  0
 16 20  1  0
 17 18  1  0
 18 19  1  0
 19 20  1  0
M  END
>  <minimizedAffinity>  (13) 
-9.89720

$$$$
