cs_full_output_folder/data/smiles/1.pdb
     RDKit          3D

 22 24  0  0  0  0  0  0  0  0999 V2000
   68.9073   45.4454   56.5443 C   0  0  0  0  0  0  0  0  0  0  0  0
   70.0325   45.9369   57.1097 N   0  0  0  0  0  0  0  0  0  0  0  0
   70.8782   45.1433   57.7788 C   0  0  0  0  0  0  0  0  0  0  0  0
   70.5819   43.8058   57.8817 C   0  0  0  0  0  0  0  0  0  0  0  0
   69.4563   43.2588   57.3267 C   0  0  0  0  0  0  0  0  0  0  0  0
   68.6513   44.1485   56.6632 N   0  0  0  0  0  0  0  0  0  0  0  0
   69.0753   41.8588   57.4166 C   0  0  0  0  0  0  0  0  0  0  0  0
   69.7198   41.0215   58.3083 C   0  0  0  0  0  0  0  0  0  0  0  0
   69.3530   39.6719   58.3859 C   0  0  0  0  0  0  0  0  0  0  0  0
   68.3505   39.1640   57.5799 C   0  0  0  0  0  0  0  0  0  0  0  0
   67.7481   40.0110   56.7268 N   0  0  0  0  0  0  0  0  0  0  0  0
   68.0888   41.3346   56.6316 C   0  0  0  0  0  0  0  0  0  0  0  0
   68.0570   46.3603   55.8649 N   0  0  0  0  0  0  0  0  0  0  0  0
   69.3735   47.7417   52.6504 C   0  0  0  0  0  0  0  0  0  0  0  0
   68.7332   46.8996   51.7375 C   0  0  0  0  0  0  0  0  0  0  0  0
   67.8978   45.9069   52.1900 C   0  0  0  0  0  0  0  0  0  0  0  0
   67.6749   45.7200   53.5612 C   0  0  0  0  0  0  0  0  0  0  0  0
   68.3020   46.5445   54.4681 C   0  0  0  0  0  0  0  0  0  0  0  0
   69.1206   47.5155   53.9805 C   0  0  0  0  0  0  0  0  0  0  0  0
   71.3359   49.0668   52.6871 O   0  0  0  0  0  0  0  0  0  0  0  0
   70.2448   48.7876   52.1428 C   0  0  0  0  0  0  0  0  0  0  0  0
   69.8953   49.5296   51.0130 O   0  0  0  0  0  0  0  0  0  0  0  0
 20 21  2  0
 21 22  1  0
 21 14  1  0
 14 15  2  0
 14 19  1  0
 15 16  1  0
 16 17  2  0
 17 18  1  0
 18 13  1  0
 18 19  2  0
 13  1  1  0
  1  2  2  0
  1  6  1  0
  2  3  1  0
  3  4  2  0
  4  5  1  0
  5  7  1  0
  5  6  2  0
  7  8  2  0
  7 12  1  0
  8  9  1  0
  9 10  2  0
 10 11  1  0
 11 12  2  0
M  END
>  <minimizedAffinity>  (1) 
-9.37032

$$$$
cs_full_output_folder/data/smiles/4629.pdb
     RDKit          3D

 22 24  0  0  0  0  0  0  0  0999 V2000
   68.8108   45.6967   56.3660 C   0  0  0  0  0  0  0  0  0  0  0  0
   69.8663   46.2928   56.9740 N   0  0  0  0  0  0  0  0  0  0  0  0
   70.7191   45.6067   57.7277 C   0  0  0  0  0  0  0  0  0  0  0  0
   70.5016   44.2438   57.8836 C   0  0  0  0  0  0  0  0  0  0  0  0
   69.4417   43.6058   57.2820 C   0  0  0  0  0  0  0  0  0  0  0  0
   68.6296   44.3770   56.5363 N   0  0  0  0  0  0  0  0  0  0  0  0
   69.1924   42.1815   57.4281 C   0  0  0  0  0  0  0  0  0  0  0  0
   68.1682   41.5078   56.8403 C   0  0  0  0  0  0  0  0  0  0  0  0
   67.9939   40.1509   57.0254 C   0  0  0  0  0  0  0  0  0  0  0  0
   68.8587   39.4560   57.8115 C   0  0  0  0  0  0  0  0  0  0  0  0
   69.9203   40.0950   58.4342 C   0  0  0  0  0  0  0  0  0  0  0  0
   70.0561   41.4365   58.2249 C   0  0  0  0  0  0  0  0  0  0  0  0
   67.9340   46.4507   55.5800 O   0  0  0  0  0  0  0  0  0  0  0  0
   69.4009   47.7821   52.4888 C   0  0  0  0  0  0  0  0  0  0  0  0
   68.7940   46.9352   51.5827 C   0  0  0  0  0  0  0  0  0  0  0  0
   67.9169   45.9441   51.9980 C   0  0  0  0  0  0  0  0  0  0  0  0
   67.6173   45.7680   53.3307 C   0  0  0  0  0  0  0  0  0  0  0  0
   68.2209   46.6115   54.2396 C   0  0  0  0  0  0  0  0  0  0  0  0
   69.0974   47.6016   53.8222 C   0  0  0  0  0  0  0  0  0  0  0  0
   71.3177   49.0395   52.6866 O   0  0  0  0  0  0  0  0  0  0  0  0
   70.2965   48.7929   52.0543 N   0  0  0  0  0  0  0  0  0  0  0  0
   70.0218   49.5037   50.9180 O   0  0  0  0  0  0  0  0  0  0  0  0
 20 21  2  0
 21 22  1  0
 21 14  1  0
 14 15  2  0
 14 19  1  0
 15 16  1  0
 16 17  2  0
 17 18  1  0
 18 13  1  0
 18 19  2  0
 13  1  1  0
  1  2  2  0
  1  6  1  0
  2  3  1  0
  3  4  2  0
  4  5  1  0
  5  7  1  0
  5  6  2  0
  7  8  2  0
  7 12  1  0
  8  9  1  0
  9 10  2  0
 10 11  1  0
 11 12  2  0
M  CHG  2  21   1  22  -1
M  END
>  <minimizedAffinity>  (2) 
-9.23143

$$$$
cs_full_output_folder/data/smiles/3.pdb
     RDKit          3D

 21 23  0  0  0  0  0  0  0  0999 V2000
   69.5017   48.3025   54.0443 C   0  0  0  0  0  0  0  0  0  0  0  0
   69.2757   48.0851   55.3977 C   0  0  0  0  0  0  0  0  0  0  0  0
   68.3929   47.1361   55.8636 C   0  0  0  0  0  0  0  0  0  0  0  0
   68.2295   46.9872   57.1192 O   0  0  0  0  0  0  0  0  0  0  0  0
   67.7165   46.3823   55.0321 O   0  0  0  0  0  0  0  0  0  0  0  0
   67.8685   46.5147   53.7438 C   0  0  0  0  0  0  0  0  0  0  0  0
   67.1925   45.7471   52.8651 N   0  0  0  0  0  0  0  0  0  0  0  0
   67.3316   45.8490   51.5313 C   0  0  0  0  0  0  0  0  0  0  0  0
   66.6764   45.1095   50.7277 O   0  0  0  0  0  0  0  0  0  0  0  0
   68.1816   46.7535   51.0175 N   0  0  0  0  0  0  0  0  0  0  0  0
   68.8895   47.5556   51.8701 C   0  0  0  0  0  0  0  0  0  0  0  0
   69.6599   48.3608   51.3519 O   0  0  0  0  0  0  0  0  0  0  0  0
   68.7533   47.4651   53.2158 C   0  0  0  0  0  0  0  0  0  0  0  0
   70.3873   49.3572   53.5574 C   0  0  0  0  0  0  0  0  0  0  0  0
   70.2455   50.7166   54.0884 C   0  0  0  0  0  0  0  0  0  0  0  0
   68.9545   51.1497   54.7108 C   0  0  0  0  0  0  0  0  0  0  0  0
   69.0188   51.7978   56.0417 C   0  0  0  0  0  0  0  0  0  0  0  0
   69.1833   50.9408   57.2852 C   0  0  0  0  0  0  0  0  0  0  0  0
   67.8123   51.3934   56.9391 C   0  0  0  0  0  0  0  0  0  0  0  0
   70.6890   53.6420   56.3513 C   0  0  0  0  0  0  0  0  0  0  0  0
   69.2310   53.3031   56.1299 C   0  0  0  0  0  0  0  0  0  0  0  0
 20 21  1  0
 21 17  1  0
 17 16  1  0
 17 18  1  0
 17 19  1  0
 16 15  1  0
 15 14  1  0
 14  1  1  0
  1  2  2  0
  1 13  1  0
  2  3  1  0
  3  4  2  0
  3  5  1  0
  5  6  1  0
  6  7  1  0
  6 13  2  0
  7  8  1  0
  8  9  2  0
  8 10  1  0
 10 11  1  0
 11 12  2  0
 11 13  1  0
 18 19  1  0
M  END
>  <minimizedAffinity>  (3) 
-9.20642

$$$$
cs_full_output_folder/data/smiles/8523.pdb
     RDKit          3D

 22 24  0  0  0  0  0  0  0  0999 V2000
   71.5729   48.1990   58.9744 C   0  0  0  0  0  0  0  0  0  0  0  0
   70.8471   47.0909   58.3016 C   0  0  0  0  0  0  0  0  0  0  0  0
   69.7808   47.3921   57.4562 C   0  0  0  0  0  0  0  0  0  0  0  0
   69.0987   46.3746   56.8263 C   0  0  0  0  0  0  0  0  0  0  0  0
   69.4788   45.1264   57.0429 N   0  0  0  0  0  0  0  0  0  0  0  0
   70.5131   44.7961   57.8611 C   0  0  0  0  0  0  0  0  0  0  0  0
   71.1649   45.7990   58.4650 N   0  0  0  0  0  0  0  0  0  0  0  0
   70.8592   43.3925   58.0389 C   0  0  0  0  0  0  0  0  0  0  0  0
   70.0330   42.3854   58.2717 C   0  0  0  0  0  0  0  0  0  0  0  0
   70.8133   41.1354   58.3835 C   0  0  0  0  0  0  0  0  0  0  0  0
   72.0465   41.5189   58.2020 C   0  0  0  0  0  0  0  0  0  0  0  0
   72.1970   42.8171   57.9943 C   0  0  0  0  0  0  0  0  0  0  0  0
   68.0446   46.6803   55.9902 O   0  0  0  0  0  0  0  0  0  0  0  0
   68.2896   46.7568   54.6275 C   0  0  0  0  0  0  0  0  0  0  0  0
   67.7260   45.8494   53.7541 C   0  0  0  0  0  0  0  0  0  0  0  0
   67.9628   45.9140   52.3919 C   0  0  0  0  0  0  0  0  0  0  0  0
   68.7752   46.8954   51.8610 C   0  0  0  0  0  0  0  0  0  0  0  0
   69.3426   47.8070   52.7246 C   0  0  0  0  0  0  0  0  0  0  0  0
   69.1036   47.7370   54.0811 C   0  0  0  0  0  0  0  0  0  0  0  0
   70.1981   48.8431   52.1843 C   0  0  0  0  0  0  0  0  0  0  0  0
   69.8143   49.6060   51.0305 N   0  0  0  0  0  0  0  0  0  0  0  0
   71.3077   49.1146   52.7001 O   0  0  0  0  0  0  0  0  0  0  0  0
  1  2  1  0
  2  3  2  0
  2  7  1  0
  3  4  1  0
  4 13  1  0
  4  5  2  0
 13 14  1  0
 14 15  2  0
 14 19  1  0
 15 16  1  0
 16 17  2  0
 17 18  1  0
 18 20  1  0
 18 19  2  0
 20 21  1  0
 20 22  2  0
  5  6  1  0
  6  8  1  0
  6  7  2  0
  8  9  2  0
  8 12  1  0
  9 10  1  0
 10 11  2  0
 11 12  2  0
M  END
>  <minimizedAffinity>  (4) 
-9.19208

$$$$
cs_full_output_folder/data/smiles/7.pdb
     RDKit          3D

 19 21  0  0  0  0  0  0  0  0999 V2000
   66.8435   45.3784   51.0466 N   0  0  0  0  0  0  0  0  0  0  0  0
   67.7462   46.1769   51.8063 C   0  0  0  0  0  0  0  0  0  0  0  0
   67.7346   46.1298   53.2014 C   0  0  0  0  0  0  0  0  0  0  0  0
   68.5944   46.8881   53.9558 C   0  0  0  0  0  0  0  0  0  0  0  0
   69.4703   47.6997   53.2148 C   0  0  0  0  0  0  0  0  0  0  0  0
   70.4230   48.5514   53.6568 N   0  0  0  0  0  0  0  0  0  0  0  0
   70.9791   49.0832   52.5673 N   0  0  0  0  0  0  0  0  0  0  0  0
   70.4300   48.6139   51.4803 N   0  0  0  0  0  0  0  0  0  0  0  0
   69.4753   47.7399   51.8577 C   0  0  0  0  0  0  0  0  0  0  0  0
   68.6096   46.9738   51.1960 N   0  0  0  0  0  0  0  0  0  0  0  0
   68.6448   46.9007   55.2828 O   0  0  0  0  0  0  0  0  0  0  0  0
   69.2045   47.6232   56.2813 C   0  0  0  0  0  0  0  0  0  0  0  0
   68.4658   48.8114   56.7305 C   0  0  0  0  0  0  0  0  0  0  0  0
   67.3701   48.7429   57.5301 C   0  0  0  0  0  0  0  0  0  0  0  0
   66.7135   49.9066   57.9323 C   0  0  0  0  0  0  0  0  0  0  0  0
   67.1807   51.1273   57.5153 C   0  0  0  0  0  0  0  0  0  0  0  0
   68.2859   51.2153   56.7064 C   0  0  0  0  0  0  0  0  0  0  0  0
   68.8266   52.7987   56.2108 Cl  0  0  0  0  0  0  0  0  0  0  0  0
   68.9266   50.0490   56.3150 C   0  0  0  0  0  0  0  0  0  0  0  0
  1  2  1  0
  2  3  2  0
  2 10  1  0
  3  4  1  0
  4 11  1  0
  4  5  2  0
 11 12  1  0
 12 13  1  0
 13 14  2  0
 13 19  1  0
 14 15  1  0
 15 16  2  0
 16 17  1  0
 17 18  1  0
 17 19  2  0
  5  6  1  0
  5  9  1  0
  6  7  2  0
  7  8  1  0
  8  9  1  0
  9 10  2  0
M  END
>  <minimizedAffinity>  (5) 
-9.17792

$$$$
cs_full_output_folder/data/smiles/5396.pdb
     RDKit          3D

 22 24  0  0  0  0  0  0  0  0999 V2000
   68.4845   51.3656   56.2721 C   0  0  0  0  0  0  0  0  0  0  0  0
   67.4637   51.2773   57.1821 C   0  0  0  0  0  0  0  0  0  0  0  0
   67.0601   50.0625   57.6931 C   0  0  0  0  0  0  0  0  0  0  0  0
   66.0466   49.9805   58.5969 F   0  0  0  0  0  0  0  0  0  0  0  0
   67.7269   48.9271   57.2517 C   0  0  0  0  0  0  0  0  0  0  0  0
   67.3319   47.8399   57.7405 O   0  0  0  0  0  0  0  0  0  0  0  0
   68.7452   48.9795   56.3475 N   0  0  0  0  0  0  0  0  0  0  0  0
   69.1039   50.1847   55.8789 C   0  0  0  0  0  0  0  0  0  0  0  0
   68.9046   52.6600   55.7337 C   0  0  0  0  0  0  0  0  0  0  0  0
   68.4915   52.9571   54.5560 O   0  0  0  0  0  0  0  0  0  0  0  0
   71.0362   53.5865   56.2574 C   0  0  0  0  0  0  0  0  0  0  0  0
   69.7333   53.6029   56.4224 C   0  0  0  0  0  0  0  0  0  0  0  0
   69.3844   47.7434   55.9547 C   0  0  0  0  0  0  0  0  0  0  0  0
   69.0133   47.3147   54.5934 C   0  0  0  0  0  0  0  0  0  0  0  0
   68.0727   46.2886   54.4005 C   0  0  0  0  0  0  0  0  0  0  0  0
   67.6701   45.8982   53.1520 C   0  0  0  0  0  0  0  0  0  0  0  0
   68.1773   46.4991   52.0329 C   0  0  0  0  0  0  0  0  0  0  0  0
   69.1133   47.5193   52.1595 C   0  0  0  0  0  0  0  0  0  0  0  0
   69.7722   48.2505   51.2292 N   0  0  0  0  0  0  0  0  0  0  0  0
   70.5582   49.0639   51.8954 N   0  0  0  0  0  0  0  0  0  0  0  0
   70.4292   48.8839   53.2238 C   0  0  0  0  0  0  0  0  0  0  0  0
   69.5060   47.8980   53.4394 C   0  0  0  0  0  0  0  0  0  0  0  0
 11 12  2  0
 12  9  1  0
  9 10  2  0
  9  1  1  0
  1  2  1  0
  1  8  2  0
  2  3  2  0
  3  4  1  0
  3  5  1  0
  5  6  2  0
  5  7  1  0
  7 13  1  0
  7  8  1  0
 13 14  1  0
 14 15  2  0
 14 22  1  0
 15 16  1  0
 16 17  2  0
 17 18  1  0
 18 19  1  0
 18 22  2  0
 19 20  1  0
 20 21  2  0
 21 22  1  0
M  END
>  <minimizedAffinity>  (6) 
-9.15263

$$$$
cs_full_output_folder/data/smiles/198.pdb
     RDKit          3D

 21 23  0  0  0  0  0  0  0  0999 V2000
   69.4862   48.3032   54.0072 C   0  0  0  0  0  0  0  0  0  0  0  0
   69.2030   48.0710   55.3771 C   0  0  0  0  0  0  0  0  0  0  0  0
   68.3211   47.1534   55.8216 C   0  0  0  0  0  0  0  0  0  0  0  0
   68.1363   47.0213   57.0778 O   0  0  0  0  0  0  0  0  0  0  0  0
   67.6678   46.4106   54.9612 O   0  0  0  0  0  0  0  0  0  0  0  0
   67.8650   46.5501   53.6716 C   0  0  0  0  0  0  0  0  0  0  0  0
   67.1576   45.7410   52.8512 N   0  0  0  0  0  0  0  0  0  0  0  0
   67.3258   45.8296   51.5138 C   0  0  0  0  0  0  0  0  0  0  0  0
   66.6688   45.0778   50.7347 O   0  0  0  0  0  0  0  0  0  0  0  0
   68.2003   46.7275   51.0316 N   0  0  0  0  0  0  0  0  0  0  0  0
   68.9189   47.5513   51.8419 C   0  0  0  0  0  0  0  0  0  0  0  0
   69.7075   48.3449   51.3358 O   0  0  0  0  0  0  0  0  0  0  0  0
   68.7592   47.4787   53.1864 C   0  0  0  0  0  0  0  0  0  0  0  0
   70.3634   49.4047   53.6247 C   0  0  0  0  0  0  0  0  0  0  0  0
   70.4615   50.5285   54.6090 C   0  0  0  0  0  0  0  0  0  0  0  0
   69.3055   51.4233   54.7903 C   0  0  0  0  0  0  0  0  0  0  0  0
   69.0594   51.9153   56.1844 C   0  0  0  0  0  0  0  0  0  0  0  0
   67.8492   51.3774   56.9380 C   0  0  0  0  0  0  0  0  0  0  0  0
   69.2634   51.1017   57.3929 C   0  0  0  0  0  0  0  0  0  0  0  0
   70.7456   53.6772   56.3806 C   0  0  0  0  0  0  0  0  0  0  0  0
   69.2530   53.4327   56.2921 C   0  0  0  0  0  0  0  0  0  0  0  0
 20 21  1  0
 21 17  1  0
 17 16  1  0
 17 18  1  0
 17 19  1  0
 16 15  1  0
 15 14  1  0
 14  1  1  0
  1  2  2  0
  1 13  1  0
  2  3  1  0
  3  4  2  0
  3  5  1  0
  5  6  1  0
  6  7  1  0
  6 13  2  0
  7  8  1  0
  8  9  2  0
  8 10  1  0
 10 11  1  0
 11 12  2  0
 11 13  1  0
 18 19  1  0
M  END
>  <minimizedAffinity>  (7) 
-9.14837

$$$$
cs_full_output_folder/data/smiles/7255.pdb
     RDKit          3D

 22 24  0  0  0  0  0  0  0  0999 V2000
   71.7222   47.5452   58.8821 C   0  0  0  0  0  0  0  0  0  0  0  0
   70.8510   46.5870   58.1657 C   0  0  0  0  0  0  0  0  0  0  0  0
   69.8382   46.9833   57.2836 C   0  0  0  0  0  0  0  0  0  0  0  0
   69.0622   46.0412   56.6481 C   0  0  0  0  0  0  0  0  0  0  0  0
   69.3014   44.7585   56.8955 N   0  0  0  0  0  0  0  0  0  0  0  0
   70.2682   44.3273   57.7388 C   0  0  0  0  0  0  0  0  0  0  0  0
   71.0087   45.2702   58.3436 N   0  0  0  0  0  0  0  0  0  0  0  0
   70.5098   42.9155   57.9923 C   0  0  0  0  0  0  0  0  0  0  0  0
   69.5799   41.9825   58.0961 C   0  0  0  0  0  0  0  0  0  0  0  0
   70.1461   40.6693   58.3514 C   0  0  0  0  0  0  0  0  0  0  0  0
   71.4544   40.8211   58.4035 C   0  0  0  0  0  0  0  0  0  0  0  0
   71.8139   42.2399   58.1842 C   0  0  0  0  0  0  0  0  0  0  0  0
   68.0729   46.4499   55.7852 O   0  0  0  0  0  0  0  0  0  0  0  0
   68.2806   46.6018   54.4339 C   0  0  0  0  0  0  0  0  0  0  0  0
   67.6978   45.7446   53.5352 C   0  0  0  0  0  0  0  0  0  0  0  0
   67.8955   45.8816   52.1559 C   0  0  0  0  0  0  0  0  0  0  0  0
   68.7119   46.9262   51.7124 C   0  0  0  0  0  0  0  0  0  0  0  0
   69.3021   47.7928   52.5983 C   0  0  0  0  0  0  0  0  0  0  0  0
   69.0762   47.6156   53.9472 C   0  0  0  0  0  0  0  0  0  0  0  0
   70.1396   48.8591   52.0981 C   0  0  0  0  0  0  0  0  0  0  0  0
   69.7860   49.6664   51.0034 N   0  0  0  0  0  0  0  0  0  0  0  0
   71.2601   49.0981   52.6655 O   0  0  0  0  0  0  0  0  0  0  0  0
  1  2  1  0
  2  3  2  0
  2  7  1  0
  3  4  1  0
  4 13  1  0
  4  5  2  0
 13 14  1  0
 14 15  2  0
 14 19  1  0
 15 16  1  0
 16 17  2  0
 17 18  1  0
 18 20  1  0
 18 19  2  0
 20 21  1  0
 20 22  2  0
  5  6  1  0
  6  8  1  0
  6  7  2  0
  8  9  2  0
  8 12  1  0
  9 10  1  0
 10 11  2  0
 11 12  1  0
M  END
>  <minimizedAffinity>  (8) 
-9.13885

$$$$
cs_full_output_folder/data/smiles/17.pdb
     RDKit          3D

 21 22  0  0  0  0  0  0  0  0999 V2000
   68.0202   46.8120   55.9783 O   0  0  0  0  0  0  0  0  0  0  0  0
   68.2449   46.8471   54.6182 C   0  0  0  0  0  0  0  0  0  0  0  0
   67.5691   46.0250   53.7306 C   0  0  0  0  0  0  0  0  0  0  0  0
   67.7889   46.0571   52.3787 C   0  0  0  0  0  0  0  0  0  0  0  0
   67.0737   45.1977   51.5211 N   0  0  0  0  0  0  0  0  0  0  0  0
   68.7064   46.9212   51.8414 C   0  0  0  0  0  0  0  0  0  0  0  0
   69.3969   47.7539   52.6964 C   0  0  0  0  0  0  0  0  0  0  0  0
   69.1629   47.7098   54.0640 C   0  0  0  0  0  0  0  0  0  0  0  0
   70.3492   48.6529   52.1427 N   0  0  0  0  0  0  0  0  0  0  0  0
   70.2601   49.0662   50.9934 O   0  0  0  0  0  0  0  0  0  0  0  0
   71.4087   49.0796   52.9059 O   0  0  0  0  0  0  0  0  0  0  0  0
   71.1977   47.9546   58.5550 C   0  0  0  0  0  0  0  0  0  0  0  0
   71.0042   46.6292   58.1077 C   0  0  0  0  0  0  0  0  0  0  0  0
   69.9688   46.2966   57.2767 C   0  0  0  0  0  0  0  0  0  0  0  0
   69.0474   47.2141   56.8188 C   0  0  0  0  0  0  0  0  0  0  0  0
   69.2284   48.5064   57.2481 C   0  0  0  0  0  0  0  0  0  0  0  0
   70.2843   48.8645   58.0993 C   0  0  0  0  0  0  0  0  0  0  0  0
   73.7118   47.9438   61.4771 C   0  0  0  0  0  0  0  0  0  0  0  0
   72.5151   47.5894   60.6390 C   0  0  0  0  0  0  0  0  0  0  0  0
   71.7515   46.7139   61.1056 O   0  0  0  0  0  0  0  0  0  0  0  0
   72.2913   48.2185   59.4120 N   0  0  0  0  0  0  0  0  0  0  0  0
 18 19  1  0
 19 20  2  0
 19 21  1  0
 21 12  1  0
 12 13  2  0
 12 17  1  0
 13 14  1  0
 14 15  2  0
 15  1  1  0
 15 16  1  0
  1  2  1  0
  2  3  2  0
  2  8  1  0
  3  4  1  0
  4  5  1  0
  4  6  2  0
  6  7  1  0
  7  9  1  0
  7  8  2  0
  9 10  2  0
  9 11  1  0
 16 17  2  0
M  CHG  2   9   1  11  -1
M  END
>  <minimizedAffinity>  (9) 
-9.11599

$$$$
cs_full_output_folder/data/smiles/12.pdb
     RDKit          3D

 21 23  0  0  0  0  0  0  0  0999 V2000
   70.3199   50.0640   54.9826 N   0  0  0  0  0  0  0  0  0  0  0  0
   70.3914   49.2285   53.9479 C   0  0  0  0  0  0  0  0  0  0  0  0
   71.6280   49.4430   53.3675 N   0  0  0  0  0  0  0  0  0  0  0  0
   72.2562   50.3718   54.0370 N   0  0  0  0  0  0  0  0  0  0  0  0
   71.4951   50.7865   55.0382 C   0  0  0  0  0  0  0  0  0  0  0  0
   71.7145   51.6457   55.9015 O   0  0  0  0  0  0  0  0  0  0  0  0
   69.5170   48.1987   53.4053 C   0  0  0  0  0  0  0  0  0  0  0  0
   68.7245   47.4926   54.3153 C   0  0  0  0  0  0  0  0  0  0  0  0
   67.9034   46.4826   53.9175 C   0  0  0  0  0  0  0  0  0  0  0  0
   67.8261   46.1151   52.5854 C   0  0  0  0  0  0  0  0  0  0  0  0
   66.9807   45.0812   52.2001 O   0  0  0  0  0  0  0  0  0  0  0  0
   68.5865   46.7825   51.6767 C   0  0  0  0  0  0  0  0  0  0  0  0
   69.4267   47.8215   52.1072 C   0  0  0  0  0  0  0  0  0  0  0  0
   70.1717   48.4447   51.1302 O   0  0  0  0  0  0  0  0  0  0  0  0
   68.4852   52.0955   54.5866 C   0  0  0  0  0  0  0  0  0  0  0  0
   68.3545   51.2095   55.7724 C   0  0  0  0  0  0  0  0  0  0  0  0
   67.3399   51.3901   56.7060 C   0  0  0  0  0  0  0  0  0  0  0  0
   67.2518   50.5455   57.7932 C   0  0  0  0  0  0  0  0  0  0  0  0
   68.1773   49.5236   57.9437 C   0  0  0  0  0  0  0  0  0  0  0  0
   69.1874   49.3353   57.0241 C   0  0  0  0  0  0  0  0  0  0  0  0
   69.2723   50.1931   55.9248 C   0  0  0  0  0  0  0  0  0  0  0  0
 15 16  1  0
 16 17  2  0
 16 21  1  0
 17 18  1  0
 18 19  2  0
 19 20  1  0
 20 21  2  0
 21  1  1  0
  1  2  1  0
  1  5  1  0
  2  7  1  0
  2  3  2  0
  7  8  2  0
  7 13  1  0
  8  9  1  0
  9 10  2  0
 10 11  1  0
 10 12  1  0
 12 13  2  0
 13 14  1  0
  3  4  1  0
  4  5  1  0
  5  6  2  0
M  END
>  <minimizedAffinity>  (10) 
-9.11401

$$$$
cs_full_output_folder/data/smiles/5259.pdb
     RDKit          3D

 22 24  0  0  0  0  0  0  0  0999 V2000
   68.8101   45.5291   56.3753 C   0  0  0  0  0  0  0  0  0  0  0  0
   69.8798   46.1249   56.9649 N   0  0  0  0  0  0  0  0  0  0  0  0
   70.7540   45.4387   57.7077 C   0  0  0  0  0  0  0  0  0  0  0  0
   70.5809   44.1176   57.8851 N   0  0  0  0  0  0  0  0  0  0  0  0
   69.5207   43.4837   57.3106 C   0  0  0  0  0  0  0  0  0  0  0  0
   68.6703   44.2084   56.5747 N   0  0  0  0  0  0  0  0  0  0  0  0
   69.3501   42.0588   57.5125 C   0  0  0  0  0  0  0  0  0  0  0  0
   68.2468   41.4064   57.0080 C   0  0  0  0  0  0  0  0  0  0  0  0
   68.0958   40.0353   57.2099 C   0  0  0  0  0  0  0  0  0  0  0  0
   69.0322   39.3053   57.9105 C   0  0  0  0  0  0  0  0  0  0  0  0
   70.1327   39.9659   58.4109 C   0  0  0  0  0  0  0  0  0  0  0  0
   70.2821   41.3336   58.2093 C   0  0  0  0  0  0  0  0  0  0  0  0
   67.9234   46.2727   55.6112 O   0  0  0  0  0  0  0  0  0  0  0  0
   69.2857   47.7199   52.4917 C   0  0  0  0  0  0  0  0  0  0  0  0
   68.7087   46.9268   51.5262 C   0  0  0  0  0  0  0  0  0  0  0  0
   67.8712   45.9173   51.9513 C   0  0  0  0  0  0  0  0  0  0  0  0
   67.6025   45.6896   53.2858 C   0  0  0  0  0  0  0  0  0  0  0  0
   68.1754   46.4795   54.2616 C   0  0  0  0  0  0  0  0  0  0  0  0
   69.0161   47.4918   53.8462 C   0  0  0  0  0  0  0  0  0  0  0  0
   71.2307   49.1762   52.9236 N   0  0  0  0  0  0  0  0  0  0  0  0
   70.1678   48.7856   52.0868 C   0  0  0  0  0  0  0  0  0  0  0  0
   69.9923   49.3634   50.9970 O   0  0  0  0  0  0  0  0  0  0  0  0
 20 21  1  0
 21 22  2  0
 21 14  1  0
 14 15  2  0
 14 19  1  0
 15 16  1  0
 16 17  2  0
 17 18  1  0
 18 13  1  0
 18 19  2  0
 13  1  1  0
  1  2  2  0
  1  6  1  0
  2  3  1  0
  3  4  2  0
  4  5  1  0
  5  7  1  0
  5  6  2  0
  7  8  2  0
  7 12  1  0
  8  9  1  0
  9 10  2  0
 10 11  1  0
 11 12  2  0
M  END
>  <minimizedAffinity>  (11) 
-9.11349

$$$$
cs_full_output_folder/data/smiles/3732.pdb
     RDKit          3D

 22 24  0  0  0  0  0  0  0  0999 V2000
   68.3266   44.7975   55.9199 O   0  0  0  0  0  0  0  0  0  0  0  0
   68.2950   45.9925   55.5758 C   0  0  0  0  0  0  0  0  0  0  0  0
   68.4048   46.3333   54.1558 C   0  0  0  0  0  0  0  0  0  0  0  0
   67.7040   45.6673   53.1747 C   0  0  0  0  0  0  0  0  0  0  0  0
   67.8327   46.0171   51.8461 C   0  0  0  0  0  0  0  0  0  0  0  0
   68.6632   47.0408   51.4387 C   0  0  0  0  0  0  0  0  0  0  0  0
   69.3676   47.7107   52.4155 C   0  0  0  0  0  0  0  0  0  0  0  0
   69.2341   47.3559   53.7458 C   0  0  0  0  0  0  0  0  0  0  0  0
   70.2374   48.7736   52.0538 N   0  0  0  0  0  0  0  0  0  0  0  0
   69.9965   49.4550   51.0410 O   0  0  0  0  0  0  0  0  0  0  0  0
   71.3555   49.0899   52.7838 O   0  0  0  0  0  0  0  0  0  0  0  0
   68.1571   46.8937   56.5850 O   0  0  0  0  0  0  0  0  0  0  0  0
   69.1489   47.5236   57.2753 C   0  0  0  0  0  0  0  0  0  0  0  0
   70.2292   46.9010   57.8586 C   0  0  0  0  0  0  0  0  0  0  0  0
   71.2100   47.5809   58.5482 C   0  0  0  0  0  0  0  0  0  0  0  0
   71.1320   48.9536   58.6749 C   0  0  0  0  0  0  0  0  0  0  0  0
   70.0619   49.6116   58.1019 C   0  0  0  0  0  0  0  0  0  0  0  0
   69.9963   50.9792   58.2370 C   0  0  0  0  0  0  0  0  0  0  0  0
   68.9446   51.6669   57.6786 C   0  0  0  0  0  0  0  0  0  0  0  0
   67.9754   50.9824   56.9963 C   0  0  0  0  0  0  0  0  0  0  0  0
   68.0268   49.6323   56.8552 C   0  0  0  0  0  0  0  0  0  0  0  0
   69.0703   48.9091   57.4038 C   0  0  0  0  0  0  0  0  0  0  0  0
  1  2  2  0
  2 12  1  0
  2  3  1  0
 12 13  1  0
 13 14  2  0
 13 22  1  0
 14 15  1  0
 15 16  2  0
 16 17  1  0
 17 18  1  0
 17 22  2  0
 18 19  2  0
 19 20  1  0
 20 21  2  0
 21 22  1  0
  3  4  2  0
  3  8  1  0
  4  5  1  0
  5  6  2  0
  6  7  1  0
  7  9  1  0
  7  8  2  0
  9 10  2  0
  9 11  1  0
M  CHG  2   9   1  11  -1
M  END
>  <minimizedAffinity>  (12) 
-9.10834

$$$$
cs_full_output_folder/data/smiles/5262.pdb
     RDKit          3D

 22 23  0  0  0  0  0  0  0  0999 V2000
   68.9073   46.8567   57.4451 N   0  0  0  0  0  0  0  0  0  0  0  0
   68.4201   47.5407   56.5205 C   0  0  0  0  0  0  0  0  0  0  0  0
   68.5790   47.4292   55.0956 C   0  0  0  0  0  0  0  0  0  0  0  0
   67.8428   46.4539   54.4266 C   0  0  0  0  0  0  0  0  0  0  0  0
   67.9118   46.2573   53.0831 C   0  0  0  0  0  0  0  0  0  0  0  0
   68.7586   47.0692   52.3505 C   0  0  0  0  0  0  0  0  0  0  0  0
   68.8611   46.9033   50.9734 O   0  0  0  0  0  0  0  0  0  0  0  0
   69.5144   48.0511   52.9438 C   0  0  0  0  0  0  0  0  0  0  0  0
   69.4090   48.2158   54.3308 C   0  0  0  0  0  0  0  0  0  0  0  0
   70.3821   48.8807   52.1855 N   0  0  0  0  0  0  0  0  0  0  0  0
   71.5623   48.9784   52.5790 O   0  0  0  0  0  0  0  0  0  0  0  0
   69.9013   49.5293   51.0723 O   0  0  0  0  0  0  0  0  0  0  0  0
   70.7378   45.4419   58.3073 C   0  0  0  0  0  0  0  0  0  0  0  0
   70.7961   46.2150   59.3102 O   0  0  0  0  0  0  0  0  0  0  0  0
   69.7491   45.7844   57.3378 N   0  0  0  0  0  0  0  0  0  0  0  0
   71.4112   40.5529   58.4847 C   0  0  0  0  0  0  0  0  0  0  0  0
   71.9607   41.9232   58.3143 C   0  0  0  0  0  0  0  0  0  0  0  0
   73.3096   42.0666   58.0859 C   0  0  0  0  0  0  0  0  0  0  0  0
   73.8315   43.3402   57.9262 C   0  0  0  0  0  0  0  0  0  0  0  0
   72.9857   44.4583   57.9981 C   0  0  0  0  0  0  0  0  0  0  0  0
   71.6409   44.3199   58.2260 C   0  0  0  0  0  0  0  0  0  0  0  0
   71.1722   43.0283   58.3778 C   0  0  0  0  0  0  0  0  0  0  0  0
 16 17  1  0
 17 18  2  0
 17 22  1  0
 18 19  1  0
 19 20  2  0
 20 21  1  0
 21 13  1  0
 21 22  2  0
 13 14  2  0
 13 15  1  0
 15  1  1  0
  1  2  2  0
  2  3  1  0
  3  4  2  0
  3  9  1  0
  4  5  1  0
  5  6  2  0
  6  7  1  0
  6  8  1  0
  8 10  1  0
  8  9  2  0
 10 11  2  0
 10 12  1  0
M  CHG  2  10   1  12  -1
M  END
>  <minimizedAffinity>  (13) 
-9.10468

$$$$
cs_full_output_folder/data/smiles/4676.pdb
     RDKit          3D

 21 23  0  0  0  0  0  0  0  0999 V2000
   69.7182   48.1236   54.7996 C   0  0  0  0  0  0  0  0  0  0  0  0
   70.6235   49.0395   54.3764 N   0  0  0  0  0  0  0  0  0  0  0  0
   70.9131   49.2669   53.1143 N   0  0  0  0  0  0  0  0  0  0  0  0
   70.2818   48.5566   52.1711 C   0  0  0  0  0  0  0  0  0  0  0  0
   70.5160   48.7269   50.9287 O   0  0  0  0  0  0  0  0  0  0  0  0
   69.3453   47.6051   52.5003 C   0  0  0  0  0  0  0  0  0  0  0  0
   68.6738   46.8791   51.5453 C   0  0  0  0  0  0  0  0  0  0  0  0
   67.7253   45.9431   51.8916 C   0  0  0  0  0  0  0  0  0  0  0  0
   67.4353   45.7226   53.2172 C   0  0  0  0  0  0  0  0  0  0  0  0
   68.0938   46.4375   54.1989 C   0  0  0  0  0  0  0  0  0  0  0  0
   69.0554   47.3848   53.8572 C   0  0  0  0  0  0  0  0  0  0  0  0
   69.5157   47.9055   56.2506 C   0  0  0  0  0  0  0  0  0  0  0  0
   67.9769   51.1290   57.3023 C   0  0  0  0  0  0  0  0  0  0  0  0
   66.8014   50.7259   57.8982 C   0  0  0  0  0  0  0  0  0  0  0  0
   66.4535   49.3982   57.9840 C   0  0  0  0  0  0  0  0  0  0  0  0
   67.3341   48.4508   57.4444 C   0  0  0  0  0  0  0  0  0  0  0  0
   68.5106   48.8337   56.8471 C   0  0  0  0  0  0  0  0  0  0  0  0
   68.8333   50.1959   56.7773 C   0  0  0  0  0  0  0  0  0  0  0  0
   68.3276   52.4848   57.2155 O   0  0  0  0  0  0  0  0  0  0  0  0
   68.9305   52.7744   54.5788 N   0  0  0  0  0  0  0  0  0  0  0  0
   69.4116   53.0900   56.0491 S   0  0  0  0  0  0  0  0  0  0  0  0
 20 21  2  0
 21 19  1  0
 19 13  1  0
 13 14  2  0
 13 18  1  0
 14 15  1  0
 15 16  2  0
 16 17  1  0
 17 12  1  0
 17 18  2  0
 12  1  1  0
  1  2  2  0
  1 11  1  0
  2  3  1  0
  3  4  1  0
  4  5  2  0
  4  6  1  0
  6  7  1  0
  6 11  2  0
  7  8  2  0
  8  9  1  0
  9 10  2  0
 10 11  1  0
M  END
>  <minimizedAffinity>  (14) 
-9.09360

$$$$
cs_full_output_folder/data/smiles/6454.pdb
     RDKit          3D

 21 23  0  0  0  0  0  0  0  0999 V2000
   70.6207   48.4892   50.8107 O   0  0  0  0  0  0  0  0  0  0  0  0
   70.3423   48.3767   52.0443 C   0  0  0  0  0  0  0  0  0  0  0  0
   70.9708   49.0628   52.9934 N   0  0  0  0  0  0  0  0  0  0  0  0
   70.6587   48.9222   54.2595 N   0  0  0  0  0  0  0  0  0  0  0  0
   69.6989   48.0938   54.7077 C   0  0  0  0  0  0  0  0  0  0  0  0
   69.0281   47.3647   53.7345 C   0  0  0  0  0  0  0  0  0  0  0  0
   68.0408   46.5067   54.1615 C   0  0  0  0  0  0  0  0  0  0  0  0
   67.3626   45.7739   53.2047 C   0  0  0  0  0  0  0  0  0  0  0  0
   67.6774   45.9089   51.8723 C   0  0  0  0  0  0  0  0  0  0  0  0
   68.6638   46.7635   51.4259 C   0  0  0  0  0  0  0  0  0  0  0  0
   69.3411   47.4983   52.4027 C   0  0  0  0  0  0  0  0  0  0  0  0
   69.3641   47.9527   56.1519 C   0  0  0  0  0  0  0  0  0  0  0  0
   68.6584   49.1873   56.5568 C   0  0  0  0  0  0  0  0  0  0  0  0
   67.6279   49.0957   57.4637 C   0  0  0  0  0  0  0  0  0  0  0  0
   66.9292   50.2377   57.8786 C   0  0  0  0  0  0  0  0  0  0  0  0
   67.2996   51.4798   57.3501 C   0  0  0  0  0  0  0  0  0  0  0  0
   68.3304   51.5807   56.4419 C   0  0  0  0  0  0  0  0  0  0  0  0
   68.9794   50.4175   56.0734 C   0  0  0  0  0  0  0  0  0  0  0  0
   68.6646   52.8593   55.9397 N   0  0  0  0  0  0  0  0  0  0  0  0
   69.0716   53.7360   56.7219 O   0  0  0  0  0  0  0  0  0  0  0  0
   68.5627   53.1883   54.6143 O   0  0  0  0  0  0  0  0  0  0  0  0
  1  2  2  0
  2  3  1  0
  2 11  1  0
  3  4  1  0
  4  5  2  0
  5 12  1  0
  5  6  1  0
 12 13  1  0
 13 14  2  0
 13 18  1  0
 14 15  1  0
 15 16  2  0
 16 17  1  0
 17 19  1  0
 17 18  2  0
 19 20  2  0
 19 21  1  0
  6  7  1  0
  6 11  2  0
  7  8  2  0
  8  9  1  0
  9 10  2  0
 10 11  1  0
M  CHG  2  19   1  21  -1
M  END
>  <minimizedAffinity>  (15) 
-9.07546

$$$$
cs_full_output_folder/data/smiles/9.pdb
     RDKit          3D

 21 22  0  0  0  0  0  0  0  0999 V2000
   68.8656   46.8063   54.8630 C   0  0  0  0  0  0  0  0  0  0  0  0
   68.0215   45.8780   54.2221 C   0  0  0  0  0  0  0  0  0  0  0  0
   67.8029   45.8862   52.8652 C   0  0  0  0  0  0  0  0  0  0  0  0
   66.9573   44.9500   52.2531 O   0  0  0  0  0  0  0  0  0  0  0  0
   68.4074   46.8156   52.0613 C   0  0  0  0  0  0  0  0  0  0  0  0
   68.2081   46.8535   50.6785 O   0  0  0  0  0  0  0  0  0  0  0  0
   69.2401   47.7453   52.6278 C   0  0  0  0  0  0  0  0  0  0  0  0
   69.4398   47.7098   54.0058 C   0  0  0  0  0  0  0  0  0  0  0  0
   69.8904   48.7247   51.8359 N   0  0  0  0  0  0  0  0  0  0  0  0
   70.6141   48.3726   50.9029 O   0  0  0  0  0  0  0  0  0  0  0  0
   69.7132   50.0416   52.1099 O   0  0  0  0  0  0  0  0  0  0  0  0
   69.0696   46.7491   56.2912 C   0  0  0  0  0  0  0  0  0  0  0  0
   69.0337   45.5185   56.7541 O   0  0  0  0  0  0  0  0  0  0  0  0
   69.2964   47.7578   57.2803 C   0  0  0  0  0  0  0  0  0  0  0  0
   70.4026   50.3300   56.4574 C   0  0  0  0  0  0  0  0  0  0  0  0
   69.0030   50.2237   56.9506 C   0  0  0  0  0  0  0  0  0  0  0  0
   68.1981   51.3248   57.0477 C   0  0  0  0  0  0  0  0  0  0  0  0
   66.8937   51.2670   57.5037 C   0  0  0  0  0  0  0  0  0  0  0  0
   66.4174   50.0219   57.8669 C   0  0  0  0  0  0  0  0  0  0  0  0
   67.2108   48.9109   57.7747 C   0  0  0  0  0  0  0  0  0  0  0  0
   68.5202   48.9883   57.3136 C   0  0  0  0  0  0  0  0  0  0  0  0
 15 16  1  0
 16 17  2  0
 16 21  1  0
 17 18  1  0
 18 19  2  0
 19 20  1  0
 20 21  2  0
 21 14  1  0
 14 12  1  0
 12 13  2  0
 12  1  1  0
  1  2  2  0
  1  8  1  0
  2  3  1  0
  3  4  1  0
  3  5  2  0
  5  6  1  0
  5  7  1  0
  7  9  1  0
  7  8  2  0
  9 10  2  0
  9 11  1  0
M  CHG  2   9   1  11  -1
M  END
>  <minimizedAffinity>  (16) 
-9.07515

$$$$
cs_full_output_folder/data/smiles/7068.pdb
     RDKit          3D

 20 22  0  0  0  0  0  0  0  0999 V2000
   70.1484   48.9066   53.9628 C   0  0  0  0  0  0  0  0  0  0  0  0
   71.3047   49.1638   53.2824 N   0  0  0  0  0  0  0  0  0  0  0  0
   71.8850   50.1981   53.8353 N   0  0  0  0  0  0  0  0  0  0  0  0
   71.1194   50.6119   54.8648 C   0  0  0  0  0  0  0  0  0  0  0  0
   69.9891   49.7962   54.9733 C   0  0  0  0  0  0  0  0  0  0  0  0
   66.8830   44.6782   52.1682 O   0  0  0  0  0  0  0  0  0  0  0  0
   67.6776   45.7067   52.6502 C   0  0  0  0  0  0  0  0  0  0  0  0
   68.0225   45.8455   53.9838 C   0  0  0  0  0  0  0  0  0  0  0  0
   68.8098   46.8646   54.4580 C   0  0  0  0  0  0  0  0  0  0  0  0
   69.2923   47.8065   53.5794 C   0  0  0  0  0  0  0  0  0  0  0  0
   68.9696   47.7007   52.2434 C   0  0  0  0  0  0  0  0  0  0  0  0
   69.4518   48.6544   51.3165 O   0  0  0  0  0  0  0  0  0  0  0  0
   68.1783   46.6681   51.7944 C   0  0  0  0  0  0  0  0  0  0  0  0
   67.8391   46.5409   50.4496 O   0  0  0  0  0  0  0  0  0  0  0  0
   68.9623   49.9697   55.9613 C   0  0  0  0  0  0  0  0  0  0  0  0
   68.5070   49.0027   56.8044 C   0  0  0  0  0  0  0  0  0  0  0  0
   67.5239   49.2154   57.7421 C   0  0  0  0  0  0  0  0  0  0  0  0
   66.9590   50.4595   57.8482 C   0  0  0  0  0  0  0  0  0  0  0  0
   67.3770   51.4910   57.0181 C   0  0  0  0  0  0  0  0  0  0  0  0
   68.3642   51.2311   56.0959 C   0  0  0  0  0  0  0  0  0  0  0  0
  6  7  1  0
  7  8  2  0
  7 13  1  0
  8  9  1  0
  9 10  2  0
 10  1  1  0
 10 11  1  0
  1  2  1  0
  1  5  2  0
  2  3  1  0
  3  4  2  0
  4  5  1  0
  5 15  1  0
 15 16  2  0
 15 20  1  0
 16 17  1  0
 17 18  2  0
 18 19  1  0
 19 20  2  0
 11 12  1  0
 11 13  2  0
 13 14  1  0
M  END
>  <minimizedAffinity>  (17) 
-9.07147

$$$$
cs_full_output_folder/data/smiles/1585.pdb
     RDKit          3D

 20 22  0  0  0  0  0  0  0  0999 V2000
   71.5998   49.1959   53.0107 O   0  0  0  0  0  0  0  0  0  0  0  0
   70.1144   49.2087   52.6391 S   0  0  0  0  0  0  0  0  0  0  0  0
   70.1246   49.0579   51.1104 O   0  0  0  0  0  0  0  0  0  0  0  0
   69.3057   47.8627   53.3251 C   0  0  0  0  0  0  0  0  0  0  0  0
   69.3033   47.5714   54.6629 C   0  0  0  0  0  0  0  0  0  0  0  0
   68.5809   46.5212   55.1945 C   0  0  0  0  0  0  0  0  0  0  0  0
   67.8389   45.7417   54.3545 C   0  0  0  0  0  0  0  0  0  0  0  0
   67.8161   46.0073   52.9939 C   0  0  0  0  0  0  0  0  0  0  0  0
   67.1987   45.4379   51.9415 N   0  0  0  0  0  0  0  0  0  0  0  0
   67.5292   46.0992   50.8578 O   0  0  0  0  0  0  0  0  0  0  0  0
   68.3455   47.0867   51.1727 N   0  0  0  0  0  0  0  0  0  0  0  0
   68.5395   47.0546   52.4808 C   0  0  0  0  0  0  0  0  0  0  0  0
   69.4167   50.7077   53.0074 N   0  0  0  0  0  0  0  0  0  0  0  0
   69.3726   51.4075   54.2300 C   0  0  0  0  0  0  0  0  0  0  0  0
   70.2367   52.3560   54.6878 C   0  0  0  0  0  0  0  0  0  0  0  0
   70.0703   53.0153   55.9123 C   0  0  0  0  0  0  0  0  0  0  0  0
   68.9892   52.7026   56.7002 C   0  0  0  0  0  0  0  0  0  0  0  0
   68.1052   51.7396   56.2396 C   0  0  0  0  0  0  0  0  0  0  0  0
   67.0281   51.4368   57.0361 F   0  0  0  0  0  0  0  0  0  0  0  0
   68.2645   51.0955   55.0481 C   0  0  0  0  0  0  0  0  0  0  0  0
  1  2  2  0
  2  3  2  0
  2 13  1  0
  2  4  1  0
 13 14  1  0
 14 15  2  0
 14 20  1  0
 15 16  1  0
 16 17  2  0
 17 18  1  0
 18 19  1  0
 18 20  2  0
  4  5  2  0
  4 12  1  0
  5  6  1  0
  6  7  2  0
  7  8  1  0
  8  9  2  0
  8 12  1  0
  9 10  1  0
 10 11  1  0
 11 12  2  0
M  END
>  <minimizedAffinity>  (18) 
-9.06702

$$$$
cs_full_output_folder/data/smiles/4.pdb
     RDKit          3D

 20 22  0  0  0  0  0  0  0  0999 V2000
   66.6728   44.8458   50.8727 O   0  0  0  0  0  0  0  0  0  0  0  0
   67.3248   45.6686   51.6000 C   0  0  0  0  0  0  0  0  0  0  0  0
   68.1378   46.5771   51.0615 N   0  0  0  0  0  0  0  0  0  0  0  0
   68.8377   47.4584   51.8281 C   0  0  0  0  0  0  0  0  0  0  0  0
   69.5878   48.2995   51.3173 O   0  0  0  0  0  0  0  0  0  0  0  0
   68.7090   47.4166   53.1864 C   0  0  0  0  0  0  0  0  0  0  0  0
   69.4041   48.2975   53.9869 C   0  0  0  0  0  0  0  0  0  0  0  0
   69.1602   48.1338   55.3597 C   0  0  0  0  0  0  0  0  0  0  0  0
   68.3061   47.1775   55.8472 C   0  0  0  0  0  0  0  0  0  0  0  0
   68.1015   47.0466   57.0886 O   0  0  0  0  0  0  0  0  0  0  0  0
   67.6914   46.3851   55.0248 O   0  0  0  0  0  0  0  0  0  0  0  0
   67.8519   46.4602   53.7317 C   0  0  0  0  0  0  0  0  0  0  0  0
   67.1944   45.6250   52.9269 N   0  0  0  0  0  0  0  0  0  0  0  0
   70.3676   49.2905   53.5092 C   0  0  0  0  0  0  0  0  0  0  0  0
   69.7888   50.6750   53.3056 C   0  0  0  0  0  0  0  0  0  0  0  0
   69.9757   51.4986   54.6040 C   0  0  0  0  0  0  0  0  0  0  0  0
   68.5940   52.0082   55.0122 C   0  0  0  0  0  0  0  0  0  0  0  0
   68.5065   52.0677   56.5265 C   0  0  0  0  0  0  0  0  0  0  0  0
   69.2594   51.0850   57.3523 C   0  0  0  0  0  0  0  0  0  0  0  0
   67.7246   51.0864   57.2899 C   0  0  0  0  0  0  0  0  0  0  0  0
  1  2  2  0
  2  3  1  0
  2 13  1  0
  3  4  1  0
  4  5  2  0
  4  6  1  0
  6  7  1  0
  6 12  2  0
  7 14  1  0
  7  8  2  0
 14 15  1  0
 15 16  1  0
 16 17  1  0
 17 18  1  0
 18 19  1  0
 18 20  1  0
 19 20  1  0
  8  9  1  0
  9 10  2  0
  9 11  1  0
 11 12  1  0
 12 13  1  0
M  END
>  <minimizedAffinity>  (19) 
-9.05264

$$$$
cs_full_output_folder/data/smiles/948.pdb
     RDKit          3D

 20 21  0  0  0  0  0  0  0  0999 V2000
   68.8517   46.8793   54.9042 C   0  0  0  0  0  0  0  0  0  0  0  0
   68.0460   45.9737   54.2517 C   0  0  0  0  0  0  0  0  0  0  0  0
   67.8306   45.9478   52.8899 C   0  0  0  0  0  0  0  0  0  0  0  0
   66.9874   44.9801   52.3317 O   0  0  0  0  0  0  0  0  0  0  0  0
   68.4541   46.8835   52.0928 C   0  0  0  0  0  0  0  0  0  0  0  0
   68.2522   46.8788   50.7213 O   0  0  0  0  0  0  0  0  0  0  0  0
   69.2831   47.8279   52.6879 C   0  0  0  0  0  0  0  0  0  0  0  0
   69.4636   47.8114   54.0490 C   0  0  0  0  0  0  0  0  0  0  0  0
   69.9025   48.7559   51.8350 N   0  0  0  0  0  0  0  0  0  0  0  0
   70.6191   48.3681   50.9041 O   0  0  0  0  0  0  0  0  0  0  0  0
   69.7263   50.0895   52.0237 O   0  0  0  0  0  0  0  0  0  0  0  0
   69.0756   45.7097   56.8684 O   0  0  0  0  0  0  0  0  0  0  0  0
   69.1172   46.8832   56.3076 C   0  0  0  0  0  0  0  0  0  0  0  0
   69.4184   47.9526   57.2311 C   0  0  0  0  0  0  0  0  0  0  0  0
   68.5034   49.0728   57.3471 C   0  0  0  0  0  0  0  0  0  0  0  0
   68.8623   50.3399   56.8960 C   0  0  0  0  0  0  0  0  0  0  0  0
   67.9930   51.4010   56.9560 C   0  0  0  0  0  0  0  0  0  0  0  0
   66.7294   51.2261   57.4695 C   0  0  0  0  0  0  0  0  0  0  0  0
   66.3669   49.9656   57.9180 C   0  0  0  0  0  0  0  0  0  0  0  0
   67.2379   48.9172   57.8574 C   0  0  0  0  0  0  0  0  0  0  0  0
 12 13  2  0
 13 14  1  0
 13  1  1  0
 14 15  1  0
 15 16  2  0
 15 20  1  0
 16 17  1  0
 17 18  2  0
 18 19  1  0
 19 20  2  0
  1  2  2  0
  1  8  1  0
  2  3  1  0
  3  4  1  0
  3  5  2  0
  5  6  1  0
  5  7  1  0
  7  9  1  0
  7  8  2  0
  9 10  2  0
  9 11  1  0
M  CHG  2   9   1  11  -1
M  END
>  <minimizedAffinity>  (20) 
-9.05117

$$$$
cs_full_output_folder/data/smiles/712.pdb
     RDKit          3D

 21 24  0  0  0  0  0  0  0  0999 V2000
   70.1098   49.4270   53.3967 C   0  0  0  0  0  0  0  0  0  0  0  0
   70.1170   49.8975   52.1364 N   0  0  0  0  0  0  0  0  0  0  0  0
   69.5432   49.0395   51.3294 N   0  0  0  0  0  0  0  0  0  0  0  0
   69.1276   47.9610   52.0121 C   0  0  0  0  0  0  0  0  0  0  0  0
   68.4712   46.7812   51.6457 C   0  0  0  0  0  0  0  0  0  0  0  0
   68.1722   45.8363   52.6048 C   0  0  0  0  0  0  0  0  0  0  0  0
   68.5162   46.0564   53.8989 C   0  0  0  0  0  0  0  0  0  0  0  0
   69.1641   47.2253   54.2518 C   0  0  0  0  0  0  0  0  0  0  0  0
   69.4810   48.1953   53.3230 C   0  0  0  0  0  0  0  0  0  0  0  0
   68.2018   45.0629   54.9138 C   0  0  0  0  0  0  0  0  0  0  0  0
   68.4993   44.8914   56.2054 N   0  0  0  0  0  0  0  0  0  0  0  0
   67.8126   43.7819   56.2803 N   0  0  0  0  0  0  0  0  0  0  0  0
   67.5008   43.9196   55.0115 N   0  0  0  0  0  0  0  0  0  0  0  0
   70.6578   50.0795   54.6256 C   0  0  0  0  0  0  0  0  0  0  0  0
   69.7807   51.2265   55.0689 C   0  0  0  0  0  0  0  0  0  0  0  0
   66.9320   49.8081   57.9718 C   0  0  0  0  0  0  0  0  0  0  0  0
   68.0012   49.0322   57.5689 C   0  0  0  0  0  0  0  0  0  0  0  0
   68.8897   49.5217   56.6382 C   0  0  0  0  0  0  0  0  0  0  0  0
   68.7662   50.7860   56.0685 C   0  0  0  0  0  0  0  0  0  0  0  0
   67.7141   51.5378   56.4723 C   0  0  0  0  0  0  0  0  0  0  0  0
   66.8145   51.0731   57.3979 C   0  0  0  0  0  0  0  0  0  0  0  0
 16 17  2  0
 16 21  1  0
 17 18  1  0
 18 19  2  0
 19 15  1  0
 19 20  1  0
 15 14  1  0
 14  1  1  0
  1  2  2  0
  1  9  1  0
  2  3  1  0
  3  4  1  0
  4  5  1  0
  4  9  2  0
  5  6  2  0
  6  7  1  0
  7 10  1  0
  7  8  2  0
 10 11  2  0
 10 13  1  0
 11 12  1  0
 12 13  1  0
  8  9  1  0
 20 21  2  0
M  END
>  <minimizedAffinity>  (21) 
-9.04870

$$$$
cs_full_output_folder/data/smiles/5831.pdb
     RDKit          3D

 20 23  0  0  0  0  0  0  0  0999 V2000
   68.9149   46.2055   56.0684 C   0  0  0  0  0  0  0  0  0  0  0  0
   68.3002   45.0199   56.1753 N   0  0  0  0  0  0  0  0  0  0  0  0
   67.8385   44.6500   55.0002 N   0  0  0  0  0  0  0  0  0  0  0  0
   68.1194   45.5601   54.0671 C   0  0  0  0  0  0  0  0  0  0  0  0
   67.8922   45.6925   52.7314 C   0  0  0  0  0  0  0  0  0  0  0  0
   68.3277   46.7918   52.0335 C   0  0  0  0  0  0  0  0  0  0  0  0
   69.0240   47.8209   52.6632 C   0  0  0  0  0  0  0  0  0  0  0  0
   69.2387   47.6533   54.0281 C   0  0  0  0  0  0  0  0  0  0  0  0
   68.8145   46.5670   54.7483 C   0  0  0  0  0  0  0  0  0  0  0  0
   69.4926   48.9813   51.9611 C   0  0  0  0  0  0  0  0  0  0  0  0
   70.0157   50.2310   52.2241 N   0  0  0  0  0  0  0  0  0  0  0  0
   69.8321   49.8462   50.8965 N   0  0  0  0  0  0  0  0  0  0  0  0
   69.5392   46.9248   57.1370 C   0  0  0  0  0  0  0  0  0  0  0  0
   69.8713   48.3573   56.9264 C   0  0  0  0  0  0  0  0  0  0  0  0
   66.6908   51.1218   57.4854 C   0  0  0  0  0  0  0  0  0  0  0  0
   66.6032   49.8420   57.9629 C   0  0  0  0  0  0  0  0  0  0  0  0
   67.6147   48.9270   57.7971 C   0  0  0  0  0  0  0  0  0  0  0  0
   68.7550   49.2800   57.1393 C   0  0  0  0  0  0  0  0  0  0  0  0
   68.8529   50.5667   56.6548 C   0  0  0  0  0  0  0  0  0  0  0  0
   67.8354   51.5009   56.8166 C   0  0  0  0  0  0  0  0  0  0  0  0
 15 16  2  0
 15 20  1  0
 16 17  1  0
 17 18  2  0
 18 14  1  0
 18 19  1  0
 14 13  1  0
 13  1  1  0
  1  2  2  0
  1  9  1  0
  2  3  1  0
  3  4  1  0
  4  5  1  0
  4  9  2  0
  5  6  2  0
  6  7  1  0
  7 10  1  0
  7  8  2  0
 10 11  2  0
 10 12  1  0
 11 12  1  0
  8  9  1  0
 19 20  2  0
M  CHG  1  11   1
M  END
>  <minimizedAffinity>  (22) 
-9.04475

$$$$
cs_full_output_folder/data/smiles/1404.pdb
     RDKit          3D

 22 24  0  0  0  0  0  0  0  0999 V2000
   71.4985   51.6406   54.7226 C   0  0  0  0  0  0  0  0  0  0  0  0
   71.1312   52.8165   55.4220 C   0  0  0  0  0  0  0  0  0  0  0  0
   69.8203   53.1267   55.5799 C   0  0  0  0  0  0  0  0  0  0  0  0
   68.8245   52.3164   55.0716 C   0  0  0  0  0  0  0  0  0  0  0  0
   69.1690   51.1860   54.3972 C   0  0  0  0  0  0  0  0  0  0  0  0
   70.5312   50.8412   54.2171 C   0  0  0  0  0  0  0  0  0  0  0  0
   73.6221   51.6800   53.7090 O   0  0  0  0  0  0  0  0  0  0  0  0
   72.9069   51.2959   54.6439 C   0  0  0  0  0  0  0  0  0  0  0  0
   73.5827   50.5008   55.6163 N   0  0  0  0  0  0  0  0  0  0  0  0
   74.9878   50.1865   55.4869 C   0  0  0  0  0  0  0  0  0  0  0  0
   75.5654   49.3920   54.5838 N   0  0  0  0  0  0  0  0  0  0  0  0
   76.8678   49.3711   54.8091 N   0  0  0  0  0  0  0  0  0  0  0  0
   77.1658   50.1541   55.8674 C   0  0  0  0  0  0  0  0  0  0  0  0
   75.9789   50.6496   56.2721 N   0  0  0  0  0  0  0  0  0  0  0  0
   70.7183   49.6677   53.4884 N   0  0  0  0  0  0  0  0  0  0  0  0
   69.9080   48.5640   53.2728 C   0  0  0  0  0  0  0  0  0  0  0  0
   69.1914   47.9416   54.2493 C   0  0  0  0  0  0  0  0  0  0  0  0
   68.3836   46.8293   54.0054 C   0  0  0  0  0  0  0  0  0  0  0  0
   68.3325   46.3675   52.7087 C   0  0  0  0  0  0  0  0  0  0  0  0
   69.0542   46.9839   51.6935 C   0  0  0  0  0  0  0  0  0  0  0  0
   69.8436   48.0806   51.9610 C   0  0  0  0  0  0  0  0  0  0  0  0
   70.5463   48.6635   50.9159 O   0  0  0  0  0  0  0  0  0  0  0  0
  7  8  2  0
  8  9  1  0
  8  1  1  0
  9 10  1  0
 10 11  2  0
 10 14  1  0
 11 12  1  0
 12 13  2  0
 13 14  1  0
  1  2  2  0
  1  6  1  0
  2  3  1  0
  3  4  2  0
  4  5  1  0
  5  6  2  0
  6 15  1  0
 15 16  1  0
 16 17  2  0
 16 21  1  0
 17 18  1  0
 18 19  2  0
 19 20  1  0
 20 21  2  0
 21 22  1  0
M  END
>  <minimizedAffinity>  (23) 
-9.04356

$$$$
cs_full_output_folder/data/smiles/8.pdb
     RDKit          3D

 22 24  0  0  0  0  0  0  0  0999 V2000
   66.6862   44.8799   50.8963 O   0  0  0  0  0  0  0  0  0  0  0  0
   67.3359   45.6825   51.6354 C   0  0  0  0  0  0  0  0  0  0  0  0
   68.1742   46.5760   51.0690 N   0  0  0  0  0  0  0  0  0  0  0  0
   68.8777   47.4404   51.8265 C   0  0  0  0  0  0  0  0  0  0  0  0
   69.6482   48.2663   51.2991 O   0  0  0  0  0  0  0  0  0  0  0  0
   68.7208   47.3897   53.1963 C   0  0  0  0  0  0  0  0  0  0  0  0
   69.3955   48.2391   54.0842 C   0  0  0  0  0  0  0  0  0  0  0  0
   69.1894   48.1452   55.4393 C   0  0  0  0  0  0  0  0  0  0  0  0
   68.3135   47.2006   55.9048 C   0  0  0  0  0  0  0  0  0  0  0  0
   68.1226   47.1116   57.1662 O   0  0  0  0  0  0  0  0  0  0  0  0
   67.6789   46.4010   55.0912 O   0  0  0  0  0  0  0  0  0  0  0  0
   67.8576   46.4727   53.7858 C   0  0  0  0  0  0  0  0  0  0  0  0
   67.1789   45.6302   52.9653 N   0  0  0  0  0  0  0  0  0  0  0  0
   70.3290   49.2176   53.4803 C   0  0  0  0  0  0  0  0  0  0  0  0
   69.7549   50.6066   53.2939 C   0  0  0  0  0  0  0  0  0  0  0  0
   70.2139   51.6444   54.2441 C   0  0  0  0  0  0  0  0  0  0  0  0
   69.6077   51.4644   55.6085 C   0  0  0  0  0  0  0  0  0  0  0  0
   70.4349   51.1905   56.6562 C   0  0  0  0  0  0  0  0  0  0  0  0
   69.9400   51.0026   57.9273 C   0  0  0  0  0  0  0  0  0  0  0  0
   68.5604   51.1008   58.1164 C   0  0  0  0  0  0  0  0  0  0  0  0
   67.7381   51.3766   57.0552 C   0  0  0  0  0  0  0  0  0  0  0  0
   68.2591   51.5605   55.7957 C   0  0  0  0  0  0  0  0  0  0  0  0
  1  2  2  0
  2  3  1  0
  2 13  1  0
  3  4  1  0
  4  5  2  0
  4  6  1  0
  6  7  1  0
  6 12  2  0
  7 14  1  0
  7  8  2  0
 14 15  1  0
 15 16  1  0
 16 17  1  0
 17 18  2  0
 17 22  1  0
 18 19  1  0
 19 20  2  0
 20 21  1  0
 21 22  2  0
  8  9  1  0
  9 10  2  0
  9 11  1  0
 11 12  1  0
 12 13  1  0
M  END
>  <minimizedAffinity>  (24) 
-9.04300

$$$$
cs_full_output_folder/data/smiles/5237.pdb
     RDKit          3D

 22 24  0  0  0  0  0  0  0  0999 V2000
   69.0257   46.2051   56.6415 C   0  0  0  0  0  0  0  0  0  0  0  0
   69.6928   47.2268   57.2759 C   0  0  0  0  0  0  0  0  0  0  0  0
   70.7577   46.9584   58.1475 C   0  0  0  0  0  0  0  0  0  0  0  0
   71.0833   45.6685   58.3226 N   0  0  0  0  0  0  0  0  0  0  0  0
   70.4422   44.6539   57.7091 C   0  0  0  0  0  0  0  0  0  0  0  0
   69.4081   44.9472   56.8658 N   0  0  0  0  0  0  0  0  0  0  0  0
   70.8431   43.2727   57.9408 C   0  0  0  0  0  0  0  0  0  0  0  0
   72.1579   42.8935   58.0288 C   0  0  0  0  0  0  0  0  0  0  0  0
   72.4962   41.5710   58.2491 C   0  0  0  0  0  0  0  0  0  0  0  0
   71.4881   40.6242   58.3822 C   0  0  0  0  0  0  0  0  0  0  0  0
   70.1749   41.0435   58.2873 C   0  0  0  0  0  0  0  0  0  0  0  0
   69.8711   42.3342   58.0733 N   0  0  0  0  0  0  0  0  0  0  0  0
   67.9822   46.4887   55.7892 O   0  0  0  0  0  0  0  0  0  0  0  0
   69.2937   47.7193   52.5647 C   0  0  0  0  0  0  0  0  0  0  0  0
   68.6780   46.8559   51.6802 C   0  0  0  0  0  0  0  0  0  0  0  0
   67.8281   45.8650   52.1426 C   0  0  0  0  0  0  0  0  0  0  0  0
   67.6186   45.7687   53.5004 C   0  0  0  0  0  0  0  0  0  0  0  0
   68.2071   46.6037   54.4238 C   0  0  0  0  0  0  0  0  0  0  0  0
   69.0492   47.5822   53.9360 C   0  0  0  0  0  0  0  0  0  0  0  0
   71.2688   49.1639   52.9265 N   0  0  0  0  0  0  0  0  0  0  0  0
   70.1842   48.7610   52.0994 C   0  0  0  0  0  0  0  0  0  0  0  0
   70.0261   49.3128   50.9971 O   0  0  0  0  0  0  0  0  0  0  0  0
 20 21  1  0
 21 22  2  0
 21 14  1  0
 14 15  2  0
 14 19  1  0
 15 16  1  0
 16 17  2  0
 17 18  1  0
 18 13  1  0
 18 19  2  0
 13  1  1  0
  1  2  2  0
  1  6  1  0
  2  3  1  0
  3  4  2  0
  4  5  1  0
  5  7  1  0
  5  6  2  0
  7  8  2  0
  7 12  1  0
  8  9  1  0
  9 10  2  0
 10 11  1  0
 11 12  2  0
M  END
>  <minimizedAffinity>  (25) 
-9.03220

$$$$
cs_full_output_folder/data/smiles/4706.pdb
     RDKit          3D

 23 25  0  0  0  0  0  0  0  0999 V2000
   67.9030   47.9304   56.7743 C   0  0  0  0  0  0  0  0  0  0  0  0
   66.7686   48.0261   57.5112 N   0  0  0  0  0  0  0  0  0  0  0  0
   66.4423   49.1722   58.1209 C   0  0  0  0  0  0  0  0  0  0  0  0
   67.2733   50.2994   58.0083 C   0  0  0  0  0  0  0  0  0  0  0  0
   68.4200   50.2067   57.2635 C   0  0  0  0  0  0  0  0  0  0  0  0
   68.6785   49.0220   56.6821 N   0  0  0  0  0  0  0  0  0  0  0  0
   69.3091   51.3524   57.1210 C   0  0  0  0  0  0  0  0  0  0  0  0
   68.8627   52.5026   56.4559 C   0  0  0  0  0  0  0  0  0  0  0  0
   69.6480   53.6201   56.2852 C   0  0  0  0  0  0  0  0  0  0  0  0
   70.9353   53.6516   56.7745 C   0  0  0  0  0  0  0  0  0  0  0  0
   71.3934   52.5319   57.4315 C   0  0  0  0  0  0  0  0  0  0  0  0
   70.5901   51.3944   57.6038 C   0  0  0  0  0  0  0  0  0  0  0  0
   68.2261   46.7298   56.1471 O   0  0  0  0  0  0  0  0  0  0  0  0
   69.4273   47.7440   52.7956 C   0  0  0  0  0  0  0  0  0  0  0  0
   68.7341   46.8783   51.9777 C   0  0  0  0  0  0  0  0  0  0  0  0
   67.8795   45.9737   52.5778 C   0  0  0  0  0  0  0  0  0  0  0  0
   67.2060   45.1274   51.7423 F   0  0  0  0  0  0  0  0  0  0  0  0
   67.7041   45.9151   53.9426 C   0  0  0  0  0  0  0  0  0  0  0  0
   68.3900   46.7749   54.7702 C   0  0  0  0  0  0  0  0  0  0  0  0
   69.2425   47.6770   54.1733 C   0  0  0  0  0  0  0  0  0  0  0  0
   70.1343   49.1167   51.0542 O   0  0  0  0  0  0  0  0  0  0  0  0
   70.3140   48.6869   52.2153 N   0  0  0  0  0  0  0  0  0  0  0  0
   71.3881   49.1394   52.9360 O   0  0  0  0  0  0  0  0  0  0  0  0
 21 22  2  0
 22 23  1  0
 22 14  1  0
 14 15  2  0
 14 20  1  0
 15 16  1  0
 16 17  1  0
 16 18  2  0
 18 19  1  0
 19 13  1  0
 19 20  2  0
 13  1  1  0
  1  2  2  0
  1  6  1  0
  2  3  1  0
  3  4  2  0
  4  5  1  0
  5  7  1  0
  5  6  2  0
  7  8  2  0
  7 12  1  0
  8  9  1  0
  9 10  2  0
 10 11  1  0
 11 12  2  0
M  CHG  2  22   1  23  -1
M  END
>  <minimizedAffinity>  (26) 
-9.87339

$$$$
cs_full_output_folder/data/smiles/2910.pdb
     RDKit          3D

 24 26  0  0  0  0  0  0  0  0999 V2000
   68.9906   46.4111   57.2294 O   0  0  0  0  0  0  0  0  0  0  0  0
   68.5552   47.3632   56.5341 C   0  0  0  0  0  0  0  0  0  0  0  0
   68.5942   47.2542   55.1076 C   0  0  0  0  0  0  0  0  0  0  0  0
   67.7909   46.3544   54.4222 C   0  0  0  0  0  0  0  0  0  0  0  0
   67.8379   46.2615   53.0496 C   0  0  0  0  0  0  0  0  0  0  0  0
   67.0388   45.3630   52.3433 O   0  0  0  0  0  0  0  0  0  0  0  0
   68.6917   47.0697   52.3187 C   0  0  0  0  0  0  0  0  0  0  0  0
   68.7137   46.9482   50.9266 O   0  0  0  0  0  0  0  0  0  0  0  0
   69.4884   47.9609   52.9746 C   0  0  0  0  0  0  0  0  0  0  0  0
   69.4271   48.0384   54.3489 C   0  0  0  0  0  0  0  0  0  0  0  0
   70.3753   48.8014   52.2342 N   0  0  0  0  0  0  0  0  0  0  0  0
   70.0631   49.3009   51.1423 O   0  0  0  0  0  0  0  0  0  0  0  0
   71.6288   49.0908   52.7202 O   0  0  0  0  0  0  0  0  0  0  0  0
   68.0150   48.5651   57.2461 C   0  0  0  0  0  0  0  0  0  0  0  0
   69.1191   49.4912   57.6186 C   0  0  0  0  0  0  0  0  0  0  0  0
   70.2969   49.4463   58.3401 C   0  0  0  0  0  0  0  0  0  0  0  0
   70.6374   50.7634   58.1303 C   0  0  0  0  0  0  0  0  0  0  0  0
   71.6295   51.6716   58.4398 C   0  0  0  0  0  0  0  0  0  0  0  0
   72.0021   52.9410   58.0232 C   0  0  0  0  0  0  0  0  0  0  0  0
   71.5360   53.8090   57.0595 C   0  0  0  0  0  0  0  0  0  0  0  0
   70.4153   53.8168   56.2556 C   0  0  0  0  0  0  0  0  0  0  0  0
   69.2425   53.0827   56.2082 C   0  0  0  0  0  0  0  0  0  0  0  0
   68.7824   51.8662   56.6706 C   0  0  0  0  0  0  0  0  0  0  0  0
   69.3963   50.8275   57.3653 C   0  0  0  0  0  0  0  0  0  0  0  0
  1  2  2  0
  2 14  1  0
  2  3  1  0
 14 15  1  0
 15 16  2  0
 15 24  1  0
 16 17  1  0
 17 18  2  0
 17 24  1  0
 18 19  1  0
 19 20  2  0
 20 21  1  0
 21 22  2  0
 22 23  1  0
 23 24  2  0
  3  4  2  0
  3 10  1  0
  4  5  1  0
  5  6  1  0
  5  7  2  0
  7  8  1  0
  7  9  1  0
  9 11  1  0
  9 10  2  0
 11 12  2  0
 11 13  1  0
M  CHG  2  11   1  13  -1
M  END
>  <minimizedAffinity>  (27) 
-9.76743

$$$$
cs_full_output_folder/data/smiles/681.pdb
     RDKit          3D

 24 27  0  0  0  0  0  0  0  0999 V2000
   69.8736   47.2312   50.9931 O   0  0  0  0  0  0  0  0  0  0  0  0
   69.7934   48.3008   51.6129 C   0  0  0  0  0  0  0  0  0  0  0  0
   70.0452   49.5190   51.1063 N   0  0  0  0  0  0  0  0  0  0  0  0
   69.8683   50.4546   52.0485 N   0  0  0  0  0  0  0  0  0  0  0  0
   69.5032   49.8361   53.1611 C   0  0  0  0  0  0  0  0  0  0  0  0
   69.4543   48.5013   52.8883 N   0  0  0  0  0  0  0  0  0  0  0  0
   69.0846   47.5194   53.8516 C   0  0  0  0  0  0  0  0  0  0  0  0
   68.5881   46.4139   53.2085 C   0  0  0  0  0  0  0  0  0  0  0  0
   68.1804   45.3001   53.9538 C   0  0  0  0  0  0  0  0  0  0  0  0
   68.2456   45.2470   55.3151 C   0  0  0  0  0  0  0  0  0  0  0  0
   68.7562   46.3955   55.9478 C   0  0  0  0  0  0  0  0  0  0  0  0
   69.1662   47.5084   55.2257 C   0  0  0  0  0  0  0  0  0  0  0  0
   69.6188   48.5732   56.1446 C   0  0  0  0  0  0  0  0  0  0  0  0
   70.1702   49.7810   55.5043 C   0  0  0  0  0  0  0  0  0  0  0  0
   69.2509   50.4789   54.5089 C   0  0  0  0  0  0  0  0  0  0  0  0
   67.8619   44.1901   56.0867 O   0  0  0  0  0  0  0  0  0  0  0  0
   67.6526   42.8627   55.8762 C   0  0  0  0  0  0  0  0  0  0  0  0
   68.3184   41.8937   56.7532 C   0  0  0  0  0  0  0  0  0  0  0  0
   69.5341   42.2517   57.3374 C   0  0  0  0  0  0  0  0  0  0  0  0
   70.2554   41.4234   58.1399 C   0  0  0  0  0  0  0  0  0  0  0  0
   69.7653   40.1664   58.3922 C   0  0  0  0  0  0  0  0  0  0  0  0
   68.5766   39.7685   57.8415 C   0  0  0  0  0  0  0  0  0  0  0  0
   68.1106   38.5317   58.0993 F   0  0  0  0  0  0  0  0  0  0  0  0
   67.8598   40.6386   57.0236 C   0  0  0  0  0  0  0  0  0  0  0  0
  1  2  2  0
  2  3  1  0
  2  6  1  0
  3  4  1  0
  4  5  2  0
  5  6  1  0
  5 15  1  0
  6  7  1  0
  7  8  2  0
  7 12  1  0
  8  9  1  0
  9 10  2  0
 10 16  1  0
 10 11  1  0
 16 17  1  0
 17 18  1  0
 18 19  2  0
 18 24  1  0
 19 20  1  0
 20 21  2  0
 21 22  1  0
 22 23  1  0
 22 24  2  0
 11 12  2  0
 12 13  1  0
 13 14  1  0
 14 15  1  0
M  END
>  <minimizedAffinity>  (28) 
-9.75663

$$$$
cs_full_output_folder/data/smiles/1392.pdb
     RDKit          3D

 26 28  0  0  0  0  0  0  0  0999 V2000
   70.7210   44.7128   57.9627 C   0  0  0  0  0  0  0  0  0  0  0  0
   71.3259   45.7715   58.5845 C   0  0  0  0  0  0  0  0  0  0  0  0
   70.8744   47.0832   58.3858 C   0  0  0  0  0  0  0  0  0  0  0  0
   69.8321   47.2716   57.5679 N   0  0  0  0  0  0  0  0  0  0  0  0
   69.2128   46.2435   56.9366 C   0  0  0  0  0  0  0  0  0  0  0  0
   69.6652   45.0050   57.1455 N   0  0  0  0  0  0  0  0  0  0  0  0
   71.9224   40.6558   58.4403 C   0  0  0  0  0  0  0  0  0  0  0  0
   70.6099   40.9891   58.3303 C   0  0  0  0  0  0  0  0  0  0  0  0
   70.2257   42.3273   58.1740 C   0  0  0  0  0  0  0  0  0  0  0  0
   71.1671   43.3337   58.1271 C   0  0  0  0  0  0  0  0  0  0  0  0
   72.4829   42.9769   58.2385 C   0  0  0  0  0  0  0  0  0  0  0  0
   72.8971   41.6751   58.3940 C   0  0  0  0  0  0  0  0  0  0  0  0
   72.3527   36.7922   58.6252 C   0  0  0  0  0  0  0  0  0  0  0  0
   71.7055   38.1271   58.4167 C   0  0  0  0  0  0  0  0  0  0  0  0
   70.5110   38.1509   58.0673 O   0  0  0  0  0  0  0  0  0  0  0  0
   72.3942   39.3395   58.6001 N   0  0  0  0  0  0  0  0  0  0  0  0
   68.1526   46.5507   56.0739 N   0  0  0  0  0  0  0  0  0  0  0  0
   68.3675   46.7203   54.6852 C   0  0  0  0  0  0  0  0  0  0  0  0
   67.7468   45.8179   53.8007 C   0  0  0  0  0  0  0  0  0  0  0  0
   67.9448   45.9116   52.4431 C   0  0  0  0  0  0  0  0  0  0  0  0
   68.7548   46.8866   51.9006 C   0  0  0  0  0  0  0  0  0  0  0  0
   69.3848   47.7914   52.7393 C   0  0  0  0  0  0  0  0  0  0  0  0
   69.1623   47.6679   54.1022 C   0  0  0  0  0  0  0  0  0  0  0  0
   70.2324   48.8023   52.1559 C   0  0  0  0  0  0  0  0  0  0  0  0
   69.7798   49.5663   51.0653 N   0  0  0  0  0  0  0  0  0  0  0  0
   71.3720   49.0032   52.6202 O   0  0  0  0  0  0  0  0  0  0  0  0
 13 14  1  0
 14 15  2  0
 14 16  1  0
 16  7  1  0
  7  8  2  0
  7 12  1  0
  8  9  1  0
  9 10  2  0
 10  1  1  0
 10 11  1  0
  1  2  2  0
  1  6  1  0
  2  3  1  0
  3  4  2  0
  4  5  1  0
  5 17  1  0
  5  6  2  0
 17 18  1  0
 18 19  2  0
 18 23  1  0
 19 20  1  0
 20 21  2  0
 21 22  1  0
 22 24  1  0
 22 23  2  0
 24 25  1  0
 24 26  2  0
 11 12  2  0
M  END
>  <minimizedAffinity>  (29) 
-9.75279

$$$$
cs_full_output_folder/data/smiles/476.pdb
     RDKit          3D

 25 27  0  0  0  0  0  0  0  0999 V2000
   71.7714   51.7168   54.5891 C   0  0  0  0  0  0  0  0  0  0  0  0
   73.9998   52.3714   54.1939 O   0  0  0  0  0  0  0  0  0  0  0  0
   73.2048   51.4358   54.5548 C   0  0  0  0  0  0  0  0  0  0  0  0
   73.7846   50.1910   54.8959 N   0  0  0  0  0  0  0  0  0  0  0  0
   75.1630   50.0356   54.8265 N   0  0  0  0  0  0  0  0  0  0  0  0
   76.0346   50.2451   55.9301 C   0  0  0  0  0  0  0  0  0  0  0  0
   75.4939   50.5896   57.0152 O   0  0  0  0  0  0  0  0  0  0  0  0
   77.4804   50.0869   55.8753 C   0  0  0  0  0  0  0  0  0  0  0  0
   78.1345   49.0296   55.2888 C   0  0  0  0  0  0  0  0  0  0  0  0
   79.5346   48.9629   55.2851 C   0  0  0  0  0  0  0  0  0  0  0  0
   80.3134   49.9419   55.8637 C   0  0  0  0  0  0  0  0  0  0  0  0
   79.6582   51.0031   56.4520 C   0  0  0  0  0  0  0  0  0  0  0  0
   78.2828   51.0589   56.4498 C   0  0  0  0  0  0  0  0  0  0  0  0
   70.9340   50.6752   55.2665 C   0  0  0  0  0  0  0  0  0  0  0  0
   70.3583   49.6595   54.3734 C   0  0  0  0  0  0  0  0  0  0  0  0
   69.5788   48.6823   54.8286 N   0  0  0  0  0  0  0  0  0  0  0  0
   69.0498   47.7448   53.9899 C   0  0  0  0  0  0  0  0  0  0  0  0
   68.2475   46.7369   54.4459 C   0  0  0  0  0  0  0  0  0  0  0  0
   67.7157   45.7882   53.5735 C   0  0  0  0  0  0  0  0  0  0  0  0
   67.9973   45.8575   52.2300 C   0  0  0  0  0  0  0  0  0  0  0  0
   68.8091   46.8741   51.7571 C   0  0  0  0  0  0  0  0  0  0  0  0
   69.3253   47.8037   52.6369 C   0  0  0  0  0  0  0  0  0  0  0  0
   70.1331   48.8197   52.1807 C   0  0  0  0  0  0  0  0  0  0  0  0
   70.3910   48.8875   50.9676 O   0  0  0  0  0  0  0  0  0  0  0  0
   70.6284   49.7189   53.0551 N   0  0  0  0  0  0  0  0  0  0  0  0
  2  3  2  0
  3  1  1  0
  3  4  1  0
  1 14  1  0
 14 15  1  0
 15 16  2  0
 15 25  1  0
 16 17  1  0
 17 18  2  0
 17 22  1  0
 18 19  1  0
 19 20  2  0
 20 21  1  0
 21 22  2  0
 22 23  1  0
 23 24  2  0
 23 25  1  0
  4  5  1  0
  5  6  1  0
  6  7  2  0
  6  8  1  0
  8  9  2  0
  8 13  1  0
  9 10  1  0
 10 11  2  0
 11 12  1  0
 12 13  2  0
M  END
>  <minimizedAffinity>  (30) 
-9.70927

$$$$
cs_full_output_folder/data/smiles/3111.pdb
     RDKit          3D

 26 29  0  0  0  0  0  0  0  0999 V2000
   70.8076   46.3108   58.4327 C   0  0  0  0  0  0  0  0  0  0  0  0
   69.9278   46.8612   57.5138 C   0  0  0  0  0  0  0  0  0  0  0  0
   69.8506   48.2307   57.2690 C   0  0  0  0  0  0  0  0  0  0  0  0
   70.6819   49.0518   57.9727 C   0  0  0  0  0  0  0  0  0  0  0  0
   71.5926   48.5579   58.9149 C   0  0  0  0  0  0  0  0  0  0  0  0
   71.6153   47.1712   59.1103 C   0  0  0  0  0  0  0  0  0  0  0  0
   72.4700   46.7459   60.0860 F   0  0  0  0  0  0  0  0  0  0  0  0
   69.6591   44.3997   59.1767 O   0  0  0  0  0  0  0  0  0  0  0  0
   70.7459   44.8918   58.6442 C   0  0  0  0  0  0  0  0  0  0  0  0
   71.7378   43.9307   58.3396 N   0  0  0  0  0  0  0  0  0  0  0  0
   71.6707   42.5877   58.6045 C   0  0  0  0  0  0  0  0  0  0  0  0
   72.7571   41.9385   58.1189 C   0  0  0  0  0  0  0  0  0  0  0  0
   73.5554   42.8708   57.5237 C   0  0  0  0  0  0  0  0  0  0  0  0
   72.8862   44.0925   57.6821 C   0  0  0  0  0  0  0  0  0  0  0  0
   68.8492   48.6896   56.2840 C   0  0  0  0  0  0  0  0  0  0  0  0
   69.3245   48.6397   54.8769 C   0  0  0  0  0  0  0  0  0  0  0  0
   70.2136   49.5786   54.4472 N   0  0  0  0  0  0  0  0  0  0  0  0
   70.6197   49.5981   53.2104 N   0  0  0  0  0  0  0  0  0  0  0  0
   70.1916   48.7091   52.3063 C   0  0  0  0  0  0  0  0  0  0  0  0
   70.5960   48.7386   51.0958 O   0  0  0  0  0  0  0  0  0  0  0  0
   69.2829   47.7160   52.6644 C   0  0  0  0  0  0  0  0  0  0  0  0
   68.8545   46.7983   51.7342 C   0  0  0  0  0  0  0  0  0  0  0  0
   67.9644   45.8316   52.1499 C   0  0  0  0  0  0  0  0  0  0  0  0
   67.5262   45.7928   53.4544 C   0  0  0  0  0  0  0  0  0  0  0  0
   67.9575   46.7149   54.3859 C   0  0  0  0  0  0  0  0  0  0  0  0
   68.8597   47.7094   53.9926 C   0  0  0  0  0  0  0  0  0  0  0  0
  8  9  2  0
  9  1  1  0
  9 10  1  0
  1  2  2  0
  1  6  1  0
  2  3  1  0
  3 15  1  0
  3  4  2  0
 15 16  1  0
 16 17  2  0
 16 26  1  0
 17 18  1  0
 18 19  1  0
 19 20  2  0
 19 21  1  0
 21 22  1  0
 21 26  2  0
 22 23  2  0
 23 24  1  0
 24 25  2  0
 25 26  1  0
  4  5  1  0
  5  6  2  0
  6  7  1  0
 10 11  1  0
 10 14  1  0
 11 12  2  0
 12 13  1  0
 13 14  2  0
M  END
>  <minimizedAffinity>  (31) 
-9.67563

$$$$
cs_full_output_folder/data/smiles/1249.pdb
     RDKit          3D

 24 26  0  0  0  0  0  0  0  0999 V2000
   68.6934   45.8083   56.8776 O   0  0  0  0  0  0  0  0  0  0  0  0
   69.0816   46.8164   56.2294 C   0  0  0  0  0  0  0  0  0  0  0  0
   68.8631   46.8487   54.8001 C   0  0  0  0  0  0  0  0  0  0  0  0
   68.0160   45.9378   54.1756 C   0  0  0  0  0  0  0  0  0  0  0  0
   67.7939   45.9486   52.8327 C   0  0  0  0  0  0  0  0  0  0  0  0
   66.9381   45.0216   52.2340 O   0  0  0  0  0  0  0  0  0  0  0  0
   68.4384   46.9049   52.0676 C   0  0  0  0  0  0  0  0  0  0  0  0
   68.2037   46.9053   50.7010 O   0  0  0  0  0  0  0  0  0  0  0  0
   69.2963   47.8430   52.6282 C   0  0  0  0  0  0  0  0  0  0  0  0
   69.4779   47.7778   53.9968 C   0  0  0  0  0  0  0  0  0  0  0  0
   69.9112   48.7785   51.7945 N   0  0  0  0  0  0  0  0  0  0  0  0
   70.6494   48.4037   50.8721 O   0  0  0  0  0  0  0  0  0  0  0  0
   69.7165   50.1195   51.9745 O   0  0  0  0  0  0  0  0  0  0  0  0
   69.7598   47.9591   56.9432 C   0  0  0  0  0  0  0  0  0  0  0  0
   68.8830   49.1093   57.0594 C   0  0  0  0  0  0  0  0  0  0  0  0
   67.6707   48.9858   57.7077 C   0  0  0  0  0  0  0  0  0  0  0  0
   66.7721   50.0174   57.8665 C   0  0  0  0  0  0  0  0  0  0  0  0
   67.0811   51.2588   57.3560 C   0  0  0  0  0  0  0  0  0  0  0  0
   68.2923   51.4183   56.6971 C   0  0  0  0  0  0  0  0  0  0  0  0
   68.6678   52.6376   56.1595 C   0  0  0  0  0  0  0  0  0  0  0  0
   69.8628   52.8305   55.5003 C   0  0  0  0  0  0  0  0  0  0  0  0
   70.7202   51.7598   55.3731 C   0  0  0  0  0  0  0  0  0  0  0  0
   70.3778   50.5168   55.9012 C   0  0  0  0  0  0  0  0  0  0  0  0
   69.1831   50.3687   56.5473 C   0  0  0  0  0  0  0  0  0  0  0  0
  1  2  2  0
  2 14  1  0
  2  3  1  0
 14 15  1  0
 15 16  2  0
 15 24  1  0
 16 17  1  0
 17 18  2  0
 18 19  1  0
 19 20  1  0
 19 24  2  0
 20 21  2  0
 21 22  1  0
 22 23  2  0
 23 24  1  0
  3  4  2  0
  3 10  1  0
  4  5  1  0
  5  6  1  0
  5  7  2  0
  7  8  1  0
  7  9  1  0
  9 11  1  0
  9 10  2  0
 11 12  2  0
 11 13  1  0
M  CHG  2  11   1  13  -1
M  END
>  <minimizedAffinity>  (32) 
-9.64426

$$$$
cs_full_output_folder/data/smiles/2363.pdb
     RDKit          3D

 25 27  0  0  0  0  0  0  0  0999 V2000
   73.2588   50.4529   53.9274 O   0  0  0  0  0  0  0  0  0  0  0  0
   72.6613   50.8737   55.0133 C   0  0  0  0  0  0  0  0  0  0  0  0
   73.5398   51.2742   56.0366 N   0  0  0  0  0  0  0  0  0  0  0  0
   74.9518   51.2282   55.8729 N   0  0  0  0  0  0  0  0  0  0  0  0
   75.6753   50.0264   56.0874 C   0  0  0  0  0  0  0  0  0  0  0  0
   75.0755   48.9694   56.4497 O   0  0  0  0  0  0  0  0  0  0  0  0
   77.1323   49.9579   55.8999 C   0  0  0  0  0  0  0  0  0  0  0  0
   77.9590   50.8594   56.5815 C   0  0  0  0  0  0  0  0  0  0  0  0
   79.3428   50.8108   56.5032 C   0  0  0  0  0  0  0  0  0  0  0  0
   79.9477   49.8466   55.7311 C   0  0  0  0  0  0  0  0  0  0  0  0
   81.2908   49.7471   55.6047 F   0  0  0  0  0  0  0  0  0  0  0  0
   79.1452   48.9417   55.0470 C   0  0  0  0  0  0  0  0  0  0  0  0
   77.7571   49.0007   55.1327 C   0  0  0  0  0  0  0  0  0  0  0  0
   71.2068   50.8649   55.0193 C   0  0  0  0  0  0  0  0  0  0  0  0
   70.5268   49.7871   54.2944 C   0  0  0  0  0  0  0  0  0  0  0  0
   69.7299   48.8574   54.8383 N   0  0  0  0  0  0  0  0  0  0  0  0
   69.1723   47.8682   54.0913 C   0  0  0  0  0  0  0  0  0  0  0  0
   68.3560   46.9196   54.6343 C   0  0  0  0  0  0  0  0  0  0  0  0
   67.7822   45.9030   53.8731 C   0  0  0  0  0  0  0  0  0  0  0  0
   68.0239   45.8173   52.5270 C   0  0  0  0  0  0  0  0  0  0  0  0
   68.8521   46.7826   51.9685 C   0  0  0  0  0  0  0  0  0  0  0  0
   69.4188   47.7961   52.7311 C   0  0  0  0  0  0  0  0  0  0  0  0
   70.2448   48.7643   52.1861 C   0  0  0  0  0  0  0  0  0  0  0  0
   70.4549   48.6897   50.9610 O   0  0  0  0  0  0  0  0  0  0  0  0
   70.7616   49.7068   52.9687 N   0  0  0  0  0  0  0  0  0  0  0  0
  1  2  2  0
  2 14  1  0
  2  3  1  0
 14 15  1  0
 15 16  2  0
 15 25  1  0
 16 17  1  0
 17 18  2  0
 17 22  1  0
 18 19  1  0
 19 20  2  0
 20 21  1  0
 21 22  2  0
 22 23  1  0
 23 24  2  0
 23 25  1  0
  3  4  1  0
  4  5  1  0
  5  6  2  0
  5  7  1  0
  7  8  2  0
  7 13  1  0
  8  9  1  0
  9 10  2  0
 10 11  1  0
 10 12  1  0
 12 13  2  0
M  END
>  <minimizedAffinity>  (33) 
-9.62845

$$$$
cs_full_output_folder/data/smiles/907.pdb
     RDKit          3D

 24 26  0  0  0  0  0  0  0  0999 V2000
   68.7272   45.5373   56.7603 O   0  0  0  0  0  0  0  0  0  0  0  0
   69.0435   46.6626   56.1969 C   0  0  0  0  0  0  0  0  0  0  0  0
   68.7839   46.6998   54.7830 C   0  0  0  0  0  0  0  0  0  0  0  0
   67.9037   45.8108   54.1657 C   0  0  0  0  0  0  0  0  0  0  0  0
   67.7690   45.8777   52.8025 C   0  0  0  0  0  0  0  0  0  0  0  0
   66.8712   44.9799   52.2183 O   0  0  0  0  0  0  0  0  0  0  0  0
   68.4677   46.7797   52.0312 C   0  0  0  0  0  0  0  0  0  0  0  0
   68.3097   46.8188   50.6547 O   0  0  0  0  0  0  0  0  0  0  0  0
   69.3567   47.6782   52.6262 C   0  0  0  0  0  0  0  0  0  0  0  0
   69.4946   47.6219   53.9870 C   0  0  0  0  0  0  0  0  0  0  0  0
   70.1132   48.5931   51.8621 N   0  0  2  0  0  0  0  0  0  0  0  0
   71.2746   48.9306   52.4224 O   0  0  0  0  0  0  0  0  0  0  0  0
   69.4255   49.6662   51.4981 F   0  0  0  0  0  0  0  0  0  0  0  0
   69.6024   47.7267   57.0555 C   0  0  0  0  0  0  0  0  0  0  0  0
   68.7735   48.9057   57.0269 C   0  0  0  0  0  0  0  0  0  0  0  0
   67.5702   48.8493   57.7549 C   0  0  0  0  0  0  0  0  0  0  0  0
   66.7655   49.9638   57.8886 C   0  0  0  0  0  0  0  0  0  0  0  0
   67.1021   51.1804   57.3134 C   0  0  0  0  0  0  0  0  0  0  0  0
   68.2619   51.2475   56.6034 C   0  0  0  0  0  0  0  0  0  0  0  0
   68.5491   52.4620   56.0031 C   0  0  0  0  0  0  0  0  0  0  0  0
   69.6903   52.5435   55.2438 C   0  0  0  0  0  0  0  0  0  0  0  0
   70.5230   51.4552   55.0842 C   0  0  0  0  0  0  0  0  0  0  0  0
   70.1979   50.2465   55.7089 C   0  0  0  0  0  0  0  0  0  0  0  0
   69.0616   50.1404   56.4718 C   0  0  0  0  0  0  0  0  0  0  0  0
  1  2  2  0
  2 14  1  0
  2  3  1  0
 14 15  1  0
 15 16  2  0
 15 24  1  0
 16 17  1  0
 17 18  2  0
 18 19  1  0
 19 20  1  0
 19 24  2  0
 20 21  2  0
 21 22  1  0
 22 23  2  0
 23 24  1  0
  3  4  2  0
  3 10  1  0
  4  5  1  0
  5  6  1  0
  5  7  2  0
  7  8  1  0
  7  9  1  0
  9 11  1  0
  9 10  2  0
 11 12  1  1
 11 13  1  0
M  CHG  2  11   1  12  -1
M  END
>  <minimizedAffinity>  (34) 
-9.62426

$$$$
cs_full_output_folder/data/smiles/183.pdb
     RDKit          3D

 24 26  0  0  0  0  0  0  0  0999 V2000
   69.9488   47.6262   57.5281 O   0  0  0  0  0  0  0  0  0  0  0  0
   69.9964   46.3826   57.6067 C   0  0  0  0  0  0  0  0  0  0  0  0
   69.0118   45.7537   56.7420 N   0  0  0  0  0  0  0  0  0  0  0  0
   70.8754   45.6106   58.4184 C   0  0  0  0  0  0  0  0  0  0  0  0
   70.9559   46.0811   59.6418 O   0  0  0  0  0  0  0  0  0  0  0  0
   71.6791   44.4499   58.2035 C   0  0  0  0  0  0  0  0  0  0  0  0
   71.1408   43.2287   57.7329 C   0  0  0  0  0  0  0  0  0  0  0  0
   72.1221   42.3361   57.5569 N   0  0  0  0  0  0  0  0  0  0  0  0
   73.3091   42.8674   57.8784 C   0  0  0  0  0  0  0  0  0  0  0  0
   74.5751   42.3311   57.8691 C   0  0  0  0  0  0  0  0  0  0  0  0
   75.6459   43.0984   58.2730 C   0  0  0  0  0  0  0  0  0  0  0  0
   75.3844   44.3959   58.6739 C   0  0  0  0  0  0  0  0  0  0  0  0
   74.0877   44.9159   58.6731 C   0  0  0  0  0  0  0  0  0  0  0  0
   73.0245   44.1720   58.2773 C   0  0  0  0  0  0  0  0  0  0  0  0
   68.1531   46.4960   55.9360 N   0  0  0  0  0  0  0  0  0  0  0  0
   68.3463   46.6632   54.5374 C   0  0  0  0  0  0  0  0  0  0  0  0
   67.7125   45.8322   53.6300 C   0  0  0  0  0  0  0  0  0  0  0  0
   67.8839   45.9359   52.2739 C   0  0  0  0  0  0  0  0  0  0  0  0
   68.7316   46.9133   51.7527 C   0  0  0  0  0  0  0  0  0  0  0  0
   69.3695   47.7507   52.6710 C   0  0  0  0  0  0  0  0  0  0  0  0
   69.1812   47.6285   54.0249 C   0  0  0  0  0  0  0  0  0  0  0  0
   70.2477   48.7633   52.1561 N   0  0  0  0  0  0  0  0  0  0  0  0
   70.0426   49.3272   51.0763 O   0  0  0  0  0  0  0  0  0  0  0  0
   71.3476   49.0921   52.9079 O   0  0  0  0  0  0  0  0  0  0  0  0
  1  2  2  0
  2  3  1  0
  2  4  1  0
  3 15  1  0
 15 16  1  0
 16 17  2  0
 16 21  1  0
 17 18  1  0
 18 19  2  0
 19 20  1  0
 20 22  1  0
 20 21  2  0
 22 23  2  0
 22 24  1  0
  4  5  2  0
  4  6  1  0
  6  7  2  0
  6 14  1  0
  7  8  1  0
  8  9  1  0
  9 10  1  0
  9 14  2  0
 10 11  2  0
 11 12  1  0
 12 13  2  0
 13 14  1  0
M  CHG  2  22   1  24  -1
M  END
>  <minimizedAffinity>  (35) 
-9.61779

$$$$
cs_full_output_folder/data/smiles/1674.pdb
     RDKit          3D

 24 26  0  0  0  0  0  0  0  0999 V2000
   68.2743   45.5705   55.8834 N   0  0  0  0  0  0  0  0  0  0  0  0
   69.1239   47.6385   52.9224 C   0  0  0  0  0  0  0  0  0  0  0  0
   68.5103   46.9134   51.8961 C   0  0  0  0  0  0  0  0  0  0  0  0
   67.8151   45.7584   52.1752 C   0  0  0  0  0  0  0  0  0  0  0  0
   67.7263   45.3117   53.5009 C   0  0  0  0  0  0  0  0  0  0  0  0
   68.3110   45.9863   54.5354 C   0  0  0  0  0  0  0  0  0  0  0  0
   69.0014   47.1515   54.1910 C   0  0  0  0  0  0  0  0  0  0  0  0
   69.9877   49.0843   52.4971 S   0  0  0  0  0  0  0  0  0  0  0  0
   69.9754   49.3510   51.0046 O   0  0  0  0  0  0  0  0  0  0  0  0
   71.4235   49.0514   52.9270 O   0  0  0  0  0  0  0  0  0  0  0  0
   70.1895   51.1304   54.1390 C   0  0  0  0  0  0  0  0  0  0  0  0
   69.2363   50.4902   53.2152 N   0  0  0  0  0  0  0  0  0  0  0  0
   68.5227   44.2313   56.2759 C   0  0  0  0  0  0  0  0  0  0  0  0
   67.4872   43.3388   56.1250 N   0  0  0  0  0  0  0  0  0  0  0  0
   67.6005   42.0539   56.4829 C   0  0  0  0  0  0  0  0  0  0  0  0
   68.8044   41.6002   57.0282 C   0  0  0  0  0  0  0  0  0  0  0  0
   69.8535   42.4748   57.1893 C   0  0  0  0  0  0  0  0  0  0  0  0
   69.6218   43.7380   56.7934 N   0  0  0  0  0  0  0  0  0  0  0  0
   71.1320   42.0683   57.7584 C   0  0  0  0  0  0  0  0  0  0  0  0
   72.2664   42.8274   57.6749 C   0  0  0  0  0  0  0  0  0  0  0  0
   73.4714   42.3839   58.2381 C   0  0  0  0  0  0  0  0  0  0  0  0
   73.5559   41.1766   58.8906 C   0  0  0  0  0  0  0  0  0  0  0  0
   72.4231   40.3997   58.9840 C   0  0  0  0  0  0  0  0  0  0  0  0
   71.2466   40.8480   58.4263 C   0  0  0  0  0  0  0  0  0  0  0  0
 11 12  1  0
 12  8  1  0
  8  9  2  0
  8 10  2  0
  8  2  1  0
  2  3  2  0
  2  7  1  0
  3  4  1  0
  4  5  2  0
  5  6  1  0
  6  1  1  0
  6  7  2  0
  1 13  1  0
 13 14  2  0
 13 18  1  0
 14 15  1  0
 15 16  2  0
 16 17  1  0
 17 19  1  0
 17 18  2  0
 19 20  2  0
 19 24  1  0
 20 21  1  0
 21 22  2  0
 22 23  1  0
 23 24  2  0
M  END
>  <minimizedAffinity>  (36) 
-9.53683

$$$$
cs_full_output_folder/data/smiles/1878.pdb
     RDKit          3D

 26 29  0  0  0  0  0  0  0  0999 V2000
   70.4472   45.5196   58.0967 C   0  0  0  0  0  0  0  0  0  0  0  0
   71.2707   46.4219   58.5425 C   0  0  0  0  0  0  0  0  0  0  0  0
   70.8617   47.7620   57.9884 C   0  0  0  0  0  0  0  0  0  0  0  0
   69.6875   47.4327   57.1778 C   0  0  0  0  0  0  0  0  0  0  0  0
   69.4906   46.1705   57.2652 N   0  0  0  0  0  0  0  0  0  0  0  0
   68.8666   43.6770   56.6701 O   0  0  0  0  0  0  0  0  0  0  0  0
   69.5969   43.2015   57.5948 C   0  0  0  0  0  0  0  0  0  0  0  0
   70.3969   44.0952   58.3239 N   0  0  0  0  0  0  0  0  0  0  0  0
   69.5451   41.7644   57.8247 C   0  0  0  0  0  0  0  0  0  0  0  0
   68.4021   41.0545   57.5333 C   0  0  0  0  0  0  0  0  0  0  0  0
   68.3094   39.6827   57.7377 C   0  0  0  0  0  0  0  0  0  0  0  0
   69.3729   38.9798   58.2462 C   0  0  0  0  0  0  0  0  0  0  0  0
   70.5198   39.6710   58.5423 C   0  0  0  0  0  0  0  0  0  0  0  0
   70.6025   41.0541   58.3318 C   0  0  0  0  0  0  0  0  0  0  0  0
   68.8389   48.3586   56.3644 C   0  0  0  0  0  0  0  0  0  0  0  0
   69.2722   48.4440   54.9509 C   0  0  0  0  0  0  0  0  0  0  0  0
   70.0802   49.4443   54.5608 N   0  0  0  0  0  0  0  0  0  0  0  0
   70.5189   49.5996   53.3313 N   0  0  0  0  0  0  0  0  0  0  0  0
   70.1716   48.7398   52.3637 C   0  0  0  0  0  0  0  0  0  0  0  0
   70.5794   48.8772   51.2004 O   0  0  0  0  0  0  0  0  0  0  0  0
   69.3441   47.6873   52.6925 C   0  0  0  0  0  0  0  0  0  0  0  0
   68.8842   47.5282   53.9932 C   0  0  0  0  0  0  0  0  0  0  0  0
   67.9978   46.4113   54.3599 C   0  0  0  0  0  0  0  0  0  0  0  0
   67.8005   45.4440   53.2335 C   0  0  0  0  0  0  0  0  0  0  0  0
   67.6026   46.2091   51.9185 C   0  0  0  0  0  0  0  0  0  0  0  0
   68.9838   46.7502   51.5847 C   0  0  0  0  0  0  0  0  0  0  0  0
  6  7  2  0
  7  8  1  0
  7  9  1  0
  8  1  1  0
  1  2  2  0
  1  5  1  0
  2  3  1  0
  3  4  1  0
  4 15  1  0
  4  5  2  0
 15 16  1  0
 16 17  2  0
 16 22  1  0
 17 18  1  0
 18 19  1  0
 19 20  2  0
 19 21  1  0
 21 22  2  0
 21 26  1  0
 22 23  1  0
 23 24  1  0
 24 25  1  0
 25 26  1  0
  9 10  2  0
  9 14  1  0
 10 11  1  0
 11 12  2  0
 12 13  1  0
 13 14  2  0
M  END
>  <minimizedAffinity>  (37) 
-9.53539

$$$$
cs_full_output_folder/data/smiles/2280.pdb
     RDKit          3D

 24 26  0  0  0  0  0  0  0  0999 V2000
   69.0702   46.7920   57.3946 O   0  0  0  0  0  0  0  0  0  0  0  0
   68.4541   47.6146   56.6216 C   0  0  0  0  0  0  0  0  0  0  0  0
   68.5155   47.4089   55.2023 C   0  0  0  0  0  0  0  0  0  0  0  0
   67.7903   46.4784   54.5107 C   0  0  0  0  0  0  0  0  0  0  0  0
   67.8830   46.2987   53.1293 C   0  0  0  0  0  0  0  0  0  0  0  0
   67.1292   45.3539   52.5101 O   0  0  0  0  0  0  0  0  0  0  0  0
   68.7545   47.1101   52.4488 C   0  0  0  0  0  0  0  0  0  0  0  0
   68.8900   46.9762   51.0566 O   0  0  0  0  0  0  0  0  0  0  0  0
   69.5171   48.0685   53.0838 C   0  0  0  0  0  0  0  0  0  0  0  0
   69.3832   48.1977   54.4345 C   0  0  0  0  0  0  0  0  0  0  0  0
   70.4038   48.8691   52.3387 N   0  0  0  0  0  0  0  0  0  0  0  0
   71.5571   49.0278   52.7842 O   0  0  0  0  0  0  0  0  0  0  0  0
   69.9949   49.4385   51.1649 O   0  0  0  0  0  0  0  0  0  0  0  0
   67.7334   48.7049   57.2657 C   0  0  0  0  0  0  0  0  0  0  0  0
   68.4401   50.0069   57.0941 C   0  0  0  0  0  0  0  0  0  0  0  0
   67.9090   50.9906   56.2987 C   0  0  0  0  0  0  0  0  0  0  0  0
   68.5700   52.1785   56.1291 C   0  0  0  0  0  0  0  0  0  0  0  0
   69.7824   52.3999   56.7566 C   0  0  0  0  0  0  0  0  0  0  0  0
   70.4431   53.6257   56.5590 C   0  0  0  0  0  0  0  0  0  0  0  0
   71.6524   53.8420   57.1777 C   0  0  0  0  0  0  0  0  0  0  0  0
   72.2019   52.8480   57.9877 C   0  0  0  0  0  0  0  0  0  0  0  0
   71.5530   51.6599   58.1758 C   0  0  0  0  0  0  0  0  0  0  0  0
   70.3392   51.4239   57.5640 C   0  0  0  0  0  0  0  0  0  0  0  0
   69.6662   50.2305   57.7312 C   0  0  0  0  0  0  0  0  0  0  0  0
  1  2  2  0
  2 14  1  0
  2  3  1  0
 14 15  1  0
 15 16  2  0
 15 24  1  0
 16 17  1  0
 17 18  2  0
 18 19  1  0
 18 23  1  0
 19 20  2  0
 20 21  1  0
 21 22  2  0
 22 23  1  0
 23 24  2  0
  3  4  2  0
  3 10  1  0
  4  5  1  0
  5  6  1  0
  5  7  2  0
  7  8  1  0
  7  9  1  0
  9 11  1  0
  9 10  2  0
 11 12  2  0
 11 13  1  0
M  CHG  2  11   1  13  -1
M  END
>  <minimizedAffinity>  (38) 
-9.51878

$$$$
cs_full_output_folder/data/smiles/7018.pdb
     RDKit          3D

 23 25  0  0  0  0  0  0  0  0999 V2000
   67.5823   42.8842   55.7547 C   0  0  0  0  0  0  0  0  0  0  0  0
   68.6837   42.8834   56.5771 N   0  0  0  0  0  0  0  0  0  0  0  0
   69.1079   41.8208   57.2446 C   0  0  0  0  0  0  0  0  0  0  0  0
   70.2170   41.8498   58.0686 C   0  0  0  0  0  0  0  0  0  0  0  0
   70.5740   40.6991   58.7211 C   0  0  0  0  0  0  0  0  0  0  0  0
   69.8879   39.5078   58.6032 C   0  0  0  0  0  0  0  0  0  0  0  0
   68.7882   39.5042   57.7765 C   0  0  0  0  0  0  0  0  0  0  0  0
   68.4015   40.6419   57.1057 C   0  0  0  0  0  0  0  0  0  0  0  0
   67.3035   40.6411   56.2874 N   0  0  0  0  0  0  0  0  0  0  0  0
   66.8854   41.7283   55.6170 C   0  0  0  0  0  0  0  0  0  0  0  0
   65.7018   41.6746   54.7545 C   0  0  0  0  0  0  0  0  0  0  0  0
   65.7535   40.5843   53.8620 O   0  0  0  0  0  0  0  0  0  0  0  0
   67.3065   44.0328   55.1662 O   0  0  0  0  0  0  0  0  0  0  0  0
   69.0288   47.4582   53.6539 C   0  0  0  0  0  0  0  0  0  0  0  0
   69.0744   47.1335   54.9888 C   0  0  0  0  0  0  0  0  0  0  0  0
   68.4870   45.9856   55.4273 C   0  0  0  0  0  0  0  0  0  0  0  0
   67.8235   45.0968   54.5764 C   0  0  0  0  0  0  0  0  0  0  0  0
   67.7837   45.4344   53.2466 C   0  0  0  0  0  0  0  0  0  0  0  0
   68.3761   46.5867   52.8159 C   0  0  0  0  0  0  0  0  0  0  0  0
   69.6582   48.7334   53.1766 C   0  0  0  0  0  0  0  0  0  0  0  0
   70.3003   47.6089   51.1085 O   0  0  0  0  0  0  0  0  0  0  0  0
   69.9440   48.6855   51.7055 C   0  0  0  0  0  0  0  0  0  0  0  0
   69.8348   49.8160   50.9155 O   0  0  0  0  0  0  0  0  0  0  0  0
 21 22  2  0
 22 23  1  0
 22 20  1  0
 20 14  1  0
 14 15  2  0
 14 19  1  0
 15 16  1  0
 16 17  2  0
 17 13  1  0
 17 18  1  0
 13  1  1  0
  1  2  2  0
  1 10  1  0
  2  3  1  0
  3  4  2  0
  3  8  1  0
  4  5  1  0
  5  6  2  0
  6  7  1  0
  7  8  2  0
  8  9  1  0
  9 10  2  0
 10 11  1  0
 11 12  1  0
 18 19  2  0
M  END
>  <minimizedAffinity>  (39) 
-9.51297

$$$$
cs_full_output_folder/data/smiles/5961.pdb
     RDKit          3D

 25 27  0  0  0  0  0  0  0  0999 V2000
   72.5349   50.4973   55.7192 C   0  0  0  0  0  0  0  0  0  0  0  0
   73.7102   51.1409   55.0725 C   0  0  2  0  0  0  0  0  0  0  0  0
   73.8170   50.6332   53.7159 N   0  0  0  0  0  0  0  0  0  0  0  0
   75.8748   49.9791   55.5054 C   0  0  0  0  0  0  0  0  0  0  0  0
   75.5891   49.2039   54.5538 O   0  0  0  0  0  0  0  0  0  0  0  0
   74.9425   50.9876   55.8078 N   0  0  0  0  0  0  0  0  0  0  0  0
   80.5580   49.4498   58.5738 N   0  0  0  0  0  0  0  0  0  0  0  0
   79.3908   49.5813   57.8043 C   0  0  0  0  0  0  0  0  0  0  0  0
   79.4415   49.3507   56.4421 C   0  0  0  0  0  0  0  0  0  0  0  0
   78.3122   49.4729   55.6655 C   0  0  0  0  0  0  0  0  0  0  0  0
   77.1275   49.8262   56.2567 C   0  0  0  0  0  0  0  0  0  0  0  0
   77.0982   50.0529   57.6277 C   0  0  0  0  0  0  0  0  0  0  0  0
   78.2059   49.9409   58.4332 C   0  0  0  0  0  0  0  0  0  0  0  0
   71.2397   50.9953   55.0768 C   0  0  0  0  0  0  0  0  0  0  0  0
   70.5943   49.8903   54.3005 C   0  0  0  0  0  0  0  0  0  0  0  0
   69.8082   48.9705   54.8943 N   0  0  0  0  0  0  0  0  0  0  0  0
   69.2229   47.9756   54.2149 C   0  0  0  0  0  0  0  0  0  0  0  0
   68.4175   47.0319   54.8191 C   0  0  0  0  0  0  0  0  0  0  0  0
   67.8128   46.0039   54.1154 C   0  0  0  0  0  0  0  0  0  0  0  0
   68.0058   45.8933   52.7569 C   0  0  0  0  0  0  0  0  0  0  0  0
   68.8075   46.8267   52.1349 C   0  0  0  0  0  0  0  0  0  0  0  0
   69.4137   47.8603   52.8526 C   0  0  0  0  0  0  0  0  0  0  0  0
   70.2178   48.7996   52.2392 C   0  0  0  0  0  0  0  0  0  0  0  0
   70.4078   48.7189   51.0014 O   0  0  0  0  0  0  0  0  0  0  0  0
   70.7856   49.7847   52.9709 N   0  0  0  0  0  0  0  0  0  0  0  0
  7  8  1  0
  8  9  2  0
  8 13  1  0
  9 10  1  0
 10 11  2  0
 11  4  1  0
 11 12  1  0
  4  5  2  0
  4  6  1  0
  6  2  1  0
  2  3  1  6
  2  1  1  0
  1 14  1  0
 14 15  1  0
 15 16  2  0
 15 25  1  0
 16 17  1  0
 17 18  2  0
 17 22  1  0
 18 19  1  0
 19 20  2  0
 20 21  1  0
 21 22  2  0
 22 23  1  0
 23 24  2  0
 23 25  1  0
 12 13  2  0
M  CHG  1   3   1
M  END
>  <minimizedAffinity>  (40) 
-9.48303

$$$$
cs_full_output_folder/data/smiles/459.pdb
     RDKit          3D

 24 27  0  0  0  0  0  0  0  0999 V2000
   69.9032   47.1911   51.0213 O   0  0  0  0  0  0  0  0  0  0  0  0
   69.7946   48.2733   51.6123 C   0  0  0  0  0  0  0  0  0  0  0  0
   70.0393   49.4900   51.0680 N   0  0  0  0  0  0  0  0  0  0  0  0
   69.8265   50.4403   51.9925 N   0  0  0  0  0  0  0  0  0  0  0  0
   69.4529   49.8530   53.1101 C   0  0  0  0  0  0  0  0  0  0  0  0
   69.4342   48.5041   52.8643 N   0  0  0  0  0  0  0  0  0  0  0  0
   69.0770   47.4779   53.7760 C   0  0  0  0  0  0  0  0  0  0  0  0
   68.5321   46.3926   53.1454 C   0  0  0  0  0  0  0  0  0  0  0  0
   68.1514   45.3233   53.9402 C   0  0  0  0  0  0  0  0  0  0  0  0
   68.2935   45.3085   55.3065 C   0  0  0  0  0  0  0  0  0  0  0  0
   68.8623   46.4624   55.8886 C   0  0  0  0  0  0  0  0  0  0  0  0
   69.2529   47.5395   55.1491 C   0  0  0  0  0  0  0  0  0  0  0  0
   69.7902   48.5904   56.0248 C   0  0  0  0  0  0  0  0  0  0  0  0
   70.1507   49.8743   55.3883 C   0  0  0  0  0  0  0  0  0  0  0  0
   69.1232   50.4533   54.4416 C   0  0  0  0  0  0  0  0  0  0  0  0
   67.9514   44.3158   56.1696 O   0  0  0  0  0  0  0  0  0  0  0  0
   67.7758   42.9870   55.8853 C   0  0  0  0  0  0  0  0  0  0  0  0
   68.4393   42.0273   56.8173 C   0  0  0  0  0  0  0  0  0  0  0  0
   69.5322   42.2857   57.4774 C   0  0  0  0  0  0  0  0  0  0  0  0
   70.2280   41.3872   58.4044 C   0  0  0  0  0  0  0  0  0  0  0  0
   69.5939   40.1171   58.5555 N   0  0  0  0  0  0  0  0  0  0  0  0
   68.4017   39.8093   57.8477 C   0  0  0  0  0  0  0  0  0  0  0  0
   67.8534   38.5726   58.0435 F   0  0  0  0  0  0  0  0  0  0  0  0
   67.8542   40.6899   57.0359 C   0  0  0  0  0  0  0  0  0  0  0  0
  1  2  2  0
  2  3  1  0
  2  6  1  0
  3  4  1  0
  4  5  2  0
  5  6  1  0
  5 15  1  0
  6  7  1  0
  7  8  2  0
  7 12  1  0
  8  9  1  0
  9 10  2  0
 10 16  1  0
 10 11  1  0
 16 17  1  0
 17 18  1  0
 18 19  2  0
 18 24  1  0
 19 20  1  0
 20 21  1  0
 21 22  1  0
 22 23  1  0
 22 24  2  0
 11 12  2  0
 12 13  1  0
 13 14  1  0
 14 15  1  0
M  END
>  <minimizedAffinity>  (41) 
-9.47613

$$$$
cs_full_output_folder/data/smiles/1920.pdb
     RDKit          3D

 25 27  0  0  0  0  0  0  0  0999 V2000
   68.7739   43.5752   56.7122 C   0  0  0  0  0  0  0  0  0  0  0  0
   69.5349   44.2829   57.4813 O   0  0  0  0  0  0  0  0  0  0  0  0
   68.1396   44.3270   55.7055 N   0  0  0  0  0  0  0  0  0  0  0  0
   70.3799   41.7199   58.8140 C   0  0  0  0  0  0  0  0  0  0  0  0
   69.3409   41.3605   57.8462 C   0  0  0  0  0  0  0  0  0  0  0  0
   68.6760   42.1588   56.9705 C   0  0  0  0  0  0  0  0  0  0  0  0
   67.7967   41.3021   56.2868 C   0  0  0  0  0  0  0  0  0  0  0  0
   67.9927   40.0850   56.7894 N   0  0  0  0  0  0  0  0  0  0  0  0
   68.9144   40.0773   57.7299 N   0  0  0  0  0  0  0  0  0  0  0  0
   69.3622   38.9475   58.4709 C   0  0  0  0  0  0  0  0  0  0  0  0
   70.5717   38.3365   58.2393 C   0  0  0  0  0  0  0  0  0  0  0  0
   71.0097   37.2454   58.9571 C   0  0  0  0  0  0  0  0  0  0  0  0
   70.2337   36.7115   59.9591 C   0  0  0  0  0  0  0  0  0  0  0  0
   69.0145   37.3009   60.2156 C   0  0  0  0  0  0  0  0  0  0  0  0
   68.5901   38.4003   59.4807 C   0  0  0  0  0  0  0  0  0  0  0  0
   68.2884   45.7585   55.4997 C   0  0  0  0  0  0  0  0  0  0  0  0
   68.3788   46.1570   54.0939 C   0  0  0  0  0  0  0  0  0  0  0  0
   67.6488   45.4986   53.1017 C   0  0  0  0  0  0  0  0  0  0  0  0
   67.7418   45.8871   51.8197 N   0  0  0  0  0  0  0  0  0  0  0  0
   68.5255   46.9104   51.4276 C   0  0  0  0  0  0  0  0  0  0  0  0
   69.2648   47.5906   52.3634 C   0  0  0  0  0  0  0  0  0  0  0  0
   69.1749   47.1952   53.6942 C   0  0  0  0  0  0  0  0  0  0  0  0
   70.1301   48.6994   52.0058 C   0  0  0  0  0  0  0  0  0  0  0  0
   71.2022   48.9301   52.6103 O   0  0  0  0  0  0  0  0  0  0  0  0
   69.8088   49.5665   50.9657 O   0  0  0  0  0  0  0  0  0  0  0  0
  4  5  1  0
  5  6  2  0
  5  9  1  0
  6  1  1  0
  6  7  1  0
  1  2  2  0
  1  3  1  0
  3 16  1  0
 16 17  1  0
 17 18  2  0
 17 22  1  0
 18 19  1  0
 19 20  2  0
 20 21  1  0
 21 23  1  0
 21 22  2  0
 23 24  2  0
 23 25  1  0
  7  8  2  0
  8  9  1  0
  9 10  1  0
 10 11  2  0
 10 15  1  0
 11 12  1  0
 12 13  2  0
 13 14  1  0
 14 15  2  0
M  END
>  <minimizedAffinity>  (42) 
-9.45992

$$$$
cs_full_output_folder/data/smiles/341.pdb
     RDKit          3D

 23 24  0  0  0  0  0  0  0  0999 V2000
   69.5593   47.7203   54.7875 C   0  0  0  0  0  0  0  0  0  0  0  0
   69.1543   47.6456   52.3211 C   0  0  0  0  0  0  0  0  0  0  0  0
   68.4025   47.0766   51.3213 N   0  0  0  0  0  0  0  0  0  0  0  0
   67.4859   46.1337   51.5626 C   0  0  0  0  0  0  0  0  0  0  0  0
   66.8027   45.6213   50.6273 O   0  0  0  0  0  0  0  0  0  0  0  0
   67.2574   45.6961   52.8079 N   0  0  0  0  0  0  0  0  0  0  0  0
   67.9528   46.2138   53.7978 C   0  0  0  0  0  0  0  0  0  0  0  0
   67.7449   45.8050   55.0052 O   0  0  0  0  0  0  0  0  0  0  0  0
   68.9266   47.2090   53.5953 C   0  0  0  0  0  0  0  0  0  0  0  0
   71.3133   48.6460   52.4036 O   0  0  0  0  0  0  0  0  0  0  0  0
   70.1766   48.6186   51.9527 C   0  0  0  0  0  0  0  0  0  0  0  0
   69.8020   49.5813   51.0040 O   0  0  0  0  0  0  0  0  0  0  0  0
   69.5117   49.1403   55.2007 C   0  0  0  0  0  0  0  0  0  0  0  0
   68.5568   49.6493   56.1131 C   0  0  0  0  0  0  0  0  0  0  0  0
   67.8722   48.6809   56.9113 C   0  0  0  0  0  0  0  0  0  0  0  0
   66.9572   49.0270   57.8616 C   0  0  0  0  0  0  0  0  0  0  0  0
   66.6752   50.3622   58.0623 C   0  0  0  0  0  0  0  0  0  0  0  0
   67.3305   51.2994   57.2946 C   0  0  0  0  0  0  0  0  0  0  0  0
   68.2793   50.9596   56.3088 C   0  0  0  0  0  0  0  0  0  0  0  0
   68.8206   52.0086   55.5197 C   0  0  0  0  0  0  0  0  0  0  0  0
   70.0259   52.0835   55.0203 F   0  0  0  0  0  0  0  0  0  0  0  0
   67.9208   52.2078   54.4201 F   0  0  0  0  0  0  0  0  0  0  0  0
   68.6359   53.2336   56.2153 F   0  0  0  0  0  0  0  0  0  0  0  0
 10 11  2  0
 11 12  1  0
 11  2  1  0
  2  3  1  0
  2  9  2  0
  3  4  1  0
  4  5  2  0
  4  6  1  0
  6  7  1  0
  7  8  2  0
  7  9  1  0
  9  1  1  0
  1 13  1  0
 13 14  1  0
 14 15  2  0
 14 19  1  0
 15 16  1  0
 16 17  2  0
 17 18  1  0
 18 19  2  0
 19 20  1  0
 20 21  1  0
 20 22  1  0
 20 23  1  0
M  END
>  <minimizedAffinity>  (43) 
-9.43158

$$$$
cs_full_output_folder/data/smiles/3771.pdb
     RDKit          3D

 23 26  0  0  0  0  0  0  0  0999 V2000
   69.7952   47.2724   51.0420 O   0  0  0  0  0  0  0  0  0  0  0  0
   69.7522   48.3175   51.7093 C   0  0  0  0  0  0  0  0  0  0  0  0
   70.0510   49.5406   51.2436 N   0  0  0  0  0  0  0  0  0  0  0  0
   69.9135   50.4427   52.1966 N   0  0  0  0  0  0  0  0  0  0  0  0
   69.5095   49.7962   53.3351 C   0  0  0  0  0  0  0  0  0  0  0  0
   69.4216   48.4988   52.9924 N   0  0  0  0  0  0  0  0  0  0  0  0
   69.0399   47.4622   53.8829 C   0  0  0  0  0  0  0  0  0  0  0  0
   68.4905   46.4047   53.2342 C   0  0  0  0  0  0  0  0  0  0  0  0
   68.0968   45.2925   53.9689 C   0  0  0  0  0  0  0  0  0  0  0  0
   68.2294   45.1965   55.3213 C   0  0  0  0  0  0  0  0  0  0  0  0
   68.8022   46.3115   55.9775 C   0  0  0  0  0  0  0  0  0  0  0  0
   69.1873   47.3952   55.2715 C   0  0  0  0  0  0  0  0  0  0  0  0
   69.7282   48.5401   56.0917 C   0  0  0  0  0  0  0  0  0  0  0  0
   68.8659   49.7471   55.7574 C   0  0  0  0  0  0  0  0  0  0  0  0
   69.2913   50.5350   54.5897 C   0  0  0  0  0  0  0  0  0  0  0  0
   67.8743   44.1548   56.0964 O   0  0  0  0  0  0  0  0  0  0  0  0
   67.6588   42.8325   56.0078 C   0  0  0  0  0  0  0  0  0  0  0  0
   68.4055   41.8889   56.8192 C   0  0  0  0  0  0  0  0  0  0  0  0
   69.6091   42.1895   57.4182 C   0  0  0  0  0  0  0  0  0  0  0  0
   70.3020   41.3056   58.1971 C   0  0  0  0  0  0  0  0  0  0  0  0
   69.7875   40.0454   58.4070 C   0  0  0  0  0  0  0  0  0  0  0  0
   68.5989   39.7100   57.8317 C   0  0  0  0  0  0  0  0  0  0  0  0
   67.9109   40.6294   57.0417 C   0  0  0  0  0  0  0  0  0  0  0  0
  1  2  2  0
  2  3  1  0
  2  6  1  0
  3  4  1  0
  4  5  2  0
  5  6  1  0
  5 15  1  0
  6  7  1  0
  7  8  2  0
  7 12  1  0
  8  9  1  0
  9 10  2  0
 10 16  1  0
 10 11  1  0
 16 17  1  0
 17 18  1  0
 18 19  2  0
 18 23  1  0
 19 20  1  0
 20 21  2  0
 21 22  1  0
 22 23  2  0
 11 12  2  0
 12 13  1  0
 13 14  1  0
 14 15  1  0
M  END
>  <minimizedAffinity>  (44) 
-9.43017

$$$$
cs_full_output_folder/data/smiles/466.pdb
     RDKit          3D

 26 29  0  0  0  0  0  0  0  0999 V2000
   69.2451   47.6632   56.1304 N   0  0  0  0  0  0  0  0  0  0  0  0
   69.6740   48.6410   55.2973 C   0  0  0  0  0  0  0  0  0  0  0  0
   69.4915   48.5680   53.9218 C   0  0  0  0  0  0  0  0  0  0  0  0
   68.8586   47.4883   53.3326 C   0  0  0  0  0  0  0  0  0  0  0  0
   68.6654   47.3925   51.9622 C   0  0  0  0  0  0  0  0  0  0  0  0
   68.0319   46.3106   51.3849 C   0  0  0  0  0  0  0  0  0  0  0  0
   67.5934   45.3157   52.2338 C   0  0  0  0  0  0  0  0  0  0  0  0
   67.7872   45.4116   53.5965 C   0  0  0  0  0  0  0  0  0  0  0  0
   68.4220   46.4981   54.1751 C   0  0  0  0  0  0  0  0  0  0  0  0
   68.6204   46.6061   55.5266 C   0  0  0  0  0  0  0  0  0  0  0  0
   68.1921   45.6576   56.2742 O   0  0  0  0  0  0  0  0  0  0  0  0
   70.0403   49.7525   53.2776 C   0  0  0  0  0  0  0  0  0  0  0  0
   70.0732   50.0596   52.0588 O   0  0  0  0  0  0  0  0  0  0  0  0
   70.5840   50.5851   54.3392 C   0  0  0  0  0  0  0  0  0  0  0  0
   71.2199   51.8235   54.3249 C   0  0  0  0  0  0  0  0  0  0  0  0
   71.6422   52.4152   55.4854 C   0  0  0  0  0  0  0  0  0  0  0  0
   71.4107   51.7364   56.6507 C   0  0  0  0  0  0  0  0  0  0  0  0
   70.7772   50.4946   56.7064 C   0  0  0  0  0  0  0  0  0  0  0  0
   70.3557   49.9047   55.5419 C   0  0  0  0  0  0  0  0  0  0  0  0
   69.4069   47.6607   57.5488 C   0  0  0  0  0  0  0  0  0  0  0  0
   70.4361   46.7658   58.1216 C   0  0  2  0  0  0  0  0  0  0  0  0
   69.9992   45.7178   58.9128 O   0  0  0  0  0  0  0  0  0  0  0  0
   71.5418   47.4384   58.9034 C   0  0  0  0  0  0  0  0  0  0  0  0
   73.0179   47.9106   62.0208 N   0  0  0  0  0  0  0  0  0  0  0  0
   72.2342   47.7052   61.0701 N   0  0  0  0  0  0  0  0  0  0  0  0
   71.4931   47.0550   60.3016 N   0  0  0  0  0  0  0  0  0  0  0  0
 24 25  2  0
 25 26  2  0
 26 23  1  0
 23 21  1  0
 21 22  1  1
 21 20  1  0
 20  1  1  0
  1  2  1  0
  1 10  1  0
  2  3  2  0
  2 19  1  0
  3  4  1  0
  3 12  1  0
  4  5  1  0
  4  9  2  0
  5  6  2  0
  6  7  1  0
  7  8  2  0
  8  9  1  0
  9 10  1  0
 10 11  2  0
 12 13  2  0
 12 14  1  0
 14 15  1  0
 14 19  2  0
 15 16  2  0
 16 17  1  0
 17 18  2  0
 18 19  1  0
M  CHG  2  24  -1  25   1
M  END
>  <minimizedAffinity>  (45) 
-9.42010

$$$$
cs_full_output_folder/data/smiles/2827.pdb
     RDKit          3D

 23 26  0  0  0  0  0  0  0  0999 V2000
   69.9664   49.5163   53.5168 C   0  0  0  0  0  0  0  0  0  0  0  0
   70.0376   50.0532   52.2742 N   0  0  0  0  0  0  0  0  0  0  0  0
   69.5405   49.1774   51.4313 N   0  0  0  0  0  0  0  0  0  0  0  0
   69.1355   48.0629   52.0760 C   0  0  0  0  0  0  0  0  0  0  0  0
   68.5575   46.8885   51.6117 C   0  0  0  0  0  0  0  0  0  0  0  0
   68.2435   45.9013   52.5213 C   0  0  0  0  0  0  0  0  0  0  0  0
   68.4912   46.0535   53.8792 C   0  0  0  0  0  0  0  0  0  0  0  0
   69.0646   47.2359   54.2805 C   0  0  0  0  0  0  0  0  0  0  0  0
   69.3976   48.2554   53.4172 C   0  0  0  0  0  0  0  0  0  0  0  0
   68.1427   44.9811   54.8009 C   0  0  0  0  0  0  0  0  0  0  0  0
   68.5803   44.7771   56.0524 N   0  0  0  0  0  0  0  0  0  0  0  0
   68.0137   43.6721   56.5625 N   0  0  0  0  0  0  0  0  0  0  0  0
   67.2220   43.1825   55.6323 N   0  0  0  0  0  0  0  0  0  0  0  0
   67.2925   43.9694   54.5573 N   0  0  0  0  0  0  0  0  0  0  0  0
   70.4104   50.1499   54.7547 C   0  0  0  0  0  0  0  0  0  0  0  0
   70.1078   49.4490   56.0306 C   0  0  0  0  0  0  0  0  0  0  0  0
   68.4228   47.4867   57.4935 N   0  0  0  0  0  0  0  0  0  0  0  0
   68.0672   48.8525   57.3562 C   0  0  0  0  0  0  0  0  0  0  0  0
   66.8655   49.2300   57.9552 C   0  0  0  0  0  0  0  0  0  0  0  0
   66.4165   50.5286   57.8674 C   0  0  0  0  0  0  0  0  0  0  0  0
   67.1724   51.4413   57.1818 C   0  0  0  0  0  0  0  0  0  0  0  0
   68.3422   51.0605   56.6017 C   0  0  0  0  0  0  0  0  0  0  0  0
   68.8352   49.7515   56.6667 C   0  0  0  0  0  0  0  0  0  0  0  0
 17 18  1  0
 18 19  2  0
 18 23  1  0
 19 20  1  0
 20 21  2  0
 21 22  1  0
 22 23  2  0
 23 16  1  0
 16 15  1  0
 15  1  1  0
  1  2  2  0
  1  9  1  0
  2  3  1  0
  3  4  1  0
  4  5  1  0
  4  9  2  0
  5  6  2  0
  6  7  1  0
  7 10  1  0
  7  8  2  0
 10 11  2  0
 10 14  1  0
 11 12  1  0
 12 13  2  0
 13 14  1  0
  8  9  1  0
M  END
>  <minimizedAffinity>  (46) 
-9.41939

$$$$
cs_full_output_folder/data/smiles/513.pdb
     RDKit          3D

 23 25  0  0  0  0  0  0  0  0999 V2000
   68.5808   44.6055   56.3864 C   0  0  0  0  0  0  0  0  0  0  0  0
   67.8900   43.4740   56.1723 N   0  0  0  0  0  0  0  0  0  0  0  0
   68.2821   42.2740   56.6539 C   0  0  0  0  0  0  0  0  0  0  0  0
   69.4303   42.1592   57.4010 C   0  0  0  0  0  0  0  0  0  0  0  0
   70.1539   43.3288   57.6282 C   0  0  0  0  0  0  0  0  0  0  0  0
   69.7114   44.4904   57.1218 N   0  0  0  0  0  0  0  0  0  0  0  0
   69.9190   40.9067   57.9560 C   0  0  0  0  0  0  0  0  0  0  0  0
   71.2296   40.6905   58.3131 C   0  0  0  0  0  0  0  0  0  0  0  0
   71.6706   39.4858   58.8267 C   0  0  0  0  0  0  0  0  0  0  0  0
   70.7925   38.4207   59.0077 C   0  0  0  0  0  0  0  0  0  0  0  0
   69.4761   38.6254   58.6541 C   0  0  0  0  0  0  0  0  0  0  0  0
   69.0447   39.8273   58.1439 C   0  0  0  0  0  0  0  0  0  0  0  0
   68.1736   45.8826   55.8947 N   0  0  0  0  0  0  0  0  0  0  0  0
   69.1622   47.7942   52.8148 C   0  0  0  0  0  0  0  0  0  0  0  0
   68.6264   46.9801   51.8382 C   0  0  0  0  0  0  0  0  0  0  0  0
   67.9473   45.8232   52.1758 C   0  0  0  0  0  0  0  0  0  0  0  0
   67.7840   45.4485   53.5130 C   0  0  0  0  0  0  0  0  0  0  0  0
   68.3129   46.2503   54.5047 C   0  0  0  0  0  0  0  0  0  0  0  0
   68.9814   47.3897   54.1345 C   0  0  0  0  0  0  0  0  0  0  0  0
   69.3102   50.5595   53.2928 N   0  0  0  0  0  0  0  0  0  0  0  0
   70.0316   49.2609   52.4305 S   0  0  0  0  0  0  0  0  0  0  0  0
   71.4807   49.1214   52.8630 O   0  0  0  0  0  0  0  0  0  0  0  0
   69.9669   49.4737   50.9338 O   0  0  0  0  0  0  0  0  0  0  0  0
 20 21  1  0
 21 22  2  0
 21 23  2  0
 21 14  1  0
 14 15  2  0
 14 19  1  0
 15 16  1  0
 16 17  2  0
 17 18  1  0
 18 13  1  0
 18 19  2  0
 13  1  1  0
  1  2  2  0
  1  6  1  0
  2  3  1  0
  3  4  2  0
  4  7  1  0
  4  5  1  0
  7  8  2  0
  7 12  1  0
  8  9  1  0
  9 10  2  0
 10 11  1  0
 11 12  2  0
  5  6  2  0
M  END
>  <minimizedAffinity>  (47) 
-9.40862

$$$$
cs_full_output_folder/data/smiles/4137.pdb
     RDKit          3D

 26 29  0  0  0  0  0  0  0  0999 V2000
   69.2264   47.6959   56.1202 N   0  0  0  0  0  0  0  0  0  0  0  0
   69.6656   48.6871   55.3322 C   0  0  0  0  0  0  0  0  0  0  0  0
   69.4971   48.6315   53.9413 C   0  0  0  0  0  0  0  0  0  0  0  0
   68.8644   47.5414   53.3430 C   0  0  0  0  0  0  0  0  0  0  0  0
   68.6754   47.4461   51.9753 C   0  0  0  0  0  0  0  0  0  0  0  0
   68.0408   46.3475   51.3899 C   0  0  0  0  0  0  0  0  0  0  0  0
   67.6005   45.3466   52.2276 C   0  0  0  0  0  0  0  0  0  0  0  0
   67.7918   45.4471   53.5951 C   0  0  0  0  0  0  0  0  0  0  0  0
   68.4214   46.5378   54.1690 C   0  0  0  0  0  0  0  0  0  0  0  0
   68.6182   46.6501   55.5212 C   0  0  0  0  0  0  0  0  0  0  0  0
   68.1709   45.6601   56.2033 O   0  0  0  0  0  0  0  0  0  0  0  0
   70.0498   49.8125   53.3147 C   0  0  0  0  0  0  0  0  0  0  0  0
   70.0690   50.0890   52.0694 O   0  0  0  0  0  0  0  0  0  0  0  0
   70.5834   50.6287   54.3920 C   0  0  0  0  0  0  0  0  0  0  0  0
   71.2129   51.8529   54.3315 C   0  0  0  0  0  0  0  0  0  0  0  0
   71.6355   52.4413   55.5073 C   0  0  0  0  0  0  0  0  0  0  0  0
   71.4138   51.7838   56.7186 C   0  0  0  0  0  0  0  0  0  0  0  0
   70.7806   50.5567   56.7627 C   0  0  0  0  0  0  0  0  0  0  0  0
   70.3576   49.9622   55.5995 C   0  0  0  0  0  0  0  0  0  0  0  0
   69.4117   47.6963   57.5282 C   0  0  0  0  0  0  0  0  0  0  0  0
   70.5367   46.8553   58.0591 C   0  0  2  0  0  0  0  0  0  0  0  0
   69.8859   45.8640   58.8547 O   0  0  0  0  0  0  0  0  0  0  0  0
   71.5626   47.5672   58.8650 C   0  0  0  0  0  0  0  0  0  0  0  0
   73.0176   47.9255   61.9901 N   0  0  0  0  0  0  0  0  0  0  0  0
   72.1938   47.6107   61.1044 N   0  0  0  0  0  0  0  0  0  0  0  0
   71.4691   47.1154   60.2388 N   0  0  0  0  0  0  0  0  0  0  0  0
 24 25  2  0
 25 26  2  0
 26 23  1  0
 23 21  1  0
 21 22  1  1
 21 20  1  0
 20  1  1  0
  1  2  1  0
  1 10  1  0
  2  3  2  0
  2 19  1  0
  3  4  1  0
  3 12  1  0
  4  5  1  0
  4  9  2  0
  5  6  2  0
  6  7  1  0
  7  8  2  0
  8  9  1  0
  9 10  1  0
 10 11  2  0
 12 13  2  0
 12 14  1  0
 14 15  1  0
 14 19  2  0
 15 16  2  0
 16 17  1  0
 17 18  2  0
 18 19  1  0
M  CHG  2  24  -1  25   1
M  END
>  <minimizedAffinity>  (48) 
-9.40443

$$$$
cs_full_output_folder/data/smiles/3698.pdb
     RDKit          3D

 25 28  0  0  0  0  0  0  0  0999 V2000
   70.0402   50.9039   54.3642 C   0  0  0  0  0  0  0  0  0  0  0  0
   68.7533   51.4266   54.5658 C   0  0  0  0  0  0  0  0  0  0  0  0
   68.5586   52.5628   55.3122 C   0  0  0  0  0  0  0  0  0  0  0  0
   69.6300   53.2208   55.8858 C   0  0  0  0  0  0  0  0  0  0  0  0
   69.4779   54.3417   56.6295 F   0  0  0  0  0  0  0  0  0  0  0  0
   70.9091   52.7402   55.7130 C   0  0  0  0  0  0  0  0  0  0  0  0
   71.0741   51.5785   54.9440 C   0  0  0  0  0  0  0  0  0  0  0  0
   72.0487   53.4198   56.3090 C   0  0  0  0  0  0  0  0  0  0  0  0
   72.8793   54.1958   55.5317 C   0  0  0  0  0  0  0  0  0  0  0  0
   73.9712   54.8437   56.1202 C   0  0  0  0  0  0  0  0  0  0  0  0
   74.2262   54.7233   57.4364 N   0  0  0  0  0  0  0  0  0  0  0  0
   73.4289   53.9688   58.2225 C   0  0  0  0  0  0  0  0  0  0  0  0
   72.3492   53.3252   57.6486 C   0  0  0  0  0  0  0  0  0  0  0  0
   70.2101   49.7068   53.5368 C   0  0  0  0  0  0  0  0  0  0  0  0
   68.2064   45.2817   56.1252 O   0  0  0  0  0  0  0  0  0  0  0  0
   68.6258   46.2677   55.4699 C   0  0  0  0  0  0  0  0  0  0  0  0
   69.2632   47.2572   56.1257 N   0  0  0  0  0  0  0  0  0  0  0  0
   69.7313   48.3187   55.5140 N   0  0  0  0  0  0  0  0  0  0  0  0
   69.6088   48.5033   54.1579 C   0  0  0  0  0  0  0  0  0  0  0  0
   68.9606   47.5031   53.4747 C   0  0  0  0  0  0  0  0  0  0  0  0
   68.7731   47.6054   52.1256 C   0  0  0  0  0  0  0  0  0  0  0  0
   68.1043   46.5979   51.4266 C   0  0  0  0  0  0  0  0  0  0  0  0
   67.6097   45.4762   52.0625 C   0  0  0  0  0  0  0  0  0  0  0  0
   67.7907   45.3635   53.4214 C   0  0  0  0  0  0  0  0  0  0  0  0
   68.4523   46.3610   54.1039 C   0  0  0  0  0  0  0  0  0  0  0  0
 15 16  2  0
 16 17  1  0
 16 25  1  0
 17 18  1  0
 18 19  2  0
 19 14  1  0
 19 20  1  0
 14  1  1  0
  1  2  2  0
  1  7  1  0
  2  3  1  0
  3  4  2  0
  4  5  1  0
  4  6  1  0
  6  8  1  0
  6  7  2  0
  8  9  2  0
  8 13  1  0
  9 10  1  0
 10 11  2  0
 11 12  1  0
 12 13  2  0
 20 21  1  0
 20 25  2  0
 21 22  2  0
 22 23  1  0
 23 24  2  0
 24 25  1  0
M  END
>  <minimizedAffinity>  (49) 
-9.40024

$$$$
cs_full_output_folder/data/smiles/3731.pdb
     RDKit          3D

 23 25  0  0  0  0  0  0  0  0999 V2000
   69.0046   46.1402   56.6241 C   0  0  0  0  0  0  0  0  0  0  0  0
   69.7521   47.0999   57.2609 C   0  0  0  0  0  0  0  0  0  0  0  0
   70.7740   46.7421   58.1156 C   0  0  0  0  0  0  0  0  0  0  0  0
   71.0239   45.4163   58.3152 N   0  0  0  0  0  0  0  0  0  0  0  0
   70.2987   44.4826   57.6977 C   0  0  0  0  0  0  0  0  0  0  0  0
   69.3105   44.8541   56.8715 N   0  0  0  0  0  0  0  0  0  0  0  0
   70.5623   43.0643   57.9084 C   0  0  0  0  0  0  0  0  0  0  0  0
   71.8262   42.6019   58.2080 C   0  0  0  0  0  0  0  0  0  0  0  0
   72.1012   41.2651   58.4128 C   0  0  0  0  0  0  0  0  0  0  0  0
   71.0934   40.3260   58.3217 C   0  0  0  0  0  0  0  0  0  0  0  0
   69.8280   40.7875   58.0234 C   0  0  0  0  0  0  0  0  0  0  0  0
   68.5544   39.5829   57.9109 Cl  0  0  0  0  0  0  0  0  0  0  0  0
   69.5574   42.1235   57.8195 C   0  0  0  0  0  0  0  0  0  0  0  0
   67.9542   46.4652   55.7443 O   0  0  0  0  0  0  0  0  0  0  0  0
   69.3255   47.7824   52.5718 C   0  0  0  0  0  0  0  0  0  0  0  0
   68.7304   46.8848   51.6968 C   0  0  0  0  0  0  0  0  0  0  0  0
   67.9000   45.8766   52.1635 C   0  0  0  0  0  0  0  0  0  0  0  0
   67.6317   45.7243   53.5069 C   0  0  0  0  0  0  0  0  0  0  0  0
   68.2174   46.6095   54.3889 C   0  0  0  0  0  0  0  0  0  0  0  0
   69.0426   47.6108   53.9190 C   0  0  0  0  0  0  0  0  0  0  0  0
   69.8150   49.6534   51.0141 N   0  0  0  0  0  0  0  0  0  0  0  0
   70.1948   48.8387   52.0891 C   0  0  0  0  0  0  0  0  0  0  0  0
   71.2972   49.0174   52.6459 O   0  0  0  0  0  0  0  0  0  0  0  0
 21 22  1  0
 22 23  2  0
 22 15  1  0
 15 16  2  0
 15 20  1  0
 16 17  1  0
 17 18  2  0
 18 19  1  0
 19 14  1  0
 19 20  2  0
 14  1  1  0
  1  2  2  0
  1  6  1  0
  2  3  1  0
  3  4  2  0
  4  5  1  0
  5  7  1  0
  5  6  2  0
  7  8  2  0
  7 13  1  0
  8  9  1  0
  9 10  2  0
 10 11  1  0
 11 12  1  0
 11 13  2  0
M  END
>  <minimizedAffinity>  (50) 
-9.39722

$$$$
cs_full_output_folder/data/smiles/4827.pdb
     RDKit          3D

 29 32  0  0  0  0  0  0  0  0999 V2000
   70.6558   46.1812   58.4130 C   0  0  0  0  0  0  0  0  0  0  0  0
   69.8083   46.7248   57.4524 C   0  0  0  0  0  0  0  0  0  0  0  0
   69.7698   48.0623   57.2023 C   0  0  0  0  0  0  0  0  0  0  0  0
   70.6030   48.9218   57.9275 C   0  0  0  0  0  0  0  0  0  0  0  0
   71.4414   48.4174   58.8725 C   0  0  0  0  0  0  0  0  0  0  0  0
   71.4586   47.0469   59.1056 C   0  0  0  0  0  0  0  0  0  0  0  0
   72.3237   46.6175   60.0652 F   0  0  0  0  0  0  0  0  0  0  0  0
   70.7122   44.7728   58.6925 C   0  0  0  0  0  0  0  0  0  0  0  0
   70.5512   44.3659   59.8951 O   0  0  0  0  0  0  0  0  0  0  0  0
   70.9268   43.7651   57.7715 O   0  0  0  0  0  0  0  0  0  0  0  0
   70.2709   42.4903   57.8906 C   0  0  0  0  0  0  0  0  0  0  0  0
   68.1790   40.2057   57.3805 C   0  0  0  0  0  0  0  0  0  0  0  0
   68.0955   41.5895   56.8125 C   0  0  0  0  0  0  0  0  0  0  0  0
   67.1175   42.0948   55.9895 C   0  0  0  0  0  0  0  0  0  0  0  0
   67.4581   43.3652   55.7415 N   0  0  0  0  0  0  0  0  0  0  0  0
   68.5890   43.6425   56.3735 N   0  0  0  0  0  0  0  0  0  0  0  0
   69.0420   42.5781   57.0611 C   0  0  0  0  0  0  0  0  0  0  0  0
   68.8934   48.7153   56.2164 C   0  0  0  0  0  0  0  0  0  0  0  0
   69.3446   48.6508   54.8285 C   0  0  0  0  0  0  0  0  0  0  0  0
   70.2428   49.5599   54.3378 N   0  0  0  0  0  0  0  0  0  0  0  0
   70.6440   49.5786   53.0943 N   0  0  0  0  0  0  0  0  0  0  0  0
   70.1964   48.6869   52.1845 C   0  0  0  0  0  0  0  0  0  0  0  0
   70.5784   48.6968   50.9780 O   0  0  0  0  0  0  0  0  0  0  0  0
   69.2936   47.7373   52.5919 C   0  0  0  0  0  0  0  0  0  0  0  0
   68.8276   46.8073   51.7054 C   0  0  0  0  0  0  0  0  0  0  0  0
   67.9373   45.8402   52.0932 C   0  0  0  0  0  0  0  0  0  0  0  0
   67.5083   45.8045   53.3952 C   0  0  0  0  0  0  0  0  0  0  0  0
   67.9824   46.7506   54.2957 C   0  0  0  0  0  0  0  0  0  0  0  0
   68.8762   47.7347   53.9294 C   0  0  0  0  0  0  0  0  0  0  0  0
 12 13  1  0
 13 14  2  0
 13 17  1  0
 14 15  1  0
 15 16  1  0
 16 17  2  0
 17 11  1  0
 11 10  1  0
 10  8  1  0
  8  9  2  0
  8  1  1  0
  1  2  2  0
  1  6  1  0
  2  3  1  0
  3 18  1  0
  3  4  2  0
 18 19  1  0
 19 20  2  0
 19 29  1  0
 20 21  1  0
 21 22  1  0
 22 23  2  0
 22 24  1  0
 24 25  1  0
 24 29  2  0
 25 26  2  0
 26 27  1  0
 27 28  2  0
 28 29  1  0
  4  5  1  0
  5  6  2  0
  6  7  1  0
M  END
>  <minimizedAffinity>  (51) 
-10.86775

$$$$
cs_full_output_folder/data/smiles/3422.pdb
     RDKit          3D

 28 30  0  0  0  0  0  0  0  0999 V2000
   68.2895   45.8591   54.0312 C   0  0  0  0  0  0  0  0  0  0  0  0
   67.6582   45.3447   52.9193 C   0  0  0  0  0  0  0  0  0  0  0  0
   67.7190   46.0043   51.6994 C   0  0  0  0  0  0  0  0  0  0  0  0
   68.4216   47.1932   51.5944 C   0  0  0  0  0  0  0  0  0  0  0  0
   69.0630   47.7282   52.6939 C   0  0  0  0  0  0  0  0  0  0  0  0
   68.9687   47.0322   53.8759 C   0  0  0  0  0  0  0  0  0  0  0  0
   67.8094   43.8016   55.4328 N   0  0  0  0  0  0  0  0  0  0  0  0
   68.2095   45.1460   55.2983 C   0  0  0  0  0  0  0  0  0  0  0  0
   68.5146   45.7550   56.3537 O   0  0  0  0  0  0  0  0  0  0  0  0
   67.4751   41.1576   55.4981 O   0  0  0  0  0  0  0  0  0  0  0  0
   67.5607   41.7199   56.6276 C   0  0  0  0  0  0  0  0  0  0  0  0
   67.7387   43.1248   56.6694 N   0  0  0  0  0  0  0  0  0  0  0  0
   67.4666   40.8619   57.8072 C   0  0  0  0  0  0  0  0  0  0  0  0
   68.1059   39.6508   57.8478 C   0  0  0  0  0  0  0  0  0  0  0  0
   67.9928   38.8709   58.9783 C   0  0  0  0  0  0  0  0  0  0  0  0
   67.2494   39.2870   60.0660 C   0  0  0  0  0  0  0  0  0  0  0  0
   66.6086   40.5093   60.0162 C   0  0  0  0  0  0  0  0  0  0  0  0
   66.7278   41.2785   58.8849 C   0  0  0  0  0  0  0  0  0  0  0  0
   69.9194   49.2148   52.4826 S   0  0  0  0  0  0  0  0  0  0  0  0
   71.2794   49.0617   53.0980 O   0  0  0  0  0  0  0  0  0  0  0  0
   70.1576   49.3807   50.9881 O   0  0  0  0  0  0  0  0  0  0  0  0
   69.1568   50.5889   53.0668 N   0  0  0  0  0  0  0  0  0  0  0  0
   69.0510   50.9882   54.4285 C   0  0  0  0  0  0  0  0  0  0  0  0
   69.0544   52.3399   54.6784 C   0  0  0  0  0  0  0  0  0  0  0  0
   68.9601   52.8708   55.9477 C   0  0  0  0  0  0  0  0  0  0  0  0
   68.8609   51.9584   56.9762 C   0  0  0  0  0  0  0  0  0  0  0  0
   68.8544   50.5943   56.7623 C   0  0  0  0  0  0  0  0  0  0  0  0
   68.9502   50.1308   55.4817 C   0  0  0  0  0  0  0  0  0  0  0  0
 10 11  2  0
 11 12  1  0
 11 13  1  0
 12  7  1  0
  7  8  1  0
  8  9  2  0
  8  1  1  0
  1  2  2  0
  1  6  1  0
  2  3  1  0
  3  4  2  0
  4  5  1  0
  5 19  1  0
  5  6  2  0
 19 20  2  0
 19 21  2  0
 19 22  1  0
 22 23  1  0
 23 24  2  0
 23 28  1  0
 24 25  1  0
 25 26  2  0
 26 27  1  0
 27 28  2  0
 13 14  2  0
 13 18  1  0
 14 15  1  0
 15 16  2  0
 16 17  1  0
 17 18  2  0
M  END
>  <minimizedAffinity>  (52) 
-10.54740

$$$$
cs_full_output_folder/data/smiles/4953.pdb
     RDKit          3D

 29 32  0  0  0  0  0  0  0  0999 V2000
   70.8081   46.3090   58.3835 C   0  0  0  0  0  0  0  0  0  0  0  0
   69.9592   46.9669   57.4851 C   0  0  0  0  0  0  0  0  0  0  0  0
   69.9492   48.3330   57.2899 C   0  0  0  0  0  0  0  0  0  0  0  0
   70.8151   49.1205   58.0092 C   0  0  0  0  0  0  0  0  0  0  0  0
   71.6616   48.5024   58.8994 C   0  0  0  0  0  0  0  0  0  0  0  0
   71.6605   47.1096   59.0873 C   0  0  0  0  0  0  0  0  0  0  0  0
   72.5389   46.5769   59.9820 F   0  0  0  0  0  0  0  0  0  0  0  0
   71.6653   44.1294   58.0441 O   0  0  0  0  0  0  0  0  0  0  0  0
   70.7253   44.8660   58.5227 C   0  0  0  0  0  0  0  0  0  0  0  0
   69.6873   44.1642   59.1483 N   0  0  0  0  0  0  0  0  0  0  0  0
   69.7242   42.6832   59.2279 C   0  0  0  0  0  0  0  0  0  0  0  0
   68.9516   42.1421   58.0725 C   0  0  0  0  0  0  0  0  0  0  0  0
   68.8452   40.7893   57.8725 C   0  0  0  0  0  0  0  0  0  0  0  0
   68.1146   40.3487   56.7829 C   0  0  0  0  0  0  0  0  0  0  0  0
   67.5233   41.2178   55.9389 N   0  0  0  0  0  0  0  0  0  0  0  0
   67.6382   42.5409   56.1510 C   0  0  0  0  0  0  0  0  0  0  0  0
   68.3403   42.9586   57.1977 N   0  0  0  0  0  0  0  0  0  0  0  0
   68.9617   48.9218   56.3107 C   0  0  0  0  0  0  0  0  0  0  0  0
   69.3505   48.7591   54.9128 C   0  0  0  0  0  0  0  0  0  0  0  0
   70.2334   49.6608   54.3676 N   0  0  0  0  0  0  0  0  0  0  0  0
   70.6229   49.6281   53.1180 N   0  0  0  0  0  0  0  0  0  0  0  0
   70.1863   48.6993   52.2488 C   0  0  0  0  0  0  0  0  0  0  0  0
   70.5741   48.6903   51.0531 O   0  0  0  0  0  0  0  0  0  0  0  0
   69.2960   47.7428   52.6926 C   0  0  0  0  0  0  0  0  0  0  0  0
   68.8372   46.7697   51.8290 C   0  0  0  0  0  0  0  0  0  0  0  0
   67.9584   45.8174   52.2962 C   0  0  0  0  0  0  0  0  0  0  0  0
   67.5774   45.8884   53.6194 C   0  0  0  0  0  0  0  0  0  0  0  0
   68.0295   46.8585   54.4921 C   0  0  0  0  0  0  0  0  0  0  0  0
   68.8988   47.8035   54.0332 C   0  0  0  0  0  0  0  0  0  0  0  0
  8  9  2  0
  9 10  1  0
  9  1  1  0
 10 11  1  0
 11 12  1  0
 12 13  2  0
 12 17  1  0
 13 14  1  0
 14 15  2  0
 15 16  1  0
 16 17  2  0
  1  2  2  0
  1  6  1  0
  2  3  1  0
  3 18  1  0
  3  4  2  0
 18 19  1  0
 19 20  2  0
 19 29  1  0
 20 21  1  0
 21 22  1  0
 22 23  2  0
 22 24  1  0
 24 25  1  0
 24 29  2  0
 25 26  2  0
 26 27  1  0
 27 28  2  0
 28 29  1  0
  4  5  1  0
  5  6  2  0
  6  7  1  0
M  END
>  <minimizedAffinity>  (53) 
-10.28414

$$$$
cs_full_output_folder/data/smiles/9016.pdb
     RDKit          3D

 27 29  0  0  0  0  0  0  0  0999 V2000
   70.6775   46.4755   58.3263 C   0  0  0  0  0  0  0  0  0  0  0  0
   69.8583   47.0853   57.3643 C   0  0  0  0  0  0  0  0  0  0  0  0
   69.8660   48.4190   57.0874 C   0  0  0  0  0  0  0  0  0  0  0  0
   70.7485   49.2021   57.8172 C   0  0  0  0  0  0  0  0  0  0  0  0
   71.5770   48.6617   58.7768 C   0  0  0  0  0  0  0  0  0  0  0  0
   71.5289   47.2966   59.0190 C   0  0  0  0  0  0  0  0  0  0  0  0
   72.3442   46.7775   59.9477 F   0  0  0  0  0  0  0  0  0  0  0  0
   71.2464   44.0721   57.8130 N   0  0  0  0  0  0  0  0  0  0  0  0
   70.5323   45.0501   58.5092 C   0  0  0  0  0  0  0  0  0  0  0  0
   69.6904   44.6162   59.3738 O   0  0  0  0  0  0  0  0  0  0  0  0
   71.0463   42.6423   58.0362 C   0  0  0  0  0  0  0  0  0  0  0  0
   68.7312   41.7678   56.9753 C   0  0  0  0  0  0  0  0  0  0  0  0
   69.7904   42.1764   57.4620 C   0  0  0  0  0  0  0  0  0  0  0  0
   67.5417   40.3619   55.4781 N   0  0  0  0  0  0  0  0  0  0  0  0
   67.5097   41.2796   56.4021 C   0  0  0  0  0  0  0  0  0  0  0  0
   69.0007   49.0872   56.0962 C   0  0  0  0  0  0  0  0  0  0  0  0
   69.4051   48.8477   54.6913 C   0  0  0  0  0  0  0  0  0  0  0  0
   70.3168   49.6973   54.1203 N   0  0  0  0  0  0  0  0  0  0  0  0
   70.7015   49.5506   52.8718 N   0  0  0  0  0  0  0  0  0  0  0  0
   70.2389   48.5663   52.0588 C   0  0  0  0  0  0  0  0  0  0  0  0
   70.6417   48.4812   50.8897 O   0  0  0  0  0  0  0  0  0  0  0  0
   69.3125   47.6713   52.5761 C   0  0  0  0  0  0  0  0  0  0  0  0
   68.8239   46.6581   51.7630 C   0  0  0  0  0  0  0  0  0  0  0  0
   67.9093   45.7670   52.2581 C   0  0  0  0  0  0  0  0  0  0  0  0
   67.5064   45.9261   53.5848 C   0  0  0  0  0  0  0  0  0  0  0  0
   68.0048   46.9386   54.3712 C   0  0  0  0  0  0  0  0  0  0  0  0
   68.9265   47.8480   53.8879 C   0  0  0  0  0  0  0  0  0  0  0  0
 14 15  2  0
 15 12  1  0
 12 13  3  0
 13 11  1  0
 11  8  1  0
  8  9  1  0
  9 10  2  0
  9  1  1  0
  1  2  2  0
  1  6  1  0
  2  3  1  0
  3 16  1  0
  3  4  2  0
 16 17  1  0
 17 18  2  0
 17 27  1  0
 18 19  1  0
 19 20  1  0
 20 21  2  0
 20 22  1  0
 22 23  1  0
 22 27  2  0
 23 24  2  0
 24 25  1  0
 25 26  2  0
 26 27  1  0
  4  5  1  0
  5  6  2  0
  6  7  1  0
M  END
>  <minimizedAffinity>  (54) 
-10.14183

$$$$
cs_full_output_folder/data/smiles/6749.pdb
     RDKit          3D

 28 31  0  0  0  0  0  0  0  0999 V2000
   70.4354   45.1626   57.8232 C   0  0  0  0  0  0  0  0  0  0  0  0
   71.4821   45.5282   58.6320 C   0  0  0  0  0  0  0  0  0  0  0  0
   71.8446   46.8547   58.6676 C   0  0  0  0  0  0  0  0  0  0  0  0
   71.1731   47.8075   57.9065 C   0  0  0  0  0  0  0  0  0  0  0  0
   70.1310   47.4559   57.0995 C   0  0  0  0  0  0  0  0  0  0  0  0
   69.7851   46.1097   57.0817 C   0  0  0  0  0  0  0  0  0  0  0  0
   68.5924   42.0239   56.8667 C   0  0  0  0  0  0  0  0  0  0  0  0
   69.2650   41.0924   57.6669 C   0  0  0  0  0  0  0  0  0  0  0  0
   70.2938   41.4826   58.4958 C   0  0  0  0  0  0  0  0  0  0  0  0
   70.6832   42.8025   58.5552 C   0  0  0  0  0  0  0  0  0  0  0  0
   70.0491   43.7629   57.7831 C   0  0  0  0  0  0  0  0  0  0  0  0
   69.0129   43.3248   56.9585 C   0  0  0  0  0  0  0  0  0  0  0  0
   67.5932   40.4389   55.4799 O   0  0  0  0  0  0  0  0  0  0  0  0
   67.5218   41.5611   56.0164 C   0  0  0  0  0  0  0  0  0  0  0  0
   66.3923   42.3709   55.7857 N   0  0  0  0  0  0  0  0  0  0  0  0
   65.3919   41.9047   54.9731 F   0  0  0  0  0  0  0  0  0  0  0  0
   69.3958   48.4580   56.2967 C   0  0  0  0  0  0  0  0  0  0  0  0
   69.5993   48.3775   54.8728 C   0  0  0  0  0  0  0  0  0  0  0  0
   70.6688   49.0529   54.3498 N   0  0  0  0  0  0  0  0  0  0  0  0
   70.9823   49.0281   53.0688 N   0  0  0  0  0  0  0  0  0  0  0  0
   70.2427   48.3125   52.1784 C   0  0  0  0  0  0  0  0  0  0  0  0
   70.5236   48.2732   50.9532 O   0  0  0  0  0  0  0  0  0  0  0  0
   69.1578   47.6132   52.6384 C   0  0  0  0  0  0  0  0  0  0  0  0
   68.8573   47.6676   54.0105 C   0  0  0  0  0  0  0  0  0  0  0  0
   67.6663   46.9273   54.4147 C   0  0  0  0  0  0  0  0  0  0  0  0
   67.8850   45.4821   53.9435 C   0  0  0  0  0  0  0  0  0  0  0  0
   68.0661   45.4267   52.4478 C   0  0  0  0  0  0  0  0  0  0  0  0
   68.2633   46.7833   51.8094 C   0  0  0  0  0  0  0  0  0  0  0  0
 13 14  2  0
 14 15  1  0
 14  7  1  0
 15 16  1  0
  7  8  2  0
  7 12  1  0
  8  9  1  0
  9 10  2  0
 10 11  1  0
 11  1  1  0
 11 12  2  0
  1  2  2  0
  1  6  1  0
  2  3  1  0
  3  4  2  0
  4  5  1  0
  5 17  1  0
  5  6  2  0
 17 18  1  0
 18 19  2  0
 18 24  1  0
 19 20  1  0
 20 21  1  0
 21 22  2  0
 21 23  1  0
 23 24  2  0
 23 28  1  0
 24 25  1  0
 25 26  1  0
 26 27  1  0
 27 28  1  0
M  END
>  <minimizedAffinity>  (55) 
-10.10955

$$$$
cs_full_output_folder/data/smiles/9581.pdb
     RDKit          3D

 30 33  0  0  0  0  0  0  0  0999 V2000
   70.6407   45.3073   57.9335 C   0  0  0  0  0  0  0  0  0  0  0  0
   71.5390   45.9852   58.7102 C   0  0  0  0  0  0  0  0  0  0  0  0
   71.6179   47.3939   58.7114 C   0  0  0  0  0  0  0  0  0  0  0  0
   70.7667   48.0925   57.9067 C   0  0  0  0  0  0  0  0  0  0  0  0
   69.8235   47.4491   57.0852 C   0  0  0  0  0  0  0  0  0  0  0  0
   69.8034   46.0957   57.1359 C   0  0  0  0  0  0  0  0  0  0  0  0
   69.8072   43.0701   58.7836 C   0  0  0  0  0  0  0  0  0  0  0  0
   69.2575   43.6018   59.7786 O   0  0  0  0  0  0  0  0  0  0  0  0
   70.4871   43.9146   57.8830 N   0  0  0  0  0  0  0  0  0  0  0  0
   68.6586   41.1125   57.8859 C   0  0  0  0  0  0  0  0  0  0  0  0
   68.5259   39.7393   57.7026 C   0  0  0  0  0  0  0  0  0  0  0  0
   69.4439   38.8690   58.2433 C   0  0  0  0  0  0  0  0  0  0  0  0
   70.5012   39.3666   58.9719 C   0  0  0  0  0  0  0  0  0  0  0  0
   70.6167   40.7548   59.1448 C   0  0  0  0  0  0  0  0  0  0  0  0
   69.7155   41.6249   58.6153 C   0  0  0  0  0  0  0  0  0  0  0  0
   66.5669   42.1479   57.8755 O   0  0  0  0  0  0  0  0  0  0  0  0
   67.6566   41.9739   57.2840 C   0  0  0  0  0  0  0  0  0  0  0  0
   67.8922   42.6155   56.0478 O   0  0  0  0  0  0  0  0  0  0  0  0
   68.9043   48.2802   56.2553 C   0  0  0  0  0  0  0  0  0  0  0  0
   69.2582   48.3505   54.8428 C   0  0  0  0  0  0  0  0  0  0  0  0
   70.1611   49.3092   54.4467 N   0  0  0  0  0  0  0  0  0  0  0  0
   70.5740   49.4477   53.2162 N   0  0  0  0  0  0  0  0  0  0  0  0
   70.1494   48.6613   52.2294 C   0  0  0  0  0  0  0  0  0  0  0  0
   70.5336   48.7829   51.0576 O   0  0  0  0  0  0  0  0  0  0  0  0
   69.2282   47.6550   52.5243 C   0  0  0  0  0  0  0  0  0  0  0  0
   68.7474   46.8179   51.5515 C   0  0  0  0  0  0  0  0  0  0  0  0
   67.8300   45.8273   51.8339 C   0  0  0  0  0  0  0  0  0  0  0  0
   67.4223   45.7229   53.1533 C   0  0  0  0  0  0  0  0  0  0  0  0
   67.9070   46.5704   54.1499 C   0  0  0  0  0  0  0  0  0  0  0  0
   68.8107   47.5325   53.8312 C   0  0  0  0  0  0  0  0  0  0  0  0
 16 17  2  0
 17 18  1  0
 17 10  1  0
 10 11  2  0
 10 15  1  0
 11 12  1  0
 12 13  2  0
 13 14  1  0
 14 15  2  0
 15  7  1  0
  7  8  2  0
  7  9  1  0
  9  1  1  0
  1  2  2  0
  1  6  1  0
  2  3  1  0
  3  4  2  0
  4  5  1  0
  5 19  1  0
  5  6  2  0
 19 20  1  0
 20 21  2  0
 20 30  1  0
 21 22  1  0
 22 23  1  0
 23 24  2  0
 23 25  1  0
 25 26  1  0
 25 30  2  0
 26 27  2  0
 27 28  1  0
 28 29  2  0
 29 30  1  0
M  END
>  <minimizedAffinity>  (56) 
-10.08375

$$$$
cs_full_output_folder/data/smiles/4703.pdb
     RDKit          3D

 29 31  0  0  0  0  0  0  0  0999 V2000
   67.2614   42.1006   56.6702 C   0  0  0  0  0  0  0  0  0  0  0  0
   66.9840   41.6235   55.5290 O   0  0  0  0  0  0  0  0  0  0  0  0
   67.8234   43.4560   56.5676 N   0  0  0  0  0  0  0  0  0  0  0  0
   67.9716   44.0161   55.2966 N   0  0  0  0  0  0  0  0  0  0  0  0
   68.1789   45.4039   55.1415 C   0  0  0  0  0  0  0  0  0  0  0  0
   68.2212   46.0900   56.2085 O   0  0  0  0  0  0  0  0  0  0  0  0
   68.3396   46.0397   53.8302 C   0  0  0  0  0  0  0  0  0  0  0  0
   67.6866   45.5918   52.7072 C   0  0  0  0  0  0  0  0  0  0  0  0
   67.8527   46.2122   51.4600 C   0  0  0  0  0  0  0  0  0  0  0  0
   68.6744   47.2899   51.3223 C   0  0  0  0  0  0  0  0  0  0  0  0
   69.3315   47.7439   52.4444 C   0  0  0  0  0  0  0  0  0  0  0  0
   69.1751   47.1407   53.6719 C   0  0  0  0  0  0  0  0  0  0  0  0
   70.2033   48.8847   52.3051 N   0  0  0  0  0  0  0  0  0  0  0  0
   71.2772   48.9433   52.8881 O   0  0  0  0  0  0  0  0  0  0  0  0
   69.8375   49.9403   51.5026 O   0  0  0  0  0  0  0  0  0  0  0  0
   67.7542   40.6797   58.6563 C   0  0  0  0  0  0  0  0  0  0  0  0
   67.0826   41.4691   57.9177 C   0  0  0  0  0  0  0  0  0  0  0  0
   73.1792   37.0284   58.8503 C   0  0  0  0  0  0  0  0  0  0  0  0
   72.0592   36.2372   58.9989 C   0  0  0  0  0  0  0  0  0  0  0  0
   70.7832   36.7873   58.9718 C   0  0  0  0  0  0  0  0  0  0  0  0
   70.5832   38.1412   58.7973 C   0  0  0  0  0  0  0  0  0  0  0  0
   69.3054   38.6986   58.7718 C   0  0  0  0  0  0  0  0  0  0  0  0
   69.0416   40.0334   58.6047 C   0  0  0  0  0  0  0  0  0  0  0  0
   70.2119   40.8171   58.4544 C   0  0  0  0  0  0  0  0  0  0  0  0
   71.4693   40.2729   58.4785 C   0  0  0  0  0  0  0  0  0  0  0  0
   71.6894   38.9303   58.6504 C   0  0  0  0  0  0  0  0  0  0  0  0
   72.9579   38.3786   58.6771 C   0  0  0  0  0  0  0  0  0  0  0  0
   75.4017   36.7469   59.8666 C   0  0  0  0  0  0  0  0  0  0  0  0
   74.4643   36.4874   58.8758 O   0  0  0  0  0  0  0  0  0  0  0  0
 28 29  1  0
 29 18  1  0
 18 19  2  0
 18 27  1  0
 19 20  1  0
 20 21  2  0
 21 22  1  0
 21 26  1  0
 22 23  2  0
 23 16  1  0
 23 24  1  0
 16 17  2  0
 17  1  1  0
  1  2  2  0
  1  3  1  0
  3  4  1  0
  4  5  1  0
  5  6  2  0
  5  7  1  0
  7  8  2  0
  7 12  1  0
  8  9  1  0
  9 10  2  0
 10 11  1  0
 11 13  1  0
 11 12  2  0
 13 14  2  0
 13 15  1  0
 24 25  2  0
 25 26  1  0
 26 27  2  0
M  CHG  2  13   1  15  -1
M  END
>  <minimizedAffinity>  (57) 
-10.06604

$$$$
cs_full_output_folder/data/smiles/3901.pdb
     RDKit          3D

 29 32  0  0  0  0  0  0  0  0999 V2000
   70.8288   46.5834   58.5303 C   0  0  0  0  0  0  0  0  0  0  0  0
   69.9291   46.9901   57.5707 C   0  0  0  0  0  0  0  0  0  0  0  0
   69.7645   48.3366   57.2121 C   0  0  0  0  0  0  0  0  0  0  0  0
   70.5496   49.2342   57.8668 C   0  0  0  0  0  0  0  0  0  0  0  0
   71.4605   48.8528   58.8327 C   0  0  0  0  0  0  0  0  0  0  0  0
   71.6057   47.5082   59.1724 C   0  0  0  0  0  0  0  0  0  0  0  0
   72.5136   47.1957   60.1249 F   0  0  0  0  0  0  0  0  0  0  0  0
   71.0520   44.7558   60.0380 O   0  0  0  0  0  0  0  0  0  0  0  0
   70.9478   45.1779   58.8536 C   0  0  0  0  0  0  0  0  0  0  0  0
   70.9538   44.2113   57.8455 O   0  0  0  0  0  0  0  0  0  0  0  0
   70.5567   42.8928   58.1762 C   0  0  0  0  0  0  0  0  0  0  0  0
   69.3745   42.5229   57.3901 C   0  0  0  0  0  0  0  0  0  0  0  0
   68.8448   41.2736   57.4011 C   0  0  0  0  0  0  0  0  0  0  0  0
   67.7255   41.0303   56.6229 C   0  0  0  0  0  0  0  0  0  0  0  0
   67.1742   42.0362   55.8630 C   0  0  0  0  0  0  0  0  0  0  0  0
   67.7346   43.2789   55.8780 C   0  0  0  0  0  0  0  0  0  0  0  0
   68.8110   43.4913   56.6326 N   0  0  0  0  0  0  0  0  0  0  0  0
   68.7653   48.6852   56.1977 C   0  0  0  0  0  0  0  0  0  0  0  0
   69.2267   48.6091   54.8078 C   0  0  0  0  0  0  0  0  0  0  0  0
   70.1080   49.5517   54.3789 N   0  0  0  0  0  0  0  0  0  0  0  0
   70.5575   49.5954   53.1475 N   0  0  0  0  0  0  0  0  0  0  0  0
   70.1912   48.7229   52.2158 C   0  0  0  0  0  0  0  0  0  0  0  0
   70.5967   48.7312   51.0295 O   0  0  0  0  0  0  0  0  0  0  0  0
   69.2929   47.7247   52.5718 C   0  0  0  0  0  0  0  0  0  0  0  0
   68.8790   46.7818   51.6543 C   0  0  0  0  0  0  0  0  0  0  0  0
   67.9994   45.8091   52.0565 C   0  0  0  0  0  0  0  0  0  0  0  0
   67.5181   45.7485   53.3504 C   0  0  0  0  0  0  0  0  0  0  0  0
   67.9592   46.7149   54.2381 C   0  0  0  0  0  0  0  0  0  0  0  0
   68.8300   47.6961   53.8753 C   0  0  0  0  0  0  0  0  0  0  0  0
  8  9  2  0
  9 10  1  0
  9  1  1  0
 10 11  1  0
 11 12  1  0
 12 13  2  0
 12 17  1  0
 13 14  1  0
 14 15  2  0
 15 16  1  0
 16 17  2  0
  1  2  2  0
  1  6  1  0
  2  3  1  0
  3 18  1  0
  3  4  2  0
 18 19  1  0
 19 20  2  0
 19 29  1  0
 20 21  1  0
 21 22  1  0
 22 23  2  0
 22 24  1  0
 24 25  1  0
 24 29  2  0
 25 26  2  0
 26 27  1  0
 27 28  2  0
 28 29  1  0
  4  5  1  0
  5  6  2  0
  6  7  1  0
M  END
>  <minimizedAffinity>  (58) 
-10.06305

$$$$
cs_full_output_folder/data/smiles/105.pdb
     RDKit          3D

 27 28  0  0  0  0  0  0  0  0999 V2000
   67.8138   41.6810   58.4247 N   0  0  0  0  0  0  0  0  0  0  0  0
   67.8391   42.1726   57.0939 C   0  0  0  0  0  0  0  0  0  0  0  0
   67.5761   41.4254   56.1387 O   0  0  0  0  0  0  0  0  0  0  0  0
   68.1593   43.5259   56.7795 N   0  0  0  0  0  0  0  0  0  0  0  0
   68.1906   44.0304   55.4756 N   0  0  0  0  0  0  0  0  0  0  0  0
   68.2607   45.4146   55.1630 C   0  0  0  0  0  0  0  0  0  0  0  0
   68.2943   46.1931   56.1426 O   0  0  0  0  0  0  0  0  0  0  0  0
   68.2928   45.9430   53.8118 C   0  0  0  0  0  0  0  0  0  0  0  0
   67.5251   45.4454   52.7860 C   0  0  0  0  0  0  0  0  0  0  0  0
   67.6269   46.0244   51.5164 C   0  0  0  0  0  0  0  0  0  0  0  0
   68.4849   47.0808   51.2869 C   0  0  0  0  0  0  0  0  0  0  0  0
   69.2613   47.5915   52.3057 C   0  0  0  0  0  0  0  0  0  0  0  0
   69.1364   46.9978   53.5429 C   0  0  0  0  0  0  0  0  0  0  0  0
   70.1482   48.6725   52.1003 N   0  0  0  0  0  0  0  0  0  0  0  0
   71.1215   48.8552   52.8404 O   0  0  0  0  0  0  0  0  0  0  0  0
   69.9186   49.5287   51.0629 O   0  0  0  0  0  0  0  0  0  0  0  0
   67.4939   40.3148   58.7692 C   0  0  0  0  0  0  0  0  0  0  0  0
   70.8572   37.6319   58.8740 C   0  0  0  0  0  0  0  0  0  0  0  0
   70.9352   38.8097   58.1666 C   0  0  0  0  0  0  0  0  0  0  0  0
   69.8605   39.6677   58.1305 C   0  0  0  0  0  0  0  0  0  0  0  0
   68.6741   39.4191   58.7762 C   0  0  0  0  0  0  0  0  0  0  0  0
   68.6061   38.2226   59.4899 C   0  0  0  0  0  0  0  0  0  0  0  0
   69.6770   37.3557   59.5320 C   0  0  0  0  0  0  0  0  0  0  0  0
   73.0735   37.2095   59.8555 C   0  0  0  0  0  0  0  0  0  0  0  0
   71.9864   36.6607   58.9509 C   0  0  0  0  0  0  0  0  0  0  0  0
   72.5681   36.3647   57.5899 C   0  0  0  0  0  0  0  0  0  0  0  0
   71.5030   35.3572   59.5867 C   0  0  0  0  0  0  0  0  0  0  0  0
 24 25  1  0
 25 26  1  0
 25 27  1  0
 25 18  1  0
 18 19  2  0
 18 23  1  0
 19 20  1  0
 20 21  2  0
 21 17  1  0
 21 22  1  0
 17  1  1  0
  1  2  1  0
  2  3  2  0
  2  4  1  0
  4  5  1  0
  5  6  1  0
  6  7  2  0
  6  8  1  0
  8  9  2  0
  8 13  1  0
  9 10  1  0
 10 11  2  0
 11 12  1  0
 12 14  1  0
 12 13  2  0
 14 15  2  0
 14 16  1  0
 22 23  2  0
M  CHG  2  14   1  16  -1
M  END
>  <minimizedAffinity>  (59) 
-10.02319

$$$$
cs_full_output_folder/data/smiles/2499.pdb
     RDKit          3D

 26 27  0  0  0  0  0  0  0  0999 V2000
   70.0798   49.1585   52.5503 S   0  0  0  0  0  0  0  0  0  0  0  0
   71.4894   49.2449   53.0573 O   0  0  0  0  0  0  0  0  0  0  0  0
   70.1647   48.9488   51.0611 O   0  0  0  0  0  0  0  0  0  0  0  0
   69.2816   47.7602   53.2213 C   0  0  0  0  0  0  0  0  0  0  0  0
   69.3089   47.5840   54.5867 C   0  0  0  0  0  0  0  0  0  0  0  0
   69.9202   48.4354   55.4457 F   0  0  0  0  0  0  0  0  0  0  0  0
   68.6733   46.4725   55.0955 C   0  0  0  0  0  0  0  0  0  0  0  0
   68.6925   46.2849   56.4524 F   0  0  0  0  0  0  0  0  0  0  0  0
   68.0367   45.5779   54.2574 C   0  0  0  0  0  0  0  0  0  0  0  0
   67.4169   44.4922   54.7705 F   0  0  0  0  0  0  0  0  0  0  0  0
   68.0055   45.7482   52.8885 C   0  0  0  0  0  0  0  0  0  0  0  0
   67.3789   44.8662   52.0681 F   0  0  0  0  0  0  0  0  0  0  0  0
   68.6453   46.8654   52.3847 C   0  0  0  0  0  0  0  0  0  0  0  0
   68.6097   47.0251   51.0357 F   0  0  0  0  0  0  0  0  0  0  0  0
   69.2685   50.6161   52.9151 N   0  0  0  0  0  0  0  0  0  0  0  0
   71.3917   52.5798   55.3259 C   0  0  0  0  0  0  0  0  0  0  0  0
   70.9609   51.7180   54.3044 C   0  0  0  0  0  0  0  0  0  0  0  0
   69.6484   51.5104   53.9734 C   0  0  0  0  0  0  0  0  0  0  0  0
   68.6734   52.1810   54.6810 C   0  0  0  0  0  0  0  0  0  0  0  0
   69.0499   53.0307   55.6866 C   0  0  0  0  0  0  0  0  0  0  0  0
   70.4035   53.2250   56.0045 C   0  0  0  0  0  0  0  0  0  0  0  0
   70.6903   54.0671   57.0381 F   0  0  0  0  0  0  0  0  0  0  0  0
   75.1865   52.8280   55.0287 N   0  0  0  0  0  0  0  0  0  0  0  0
   73.8126   52.7524   54.6055 C   0  0  0  0  0  0  0  0  0  0  0  0
   73.5458   52.7777   53.3887 O   0  0  0  0  0  0  0  0  0  0  0  0
   72.7869   52.6519   55.5422 N   0  0  0  0  0  0  0  0  0  0  0  0
 23 24  1  0
 24 25  2  0
 24 26  1  0
 26 16  1  0
 16 17  2  0
 16 21  1  0
 17 18  1  0
 18 15  1  0
 18 19  2  0
 15  1  1  0
  1  2  2  0
  1  3  2  0
  1  4  1  0
  4  5  2  0
  4 13  1  0
  5  6  1  0
  5  7  1  0
  7  8  1  0
  7  9  2  0
  9 10  1  0
  9 11  1  0
 11 12  1  0
 11 13  2  0
 13 14  1  0
 19 20  1  0
 20 21  2  0
 21 22  1  0
M  END
>  <minimizedAffinity>  (60) 
-9.97903

$$$$
cs_full_output_folder/data/smiles/6858.pdb
     RDKit          3D

 26 28  0  0  0  0  0  0  0  0999 V2000
   68.2989   44.3960   55.8887 N   0  0  0  0  0  0  0  0  0  0  0  0
   68.9216   43.5941   56.8835 C   0  0  0  0  0  0  0  0  0  0  0  0
   69.7047   44.1327   57.6948 O   0  0  0  0  0  0  0  0  0  0  0  0
   68.6456   42.1551   56.9510 C   0  0  0  0  0  0  0  0  0  0  0  0
   67.7838   41.3728   56.2380 C   0  0  0  0  0  0  0  0  0  0  0  0
   67.8654   40.0907   56.7086 N   0  0  0  0  0  0  0  0  0  0  0  0
   68.7479   40.0223   57.7001 N   0  0  0  0  0  0  0  0  0  0  0  0
   69.2243   41.2790   57.8492 C   0  0  0  0  0  0  0  0  0  0  0  0
   70.1698   41.5956   58.7678 F   0  0  0  0  0  0  0  0  0  0  0  0
   69.1869   38.9106   58.4849 C   0  0  0  0  0  0  0  0  0  0  0  0
   70.4423   38.3714   58.3102 C   0  0  0  0  0  0  0  0  0  0  0  0
   70.9097   37.3318   59.1028 C   0  0  0  0  0  0  0  0  0  0  0  0
   70.1325   36.7872   60.1073 C   0  0  0  0  0  0  0  0  0  0  0  0
   68.8763   37.3345   60.2707 C   0  0  0  0  0  0  0  0  0  0  0  0
   68.3971   38.3767   59.4832 C   0  0  0  0  0  0  0  0  0  0  0  0
   68.4265   45.8065   55.6992 C   0  0  0  0  0  0  0  0  0  0  0  0
   69.2831   47.6418   52.4994 C   0  0  0  0  0  0  0  0  0  0  0  0
   68.5377   46.9445   51.5768 C   0  0  0  0  0  0  0  0  0  0  0  0
   67.7527   45.8752   51.9539 C   0  0  0  0  0  0  0  0  0  0  0  0
   67.7007   45.4772   53.2982 C   0  0  0  0  0  0  0  0  0  0  0  0
   68.4294   46.1521   54.2316 C   0  0  0  0  0  0  0  0  0  0  0  0
   69.2106   47.2301   53.7999 C   0  0  0  0  0  0  0  0  0  0  0  0
   70.1421   48.7860   52.1248 C   0  0  0  0  0  0  0  0  0  0  0  0
   70.4161   48.9377   50.9225 O   0  0  0  0  0  0  0  0  0  0  0  0
   71.7681   49.6556   53.5681 O   0  0  0  0  0  0  0  0  0  0  0  0
   70.6305   49.6749   53.1182 N   0  0  0  0  0  0  0  0  0  0  0  0
 25 26  2  0
 26 23  1  0
 23 24  2  0
 23 17  1  0
 17 18  2  0
 17 22  1  0
 18 19  1  0
 19 20  2  0
 20 21  1  0
 21 16  1  0
 21 22  2  0
 16  1  1  0
  1  2  1  0
  2  3  2  0
  2  4  1  0
  4  5  1  0
  4  8  2  0
  5  6  2  0
  6  7  1  0
  7 10  1  0
  7  8  1  0
 10 11  2  0
 10 15  1  0
 11 12  1  0
 12 13  2  0
 13 14  1  0
 14 15  2  0
  8  9  1  0
M  END
>  <minimizedAffinity>  (61) 
-9.94327

$$$$
cs_full_output_folder/data/smiles/53.pdb
     RDKit          3D

 26 28  0  0  0  0  0  0  0  0999 V2000
   73.7923   52.5869   54.6838 O   0  0  0  0  0  0  0  0  0  0  0  0
   73.1063   51.5384   54.6696 C   0  0  0  0  0  0  0  0  0  0  0  0
   73.8029   50.3107   54.6746 N   0  0  0  0  0  0  0  0  0  0  0  0
   75.1870   50.1848   54.6939 N   0  0  0  0  0  0  0  0  0  0  0  0
   75.9889   50.2581   55.8400 C   0  0  0  0  0  0  0  0  0  0  0  0
   75.3919   50.4532   56.9367 O   0  0  0  0  0  0  0  0  0  0  0  0
   77.4434   50.1252   55.8545 C   0  0  0  0  0  0  0  0  0  0  0  0
   78.2745   51.0462   56.4560 C   0  0  0  0  0  0  0  0  0  0  0  0
   79.6634   50.8750   56.4437 C   0  0  0  0  0  0  0  0  0  0  0  0
   80.2504   49.7871   55.8342 C   0  0  0  0  0  0  0  0  0  0  0  0
   81.6020   49.6280   55.8273 F   0  0  0  0  0  0  0  0  0  0  0  0
   79.4170   48.8677   55.2340 C   0  0  0  0  0  0  0  0  0  0  0  0
   78.0495   49.0444   55.2507 C   0  0  0  0  0  0  0  0  0  0  0  0
   71.6344   51.6654   54.6492 C   0  0  0  0  0  0  0  0  0  0  0  0
   71.0149   50.5035   55.3855 C   0  0  0  0  0  0  0  0  0  0  0  0
   70.4054   49.5421   54.4360 C   0  0  0  0  0  0  0  0  0  0  0  0
   69.5899   48.5477   54.8033 N   0  0  0  0  0  0  0  0  0  0  0  0
   69.0312   47.6697   53.9614 C   0  0  0  0  0  0  0  0  0  0  0  0
   68.1943   46.6564   54.3733 C   0  0  0  0  0  0  0  0  0  0  0  0
   67.6222   45.7560   53.5038 C   0  0  0  0  0  0  0  0  0  0  0  0
   67.8991   45.8744   52.1529 C   0  0  0  0  0  0  0  0  0  0  0  0
   68.7394   46.8913   51.7349 C   0  0  0  0  0  0  0  0  0  0  0  0
   69.3076   47.7888   52.6159 C   0  0  0  0  0  0  0  0  0  0  0  0
   70.1494   48.8077   52.2035 C   0  0  0  0  0  0  0  0  0  0  0  0
   70.3798   48.8884   50.9797 O   0  0  0  0  0  0  0  0  0  0  0  0
   70.6700   49.6483   53.1148 N   0  0  0  0  0  0  0  0  0  0  0  0
  1  2  2  0
  2 14  1  0
  2  3  1  0
 14 15  1  0
 15 16  1  0
 16 17  2  0
 16 26  1  0
 17 18  1  0
 18 19  2  0
 18 23  1  0
 19 20  1  0
 20 21  2  0
 21 22  1  0
 22 23  2  0
 23 24  1  0
 24 25  2  0
 24 26  1  0
  3  4  1  0
  4  5  1  0
  5  6  2  0
  5  7  1  0
  7  8  2  0
  7 13  1  0
  8  9  1  0
  9 10  2  0
 10 11  1  0
 10 12  1  0
 12 13  2  0
M  END
>  <minimizedAffinity>  (62) 
-9.94250

$$$$
cs_full_output_folder/data/smiles/959.pdb
     RDKit          3D

 26 28  0  0  0  0  0  0  0  0999 V2000
   69.9881   39.4767   58.7751 C   0  0  0  0  0  0  0  0  0  0  0  0
   70.5699   40.7665   58.7603 C   0  0  0  0  0  0  0  0  0  0  0  0
   70.0374   41.7828   58.0130 C   0  0  0  0  0  0  0  0  0  0  0  0
   68.9164   41.6340   57.2332 C   0  0  0  0  0  0  0  0  0  0  0  0
   68.3272   40.3964   57.2238 C   0  0  0  0  0  0  0  0  0  0  0  0
   68.8716   39.3537   57.9880 C   0  0  0  0  0  0  0  0  0  0  0  0
   67.1984   40.4695   56.3615 N   0  0  0  0  0  0  0  0  0  0  0  0
   67.0802   41.7803   55.8207 C   0  0  0  0  0  0  0  0  0  0  0  0
   66.2177   42.2330   55.0239 O   0  0  0  0  0  0  0  0  0  0  0  0
   68.1771   42.5488   56.3688 C   0  0  0  0  0  0  0  0  0  0  0  0
   68.4126   43.7879   56.1146 N   0  0  0  0  0  0  0  0  0  0  0  0
   71.4382   37.5470   59.2416 C   0  0  0  0  0  0  0  0  0  0  0  0
   70.6157   38.4517   59.5535 C   0  0  0  0  0  0  0  0  0  0  0  0
   72.2598   35.5341   58.0763 C   0  0  0  0  0  0  0  0  0  0  0  0
   72.1412   37.0734   58.0544 C   0  0  0  0  0  0  0  0  0  0  0  0
   67.6074   44.5415   55.2566 N   0  0  0  0  0  0  0  0  0  0  0  0
   68.1886   45.6941   54.6668 C   0  0  0  0  0  0  0  0  0  0  0  0
   68.7533   46.6953   55.4293 C   0  0  0  0  0  0  0  0  0  0  0  0
   69.3223   47.8249   54.8500 C   0  0  0  0  0  0  0  0  0  0  0  0
   69.3294   47.9627   53.4693 C   0  0  0  0  0  0  0  0  0  0  0  0
   68.7705   46.9749   52.7007 C   0  0  0  0  0  0  0  0  0  0  0  0
   68.2177   45.8746   53.3006 C   0  0  0  0  0  0  0  0  0  0  0  0
   70.0486   49.3919   52.7321 S   0  0  0  0  0  0  0  0  0  0  0  0
   69.2312   50.8044   53.2958 N   0  0  0  0  0  0  0  0  0  0  0  0
   71.4911   49.4359   53.1682 O   0  0  0  0  0  0  0  0  0  0  0  0
   69.9561   49.2611   51.2393 O   0  0  0  0  0  0  0  0  0  0  0  0
 14 15  1  0
 15 12  1  0
 12 13  2  0
 13  1  1  0
  1  2  2  0
  1  6  1  0
  2  3  1  0
  3  4  2  0
  4  5  1  0
  4 10  1  0
  5  6  2  0
  5  7  1  0
  7  8  1  0
  8  9  2  0
  8 10  1  0
 10 11  2  0
 11 16  1  0
 16 17  1  0
 17 18  2  0
 17 22  1  0
 18 19  1  0
 19 20  2  0
 20 23  1  0
 20 21  1  0
 23 24  1  0
 23 25  2  0
 23 26  2  0
 21 22  2  0
M  END
>  <minimizedAffinity>  (63) 
-9.89845

$$$$
cs_full_output_folder/data/smiles/2083.pdb
     RDKit          3D

 26 27  0  0  0  0  0  0  0  0999 V2000
   69.9296   49.2575   52.5870 S   0  0  0  0  0  0  0  0  0  0  0  0
   71.3703   49.2232   53.0543 O   0  0  0  0  0  0  0  0  0  0  0  0
   69.9305   49.2393   51.0539 O   0  0  0  0  0  0  0  0  0  0  0  0
   69.1880   47.8045   53.1774 C   0  0  0  0  0  0  0  0  0  0  0  0
   68.5475   46.8982   52.3475 C   0  0  0  0  0  0  0  0  0  0  0  0
   68.4951   47.1500   51.0197 F   0  0  0  0  0  0  0  0  0  0  0  0
   67.9964   45.7827   52.9166 C   0  0  0  0  0  0  0  0  0  0  0  0
   67.3627   44.8815   52.1047 F   0  0  0  0  0  0  0  0  0  0  0  0
   68.0736   45.5656   54.2721 C   0  0  0  0  0  0  0  0  0  0  0  0
   67.5236   44.4532   54.8396 F   0  0  0  0  0  0  0  0  0  0  0  0
   68.7082   46.4648   55.0974 C   0  0  0  0  0  0  0  0  0  0  0  0
   68.7836   46.2491   56.4407 F   0  0  0  0  0  0  0  0  0  0  0  0
   69.2692   47.5888   54.5574 C   0  0  0  0  0  0  0  0  0  0  0  0
   69.9004   48.4844   55.3731 F   0  0  0  0  0  0  0  0  0  0  0  0
   69.1161   50.6353   53.1722 N   0  0  0  0  0  0  0  0  0  0  0  0
   71.5384   52.6610   55.2076 C   0  0  0  0  0  0  0  0  0  0  0  0
   70.5933   53.2036   56.0443 C   0  0  0  0  0  0  0  0  0  0  0  0
   69.2285   52.9408   55.9582 C   0  0  0  0  0  0  0  0  0  0  0  0
   68.7771   52.0990   54.9941 C   0  0  0  0  0  0  0  0  0  0  0  0
   69.6879   51.5118   54.1094 C   0  0  0  0  0  0  0  0  0  0  0  0
   71.0113   51.7922   54.2243 C   0  0  0  0  0  0  0  0  0  0  0  0
   73.3677   54.2938   55.4526 C   0  0  0  0  0  0  0  0  0  0  0  0
   72.9245   52.8902   55.2551 N   0  0  0  0  0  0  0  0  0  0  0  0
   73.9267   51.9546   55.1395 C   0  0  0  0  0  0  0  0  0  0  0  0
   73.7069   50.5811   54.9400 N   0  0  0  0  0  0  0  0  0  0  0  0
   75.1622   52.3615   55.2199 O   0  0  0  0  0  0  0  0  0  0  0  0
 22 23  1  0
 23 24  1  0
 23 16  1  0
 24 25  1  0
 24 26  2  0
 16 17  2  0
 16 21  1  0
 17 18  1  0
 18 19  2  0
 19 20  1  0
 20 15  1  0
 20 21  2  0
 15  1  1  0
  1  2  2  0
  1  3  2  0
  1  4  1  0
  4  5  2  0
  4 13  1  0
  5  6  1  0
  5  7  1  0
  7  8  1  0
  7  9  2  0
  9 10  1  0
  9 11  1  0
 11 12  1  0
 11 13  2  0
 13 14  1  0
M  END
>  <minimizedAffinity>  (64) 
-9.89820

$$$$
cs_full_output_folder/data/smiles/1438.pdb
     RDKit          3D

 26 27  0  0  0  0  0  0  0  0999 V2000
   67.7497   41.2752   55.8154 O   0  0  0  0  0  0  0  0  0  0  0  0
   67.7572   42.0478   56.7757 C   0  0  0  0  0  0  0  0  0  0  0  0
   67.8955   43.4167   56.6313 N   0  0  0  0  0  0  0  0  0  0  0  0
   68.0403   44.1337   55.4811 N   0  0  0  0  0  0  0  0  0  0  0  0
   68.2344   45.4993   55.2503 C   0  0  0  0  0  0  0  0  0  0  0  0
   68.2993   46.2698   56.2197 O   0  0  0  0  0  0  0  0  0  0  0  0
   68.3713   46.0907   53.8917 C   0  0  0  0  0  0  0  0  0  0  0  0
   67.6044   45.5609   52.8689 C   0  0  0  0  0  0  0  0  0  0  0  0
   67.6904   46.0681   51.5932 C   0  0  0  0  0  0  0  0  0  0  0  0
   68.5340   47.1103   51.2847 C   0  0  0  0  0  0  0  0  0  0  0  0
   69.2999   47.6404   52.3024 C   0  0  0  0  0  0  0  0  0  0  0  0
   69.1997   47.1142   53.5889 C   0  0  0  0  0  0  0  0  0  0  0  0
   70.1827   48.7187   52.0188 N   0  0  0  0  0  0  0  0  0  0  0  0
   69.9761   49.4054   51.0073 O   0  0  0  0  0  0  0  0  0  0  0  0
   71.2516   49.0327   52.8141 O   0  0  0  0  0  0  0  0  0  0  0  0
   67.6071   41.4581   58.1636 C   0  0  0  0  0  0  0  0  0  0  0  0
   68.5659   40.3551   58.3710 C   0  0  0  0  0  0  0  0  0  0  0  0
   69.9227   40.5689   58.2568 C   0  0  0  0  0  0  0  0  0  0  0  0
   70.7647   39.4994   58.4621 C   0  0  0  0  0  0  0  0  0  0  0  0
   70.3426   38.2241   58.7738 C   0  0  0  0  0  0  0  0  0  0  0  0
   68.9685   38.0473   58.8801 C   0  0  0  0  0  0  0  0  0  0  0  0
   68.1066   39.0949   58.6817 C   0  0  0  0  0  0  0  0  0  0  0  0
   71.2806   37.0881   58.9887 C   0  0  0  0  0  0  0  0  0  0  0  0
   72.2033   37.5148   59.9424 F   0  0  0  0  0  0  0  0  0  0  0  0
   70.6369   35.9727   59.4558 F   0  0  0  0  0  0  0  0  0  0  0  0
   72.0136   36.8165   57.8465 F   0  0  0  0  0  0  0  0  0  0  0  0
  1  2  2  0
  2 16  1  0
  2  3  1  0
 16 17  1  0
 17 18  2  0
 17 22  1  0
 18 19  1  0
 19 20  2  0
 20 23  1  0
 20 21  1  0
 23 24  1  0
 23 25  1  0
 23 26  1  0
 21 22  2  0
  3  4  1  0
  4  5  1  0
  5  6  2  0
  5  7  1  0
  7  8  2  0
  7 12  1  0
  8  9  1  0
  9 10  2  0
 10 11  1  0
 11 13  1  0
 11 12  2  0
 13 14  2  0
 13 15  1  0
M  CHG  2  13   1  15  -1
M  END
>  <minimizedAffinity>  (65) 
-9.88517

$$$$
cs_full_output_folder/data/smiles/163.pdb
     RDKit          3D

 27 28  0  0  0  0  0  0  0  0999 V2000
   68.7672   42.5175   57.2786 C   0  0  0  0  0  0  0  0  0  0  0  0
   69.7345   42.3618   56.5021 O   0  0  0  0  0  0  0  0  0  0  0  0
   67.7751   43.3998   56.6950 N   0  0  0  0  0  0  0  0  0  0  0  0
   67.9271   43.9709   55.4309 N   0  0  0  0  0  0  0  0  0  0  0  0
   68.1343   45.3500   55.2129 C   0  0  0  0  0  0  0  0  0  0  0  0
   68.1822   46.0889   56.2208 O   0  0  0  0  0  0  0  0  0  0  0  0
   68.2930   45.9444   53.8898 C   0  0  0  0  0  0  0  0  0  0  0  0
   67.5904   45.4455   52.8106 C   0  0  0  0  0  0  0  0  0  0  0  0
   67.7093   45.9767   51.5409 C   0  0  0  0  0  0  0  0  0  0  0  0
   68.5550   47.0461   51.3149 C   0  0  0  0  0  0  0  0  0  0  0  0
   69.2753   47.5729   52.3740 C   0  0  0  0  0  0  0  0  0  0  0  0
   69.1259   47.0096   53.6303 C   0  0  0  0  0  0  0  0  0  0  0  0
   70.1466   48.6755   52.1417 N   0  0  0  0  0  0  0  0  0  0  0  0
   69.9121   49.4726   51.2136 O   0  0  0  0  0  0  0  0  0  0  0  0
   71.2348   48.8775   52.9169 O   0  0  0  0  0  0  0  0  0  0  0  0
   68.9453   40.9502   59.2203 C   0  0  0  0  0  0  0  0  0  0  0  0
   68.5371   41.9754   58.5747 C   0  0  0  0  0  0  0  0  0  0  0  0
   71.4236   37.5168   58.7678 C   0  0  0  0  0  0  0  0  0  0  0  0
   70.1951   37.4318   59.3637 C   0  0  0  0  0  0  0  0  0  0  0  0
   69.4324   38.5550   59.4738 C   0  0  0  0  0  0  0  0  0  0  0  0
   69.8247   39.8336   59.0070 C   0  0  0  0  0  0  0  0  0  0  0  0
   71.0631   39.8731   58.4182 C   0  0  0  0  0  0  0  0  0  0  0  0
   71.8334   38.7452   58.3047 C   0  0  0  0  0  0  0  0  0  0  0  0
   72.7325   36.1849   57.1755 C   0  0  0  0  0  0  0  0  0  0  0  0
   72.3006   36.3173   58.6213 C   0  0  0  0  0  0  0  0  0  0  0  0
   71.5667   35.0516   59.0105 C   0  0  0  0  0  0  0  0  0  0  0  0
   73.5361   36.5001   59.4785 C   0  0  0  0  0  0  0  0  0  0  0  0
 24 25  1  0
 25 26  1  0
 25 27  1  0
 25 18  1  0
 18 19  2  0
 18 23  1  0
 19 20  1  0
 20 21  2  0
 21 16  1  0
 21 22  1  0
 16 17  2  0
 17  1  1  0
  1  2  2  0
  1  3  1  0
  3  4  1  0
  4  5  1  0
  5  6  2  0
  5  7  1  0
  7  8  2  0
  7 12  1  0
  8  9  1  0
  9 10  2  0
 10 11  1  0
 11 13  1  0
 11 12  2  0
 13 14  2  0
 13 15  1  0
 22 23  2  0
M  CHG  2  13   1  15  -1
M  END
>  <minimizedAffinity>  (66) 
-9.87736

$$$$
cs_full_output_folder/data/smiles/50.pdb
     RDKit          3D

 27 30  0  0  0  0  0  0  0  0999 V2000
   70.0432   48.2428   57.1245 C   0  0  0  0  0  0  0  0  0  0  0  0
   71.2504   48.7582   57.5365 C   0  0  0  0  0  0  0  0  0  0  0  0
   72.0515   48.0384   58.3934 C   0  0  0  0  0  0  0  0  0  0  0  0
   71.6467   46.8001   58.8425 C   0  0  0  0  0  0  0  0  0  0  0  0
   70.4117   46.2276   58.4469 C   0  0  0  0  0  0  0  0  0  0  0  0
   69.6802   47.0008   57.5994 C   0  0  0  0  0  0  0  0  0  0  0  0
   69.1638   49.0111   56.1757 C   0  0  0  0  0  0  0  0  0  0  0  0
   70.5561   48.6707   50.9191 O   0  0  0  0  0  0  0  0  0  0  0  0
   70.2004   48.6960   52.1276 C   0  0  0  0  0  0  0  0  0  0  0  0
   70.6375   49.6667   52.9158 N   0  0  0  0  0  0  0  0  0  0  0  0
   70.2785   49.7046   54.1603 N   0  0  0  0  0  0  0  0  0  0  0  0
   69.4538   48.7985   54.7674 C   0  0  0  0  0  0  0  0  0  0  0  0
   68.9916   47.7858   53.9681 C   0  0  0  0  0  0  0  0  0  0  0  0
   69.3648   47.7266   52.6291 C   0  0  0  0  0  0  0  0  0  0  0  0
   68.9123   46.6631   51.7092 C   0  0  0  0  0  0  0  0  0  0  0  0
   67.6455   46.0655   52.2733 C   0  0  0  0  0  0  0  0  0  0  0  0
   68.0073   45.5313   53.6550 C   0  0  0  0  0  0  0  0  0  0  0  0
   68.0984   46.7690   54.5616 C   0  0  0  0  0  0  0  0  0  0  0  0
   70.1127   44.9633   58.9823 N   0  0  0  0  0  0  0  0  0  0  0  0
   70.3473   43.4228   58.3815 S   0  0  0  0  0  0  0  0  0  0  0  0
   70.5615   42.4304   59.5225 O   0  0  0  0  0  0  0  0  0  0  0  0
   71.6907   43.3854   57.6399 O   0  0  0  0  0  0  0  0  0  0  0  0
   69.1083   42.7192   57.3990 C   0  0  0  0  0  0  0  0  0  0  0  0
   68.7092   41.4202   57.2775 C   0  0  0  0  0  0  0  0  0  0  0  0
   67.6870   41.3753   56.3603 C   0  0  0  0  0  0  0  0  0  0  0  0
   67.5191   42.6775   55.9667 C   0  0  0  0  0  0  0  0  0  0  0  0
   68.3555   43.4360   56.5856 O   0  0  0  0  0  0  0  0  0  0  0  0
  8  9  2  0
  9 10  1  0
  9 14  1  0
 10 11  1  0
 11 12  2  0
 12  7  1  0
 12 13  1  0
  7  1  1  0
  1  2  2  0
  1  6  1  0
  2  3  1  0
  3  4  2  0
  4  5  1  0
  5 19  1  0
  5  6  2  0
 19 20  1  0
 20 21  2  0
 20 22  2  0
 20 23  1  0
 23 24  2  0
 23 27  1  0
 24 25  1  0
 25 26  2  0
 26 27  1  0
 13 14  2  0
 13 18  1  0
 14 15  1  0
 15 16  1  0
 16 17  1  0
 17 18  1  0
M  END
>  <minimizedAffinity>  (67) 
-9.87049

$$$$
cs_full_output_folder/data/smiles/3408.pdb
     RDKit          3D

 27 29  0  0  0  0  0  0  0  0999 V2000
   69.1921   47.9071   52.9823 C   0  0  0  0  0  0  0  0  0  0  0  0
   68.6426   47.4584   51.8013 C   0  0  0  0  0  0  0  0  0  0  0  0
   67.9688   46.2540   51.7998 C   0  0  0  0  0  0  0  0  0  0  0  0
   67.8585   45.5272   52.9710 C   0  0  0  0  0  0  0  0  0  0  0  0
   68.4000   45.9552   54.1629 C   0  0  0  0  0  0  0  0  0  0  0  0
   69.0649   47.1454   54.1640 C   0  0  0  0  0  0  0  0  0  0  0  0
   70.0366   49.4119   52.9938 S   0  0  0  0  0  0  0  0  0  0  0  0
   71.5258   49.1205   52.8832 O   0  0  0  0  0  0  0  0  0  0  0  0
   69.6939   50.2876   51.8235 O   0  0  0  0  0  0  0  0  0  0  0  0
   68.7849   52.2958   56.6345 C   0  0  0  0  0  0  0  0  0  0  0  0
   69.2322   52.5154   55.2048 C   0  0  1  0  0  0  0  0  0  0  0  0
   70.7289   52.4672   55.0738 C   0  0  0  0  0  0  0  0  0  0  0  0
   71.0572   50.9802   54.9751 C   0  0  0  0  0  0  0  0  0  0  0  0
   69.8025   50.3252   54.4883 C   0  0  1  0  0  0  0  0  0  0  0  0
   68.7639   51.4094   54.3120 C   0  0  0  0  0  0  0  0  0  0  0  0
   68.2554   45.1494   55.3708 C   0  0  0  0  0  0  0  0  0  0  0  0
   68.5271   45.6965   56.4761 O   0  0  0  0  0  0  0  0  0  0  0  0
   67.8389   43.8085   55.4207 N   0  0  0  0  0  0  0  0  0  0  0  0
   67.6646   42.9545   56.4637 N   0  0  0  0  0  0  0  0  0  0  0  0
   67.4903   41.5681   56.5340 C   0  0  0  0  0  0  0  0  0  0  0  0
   67.4788   40.9039   55.4901 O   0  0  0  0  0  0  0  0  0  0  0  0
   67.3162   40.8334   57.7975 C   0  0  0  0  0  0  0  0  0  0  0  0
   67.9535   39.6370   58.0318 C   0  0  0  0  0  0  0  0  0  0  0  0
   67.8007   38.9334   59.2128 C   0  0  0  0  0  0  0  0  0  0  0  0
   66.9708   39.4520   60.2085 C   0  0  0  0  0  0  0  0  0  0  0  0
   66.3493   40.6443   59.9485 C   0  0  0  0  0  0  0  0  0  0  0  0
   66.5238   41.3070   58.7753 N   0  0  0  0  0  0  0  0  0  0  0  0
 11 10  1  1
 11 12  1  0
 11 15  1  0
 12 13  1  0
 13 14  1  0
 14  7  1  6
 14 15  1  0
  7  8  2  0
  7  9  2  0
  7  1  1  0
  1  2  2  0
  1  6  1  0
  2  3  1  0
  3  4  2  0
  4  5  1  0
  5 16  1  0
  5  6  2  0
 16 17  2  0
 16 18  1  0
 18 19  1  0
 19 20  1  0
 20 21  2  0
 20 22  1  0
 22 23  2  0
 22 27  1  0
 23 24  1  0
 24 25  2  0
 25 26  1  0
 26 27  2  0
M  END
>  <minimizedAffinity>  (68) 
-9.84866

$$$$
cs_full_output_folder/data/smiles/192.pdb
     RDKit          3D

 26 28  0  0  0  0  0  0  0  0999 V2000
   70.2470   39.4428   58.9219 C   0  0  0  0  0  0  0  0  0  0  0  0
   70.8424   40.6870   58.9487 C   0  0  0  0  0  0  0  0  0  0  0  0
   70.2939   41.7398   58.2209 C   0  0  0  0  0  0  0  0  0  0  0  0
   69.1548   41.5894   57.4574 C   0  0  0  0  0  0  0  0  0  0  0  0
   68.5636   40.3423   57.4337 C   0  0  0  0  0  0  0  0  0  0  0  0
   69.0980   39.2917   58.1517 C   0  0  0  0  0  0  0  0  0  0  0  0
   67.4192   40.4290   56.5908 N   0  0  0  0  0  0  0  0  0  0  0  0
   67.2959   41.7568   56.0787 C   0  0  0  0  0  0  0  0  0  0  0  0
   66.4185   42.2254   55.3032 O   0  0  0  0  0  0  0  0  0  0  0  0
   68.3963   42.5153   56.6202 C   0  0  0  0  0  0  0  0  0  0  0  0
   68.6360   43.7723   56.3894 N   0  0  0  0  0  0  0  0  0  0  0  0
   70.8279   38.3351   59.6899 C   0  0  0  0  0  0  0  0  0  0  0  0
   71.1600   35.8673   59.7659 C   0  0  0  0  0  0  0  0  0  0  0  0
   71.0023   37.0788   58.8735 C   0  0  0  0  0  0  0  0  0  0  0  0
   72.3053   37.2224   58.1112 C   0  0  0  0  0  0  0  0  0  0  0  0
   67.7861   44.5036   55.5497 N   0  0  0  0  0  0  0  0  0  0  0  0
   68.3043   45.6753   54.9125 C   0  0  0  0  0  0  0  0  0  0  0  0
   68.2543   45.8190   53.5415 C   0  0  0  0  0  0  0  0  0  0  0  0
   68.7589   46.9599   52.9324 C   0  0  0  0  0  0  0  0  0  0  0  0
   69.3254   47.9836   53.6571 C   0  0  0  0  0  0  0  0  0  0  0  0
   69.3769   47.8433   55.0279 C   0  0  0  0  0  0  0  0  0  0  0  0
   68.8712   46.7021   55.6390 C   0  0  0  0  0  0  0  0  0  0  0  0
   69.9621   49.4220   52.8859 S   0  0  0  0  0  0  0  0  0  0  0  0
   69.8866   49.2681   51.1750 N   0  0  0  0  0  0  0  0  0  0  0  0
   71.3900   49.5769   53.3026 O   0  0  0  0  0  0  0  0  0  0  0  0
   69.2069   50.6515   53.2767 O   0  0  0  0  0  0  0  0  0  0  0  0
 13 14  1  0
 14 15  1  0
 14 12  1  0
 12  1  1  0
  1  2  2  0
  1  6  1  0
  2  3  1  0
  3  4  2  0
  4  5  1  0
  4 10  1  0
  5  6  2  0
  5  7  1  0
  7  8  1  0
  8  9  2  0
  8 10  1  0
 10 11  2  0
 11 16  1  0
 16 17  1  0
 17 18  2  0
 17 22  1  0
 18 19  1  0
 19 20  2  0
 20 23  1  0
 20 21  1  0
 23 24  1  0
 23 25  2  0
 23 26  2  0
 21 22  2  0
M  END
>  <minimizedAffinity>  (69) 
-9.84639

$$$$
cs_full_output_folder/data/smiles/4173.pdb
     RDKit          3D

 29 32  0  0  0  0  0  0  0  0999 V2000
   70.9743   46.7659   58.2824 C   0  0  0  0  0  0  0  0  0  0  0  0
   70.0341   47.3651   57.4224 C   0  0  0  0  0  0  0  0  0  0  0  0
   70.0511   48.7071   57.1227 C   0  0  0  0  0  0  0  0  0  0  0  0
   71.0228   49.4782   57.6858 C   0  0  0  0  0  0  0  0  0  0  0  0
   71.9788   48.9452   58.5435 C   0  0  0  0  0  0  0  0  0  0  0  0
   71.9235   47.5818   58.8190 C   0  0  0  0  0  0  0  0  0  0  0  0
   72.8667   47.1031   59.6548 F   0  0  0  0  0  0  0  0  0  0  0  0
   70.8888   45.0138   59.8127 O   0  0  0  0  0  0  0  0  0  0  0  0
   70.9078   45.3523   58.5609 C   0  0  0  0  0  0  0  0  0  0  0  0
   70.8590   44.2835   57.6545 N   0  0  0  0  0  0  0  0  0  0  0  0
   70.7966   42.8724   58.0211 C   0  0  0  0  0  0  0  0  0  0  0  0
   69.5687   42.2790   57.4386 C   0  0  0  0  0  0  0  0  0  0  0  0
   69.1569   40.9796   57.6248 C   0  0  0  0  0  0  0  0  0  0  0  0
   67.9921   40.4690   57.0359 C   0  0  0  0  0  0  0  0  0  0  0  0
   67.2095   41.2659   56.2397 C   0  0  0  0  0  0  0  0  0  0  0  0
   67.6163   42.5656   56.0502 C   0  0  0  0  0  0  0  0  0  0  0  0
   68.7578   43.0747   56.6230 C   0  0  0  0  0  0  0  0  0  0  0  0
   69.0445   49.2446   56.1910 C   0  0  0  0  0  0  0  0  0  0  0  0
   69.3632   49.0483   54.7696 C   0  0  0  0  0  0  0  0  0  0  0  0
   70.1665   49.9542   54.1449 N   0  0  0  0  0  0  0  0  0  0  0  0
   70.5465   49.8563   52.9051 N   0  0  0  0  0  0  0  0  0  0  0  0
   70.1356   48.7955   52.1570 C   0  0  0  0  0  0  0  0  0  0  0  0
   70.5007   48.6926   50.9559 O   0  0  0  0  0  0  0  0  0  0  0  0
   69.3220   47.8246   52.6926 C   0  0  0  0  0  0  0  0  0  0  0  0
   68.9183   46.7776   51.9083 C   0  0  0  0  0  0  0  0  0  0  0  0
   68.0912   45.8194   52.4552 C   0  0  0  0  0  0  0  0  0  0  0  0
   67.7011   45.9579   53.7826 C   0  0  0  0  0  0  0  0  0  0  0  0
   68.1210   47.0218   54.5534 C   0  0  0  0  0  0  0  0  0  0  0  0
   68.9419   47.9811   54.0329 C   0  0  0  0  0  0  0  0  0  0  0  0
  8  9  2  0
  9 10  1  0
  9  1  1  0
 10 11  1  0
 11 12  1  0
 12 13  2  0
 12 17  1  0
 13 14  1  0
 14 15  2  0
 15 16  1  0
 16 17  2  0
  1  2  2  0
  1  6  1  0
  2  3  1  0
  3 18  1  0
  3  4  2  0
 18 19  1  0
 19 20  2  0
 19 29  1  0
 20 21  1  0
 21 22  1  0
 22 23  2  0
 22 24  1  0
 24 25  1  0
 24 29  2  0
 25 26  2  0
 26 27  1  0
 27 28  2  0
 28 29  1  0
  4  5  1  0
  5  6  2  0
  6  7  1  0
M  END
>  <minimizedAffinity>  (70) 
-9.80167

$$$$
cs_full_output_folder/data/smiles/1847.pdb
     RDKit          3D

 28 31  0  0  0  0  0  0  0  0999 V2000
   71.2579   47.0569   58.8624 C   0  0  0  0  0  0  0  0  0  0  0  0
   70.4705   47.9008   58.0975 C   0  0  0  0  0  0  0  0  0  0  0  0
   69.6762   47.4112   57.1036 C   0  0  0  0  0  0  0  0  0  0  0  0
   69.7060   46.0228   56.9081 C   0  0  0  0  0  0  0  0  0  0  0  0
   70.4757   45.1644   57.6490 C   0  0  0  0  0  0  0  0  0  0  0  0
   71.2688   45.6977   58.6484 C   0  0  0  0  0  0  0  0  0  0  0  0
   72.0680   44.9103   59.4334 F   0  0  0  0  0  0  0  0  0  0  0  0
   76.1109   50.7161   58.6540 O   0  0  0  0  0  0  0  0  0  0  0  0
   75.0048   50.4277   59.0283 C   0  0  0  0  0  0  0  0  0  0  0  0
   74.6681   50.2976   60.4609 C   0  0  0  0  0  0  0  0  0  0  0  0
   73.9717   48.9855   60.7529 C   0  0  0  0  0  0  0  0  0  0  0  0
   73.1948   48.4908   59.6459 N   0  0  0  0  0  0  0  0  0  0  0  0
   72.0990   47.6019   59.9332 C   0  0  0  0  0  0  0  0  0  0  0  0
   71.8894   47.3086   61.1250 O   0  0  0  0  0  0  0  0  0  0  0  0
   73.4113   48.7903   58.2620 C   0  0  0  0  0  0  0  0  0  0  0  0
   73.9304   50.1897   58.0419 C   0  0  0  0  0  0  0  0  0  0  0  0
   68.7940   48.2034   56.2136 C   0  0  0  0  0  0  0  0  0  0  0  0
   69.2497   48.2671   54.8102 C   0  0  0  0  0  0  0  0  0  0  0  0
   70.1644   49.2060   54.4628 N   0  0  0  0  0  0  0  0  0  0  0  0
   70.6237   49.4173   53.2609 N   0  0  0  0  0  0  0  0  0  0  0  0
   70.1699   48.6571   52.2645 C   0  0  0  0  0  0  0  0  0  0  0  0
   70.5770   48.8178   51.0924 O   0  0  0  0  0  0  0  0  0  0  0  0
   69.2413   47.6826   52.5339 C   0  0  0  0  0  0  0  0  0  0  0  0
   68.7501   46.8590   51.5387 C   0  0  0  0  0  0  0  0  0  0  0  0
   67.8386   45.8722   51.7767 C   0  0  0  0  0  0  0  0  0  0  0  0
   67.3842   45.6822   53.0591 C   0  0  0  0  0  0  0  0  0  0  0  0
   67.8300   46.4647   54.0916 C   0  0  0  0  0  0  0  0  0  0  0  0
   68.7510   47.4577   53.8282 C   0  0  0  0  0  0  0  0  0  0  0  0
  8  9  2  0
  9 10  1  0
  9 16  1  0
 10 11  1  0
 11 12  1  0
 12 13  1  0
 12 15  1  0
 13 14  2  0
 13  1  1  0
  1  2  2  0
  1  6  1  0
  2  3  1  0
  3 17  1  0
  3  4  2  0
 17 18  1  0
 18 19  2  0
 18 28  1  0
 19 20  1  0
 20 21  1  0
 21 22  2  0
 21 23  1  0
 23 24  1  0
 23 28  2  0
 24 25  2  0
 25 26  1  0
 26 27  2  0
 27 28  1  0
  4  5  1  0
  5  6  2  0
  6  7  1  0
 15 16  1  0
M  END
>  <minimizedAffinity>  (71) 
-9.77787

$$$$
cs_full_output_folder/data/smiles/355.pdb
     RDKit          3D

 27 30  0  0  0  0  0  0  0  0999 V2000
   69.9216   47.5051   57.1416 C   0  0  0  0  0  0  0  0  0  0  0  0
   70.9978   48.0634   57.8576 C   0  0  0  0  0  0  0  0  0  0  0  0
   71.9134   47.3100   58.5418 C   0  0  0  0  0  0  0  0  0  0  0  0
   71.8044   45.9413   58.5495 C   0  0  0  0  0  0  0  0  0  0  0  0
   70.7865   45.3608   57.8758 C   0  0  0  0  0  0  0  0  0  0  0  0
   69.8483   46.1447   57.1740 C   0  0  0  0  0  0  0  0  0  0  0  0
   69.0266   48.4546   56.4477 C   0  0  0  0  0  0  0  0  0  0  0  0
   70.7517   48.6298   51.2483 O   0  0  0  0  0  0  0  0  0  0  0  0
   70.2955   48.5677   52.4434 C   0  0  0  0  0  0  0  0  0  0  0  0
   70.7803   49.3842   53.3917 N   0  0  0  0  0  0  0  0  0  0  0  0
   70.3342   49.3513   54.6468 N   0  0  0  0  0  0  0  0  0  0  0  0
   69.3616   48.4882   55.0381 C   0  0  0  0  0  0  0  0  0  0  0  0
   68.8476   47.6552   54.1129 C   0  0  0  0  0  0  0  0  0  0  0  0
   69.3080   47.6762   52.7906 C   0  0  0  0  0  0  0  0  0  0  0  0
   68.8235   46.7814   51.7246 C   0  0  0  0  0  0  0  0  0  0  0  0
   67.6948   45.8842   52.0994 C   0  0  0  0  0  0  0  0  0  0  0  0
   67.8757   45.5120   53.5613 C   0  0  0  0  0  0  0  0  0  0  0  0
   67.7269   46.7723   54.4158 C   0  0  0  0  0  0  0  0  0  0  0  0
   70.5846   43.9268   57.7834 N   0  0  0  0  0  0  0  0  0  0  0  0
   69.7855   42.9029   58.7032 S   0  0  0  0  0  0  0  0  0  0  0  0
   71.1754   41.9317   58.5312 O   0  0  0  0  0  0  0  0  0  0  0  0
   69.3688   43.8211   59.7549 O   0  0  0  0  0  0  0  0  0  0  0  0
   68.6213   42.5194   57.3585 C   0  0  0  0  0  0  0  0  0  0  0  0
   68.3785   41.2266   57.0714 C   0  0  0  0  0  0  0  0  0  0  0  0
   67.4585   41.2478   56.0112 C   0  0  0  0  0  0  0  0  0  0  0  0
   67.2400   42.5782   55.7666 C   0  0  0  0  0  0  0  0  0  0  0  0
   67.9714   43.3130   56.6117 O   0  0  0  0  0  0  0  0  0  0  0  0
  8  9  2  0
  9 10  1  0
  9 14  1  0
 10 11  1  0
 11 12  2  0
 12  7  1  0
 12 13  1  0
  7  1  1  0
  1  2  2  0
  1  6  1  0
  2  3  1  0
  3  4  2  0
  4  5  1  0
  5 19  1  0
  5  6  2  0
 19 20  1  0
 20 21  2  0
 20 22  1  0
 20 23  1  0
 23 24  2  0
 23 27  1  0
 24 25  1  0
 25 26  2  0
 26 27  1  0
 13 14  2  0
 13 18  1  0
 14 15  1  0
 15 16  1  0
 16 17  1  0
 17 18  1  0
M  END
>  <minimizedAffinity>  (72) 
-9.77756

$$$$
cs_full_output_folder/data/smiles/3473.pdb
     RDKit          3D

 28 30  0  0  0  0  0  0  0  0999 V2000
   67.5543   44.2992   54.7843 N   0  0  0  0  0  0  0  0  0  0  0  0
   67.9581   43.5262   55.8953 C   0  0  0  0  0  0  0  0  0  0  0  0
   68.8997   44.0179   56.5921 O   0  0  0  0  0  0  0  0  0  0  0  0
   67.4307   42.2896   56.2934 N   0  0  0  0  0  0  0  0  0  0  0  0
   69.2251   47.9104   53.4329 C   0  0  0  0  0  0  0  0  0  0  0  0
   68.8171   46.9466   52.5295 C   0  0  0  0  0  0  0  0  0  0  0  0
   68.2706   45.7717   53.0273 C   0  0  0  0  0  0  0  0  0  0  0  0
   68.1227   45.5359   54.3967 C   0  0  0  0  0  0  0  0  0  0  0  0
   68.5418   46.5229   55.2513 C   0  0  0  0  0  0  0  0  0  0  0  0
   69.0959   47.7175   54.7868 C   0  0  0  0  0  0  0  0  0  0  0  0
   69.8220   49.4718   51.1049 N   0  0  0  0  0  0  0  0  0  0  0  0
   69.9192   49.3873   52.8288 S   0  0  0  0  0  0  0  0  0  0  0  0
   69.2349   50.5853   53.4508 O   0  0  0  0  0  0  0  0  0  0  0  0
   71.3682   49.4225   53.2831 O   0  0  0  0  0  0  0  0  0  0  0  0
   67.8378   41.5325   57.4014 C   0  0  0  0  0  0  0  0  0  0  0  0
   67.0031   41.2983   58.4488 C   0  0  0  0  0  0  0  0  0  0  0  0
   67.4334   40.5415   59.5501 C   0  0  0  0  0  0  0  0  0  0  0  0
   68.7270   40.0391   59.5486 C   0  0  0  0  0  0  0  0  0  0  0  0
   69.5798   40.2702   58.4979 C   0  0  0  0  0  0  0  0  0  0  0  0
   69.1108   41.0191   57.4373 C   0  0  0  0  0  0  0  0  0  0  0  0
   70.9158   39.7089   58.5477 C   0  0  0  0  0  0  0  0  0  0  0  0
   71.9129   40.4696   58.4832 O   0  0  0  0  0  0  0  0  0  0  0  0
   71.1117   38.2540   58.6714 C   0  0  0  0  0  0  0  0  0  0  0  0
   70.5046   37.5081   59.6510 C   0  0  0  0  0  0  0  0  0  0  0  0
   70.6843   36.1485   59.8126 C   0  0  0  0  0  0  0  0  0  0  0  0
   71.5404   35.5016   58.9173 C   0  0  0  0  0  0  0  0  0  0  0  0
   72.1604   36.2270   57.9245 C   0  0  0  0  0  0  0  0  0  0  0  0
   71.9440   37.6081   57.8039 C   0  0  0  0  0  0  0  0  0  0  0  0
 11 12  1  0
 12 13  2  0
 12 14  2  0
 12  5  1  0
  5  6  2  0
  5 10  1  0
  6  7  1  0
  7  8  2  0
  8  1  1  0
  8  9  1  0
  1  2  1  0
  2  3  2  0
  2  4  1  0
  4 15  1  0
 15 16  2  0
 15 20  1  0
 16 17  1  0
 17 18  2  0
 18 19  1  0
 19 21  1  0
 19 20  2  0
 21 22  2  0
 21 23  1  0
 23 24  2  0
 23 28  1  0
 24 25  1  0
 25 26  2  0
 26 27  1  0
 27 28  2  0
  9 10  2  0
M  END
>  <minimizedAffinity>  (73) 
-9.76130

$$$$
cs_full_output_folder/data/smiles/396.pdb
     RDKit          3D

 27 28  0  0  0  0  0  0  0  0999 V2000
   67.7845   41.9809   56.8204 C   0  0  0  0  0  0  0  0  0  0  0  0
   67.7852   41.2729   55.7976 O   0  0  0  0  0  0  0  0  0  0  0  0
   67.8956   43.3836   56.6184 N   0  0  0  0  0  0  0  0  0  0  0  0
   67.9992   43.9802   55.3695 N   0  0  0  0  0  0  0  0  0  0  0  0
   68.2431   45.3595   55.1788 C   0  0  0  0  0  0  0  0  0  0  0  0
   68.3683   46.0613   56.2147 O   0  0  0  0  0  0  0  0  0  0  0  0
   68.3547   45.9915   53.8746 C   0  0  0  0  0  0  0  0  0  0  0  0
   67.5660   45.5095   52.8327 C   0  0  0  0  0  0  0  0  0  0  0  0
   67.5850   46.0247   51.5590 C   0  0  0  0  0  0  0  0  0  0  0  0
   68.4407   47.0883   51.2972 C   0  0  0  0  0  0  0  0  0  0  0  0
   69.2409   47.6015   52.2925 C   0  0  0  0  0  0  0  0  0  0  0  0
   69.1875   47.0433   53.5749 C   0  0  0  0  0  0  0  0  0  0  0  0
   70.1208   48.6862   52.0427 N   0  0  0  0  0  0  0  0  0  0  0  0
   70.0113   49.4106   51.0392 O   0  0  0  0  0  0  0  0  0  0  0  0
   71.1374   48.9705   52.9198 O   0  0  0  0  0  0  0  0  0  0  0  0
   67.6769   41.3962   58.1398 C   0  0  0  0  0  0  0  0  0  0  0  0
   66.8467   41.9598   58.9596 O   0  0  0  0  0  0  0  0  0  0  0  0
   69.9179   38.0386   59.5881 C   0  0  0  0  0  0  0  0  0  0  0  0
   70.4975   39.0615   58.8698 C   0  0  0  0  0  0  0  0  0  0  0  0
   69.7719   40.1390   58.4062 C   0  0  0  0  0  0  0  0  0  0  0  0
   68.3967   40.2515   58.6431 C   0  0  0  0  0  0  0  0  0  0  0  0
   67.8348   39.2260   59.3594 C   0  0  0  0  0  0  0  0  0  0  0  0
   68.5852   38.1285   59.8291 C   0  0  0  0  0  0  0  0  0  0  0  0
   69.8168   35.9403   60.7803 C   0  0  0  0  0  0  0  0  0  0  0  0
   70.7406   36.9113   60.0599 C   0  0  0  0  0  0  0  0  0  0  0  0
   71.8375   37.3533   61.0058 C   0  0  0  0  0  0  0  0  0  0  0  0
   71.3991   36.1512   58.9375 C   0  0  0  0  0  0  0  0  0  0  0  0
 24 25  1  0
 25 26  1  0
 25 27  1  0
 25 18  1  0
 18 19  2  0
 18 23  1  0
 19 20  1  0
 20 21  2  0
 21 16  1  0
 21 22  1  0
 16 17  2  0
 16  1  1  0
  1  2  2  0
  1  3  1  0
  3  4  1  0
  4  5  1  0
  5  6  2  0
  5  7  1  0
  7  8  2  0
  7 12  1  0
  8  9  1  0
  9 10  2  0
 10 11  1  0
 11 13  1  0
 11 12  2  0
 13 14  2  0
 13 15  1  0
 22 23  2  0
M  CHG  2  13   1  15  -1
M  END
>  <minimizedAffinity>  (74) 
-9.71118

$$$$
cs_full_output_folder/data/smiles/832.pdb
     RDKit          3D

 29 32  0  0  0  0  0  0  0  0999 V2000
   71.5057   47.4203   58.9134 C   0  0  0  0  0  0  0  0  0  0  0  0
   70.6176   48.0776   58.0988 C   0  0  0  0  0  0  0  0  0  0  0  0
   69.7938   47.3975   57.1828 C   0  0  0  0  0  0  0  0  0  0  0  0
   69.9083   46.0535   57.1326 C   0  0  0  0  0  0  0  0  0  0  0  0
   70.7931   45.3641   57.9404 C   0  0  0  0  0  0  0  0  0  0  0  0
   71.5859   46.0378   58.8238 C   0  0  0  0  0  0  0  0  0  0  0  0
   72.4482   45.3422   59.6076 F   0  0  0  0  0  0  0  0  0  0  0  0
   72.2163   47.8975   61.1199 O   0  0  0  0  0  0  0  0  0  0  0  0
   72.3739   48.0746   59.8805 C   0  0  0  0  0  0  0  0  0  0  0  0
   73.4089   48.9221   59.4106 N   0  0  0  0  0  0  0  0  0  0  0  0
   73.4968   49.0540   57.9868 C   0  0  0  0  0  0  0  0  0  0  0  0
   74.7437   48.4533   57.3975 C   0  0  0  0  0  0  0  0  0  0  0  0
   75.9938   49.2330   57.6464 C   0  0  0  0  0  0  0  0  0  0  0  0
   75.8559   50.2121   58.7916 C   0  0  2  0  0  0  0  0  0  0  0  0
   76.9919   51.0235   58.8745 O   0  0  0  0  0  0  0  0  0  0  0  0
   75.6639   49.4010   60.0551 C   0  0  0  0  0  0  0  0  0  0  0  0
   74.2218   49.5251   60.4705 C   0  0  0  0  0  0  0  0  0  0  0  0
   68.8438   48.1984   56.3612 C   0  0  0  0  0  0  0  0  0  0  0  0
   69.2358   48.3237   54.9464 C   0  0  0  0  0  0  0  0  0  0  0  0
   70.1428   49.2931   54.5844 N   0  0  0  0  0  0  0  0  0  0  0  0
   70.5806   49.4531   53.3654 N   0  0  0  0  0  0  0  0  0  0  0  0
   70.1970   48.6969   52.3471 C   0  0  0  0  0  0  0  0  0  0  0  0
   70.5753   48.7951   51.1675 O   0  0  0  0  0  0  0  0  0  0  0  0
   69.2766   47.6910   52.6346 C   0  0  0  0  0  0  0  0  0  0  0  0
   68.8187   46.8737   51.6374 C   0  0  0  0  0  0  0  0  0  0  0  0
   67.8949   45.8736   51.8748 C   0  0  0  0  0  0  0  0  0  0  0  0
   67.4431   45.7204   53.1625 C   0  0  0  0  0  0  0  0  0  0  0  0
   67.8857   46.5269   54.1883 C   0  0  0  0  0  0  0  0  0  0  0  0
   68.8063   47.5137   53.9190 C   0  0  0  0  0  0  0  0  0  0  0  0
  8  9  2  0
  9  1  1  0
  9 10  1  0
  1  2  2  0
  1  6  1  0
  2  3  1  0
  3 18  1  0
  3  4  2  0
 18 19  1  0
 19 20  2  0
 19 29  1  0
 20 21  1  0
 21 22  1  0
 22 23  2  0
 22 24  1  0
 24 25  1  0
 24 29  2  0
 25 26  2  0
 26 27  1  0
 27 28  2  0
 28 29  1  0
  4  5  1  0
  5  6  2  0
  6  7  1  0
 10 11  1  0
 10 17  1  0
 11 12  1  0
 12 13  1  0
 13 14  1  0
 14 15  1  1
 14 16  1  0
 16 17  1  0
M  END
>  <minimizedAffinity>  (75) 
-9.68617

$$$$
cs_full_output_folder/data/smiles/1640.pdb
     RDKit          3D

 31 33  0  0  0  0  0  0  0  0999 V2000
   68.9774   47.6832   52.5737 C   0  0  0  0  0  0  0  0  0  0  0  0
   68.3918   47.0954   51.4795 C   0  0  0  0  0  0  0  0  0  0  0  0
   67.7319   45.8792   51.6057 C   0  0  0  0  0  0  0  0  0  0  0  0
   67.6872   45.2905   52.8535 C   0  0  0  0  0  0  0  0  0  0  0  0
   68.2613   45.8426   53.9782 C   0  0  0  0  0  0  0  0  0  0  0  0
   68.9023   47.0452   53.8115 C   0  0  0  0  0  0  0  0  0  0  0  0
   69.8191   49.2120   52.4894 S   0  0  0  0  0  0  0  0  0  0  0  0
   71.1863   48.9853   53.0671 O   0  0  0  0  0  0  0  0  0  0  0  0
   70.0457   49.6072   51.0455 O   0  0  0  0  0  0  0  0  0  0  0  0
   68.9812   50.4627   53.3314 N   0  0  0  0  0  0  0  0  0  0  0  0
   68.6562   53.0588   54.4300 N   0  0  0  0  0  0  0  0  0  0  0  0
   68.8335   51.9169   55.2523 C   0  0  0  0  0  0  0  0  0  0  0  0
   68.8409   52.0919   56.6188 C   0  0  0  0  0  0  0  0  0  0  0  0
   68.6774   53.3445   57.1047 F   0  0  0  0  0  0  0  0  0  0  0  0
   69.0078   51.0416   57.4900 C   0  0  0  0  0  0  0  0  0  0  0  0
   69.1707   49.7804   56.9685 C   0  0  0  0  0  0  0  0  0  0  0  0
   69.1631   49.6061   55.5909 C   0  0  0  0  0  0  0  0  0  0  0  0
   68.9972   50.6563   54.7175 C   0  0  0  0  0  0  0  0  0  0  0  0
   68.1651   45.1470   55.2541 C   0  0  0  0  0  0  0  0  0  0  0  0
   68.4509   45.7679   56.3074 O   0  0  0  0  0  0  0  0  0  0  0  0
   67.7630   43.7968   55.3894 N   0  0  0  0  0  0  0  0  0  0  0  0
   67.6786   43.1572   56.6390 N   0  0  0  0  0  0  0  0  0  0  0  0
   67.4624   41.7756   56.7737 C   0  0  0  0  0  0  0  0  0  0  0  0
   67.3470   41.1489   55.6693 O   0  0  0  0  0  0  0  0  0  0  0  0
   67.3562   41.0062   57.9969 C   0  0  0  0  0  0  0  0  0  0  0  0
   66.6279   41.5102   59.0839 C   0  0  0  0  0  0  0  0  0  0  0  0
   66.4974   40.8266   60.2689 C   0  0  0  0  0  0  0  0  0  0  0  0
   67.0820   39.5945   60.4550 C   0  0  0  0  0  0  0  0  0  0  0  0
   67.8036   39.0713   59.4075 C   0  0  0  0  0  0  0  0  0  0  0  0
   67.9320   39.7781   58.1987 C   0  0  0  0  0  0  0  0  0  0  0  0
   68.6563   39.1928   57.2167 F   0  0  0  0  0  0  0  0  0  0  0  0
 11 12  1  0
 12 13  2  0
 12 18  1  0
 13 14  1  0
 13 15  1  0
 15 16  2  0
 16 17  1  0
 17 18  2  0
 18 10  1  0
 10  7  1  0
  7  8  2  0
  7  9  2  0
  7  1  1  0
  1  2  2  0
  1  6  1  0
  2  3  1  0
  3  4  2  0
  4  5  1  0
  5 19  1  0
  5  6  2  0
 19 20  2  0
 19 21  1  0
 21 22  1  0
 22 23  1  0
 23 24  2  0
 23 25  1  0
 25 26  2  0
 25 30  1  0
 26 27  1  0
 27 28  2  0
 28 29  1  0
 29 30  2  0
 30 31  1  0
M  END
>  <minimizedAffinity>  (76) 
-10.74809

$$$$
cs_full_output_folder/data/smiles/1433.pdb
     RDKit          3D

 29 31  0  0  0  0  0  0  0  0999 V2000
   68.3299   45.9690   53.9950 C   0  0  0  0  0  0  0  0  0  0  0  0
   67.8360   45.4974   52.8210 C   0  0  0  0  0  0  0  0  0  0  0  0
   67.9928   46.2640   51.6592 C   0  0  0  0  0  0  0  0  0  0  0  0
   68.6374   47.4838   51.6822 C   0  0  0  0  0  0  0  0  0  0  0  0
   69.1415   47.9666   52.8753 C   0  0  0  0  0  0  0  0  0  0  0  0
   68.9722   47.1899   54.0026 C   0  0  0  0  0  0  0  0  0  0  0  0
   68.4704   45.8388   56.3628 O   0  0  0  0  0  0  0  0  0  0  0  0
   68.2263   45.2607   55.2650 C   0  0  0  0  0  0  0  0  0  0  0  0
   67.8519   43.8936   55.3713 N   0  0  0  0  0  0  0  0  0  0  0  0
   67.7627   43.2375   56.6321 N   0  0  0  0  0  0  0  0  0  0  0  0
   67.4411   41.8715   56.7338 C   0  0  0  0  0  0  0  0  0  0  0  0
   67.2417   41.2870   55.6065 O   0  0  0  0  0  0  0  0  0  0  0  0
   67.3166   41.0785   57.9354 C   0  0  0  0  0  0  0  0  0  0  0  0
   66.6037   41.6008   59.0250 C   0  0  0  0  0  0  0  0  0  0  0  0
   66.4263   40.9329   60.2076 C   0  0  0  0  0  0  0  0  0  0  0  0
   66.9726   39.6734   60.3608 C   0  0  0  0  0  0  0  0  0  0  0  0
   67.6821   39.1156   59.3211 C   0  0  0  0  0  0  0  0  0  0  0  0
   67.8419   39.8312   58.1219 C   0  0  0  0  0  0  0  0  0  0  0  0
   68.5415   39.2579   57.1225 F   0  0  0  0  0  0  0  0  0  0  0  0
   69.9675   49.5082   52.9606 S   0  0  0  0  0  0  0  0  0  0  0  0
   69.8859   50.2510   51.6626 O   0  0  0  0  0  0  0  0  0  0  0  0
   71.4377   49.1911   53.1807 O   0  0  0  0  0  0  0  0  0  0  0  0
   69.3786   50.4710   54.2957 C   0  0  0  0  0  0  0  0  0  0  0  0
   69.2466   51.8352   54.1800 C   0  0  0  0  0  0  0  0  0  0  0  0
   68.7790   52.5646   55.2530 C   0  0  0  0  0  0  0  0  0  0  0  0
   68.4339   51.9831   56.4542 C   0  0  0  0  0  0  0  0  0  0  0  0
   68.5655   50.6085   56.5754 C   0  0  0  0  0  0  0  0  0  0  0  0
   68.2241   50.0559   57.7543 F   0  0  0  0  0  0  0  0  0  0  0  0
   69.0364   49.8711   55.4954 C   0  0  0  0  0  0  0  0  0  0  0  0
  7  8  2  0
  8  9  1  0
  8  1  1  0
  9 10  1  0
 10 11  1  0
 11 12  2  0
 11 13  1  0
 13 14  2  0
 13 18  1  0
 14 15  1  0
 15 16  2  0
 16 17  1  0
 17 18  2  0
 18 19  1  0
  1  2  2  0
  1  6  1  0
  2  3  1  0
  3  4  2  0
  4  5  1  0
  5 20  1  0
  5  6  2  0
 20 21  2  0
 20 22  2  0
 20 23  1  0
 23 24  2  0
 23 29  1  0
 24 25  1  0
 25 26  2  0
 26 27  1  0
 27 28  1  0
 27 29  2  0
M  END
>  <minimizedAffinity>  (77) 
-10.67539

$$$$
cs_full_output_folder/data/smiles/3428.pdb
     RDKit          3D

 29 31  0  0  0  0  0  0  0  0999 V2000
   68.3019   45.8290   54.0557 C   0  0  0  0  0  0  0  0  0  0  0  0
   67.6622   45.3252   52.9447 C   0  0  0  0  0  0  0  0  0  0  0  0
   67.7074   45.9831   51.7100 C   0  0  0  0  0  0  0  0  0  0  0  0
   68.4043   47.1630   51.5931 C   0  0  0  0  0  0  0  0  0  0  0  0
   69.0539   47.6848   52.7026 C   0  0  0  0  0  0  0  0  0  0  0  0
   68.9871   47.0087   53.8989 C   0  0  0  0  0  0  0  0  0  0  0  0
   67.7114   43.7572   55.3443 N   0  0  0  0  0  0  0  0  0  0  0  0
   68.2061   45.0845   55.2979 C   0  0  0  0  0  0  0  0  0  0  0  0
   68.5645   45.5963   56.4015 O   0  0  0  0  0  0  0  0  0  0  0  0
   67.5176   41.0071   55.4881 O   0  0  0  0  0  0  0  0  0  0  0  0
   67.5238   41.6252   56.5906 C   0  0  0  0  0  0  0  0  0  0  0  0
   67.6223   43.0395   56.5590 N   0  0  0  0  0  0  0  0  0  0  0  0
   67.4339   40.9116   57.8554 C   0  0  0  0  0  0  0  0  0  0  0  0
   66.7078   41.4929   58.8922 C   0  0  0  0  0  0  0  0  0  0  0  0
   66.5734   40.8851   60.1220 C   0  0  0  0  0  0  0  0  0  0  0  0
   67.1584   39.6624   60.3761 C   0  0  0  0  0  0  0  0  0  0  0  0
   67.8777   39.0795   59.3605 C   0  0  0  0  0  0  0  0  0  0  0  0
   68.0139   39.6940   58.1185 C   0  0  0  0  0  0  0  0  0  0  0  0
   69.9195   49.1820   52.4616 S   0  0  0  0  0  0  0  0  0  0  0  0
   71.2822   49.0243   53.1134 O   0  0  0  0  0  0  0  0  0  0  0  0
   70.0736   49.4746   50.9953 O   0  0  0  0  0  0  0  0  0  0  0  0
   69.0490   50.4406   53.2312 N   0  0  0  0  0  0  0  0  0  0  0  0
   68.9514   50.6674   54.6077 C   0  0  0  0  0  0  0  0  0  0  0  0
   69.1504   49.6400   55.4945 C   0  0  0  0  0  0  0  0  0  0  0  0
   69.0658   49.8503   56.8768 C   0  0  0  0  0  0  0  0  0  0  0  0
   68.7790   51.1071   57.3608 C   0  0  0  0  0  0  0  0  0  0  0  0
   68.5800   52.1336   56.4745 C   0  0  0  0  0  0  0  0  0  0  0  0
   68.6664   51.9143   55.1053 C   0  0  0  0  0  0  0  0  0  0  0  0
   68.4539   52.9929   54.2951 F   0  0  0  0  0  0  0  0  0  0  0  0
 10 11  2  0
 11 12  1  0
 11 13  1  0
 12  7  1  0
  7  8  1  0
  8  9  2  0
  8  1  1  0
  1  2  2  0
  1  6  1  0
  2  3  1  0
  3  4  2  0
  4  5  1  0
  5 19  1  0
  5  6  2  0
 19 20  2  0
 19 21  2  0
 19 22  1  0
 22 23  1  0
 23 24  2  0
 23 28  1  0
 24 25  1  0
 25 26  2  0
 26 27  1  0
 27 28  2  0
 28 29  1  0
 13 14  2  0
 13 18  1  0
 14 15  1  0
 15 16  2  0
 16 17  1  0
 17 18  2  0
M  END
>  <minimizedAffinity>  (78) 
-10.56632

$$$$
cs_full_output_folder/data/smiles/1552.pdb
     RDKit          3D

 30 32  0  0  0  0  0  0  0  0999 V2000
   68.2145   45.8232   53.8754 C   0  0  0  0  0  0  0  0  0  0  0  0
   67.6188   45.3500   52.7267 C   0  0  0  0  0  0  0  0  0  0  0  0
   67.7087   46.0346   51.5175 C   0  0  0  0  0  0  0  0  0  0  0  0
   68.4202   47.2277   51.4773 C   0  0  0  0  0  0  0  0  0  0  0  0
   69.0287   47.7286   52.6099 C   0  0  0  0  0  0  0  0  0  0  0  0
   68.9027   47.0088   53.7648 C   0  0  0  0  0  0  0  0  0  0  0  0
   68.4120   45.7548   56.1957 O   0  0  0  0  0  0  0  0  0  0  0  0
   68.1254   45.1069   55.1591 C   0  0  0  0  0  0  0  0  0  0  0  0
   67.7435   43.7691   55.2623 N   0  0  0  0  0  0  0  0  0  0  0  0
   67.7013   43.2022   56.5803 N   0  0  0  0  0  0  0  0  0  0  0  0
   67.4202   41.8432   56.7625 C   0  0  0  0  0  0  0  0  0  0  0  0
   67.2064   41.1563   55.7018 O   0  0  0  0  0  0  0  0  0  0  0  0
   67.3446   41.1318   58.0123 C   0  0  0  0  0  0  0  0  0  0  0  0
   66.6310   41.6681   59.0904 C   0  0  0  0  0  0  0  0  0  0  0  0
   66.5643   41.0014   60.2799 C   0  0  0  0  0  0  0  0  0  0  0  0
   67.1913   39.7955   60.4478 C   0  0  0  0  0  0  0  0  0  0  0  0
   67.8918   39.2588   59.4042 C   0  0  0  0  0  0  0  0  0  0  0  0
   67.9739   39.9264   58.1746 C   0  0  0  0  0  0  0  0  0  0  0  0
   68.6903   39.2785   57.2318 F   0  0  0  0  0  0  0  0  0  0  0  0
   69.9379   49.2473   52.5696 S   0  0  0  0  0  0  0  0  0  0  0  0
   70.0241   49.6706   51.1325 O   0  0  0  0  0  0  0  0  0  0  0  0
   71.3427   49.0321   53.0426 O   0  0  0  0  0  0  0  0  0  0  0  0
   69.1084   50.4442   53.4500 N   0  0  0  0  0  0  0  0  0  0  0  0
   69.1078   50.5157   54.8804 C   0  0  0  0  0  0  0  0  0  0  0  0
   69.7835   49.6661   55.6225 C   0  0  0  0  0  0  0  0  0  0  0  0
   69.7756   49.7488   57.0723 C   0  0  0  0  0  0  0  0  0  0  0  0
   69.1024   50.6633   57.6896 C   0  0  0  0  0  0  0  0  0  0  0  0
   68.3093   51.6681   56.9854 C   0  0  2  0  0  0  0  0  0  0  0  0
   66.9792   51.4949   57.4341 F   0  0  0  0  0  0  0  0  0  0  0  0
   68.3253   51.5765   55.5255 C   0  0  0  0  0  0  0  0  0  0  0  0
  7  8  2  0
  8  9  1  0
  8  1  1  0
  9 10  1  0
 10 11  1  0
 11 12  2  0
 11 13  1  0
 13 14  2  0
 13 18  1  0
 14 15  1  0
 15 16  2  0
 16 17  1  0
 17 18  2  0
 18 19  1  0
  1  2  2  0
  1  6  1  0
  2  3  1  0
  3  4  2  0
  4  5  1  0
  5 20  1  0
  5  6  2  0
 20 21  2  0
 20 22  2  0
 20 23  1  0
 23 24  1  0
 24 25  2  0
 24 30  1  0
 25 26  1  0
 26 27  2  0
 27 28  1  0
 28 29  1  1
 28 30  1  0
M  END
>  <minimizedAffinity>  (79) 
-10.50500

$$$$
cs_full_output_folder/data/smiles/288.pdb
     RDKit          3D

 29 31  0  0  0  0  0  0  0  0999 V2000
   68.2481   45.7987   53.9381 C   0  0  0  0  0  0  0  0  0  0  0  0
   67.6600   45.3225   52.7840 C   0  0  0  0  0  0  0  0  0  0  0  0
   67.7257   45.9890   51.5839 C   0  0  0  0  0  0  0  0  0  0  0  0
   68.3970   47.1859   51.4792 C   0  0  0  0  0  0  0  0  0  0  0  0
   68.9957   47.6832   52.6244 C   0  0  0  0  0  0  0  0  0  0  0  0
   68.9219   47.0024   53.8279 C   0  0  0  0  0  0  0  0  0  0  0  0
   67.6662   43.7226   55.2994 N   0  0  0  0  0  0  0  0  0  0  0  0
   68.1437   45.0471   55.1780 C   0  0  0  0  0  0  0  0  0  0  0  0
   68.5053   45.6060   56.2549 O   0  0  0  0  0  0  0  0  0  0  0  0
   67.5377   40.9765   55.5500 O   0  0  0  0  0  0  0  0  0  0  0  0
   67.5357   41.6524   56.6225 C   0  0  0  0  0  0  0  0  0  0  0  0
   67.5994   43.0618   56.5589 N   0  0  0  0  0  0  0  0  0  0  0  0
   67.4675   40.9722   57.9079 C   0  0  0  0  0  0  0  0  0  0  0  0
   68.1075   39.7486   58.0719 C   0  0  0  0  0  0  0  0  0  0  0  0
   68.0498   39.1083   59.2648 C   0  0  0  0  0  0  0  0  0  0  0  0
   67.3779   39.6362   60.3082 N   0  0  0  0  0  0  0  0  0  0  0  0
   66.7383   40.8102   60.2209 C   0  0  0  0  0  0  0  0  0  0  0  0
   66.7964   41.4704   58.9961 C   0  0  0  0  0  0  0  0  0  0  0  0
   69.8551   49.1904   52.5121 S   0  0  0  0  0  0  0  0  0  0  0  0
   71.2322   48.9778   53.0885 O   0  0  0  0  0  0  0  0  0  0  0  0
   70.0666   49.5451   51.0657 O   0  0  0  0  0  0  0  0  0  0  0  0
   69.0528   50.4863   53.2842 N   0  0  0  0  0  0  0  0  0  0  0  0
   68.9668   50.6966   54.6753 C   0  0  0  0  0  0  0  0  0  0  0  0
   69.1391   49.6561   55.5434 C   0  0  0  0  0  0  0  0  0  0  0  0
   69.0593   49.8787   56.9198 C   0  0  0  0  0  0  0  0  0  0  0  0
   68.8083   51.1390   57.4162 C   0  0  0  0  0  0  0  0  0  0  0  0
   68.6350   52.1883   56.5453 C   0  0  0  0  0  0  0  0  0  0  0  0
   68.7168   51.9494   55.1711 C   0  0  0  0  0  0  0  0  0  0  0  0
   68.5449   52.9908   54.3318 F   0  0  0  0  0  0  0  0  0  0  0  0
 10 11  2  0
 11 12  1  0
 11 13  1  0
 12  7  1  0
  7  8  1  0
  8  9  2  0
  8  1  1  0
  1  2  2  0
  1  6  1  0
  2  3  1  0
  3  4  2  0
  4  5  1  0
  5 19  1  0
  5  6  2  0
 19 20  2  0
 19 21  2  0
 19 22  1  0
 22 23  1  0
 23 24  2  0
 23 28  1  0
 24 25  1  0
 25 26  2  0
 26 27  1  0
 27 28  2  0
 28 29  1  0
 13 14  2  0
 13 18  1  0
 14 15  1  0
 15 16  2  0
 16 17  1  0
 17 18  2  0
M  END
>  <minimizedAffinity>  (80) 
-10.46818

$$$$
cs_full_output_folder/data/smiles/751.pdb
     RDKit          3D

 30 32  0  0  0  0  0  0  0  0999 V2000
   68.2280   45.8597   53.9008 C   0  0  0  0  0  0  0  0  0  0  0  0
   67.6202   45.3773   52.7619 C   0  0  0  0  0  0  0  0  0  0  0  0
   67.7131   46.0514   51.5482 C   0  0  0  0  0  0  0  0  0  0  0  0
   68.4184   47.2259   51.4540 C   0  0  0  0  0  0  0  0  0  0  0  0
   69.0377   47.7274   52.5916 C   0  0  0  0  0  0  0  0  0  0  0  0
   68.9291   47.0351   53.7872 C   0  0  0  0  0  0  0  0  0  0  0  0
   68.4156   45.8254   56.2318 O   0  0  0  0  0  0  0  0  0  0  0  0
   68.1384   45.1658   55.1715 C   0  0  0  0  0  0  0  0  0  0  0  0
   67.7715   43.8231   55.3558 N   0  0  0  0  0  0  0  0  0  0  0  0
   67.6986   43.1944   56.6038 N   0  0  0  0  0  0  0  0  0  0  0  0
   67.4461   41.8366   56.7991 C   0  0  0  0  0  0  0  0  0  0  0  0
   67.2766   41.1610   55.7215 O   0  0  0  0  0  0  0  0  0  0  0  0
   67.3516   41.0994   58.0321 C   0  0  0  0  0  0  0  0  0  0  0  0
   66.6442   41.6010   59.1282 C   0  0  0  0  0  0  0  0  0  0  0  0
   66.5318   40.9316   60.3159 C   0  0  0  0  0  0  0  0  0  0  0  0
   67.1333   39.6999   60.4722 C   0  0  0  0  0  0  0  0  0  0  0  0
   67.8421   39.1641   59.4167 C   0  0  0  0  0  0  0  0  0  0  0  0
   67.9357   39.8807   58.2131 C   0  0  0  0  0  0  0  0  0  0  0  0
   68.6540   39.2589   57.2534 F   0  0  0  0  0  0  0  0  0  0  0  0
   69.9254   49.2218   52.4352 S   0  0  0  0  0  0  0  0  0  0  0  0
   70.1145   49.5903   50.9862 O   0  0  0  0  0  0  0  0  0  0  0  0
   71.3217   48.9721   52.9828 O   0  0  0  0  0  0  0  0  0  0  0  0
   69.2447   50.4979   53.3424 N   0  0  0  0  0  0  0  0  0  0  0  0
   69.1622   50.3770   54.7800 C   0  0  0  0  0  0  0  0  0  0  0  0
   70.0843   49.6281   55.4781 C   0  0  0  0  0  0  0  0  0  0  0  0
   69.9984   49.5163   56.8567 C   0  0  0  0  0  0  0  0  0  0  0  0
   68.9872   50.1567   57.5300 C   0  0  0  0  0  0  0  0  0  0  0  0
   68.0602   50.9068   56.8578 C   0  0  0  0  0  0  0  0  0  0  0  0
   67.0797   51.5210   57.5649 F   0  0  0  0  0  0  0  0  0  0  0  0
   68.1640   51.0035   55.4905 C   0  0  0  0  0  0  0  0  0  0  0  0
  7  8  2  0
  8  9  1  0
  8  1  1  0
  9 10  1  0
 10 11  1  0
 11 12  2  0
 11 13  1  0
 13 14  2  0
 13 18  1  0
 14 15  1  0
 15 16  2  0
 16 17  1  0
 17 18  2  0
 18 19  1  0
  1  2  2  0
  1  6  1  0
  2  3  1  0
  3  4  2  0
  4  5  1  0
  5 20  1  0
  5  6  2  0
 20 21  2  0
 20 22  2  0
 20 23  1  0
 23 24  1  0
 24 25  2  0
 24 30  1  0
 25 26  1  0
 26 27  2  0
 27 28  1  0
 28 29  1  0
 28 30  2  0
M  END
>  <minimizedAffinity>  (81) 
-10.35892

$$$$
cs_full_output_folder/data/smiles/2766.pdb
     RDKit          3D

 26 27  0  0  0  0  0  0  0  0999 V2000
   69.9921   49.1335   52.5566 S   0  0  0  0  0  0  0  0  0  0  0  0
   70.1011   49.0425   51.0519 O   0  0  0  0  0  0  0  0  0  0  0  0
   71.3913   49.2219   53.0796 O   0  0  0  0  0  0  0  0  0  0  0  0
   69.2017   47.7032   53.1707 C   0  0  0  0  0  0  0  0  0  0  0  0
   68.5654   46.8271   52.3170 C   0  0  0  0  0  0  0  0  0  0  0  0
   68.5274   47.0293   50.9726 F   0  0  0  0  0  0  0  0  0  0  0  0
   67.9394   45.6920   52.8398 C   0  0  0  0  0  0  0  0  0  0  0  0
   67.3211   44.8431   51.9946 F   0  0  0  0  0  0  0  0  0  0  0  0
   67.9870   45.5007   54.1874 C   0  0  0  0  0  0  0  0  0  0  0  0
   67.3768   44.3949   54.6977 F   0  0  0  0  0  0  0  0  0  0  0  0
   68.6248   46.3807   55.0390 C   0  0  0  0  0  0  0  0  0  0  0  0
   68.6608   46.1740   56.3692 F   0  0  0  0  0  0  0  0  0  0  0  0
   69.2473   47.5060   54.5370 C   0  0  0  0  0  0  0  0  0  0  0  0
   69.8795   48.3804   55.3704 F   0  0  0  0  0  0  0  0  0  0  0  0
   69.1415   50.5596   52.9370 N   0  0  0  0  0  0  0  0  0  0  0  0
   71.3089   52.3463   55.2720 C   0  0  0  0  0  0  0  0  0  0  0  0
   70.3640   53.0135   56.0490 C   0  0  0  0  0  0  0  0  0  0  0  0
   69.0236   52.8709   55.8008 C   0  0  0  0  0  0  0  0  0  0  0  0
   68.5969   52.0696   54.7848 C   0  0  0  0  0  0  0  0  0  0  0  0
   69.5188   51.4072   54.0130 C   0  0  0  0  0  0  0  0  0  0  0  0
   70.8564   51.5538   54.2656 C   0  0  0  0  0  0  0  0  0  0  0  0
   72.6888   52.5153   55.5574 N   0  0  0  0  0  0  0  0  0  0  0  0
   74.0283   50.5993   54.0086 N   0  0  0  0  0  0  0  0  0  0  0  0
   73.9176   52.2635   54.3769 S   0  0  0  0  0  0  0  0  0  0  0  0
   75.2366   52.7013   54.9469 O   0  0  0  0  0  0  0  0  0  0  0  0
   73.6561   53.0496   53.1454 O   0  0  0  0  0  0  0  0  0  0  0  0
 23 24  1  0
 24 25  2  0
 24 26  2  0
 24 22  1  0
 22 16  1  0
 16 17  2  0
 16 21  1  0
 17 18  1  0
 18 19  2  0
 19 20  1  0
 20 15  1  0
 20 21  2  0
 15  1  1  0
  1  2  2  0
  1  3  2  0
  1  4  1  0
  4  5  2  0
  4 13  1  0
  5  6  1  0
  5  7  1  0
  7  8  1  0
  7  9  2  0
  9 10  1  0
  9 11  1  0
 11 12  1  0
 11 13  2  0
 13 14  1  0
M  END
>  <minimizedAffinity>  (82) 
-10.25835

$$$$
cs_full_output_folder/data/smiles/1617.pdb
     RDKit          3D

 33 37  0  0  0  0  0  0  0  0999 V2000
   71.5234   47.2344   58.8166 C   0  0  0  0  0  0  0  0  0  0  0  0
   70.6736   48.0184   58.0468 C   0  0  0  0  0  0  0  0  0  0  0  0
   69.7819   47.4715   57.1685 C   0  0  0  0  0  0  0  0  0  0  0  0
   69.7275   46.0665   57.0492 C   0  0  0  0  0  0  0  0  0  0  0  0
   70.5475   45.2814   57.7924 C   0  0  0  0  0  0  0  0  0  0  0  0
   71.4369   45.8738   58.6695 C   0  0  0  0  0  0  0  0  0  0  0  0
   72.2386   45.0452   59.3951 F   0  0  0  0  0  0  0  0  0  0  0  0
   76.2572   48.9493   58.1118 N   0  0  0  0  0  0  0  0  0  0  0  0
   76.5164   47.9065   59.0719 C   0  0  0  0  0  0  0  0  0  0  0  0
   75.9271   48.2873   60.3940 C   0  0  0  0  0  0  0  0  0  0  0  0
   74.5999   48.9283   60.2180 C   0  0  0  0  0  0  0  0  0  0  0  0
   73.7370   48.3316   59.2391 N   0  0  0  0  0  0  0  0  0  0  0  0
   72.4930   47.8579   59.7152 C   0  0  0  0  0  0  0  0  0  0  0  0
   72.2258   47.9775   60.9265 O   0  0  0  0  0  0  0  0  0  0  0  0
   73.9731   48.1517   57.8172 C   0  0  0  0  0  0  0  0  0  0  0  0
   75.0464   49.0886   57.3111 C   0  0  0  0  0  0  0  0  0  0  0  0
   77.2075   51.0932   58.6877 N   0  0  0  0  0  0  0  0  0  0  0  0
   77.2448   49.9215   57.8995 C   0  0  0  0  0  0  0  0  0  0  0  0
   78.2106   49.7930   57.0077 C   0  0  0  0  0  0  0  0  0  0  0  0
   79.4333   50.3454   56.3412 C   0  0  0  0  0  0  0  0  0  0  0  0
   78.9493   49.0567   55.9138 C   0  0  0  0  0  0  0  0  0  0  0  0
   68.8565   48.2406   56.3191 C   0  0  0  0  0  0  0  0  0  0  0  0
   69.3220   48.2318   54.9248 C   0  0  0  0  0  0  0  0  0  0  0  0
   70.2913   49.1501   54.6160 N   0  0  0  0  0  0  0  0  0  0  0  0
   70.7636   49.3391   53.4164 N   0  0  0  0  0  0  0  0  0  0  0  0
   70.2751   48.5830   52.3894 C   0  0  0  0  0  0  0  0  0  0  0  0
   70.7052   48.7407   51.2256 O   0  0  0  0  0  0  0  0  0  0  0  0
   69.3000   47.6345   52.6113 C   0  0  0  0  0  0  0  0  0  0  0  0
   68.7963   46.8364   51.6018 C   0  0  0  0  0  0  0  0  0  0  0  0
   67.8377   45.8926   51.9103 C   0  0  0  0  0  0  0  0  0  0  0  0
   67.3717   45.7265   53.1941 C   0  0  0  0  0  0  0  0  0  0  0  0
   67.8776   46.5241   54.1950 C   0  0  0  0  0  0  0  0  0  0  0  0
   68.8313   47.4713   53.9033 C   0  0  0  0  0  0  0  0  0  0  0  0
 17 18  1  0
 18 19  2  0
 18  8  1  0
 19 20  1  0
 19 21  1  0
 20 21  1  0
  8  9  1  0
  8 16  1  0
  9 10  1  0
 10 11  1  0
 11 12  1  0
 12 13  1  0
 12 15  1  0
 13 14  2  0
 13  1  1  0
  1  2  2  0
  1  6  1  0
  2  3  1  0
  3 22  1  0
  3  4  2  0
 22 23  1  0
 23 24  2  0
 23 33  1  0
 24 25  1  0
 25 26  1  0
 26 27  2  0
 26 28  1  0
 28 29  1  0
 28 33  2  0
 29 30  2  0
 30 31  1  0
 31 32  2  0
 32 33  1  0
  4  5  1  0
  5  6  2  0
  6  7  1  0
 15 16  1  0
M  END
>  <minimizedAffinity>  (83) 
-10.18130

$$$$
cs_full_output_folder/data/smiles/1432.pdb
     RDKit          3D

 33 37  0  0  0  0  0  0  0  0999 V2000
   71.5718   47.2316   59.0071 C   0  0  0  0  0  0  0  0  0  0  0  0
   70.7487   48.0080   58.2285 C   0  0  0  0  0  0  0  0  0  0  0  0
   69.9259   47.3903   57.2713 C   0  0  0  0  0  0  0  0  0  0  0  0
   69.9995   46.0335   57.1777 C   0  0  0  0  0  0  0  0  0  0  0  0
   70.8182   45.2452   57.9513 C   0  0  0  0  0  0  0  0  0  0  0  0
   71.6237   45.8654   58.8891 C   0  0  0  0  0  0  0  0  0  0  0  0
   72.4275   45.0853   59.6522 F   0  0  0  0  0  0  0  0  0  0  0  0
   76.0373   48.5432   58.5825 N   0  0  0  0  0  0  0  0  0  0  0  0
   76.3674   48.0348   59.8939 C   0  0  0  0  0  0  0  0  0  0  0  0
   75.5117   48.5480   61.0109 C   0  0  0  0  0  0  0  0  0  0  0  0
   74.3227   49.3531   60.5811 C   0  0  0  0  0  0  0  0  0  0  0  0
   73.5096   48.7182   59.5828 N   0  0  0  0  0  0  0  0  0  0  0  0
   72.4149   47.8911   59.9738 C   0  0  0  0  0  0  0  0  0  0  0  0
   72.2264   47.7713   61.2187 O   0  0  0  0  0  0  0  0  0  0  0  0
   73.6821   48.8415   58.1492 C   0  0  0  0  0  0  0  0  0  0  0  0
   74.9369   48.0917   57.7676 C   0  0  0  0  0  0  0  0  0  0  0  0
   76.7087   50.7930   58.3460 N   0  0  0  0  0  0  0  0  0  0  0  0
   76.8673   49.5571   58.0331 C   0  0  0  0  0  0  0  0  0  0  0  0
   77.9706   49.2702   57.0530 C   0  0  0  0  0  0  0  0  0  0  0  0
   78.5718   50.4195   56.3354 C   0  0  0  0  0  0  0  0  0  0  0  0
   77.6375   49.5559   55.6065 C   0  0  0  0  0  0  0  0  0  0  0  0
   69.0315   48.2543   56.4597 C   0  0  0  0  0  0  0  0  0  0  0  0
   69.4066   48.3418   55.0346 C   0  0  0  0  0  0  0  0  0  0  0  0
   70.3566   49.2591   54.6566 N   0  0  0  0  0  0  0  0  0  0  0  0
   70.7775   49.3777   53.4142 N   0  0  0  0  0  0  0  0  0  0  0  0
   70.2992   48.6004   52.4301 C   0  0  0  0  0  0  0  0  0  0  0  0
   70.7055   48.7143   51.2350 O   0  0  0  0  0  0  0  0  0  0  0  0
   69.3469   47.6579   52.7163 C   0  0  0  0  0  0  0  0  0  0  0  0
   68.8401   46.8618   51.7148 C   0  0  0  0  0  0  0  0  0  0  0  0
   67.8770   45.9382   52.0558 C   0  0  0  0  0  0  0  0  0  0  0  0
   67.4200   45.7980   53.3467 C   0  0  0  0  0  0  0  0  0  0  0  0
   67.9405   46.6057   54.3365 C   0  0  0  0  0  0  0  0  0  0  0  0
   68.9113   47.5451   54.0365 C   0  0  0  0  0  0  0  0  0  0  0  0
 17 18  2  0
 18 19  1  0
 18  8  1  0
 19 20  1  0
 19 21  1  0
 20 21  1  0
  8  9  1  0
  8 16  1  0
  9 10  1  0
 10 11  1  0
 11 12  1  0
 12 13  1  0
 12 15  1  0
 13 14  2  0
 13  1  1  0
  1  2  2  0
  1  6  1  0
  2  3  1  0
  3 22  1  0
  3  4  2  0
 22 23  1  0
 23 24  2  0
 23 33  1  0
 24 25  1  0
 25 26  1  0
 26 27  2  0
 26 28  1  0
 28 29  1  0
 28 33  2  0
 29 30  2  0
 30 31  1  0
 31 32  2  0
 32 33  1  0
  4  5  1  0
  5  6  2  0
  6  7  1  0
 15 16  1  0
M  CHG  1  17   1
M  END
>  <minimizedAffinity>  (84) 
-10.16497

$$$$
cs_full_output_folder/data/smiles/661.pdb
     RDKit          3D

 33 37  0  0  0  0  0  0  0  0999 V2000
   71.6231   47.0845   58.9510 C   0  0  0  0  0  0  0  0  0  0  0  0
   70.7817   47.8853   58.1952 C   0  0  0  0  0  0  0  0  0  0  0  0
   69.9030   47.4116   57.2505 C   0  0  0  0  0  0  0  0  0  0  0  0
   69.8777   46.0378   57.0628 C   0  0  0  0  0  0  0  0  0  0  0  0
   70.6977   45.2013   57.7930 C   0  0  0  0  0  0  0  0  0  0  0  0
   71.5666   45.7233   58.7314 C   0  0  0  0  0  0  0  0  0  0  0  0
   72.3824   44.8925   59.4544 F   0  0  0  0  0  0  0  0  0  0  0  0
   75.4028   49.8265   58.0834 N   0  0  2  0  0  0  0  0  0  0  0  0
   75.1282   50.6770   59.1692 C   0  0  0  0  0  0  0  0  0  0  0  0
   74.8604   50.0614   60.4885 C   0  0  0  0  0  0  0  0  0  0  0  0
   74.6995   48.5799   60.5206 C   0  0  0  0  0  0  0  0  0  0  0  0
   73.8357   48.0245   59.5301 N   0  0  0  0  0  0  0  0  0  0  0  0
   72.5328   47.6547   59.9415 C   0  0  0  0  0  0  0  0  0  0  0  0
   72.1523   47.8020   61.1062 O   0  0  0  0  0  0  0  0  0  0  0  0
   74.1724   47.7964   58.1286 C   0  0  0  0  0  0  0  0  0  0  0  0
   74.2944   49.1671   57.4949 C   0  0  0  0  0  0  0  0  0  0  0  0
   77.7072   51.6034   56.0881 O   0  0  0  0  0  0  0  0  0  0  0  0
   77.5854   50.5933   56.7314 C   0  0  0  0  0  0  0  0  0  0  0  0
   77.8531   50.1758   58.1269 C   0  0  0  0  0  0  0  0  0  0  0  0
   76.6701   49.2419   57.9723 C   0  0  0  0  0  0  0  0  0  0  0  0
   77.1031   49.2123   56.4924 C   0  0  0  0  0  0  0  0  0  0  0  0
   69.0192   48.2909   56.4662 C   0  0  0  0  0  0  0  0  0  0  0  0
   69.4530   48.3710   55.0618 C   0  0  0  0  0  0  0  0  0  0  0  0
   70.4055   49.2505   54.6785 N   0  0  0  0  0  0  0  0  0  0  0  0
   70.8145   49.3524   53.4338 N   0  0  0  0  0  0  0  0  0  0  0  0
   70.3226   48.5916   52.4335 C   0  0  0  0  0  0  0  0  0  0  0  0
   70.7159   48.6922   51.2413 O   0  0  0  0  0  0  0  0  0  0  0  0
   69.3411   47.6642   52.7439 C   0  0  0  0  0  0  0  0  0  0  0  0
   68.8096   46.8645   51.7524 C   0  0  0  0  0  0  0  0  0  0  0  0
   67.8383   45.9453   52.0689 C   0  0  0  0  0  0  0  0  0  0  0  0
   67.4309   45.8621   53.3834 C   0  0  0  0  0  0  0  0  0  0  0  0
   67.9600   46.6650   54.3863 C   0  0  0  0  0  0  0  0  0  0  0  0
   68.9227   47.5703   54.0536 C   0  0  0  0  0  0  0  0  0  0  0  0
 17 18  2  0
 18 19  1  0
 18 21  1  0
 19 20  1  0
  8 20  1  1
 20 21  1  0
  8  9  1  0
  8 16  1  0
  9 10  1  0
 10 11  1  0
 11 12  1  0
 12 13  1  0
 12 15  1  0
 13 14  2  0
 13  1  1  0
  1  2  2  0
  1  6  1  0
  2  3  1  0
  3 22  1  0
  3  4  2  0
 22 23  1  0
 23 24  2  0
 23 33  1  0
 24 25  1  0
 25 26  1  0
 26 27  2  0
 26 28  1  0
 28 29  1  0
 28 33  2  0
 29 30  2  0
 30 31  1  0
 31 32  2  0
 32 33  1  0
  4  5  1  0
  5  6  2  0
  6  7  1  0
 15 16  1  0
M  CHG  1   8   1
M  END
>  <minimizedAffinity>  (85) 
-10.13505

$$$$
cs_full_output_folder/data/smiles/9135.pdb
     RDKit          3D

 32 36  0  0  0  0  0  0  0  0999 V2000
   71.3833   46.9269   58.7564 C   0  0  0  0  0  0  0  0  0  0  0  0
   70.5643   47.7571   57.9961 C   0  0  0  0  0  0  0  0  0  0  0  0
   69.6767   47.2911   57.0840 C   0  0  0  0  0  0  0  0  0  0  0  0
   69.5716   45.9086   56.8883 C   0  0  0  0  0  0  0  0  0  0  0  0
   70.3749   45.0733   57.6308 C   0  0  0  0  0  0  0  0  0  0  0  0
   71.2747   45.5715   58.5587 C   0  0  0  0  0  0  0  0  0  0  0  0
   72.0506   44.7306   59.2736 F   0  0  0  0  0  0  0  0  0  0  0  0
   75.4523   48.6680   58.8646 C   0  0  0  0  0  0  0  0  0  0  0  0
   74.7942   48.3556   60.1902 C   0  0  0  0  0  0  0  0  0  0  0  0
   73.6467   47.8144   59.4429 N   0  0  0  0  0  0  0  0  0  0  0  0
   72.3123   47.4487   59.7309 C   0  0  0  0  0  0  0  0  0  0  0  0
   71.9116   47.5876   60.9143 O   0  0  0  0  0  0  0  0  0  0  0  0
   74.4456   47.7932   58.2246 C   0  0  0  0  0  0  0  0  0  0  0  0
   74.9934   50.9466   59.6345 C   0  0  0  0  0  0  0  0  0  0  0  0
   75.5386   50.1061   58.5074 C   0  0  1  0  0  0  0  0  0  0  0  0
   76.7057   50.5721   57.8715 N   0  0  0  0  0  0  0  0  0  0  0  0
   77.8451   50.3100   58.7778 C   0  0  0  0  0  0  0  0  0  0  0  0
   79.0388   50.6253   57.9126 C   0  0  0  0  0  0  0  0  0  0  0  0
   78.5417   50.5882   56.4865 C   0  0  0  0  0  0  0  0  0  0  0  0
   77.1489   49.9588   56.6785 C   0  0  0  0  0  0  0  0  0  0  0  0
   68.7776   48.1222   56.2687 C   0  0  0  0  0  0  0  0  0  0  0  0
   69.2211   48.3099   54.8651 C   0  0  0  0  0  0  0  0  0  0  0  0
   70.1328   49.2656   54.5633 N   0  0  0  0  0  0  0  0  0  0  0  0
   70.5629   49.3887   53.3343 N   0  0  0  0  0  0  0  0  0  0  0  0
   70.1619   48.6221   52.3175 C   0  0  0  0  0  0  0  0  0  0  0  0
   70.6333   48.8078   51.1440 O   0  0  0  0  0  0  0  0  0  0  0  0
   69.2341   47.6339   52.5604 C   0  0  0  0  0  0  0  0  0  0  0  0
   68.8030   46.8492   51.5156 C   0  0  0  0  0  0  0  0  0  0  0  0
   67.8598   45.8723   51.7609 C   0  0  0  0  0  0  0  0  0  0  0  0
   67.3792   45.7098   53.0384 C   0  0  0  0  0  0  0  0  0  0  0  0
   67.8289   46.5097   54.0683 C   0  0  0  0  0  0  0  0  0  0  0  0
   68.7707   47.4976   53.8715 C   0  0  0  0  0  0  0  0  0  0  0  0
 15 14  1  1
 15  8  1  0
 15 16  1  0
  8  9  1  0
  8 13  1  0
  9 10  1  0
 10 11  1  0
 10 13  1  0
 11 12  2  0
 11  1  1  0
  1  2  2  0
  1  6  1  0
  2  3  1  0
  3 21  1  0
  3  4  2  0
 21 22  1  0
 22 23  2  0
 22 32  1  0
 23 24  1  0
 24 25  1  0
 25 26  2  0
 25 27  1  0
 27 28  1  0
 27 32  2  0
 28 29  2  0
 29 30  1  0
 30 31  2  0
 31 32  1  0
  4  5  1  0
  5  6  2  0
  6  7  1  0
 16 17  1  0
 16 20  1  0
 17 18  1  0
 18 19  1  0
 19 20  1  0
M  CHG  1  16   1
M  END
>  <minimizedAffinity>  (86) 
-10.08276

$$$$
cs_full_output_folder/data/smiles/121.pdb
     RDKit          3D

 26 27  0  0  0  0  0  0  0  0999 V2000
   70.0023   49.2020   52.6138 S   0  0  0  0  0  0  0  0  0  0  0  0
   69.9947   49.0523   51.0964 O   0  0  0  0  0  0  0  0  0  0  0  0
   71.4802   49.1867   52.9741 O   0  0  0  0  0  0  0  0  0  0  0  0
   69.2173   47.7713   53.2285 C   0  0  0  0  0  0  0  0  0  0  0  0
   68.5560   46.8843   52.3713 C   0  0  0  0  0  0  0  0  0  0  0  0
   68.5328   47.1973   51.0625 F   0  0  0  0  0  0  0  0  0  0  0  0
   67.9485   45.7378   52.8190 C   0  0  0  0  0  0  0  0  0  0  0  0
   67.3049   44.8744   51.9797 F   0  0  0  0  0  0  0  0  0  0  0  0
   67.9914   45.4465   54.1639 C   0  0  0  0  0  0  0  0  0  0  0  0
   67.4090   44.3215   54.6874 F   0  0  0  0  0  0  0  0  0  0  0  0
   68.6316   46.2909   55.0539 C   0  0  0  0  0  0  0  0  0  0  0  0
   68.6727   46.0011   56.3849 F   0  0  0  0  0  0  0  0  0  0  0  0
   69.2323   47.4339   54.5793 C   0  0  0  0  0  0  0  0  0  0  0  0
   69.8793   48.3026   55.4197 F   0  0  0  0  0  0  0  0  0  0  0  0
   69.2694   50.6675   53.0466 N   0  0  0  0  0  0  0  0  0  0  0  0
   71.3940   52.6362   55.3412 C   0  0  0  0  0  0  0  0  0  0  0  0
   70.4026   53.2378   56.1149 C   0  0  0  0  0  0  0  0  0  0  0  0
   69.0580   52.9887   55.8815 C   0  0  0  0  0  0  0  0  0  0  0  0
   68.6536   52.1238   54.8599 C   0  0  0  0  0  0  0  0  0  0  0  0
   69.6238   51.5350   54.1043 C   0  0  0  0  0  0  0  0  0  0  0  0
   70.9730   51.7962   54.3518 C   0  0  0  0  0  0  0  0  0  0  0  0
   72.7412   52.9514   55.6493 N   0  0  0  0  0  0  0  0  0  0  0  0
   73.9901   50.5564   54.7731 N   0  0  0  0  0  0  0  0  0  0  0  0
   73.9852   52.2985   54.6559 S   0  0  0  0  0  0  0  0  0  0  0  0
   75.3024   52.8087   55.1520 O   0  0  0  0  0  0  0  0  0  0  0  0
   73.7700   52.6597   53.2075 O   0  0  0  0  0  0  0  0  0  0  0  0
 23 24  1  0
 24 25  2  0
 24 26  2  0
 24 22  1  0
 22 16  1  0
 16 17  2  0
 16 21  1  0
 17 18  1  0
 18 19  2  0
 19 20  1  0
 20 15  1  0
 20 21  2  0
 15  1  1  0
  1  2  2  0
  1  3  2  0
  1  4  1  0
  4  5  2  0
  4 13  1  0
  5  6  1  0
  5  7  1  0
  7  8  1  0
  7  9  2  0
  9 10  1  0
  9 11  1  0
 11 12  1  0
 11 13  2  0
 13 14  1  0
M  END
>  <minimizedAffinity>  (87) 
-10.08047

$$$$
cs_full_output_folder/data/smiles/161.pdb
     RDKit          3D

 28 30  0  0  0  0  0  0  0  0999 V2000
   68.3957   46.0296   54.1440 C   0  0  0  0  0  0  0  0  0  0  0  0
   67.8300   45.6709   52.9273 C   0  0  0  0  0  0  0  0  0  0  0  0
   67.9762   46.4378   51.7825 C   0  0  0  0  0  0  0  0  0  0  0  0
   68.7022   47.5941   51.8434 C   0  0  0  0  0  0  0  0  0  0  0  0
   69.2805   47.9858   53.0353 C   0  0  0  0  0  0  0  0  0  0  0  0
   69.1125   47.2016   54.1378 C   0  0  0  0  0  0  0  0  0  0  0  0
   67.7813   43.8700   55.3522 N   0  0  0  0  0  0  0  0  0  0  0  0
   68.2493   45.2100   55.3331 C   0  0  0  0  0  0  0  0  0  0  0  0
   68.5542   45.6941   56.4518 O   0  0  0  0  0  0  0  0  0  0  0  0
   67.6058   41.0248   55.6300 O   0  0  0  0  0  0  0  0  0  0  0  0
   67.6058   41.7372   56.6469 C   0  0  0  0  0  0  0  0  0  0  0  0
   67.6888   43.1318   56.5355 N   0  0  0  0  0  0  0  0  0  0  0  0
   67.5121   41.0503   57.9849 C   0  0  0  0  0  0  0  0  0  0  0  0
   68.7521   40.2787   58.2589 C   0  0  0  0  0  0  0  0  0  0  0  0
   69.9378   40.9846   58.2387 C   0  0  0  0  0  0  0  0  0  0  0  0
   71.1498   40.3725   58.4721 C   0  0  0  0  0  0  0  0  0  0  0  0
   71.1520   39.0120   58.7327 C   0  0  0  0  0  0  0  0  0  0  0  0
   69.9950   38.2701   58.7631 C   0  0  0  0  0  0  0  0  0  0  0  0
   68.7908   38.9278   58.5213 C   0  0  0  0  0  0  0  0  0  0  0  0
   70.2074   49.4582   53.0557 S   0  0  0  0  0  0  0  0  0  0  0  0
   71.6545   49.1035   52.8530 O   0  0  0  0  0  0  0  0  0  0  0  0
   69.7528   50.2701   51.8500 O   0  0  0  0  0  0  0  0  0  0  0  0
   70.0147   50.3920   54.4205 N   0  0  0  0  0  0  0  0  0  0  0  0
   69.9198   49.8155   55.6843 C   0  0  0  0  0  0  0  0  0  0  0  0
   68.7852   50.2888   56.5503 C   0  0  0  0  0  0  0  0  0  0  0  0
   68.2263   51.6209   56.2136 C   0  0  0  0  0  0  0  0  0  0  0  0
   68.2250   51.9559   54.7392 C   0  0  0  0  0  0  0  0  0  0  0  0
   69.6496   51.7489   54.2575 C   0  0  0  0  0  0  0  0  0  0  0  0
 10 11  2  0
 11 13  1  0
 11 12  1  0
 13 14  1  0
 14 15  2  0
 14 19  1  0
 15 16  1  0
 16 17  2  0
 17 18  1  0
 18 19  2  0
 12  7  1  0
  7  8  1  0
  8  9  2  0
  8  1  1  0
  1  2  2  0
  1  6  1  0
  2  3  1  0
  3  4  2  0
  4  5  1  0
  5 20  1  0
  5  6  2  0
 20 21  2  0
 20 22  2  0
 20 23  1  0
 23 24  1  0
 23 28  1  0
 24 25  1  0
 25 26  1  0
 26 27  1  0
 27 28  1  0
M  END
>  <minimizedAffinity>  (88) 
-10.03452

$$$$
cs_full_output_folder/data/smiles/6426.pdb
     RDKit          3D

 31 34  0  0  0  0  0  0  0  0999 V2000
   71.4630   46.8691   58.9510 C   0  0  0  0  0  0  0  0  0  0  0  0
   70.5510   47.6620   58.2620 C   0  0  0  0  0  0  0  0  0  0  0  0
   69.6811   47.1341   57.3481 C   0  0  0  0  0  0  0  0  0  0  0  0
   69.7685   45.7464   57.1502 C   0  0  0  0  0  0  0  0  0  0  0  0
   70.6675   44.9589   57.8286 C   0  0  0  0  0  0  0  0  0  0  0  0
   71.5256   45.5127   58.7380 C   0  0  0  0  0  0  0  0  0  0  0  0
   72.4145   44.7207   59.4065 F   0  0  0  0  0  0  0  0  0  0  0  0
   72.0176   47.5585   61.1146 O   0  0  0  0  0  0  0  0  0  0  0  0
   72.3755   47.4483   59.9132 C   0  0  0  0  0  0  0  0  0  0  0  0
   73.6694   47.9026   59.5619 N   0  0  0  0  0  0  0  0  0  0  0  0
   74.6989   48.5006   60.3851 C   0  0  0  0  0  0  0  0  0  0  0  0
   75.2143   49.6111   59.4623 C   0  0  0  0  0  0  0  0  0  0  0  0
   74.8314   49.2158   58.0707 C   0  0  2  0  0  0  0  0  0  0  0  0
   74.2209   47.8413   58.2263 C   0  0  0  0  0  0  0  0  0  0  0  0
   76.0276   49.1891   57.1337 C   0  0  0  0  0  0  0  0  0  0  0  0
   75.6911   50.3338   55.8174 S   0  0  0  0  0  0  0  0  0  0  0  0
   76.8728   51.2427   55.5805 O   0  0  0  0  0  0  0  0  0  0  0  0
   75.3929   49.5809   54.5562 O   0  0  0  0  0  0  0  0  0  0  0  0
   74.4034   51.2799   56.2664 O   0  0  0  0  0  0  0  0  0  0  0  0
   68.6663   47.8717   56.5701 C   0  0  0  0  0  0  0  0  0  0  0  0
   69.1442   48.0584   55.1941 C   0  0  0  0  0  0  0  0  0  0  0  0
   70.1070   49.0092   55.0066 N   0  0  0  0  0  0  0  0  0  0  0  0
   70.6715   49.2816   53.8573 N   0  0  0  0  0  0  0  0  0  0  0  0
   70.3271   48.6202   52.7533 C   0  0  0  0  0  0  0  0  0  0  0  0
   70.8868   48.9025   51.6653 O   0  0  0  0  0  0  0  0  0  0  0  0
   69.3568   47.6457   52.8749 C   0  0  0  0  0  0  0  0  0  0  0  0
   68.9823   46.9609   51.7382 C   0  0  0  0  0  0  0  0  0  0  0  0
   67.9922   45.9768   51.8412 C   0  0  0  0  0  0  0  0  0  0  0  0
   67.4177   45.7233   53.0874 C   0  0  0  0  0  0  0  0  0  0  0  0
   67.8018   46.4160   54.2125 C   0  0  0  0  0  0  0  0  0  0  0  0
   68.7625   47.3639   54.0973 C   0  0  0  0  0  0  0  0  0  0  0  0
  8  9  2  0
  9  1  1  0
  9 10  1  0
  1  2  2  0
  1  6  1  0
  2  3  1  0
  3 20  1  0
  3  4  2  0
 20 21  1  0
 21 22  2  0
 21 31  1  0
 22 23  1  0
 23 24  1  0
 24 25  2  0
 24 26  1  0
 26 27  1  0
 26 31  2  0
 27 28  2  0
 28 29  1  0
 29 30  2  0
 30 31  1  0
  4  5  1  0
  5  6  2  0
  6  7  1  0
 10 11  1  0
 10 14  1  0
 11 12  1  0
 12 13  1  0
 13 15  1  6
 13 14  1  0
 15 16  1  0
 16 17  2  0
 16 18  2  0
 16 19  1  0
M  CHG  1  19  -1
M  END
>  <minimizedAffinity>  (89) 
-10.02152

$$$$
cs_full_output_folder/data/smiles/811.pdb
     RDKit          3D

 32 36  0  0  0  0  0  0  0  0999 V2000
   72.2240   44.7882   59.4513 C   0  0  0  0  0  0  0  0  0  0  0  0
   71.3755   45.7048   58.6538 C   0  0  0  0  0  0  0  0  0  0  0  0
   70.4707   45.1886   57.7448 C   0  0  0  0  0  0  0  0  0  0  0  0
   69.6661   46.0011   56.9856 C   0  0  0  0  0  0  0  0  0  0  0  0
   69.7997   47.3860   57.1701 C   0  0  0  0  0  0  0  0  0  0  0  0
   70.6994   47.8830   58.0729 C   0  0  0  0  0  0  0  0  0  0  0  0
   71.5172   47.0628   58.8446 C   0  0  0  0  0  0  0  0  0  0  0  0
   72.4710   47.6115   59.8016 C   0  0  0  0  0  0  0  0  0  0  0  0
   72.1013   47.8301   60.9658 O   0  0  0  0  0  0  0  0  0  0  0  0
   73.8237   47.9021   59.4282 N   0  0  0  0  0  0  0  0  0  0  0  0
   74.7648   48.4475   60.3833 C   0  0  0  0  0  0  0  0  0  0  0  0
   75.5159   49.6352   59.8369 C   0  0  0  0  0  0  0  0  0  0  0  0
   75.7484   49.5432   58.4148 N   0  0  0  0  0  0  0  0  0  0  0  0
   74.6857   49.0716   57.5560 C   0  0  0  0  0  0  0  0  0  0  0  0
   74.3280   47.6719   58.0858 C   0  0  0  0  0  0  0  0  0  0  0  0
   76.9852   49.8933   57.8145 C   0  0  0  0  0  0  0  0  0  0  0  0
   77.4842   51.0294   58.1523 N   0  0  0  0  0  0  0  0  0  0  0  0
   77.6866   49.0201   56.8469 C   0  0  0  0  0  0  0  0  0  0  0  0
   79.0839   49.3439   56.4297 C   0  0  0  0  0  0  0  0  0  0  0  0
   77.9032   49.3794   55.4445 C   0  0  0  0  0  0  0  0  0  0  0  0
   68.8986   48.2544   56.3591 C   0  0  0  0  0  0  0  0  0  0  0  0
   69.3521   48.2809   54.9492 C   0  0  0  0  0  0  0  0  0  0  0  0
   70.3261   49.1856   54.5989 N   0  0  0  0  0  0  0  0  0  0  0  0
   70.7568   49.3112   53.3631 N   0  0  0  0  0  0  0  0  0  0  0  0
   70.2861   48.5735   52.3481 C   0  0  0  0  0  0  0  0  0  0  0  0
   70.7152   48.7085   51.1508 O   0  0  0  0  0  0  0  0  0  0  0  0
   69.3061   47.6406   52.6151 C   0  0  0  0  0  0  0  0  0  0  0  0
   68.8090   46.8559   51.5977 C   0  0  0  0  0  0  0  0  0  0  0  0
   67.8465   45.9356   51.9279 C   0  0  0  0  0  0  0  0  0  0  0  0
   67.3814   45.7826   53.2139 C   0  0  0  0  0  0  0  0  0  0  0  0
   67.8888   46.5753   54.2193 C   0  0  0  0  0  0  0  0  0  0  0  0
   68.8512   47.5110   53.9395 C   0  0  0  0  0  0  0  0  0  0  0  0
  1  2  1  0
  2  3  2  0
  2  7  1  0
  3  4  1  0
  4  5  2  0
  5 21  1  0
  5  6  1  0
 21 22  1  0
 22 23  2  0
 22 32  1  0
 23 24  1  0
 24 25  1  0
 25 26  2  0
 25 27  1  0
 27 28  1  0
 27 32  2  0
 28 29  2  0
 29 30  1  0
 30 31  2  0
 31 32  1  0
  6  7  2  0
  7  8  1  0
  8  9  2  0
  8 10  1  0
 10 11  1  0
 10 15  1  0
 11 12  1  0
 12 13  1  0
 13 16  1  0
 13 14  1  0
 16 17  2  0
 16 18  1  0
 18 19  1  0
 18 20  1  0
 19 20  1  0
 14 15  1  0
M  CHG  1  17   1
M  END
>  <minimizedAffinity>  (90) 
-10.01213

$$$$
cs_full_output_folder/data/smiles/75.pdb
     RDKit          3D

 29 31  0  0  0  0  0  0  0  0999 V2000
   68.4158   45.9330   54.2638 C   0  0  0  0  0  0  0  0  0  0  0  0
   67.9192   45.6054   53.0316 C   0  0  0  0  0  0  0  0  0  0  0  0
   68.0734   46.4444   51.9413 C   0  0  0  0  0  0  0  0  0  0  0  0
   68.7469   47.6360   52.1232 C   0  0  0  0  0  0  0  0  0  0  0  0
   69.2697   48.0241   53.3374 C   0  0  0  0  0  0  0  0  0  0  0  0
   69.0779   47.1315   54.3912 C   0  0  0  0  0  0  0  0  0  0  0  0
   67.7804   43.7690   55.4298 N   0  0  0  0  0  0  0  0  0  0  0  0
   68.2872   45.0974   55.4458 C   0  0  0  0  0  0  0  0  0  0  0  0
   68.6333   45.5350   56.5716 O   0  0  0  0  0  0  0  0  0  0  0  0
   67.5346   41.0316   55.4605 O   0  0  0  0  0  0  0  0  0  0  0  0
   67.5482   41.5834   56.5866 C   0  0  0  0  0  0  0  0  0  0  0  0
   67.6742   42.9965   56.5980 N   0  0  0  0  0  0  0  0  0  0  0  0
   67.4368   40.7635   57.7875 C   0  0  0  0  0  0  0  0  0  0  0  0
   66.7154   41.2197   58.8707 C   0  0  0  0  0  0  0  0  0  0  0  0
   66.5690   40.4974   60.0361 C   0  0  0  0  0  0  0  0  0  0  0  0
   67.1536   39.2884   60.1331 N   0  0  0  0  0  0  0  0  0  0  0  0
   67.8729   38.8011   59.0906 C   0  0  0  0  0  0  0  0  0  0  0  0
   68.0197   39.5236   57.9243 C   0  0  0  0  0  0  0  0  0  0  0  0
   70.1340   49.5312   53.5844 S   0  0  0  0  0  0  0  0  0  0  0  0
   71.5797   49.3500   53.1436 O   0  0  0  0  0  0  0  0  0  0  0  0
   69.5492   50.5709   52.7038 O   0  0  0  0  0  0  0  0  0  0  0  0
   70.1439   50.0570   55.2007 N   0  0  0  0  0  0  0  0  0  0  0  0
   69.0343   50.1612   56.0603 C   0  0  0  0  0  0  0  0  0  0  0  0
   68.6462   49.0896   56.8271 C   0  0  0  0  0  0  0  0  0  0  0  0
   67.5571   49.1445   57.7011 C   0  0  0  0  0  0  0  0  0  0  0  0
   66.8725   50.3356   57.7690 C   0  0  0  0  0  0  0  0  0  0  0  0
   67.2327   51.4265   57.0179 C   0  0  0  0  0  0  0  0  0  0  0  0
   68.3078   51.3236   56.1742 C   0  0  0  0  0  0  0  0  0  0  0  0
   68.6245   52.4373   55.4498 F   0  0  0  0  0  0  0  0  0  0  0  0
 10 11  2  0
 11 12  1  0
 11 13  1  0
 12  7  1  0
  7  8  1  0
  8  9  2  0
  8  1  1  0
  1  2  2  0
  1  6  1  0
  2  3  1  0
  3  4  2  0
  4  5  1  0
  5 19  1  0
  5  6  2  0
 19 20  2  0
 19 21  2  0
 19 22  1  0
 22 23  1  0
 23 24  2  0
 23 28  1  0
 24 25  1  0
 25 26  2  0
 26 27  1  0
 27 28  2  0
 28 29  1  0
 13 14  2  0
 13 18  1  0
 14 15  1  0
 15 16  2  0
 16 17  1  0
 17 18  2  0
M  END
>  <minimizedAffinity>  (91) 
-10.00645

$$$$
cs_full_output_folder/data/smiles/7297.pdb
     RDKit          3D

 31 35  0  0  0  0  0  0  0  0999 V2000
   71.4096   47.0148   58.8370 C   0  0  0  0  0  0  0  0  0  0  0  0
   71.3807   45.6419   58.7708 C   0  0  0  0  0  0  0  0  0  0  0  0
   70.5345   45.0404   57.8712 C   0  0  0  0  0  0  0  0  0  0  0  0
   69.7127   45.8158   57.0351 C   0  0  0  0  0  0  0  0  0  0  0  0
   69.7269   47.1802   57.0873 C   0  0  0  0  0  0  0  0  0  0  0  0
   70.6005   47.7480   58.0128 C   0  0  0  0  0  0  0  0  0  0  0  0
   72.0128   47.6838   61.0278 O   0  0  0  0  0  0  0  0  0  0  0  0
   72.2855   47.7057   59.7891 C   0  0  0  0  0  0  0  0  0  0  0  0
   73.4264   48.3936   59.3364 N   0  0  0  0  0  0  0  0  0  0  0  0
   74.2826   49.0806   60.2894 C   0  0  0  0  0  0  0  0  0  0  0  0
   74.3983   50.5571   59.9267 C   0  0  0  0  0  0  0  0  0  0  0  0
   73.7531   50.8003   58.5673 C   0  0  0  0  0  0  0  0  0  0  0  0
   74.3729   49.8003   57.6059 C   0  0  0  0  0  0  0  0  0  0  0  0
   73.7804   48.4376   57.9228 C   0  0  0  0  0  0  0  0  0  0  0  0
   74.0491   52.0631   58.0691 O   0  0  0  0  0  0  0  0  0  0  0  0
   72.8745   52.8283   58.1841 C   0  0  0  0  0  0  0  0  0  0  0  0
   71.6695   52.1432   57.5345 C   0  0  0  0  0  0  0  0  0  0  0  0
   71.3447   53.4097   56.7877 C   0  0  0  0  0  0  0  0  0  0  0  0
   72.7412   53.9155   57.1701 C   0  0  0  0  0  0  0  0  0  0  0  0
   68.8619   47.9872   56.2428 C   0  0  0  0  0  0  0  0  0  0  0  0
   69.3223   48.1828   54.8543 C   0  0  0  0  0  0  0  0  0  0  0  0
   70.2098   49.1390   54.5423 N   0  0  0  0  0  0  0  0  0  0  0  0
   70.5835   49.3573   53.3095 N   0  0  0  0  0  0  0  0  0  0  0  0
   70.1124   48.6486   52.2702 C   0  0  0  0  0  0  0  0  0  0  0  0
   70.4932   48.8843   51.0717 O   0  0  0  0  0  0  0  0  0  0  0  0
   69.1970   47.6473   52.5161 C   0  0  0  0  0  0  0  0  0  0  0  0
   68.7115   46.9002   51.4669 C   0  0  0  0  0  0  0  0  0  0  0  0
   67.8062   45.8829   51.6930 C   0  0  0  0  0  0  0  0  0  0  0  0
   67.3940   45.6244   52.9818 C   0  0  0  0  0  0  0  0  0  0  0  0
   67.9066   46.4023   54.0148 C   0  0  0  0  0  0  0  0  0  0  0  0
   68.8081   47.4257   53.8386 C   0  0  0  0  0  0  0  0  0  0  0  0
  7  8  2  0
  8  1  1  0
  8  9  1  0
  1  2  2  0
  1  6  1  0
  2  3  1  0
  3  4  2  0
  4  5  1  0
  5 20  1  0
  5  6  2  0
 20 21  1  0
 21 22  2  0
 21 31  1  0
 22 23  1  0
 23 24  1  0
 24 25  2  0
 24 26  1  0
 26 27  1  0
 26 31  2  0
 27 28  2  0
 28 29  1  0
 29 30  2  0
 30 31  1  0
  9 10  1  0
  9 14  1  0
 10 11  1  0
 11 12  1  0
 12 15  1  0
 12 13  1  0
 15 16  1  0
 16 17  1  0
 16 19  1  0
 17 18  1  0
 18 19  1  0
 13 14  1  0
M  END
>  <minimizedAffinity>  (92) 
-9.98685

$$$$
cs_full_output_folder/data/smiles/76.pdb
     RDKit          3D

 30 33  0  0  0  0  0  0  0  0999 V2000
   68.4216   46.0582   54.1671 C   0  0  0  0  0  0  0  0  0  0  0  0
   67.8602   45.6529   52.9808 C   0  0  0  0  0  0  0  0  0  0  0  0
   67.9961   46.4141   51.8124 C   0  0  0  0  0  0  0  0  0  0  0  0
   68.7198   47.6001   51.8835 C   0  0  0  0  0  0  0  0  0  0  0  0
   69.2909   48.0255   53.0608 C   0  0  0  0  0  0  0  0  0  0  0  0
   69.1273   47.2458   54.1690 C   0  0  0  0  0  0  0  0  0  0  0  0
   67.8182   43.9129   55.3968 N   0  0  0  0  0  0  0  0  0  0  0  0
   68.2592   45.2422   55.3555 C   0  0  0  0  0  0  0  0  0  0  0  0
   68.5439   45.7877   56.4701 O   0  0  0  0  0  0  0  0  0  0  0  0
   67.5621   41.2006   55.4611 O   0  0  0  0  0  0  0  0  0  0  0  0
   67.5463   41.7539   56.5922 C   0  0  0  0  0  0  0  0  0  0  0  0
   67.6785   43.1701   56.5792 N   0  0  0  0  0  0  0  0  0  0  0  0
   67.4016   40.9706   57.8002 C   0  0  0  0  0  0  0  0  0  0  0  0
   68.0030   39.7364   57.8671 C   0  0  0  0  0  0  0  0  0  0  0  0
   67.8814   38.9560   59.0217 C   0  0  0  0  0  0  0  0  0  0  0  0
   67.1612   39.4052   60.1082 C   0  0  0  0  0  0  0  0  0  0  0  0
   66.5654   40.6290   60.0406 C   0  0  0  0  0  0  0  0  0  0  0  0
   66.6885   41.4018   58.8914 C   0  0  0  0  0  0  0  0  0  0  0  0
   70.1807   49.5221   53.0645 S   0  0  0  0  0  0  0  0  0  0  0  0
   69.7653   50.3150   51.8575 O   0  0  0  0  0  0  0  0  0  0  0  0
   71.6434   49.2911   53.1177 O   0  0  0  0  0  0  0  0  0  0  0  0
   69.6345   50.4330   54.4501 N   0  0  0  0  0  0  0  0  0  0  0  0
   68.7687   51.5961   54.4427 C   0  0  0  0  0  0  0  0  0  0  0  0
   68.0345   51.5569   55.7420 C   0  0  0  0  0  0  0  0  0  0  0  0
   69.0139   50.8443   56.6277 C   0  0  0  0  0  0  0  0  0  0  0  0
   69.0648   50.7885   57.9922 C   0  0  0  0  0  0  0  0  0  0  0  0
   70.0740   50.0586   58.5710 C   0  0  0  0  0  0  0  0  0  0  0  0
   71.0087   49.4014   57.7933 C   0  0  0  0  0  0  0  0  0  0  0  0
   70.9545   49.4613   56.4165 C   0  0  0  0  0  0  0  0  0  0  0  0
   69.9430   50.1917   55.8233 C   0  0  0  0  0  0  0  0  0  0  0  0
 10 11  2  0
 11 12  1  0
 11 13  1  0
 12  7  1  0
  7  8  1  0
  8  9  2  0
  8  1  1  0
  1  2  2  0
  1  6  1  0
  2  3  1  0
  3  4  2  0
  4  5  1  0
  5 19  1  0
  5  6  2  0
 19 20  2  0
 19 21  2  0
 19 22  1  0
 22 23  1  0
 22 30  1  0
 23 24  1  0
 24 25  1  0
 25 26  1  0
 25 30  2  0
 26 27  2  0
 27 28  1  0
 28 29  2  0
 29 30  1  0
 13 14  2  0
 13 18  1  0
 14 15  1  0
 15 16  2  0
 16 17  1  0
 17 18  2  0
M  END
>  <minimizedAffinity>  (93) 
-9.98060

$$$$
cs_full_output_folder/data/smiles/3260.pdb
     RDKit          3D

 32 36  0  0  0  0  0  0  0  0999 V2000
   71.8709   46.9242   59.3464 C   0  0  0  0  0  0  0  0  0  0  0  0
   72.0882   45.5592   59.2195 C   0  0  0  0  0  0  0  0  0  0  0  0
   71.3280   44.8216   58.3417 C   0  0  0  0  0  0  0  0  0  0  0  0
   70.3356   45.4559   57.5818 C   0  0  0  0  0  0  0  0  0  0  0  0
   70.0933   46.7920   57.6802 C   0  0  0  0  0  0  0  0  0  0  0  0
   70.8938   47.5094   58.5896 C   0  0  0  0  0  0  0  0  0  0  0  0
   72.4290   47.7594   61.4936 O   0  0  0  0  0  0  0  0  0  0  0  0
   72.7044   47.7074   60.2769 C   0  0  0  0  0  0  0  0  0  0  0  0
   73.8360   48.4026   59.7291 N   0  0  0  0  0  0  0  0  0  0  0  0
   74.7146   49.1933   60.5447 C   0  0  0  0  0  0  0  0  0  0  0  0
   75.0212   50.5495   59.9371 C   0  0  0  0  0  0  0  0  0  0  0  0
   74.2697   50.7792   58.7260 N   0  0  0  0  0  0  0  0  0  0  0  0
   74.1398   49.7168   57.7372 C   0  0  0  0  0  0  0  0  0  0  0  0
   74.1579   48.3416   58.3118 C   0  0  0  0  0  0  0  0  0  0  0  0
   73.6610   52.0389   58.4733 C   0  0  0  0  0  0  0  0  0  0  0  0
   72.4327   52.1931   57.8857 C   0  0  0  0  0  0  0  0  0  0  0  0
   71.8939   53.4377   57.6566 C   0  0  0  0  0  0  0  0  0  0  0  0
   72.6169   54.5491   58.0312 C   0  0  0  0  0  0  0  0  0  0  0  0
   73.8494   54.3839   58.6210 C   0  0  0  0  0  0  0  0  0  0  0  0
   74.3533   53.1559   58.8342 N   0  0  0  0  0  0  0  0  0  0  0  0
   69.0824   47.5613   56.8991 C   0  0  0  0  0  0  0  0  0  0  0  0
   68.6455   46.9100   55.6553 C   0  0  0  0  0  0  0  0  0  0  0  0
   68.1094   45.6547   55.7600 N   0  0  0  0  0  0  0  0  0  0  0  0
   67.7376   44.9186   54.7328 N   0  0  0  0  0  0  0  0  0  0  0  0
   67.8829   45.4066   53.4966 C   0  0  0  0  0  0  0  0  0  0  0  0
   67.5229   44.6895   52.5323 O   0  0  0  0  0  0  0  0  0  0  0  0
   68.4179   46.6729   53.3184 C   0  0  0  0  0  0  0  0  0  0  0  0
   68.8032   47.4344   54.4159 C   0  0  0  0  0  0  0  0  0  0  0  0
   69.2888   48.7764   54.1655 C   0  0  0  0  0  0  0  0  0  0  0  0
   70.3054   48.8001   53.0156 C   0  0  0  0  0  0  0  0  0  0  0  0
   69.9298   47.9045   51.8830 C   0  0  0  0  0  0  0  0  0  0  0  0
   68.5943   47.2480   51.9805 C   0  0  0  0  0  0  0  0  0  0  0  0
  7  8  2  0
  8  1  1  0
  8  9  1  0
  1  2  2  0
  1  6  1  0
  2  3  1  0
  3  4  2  0
  4  5  1  0
  5 21  1  0
  5  6  2  0
 21 22  1  0
 22 23  2  0
 22 28  1  0
 23 24  1  0
 24 25  1  0
 25 26  2  0
 25 27  1  0
 27 28  2  0
 27 32  1  0
 28 29  1  0
 29 30  1  0
 30 31  1  0
 31 32  1  0
  9 10  1  0
  9 14  1  0
 10 11  1  0
 11 12  1  0
 12 15  1  0
 12 13  1  0
 15 16  2  0
 15 20  1  0
 16 17  1  0
 17 18  2  0
 18 19  1  0
 19 20  2  0
 13 14  1  0
M  END
>  <minimizedAffinity>  (94) 
-9.95287

$$$$
cs_full_output_folder/data/smiles/8023.pdb
     RDKit          3D

 31 34  0  0  0  0  0  0  0  0999 V2000
   71.3432   46.7818   58.8601 C   0  0  0  0  0  0  0  0  0  0  0  0
   70.6007   47.6828   58.1278 C   0  0  0  0  0  0  0  0  0  0  0  0
   69.7405   47.2618   57.1447 C   0  0  0  0  0  0  0  0  0  0  0  0
   69.6730   45.8759   56.9409 C   0  0  0  0  0  0  0  0  0  0  0  0
   70.4060   44.9826   57.6641 C   0  0  0  0  0  0  0  0  0  0  0  0
   70.3230   43.6364   57.4490 F   0  0  0  0  0  0  0  0  0  0  0  0
   71.2650   45.4234   58.6484 C   0  0  0  0  0  0  0  0  0  0  0  0
   72.0121   44.5728   59.3887 F   0  0  0  0  0  0  0  0  0  0  0  0
   77.4494   49.7379   56.9601 C   0  0  0  0  0  0  0  0  0  0  0  0
   76.7377   49.9901   58.2396 C   0  0  0  0  0  0  0  0  0  0  0  0
   76.9381   51.0986   58.7966 O   0  0  0  0  0  0  0  0  0  0  0  0
   75.8655   49.0311   58.8237 N   0  0  0  0  0  0  0  0  0  0  0  0
   75.2083   49.3424   60.0762 C   0  0  0  0  0  0  0  0  0  0  0  0
   74.5274   48.0807   60.6167 C   0  0  0  0  0  0  0  0  0  0  0  0
   73.6043   47.5952   59.5933 N   0  0  0  0  0  0  0  0  0  0  0  0
   72.2589   47.2666   59.9070 C   0  0  0  0  0  0  0  0  0  0  0  0
   71.8393   47.3863   61.0778 O   0  0  0  0  0  0  0  0  0  0  0  0
   74.1061   47.4635   58.2443 C   0  0  0  0  0  0  0  0  0  0  0  0
   75.5950   47.7416   58.2261 C   0  0  0  0  0  0  0  0  0  0  0  0
   68.9129   48.1850   56.3361 C   0  0  0  0  0  0  0  0  0  0  0  0
   69.3176   48.2797   54.9173 C   0  0  0  0  0  0  0  0  0  0  0  0
   70.2743   49.1849   54.5594 N   0  0  0  0  0  0  0  0  0  0  0  0
   70.7153   49.3033   53.3276 N   0  0  0  0  0  0  0  0  0  0  0  0
   70.2717   48.5511   52.3088 C   0  0  0  0  0  0  0  0  0  0  0  0
   70.7178   48.6920   51.1440 O   0  0  0  0  0  0  0  0  0  0  0  0
   69.3067   47.6144   52.5866 C   0  0  0  0  0  0  0  0  0  0  0  0
   68.8178   46.8348   51.5758 C   0  0  0  0  0  0  0  0  0  0  0  0
   67.8529   45.9208   51.8649 C   0  0  0  0  0  0  0  0  0  0  0  0
   67.3601   45.7643   53.1371 C   0  0  0  0  0  0  0  0  0  0  0  0
   67.8889   46.5830   54.1389 C   0  0  0  0  0  0  0  0  0  0  0  0
   68.8497   47.5013   53.8917 C   0  0  0  0  0  0  0  0  0  0  0  0
  9 10  1  0
 10 11  2  0
 10 12  1  0
 12 13  1  0
 12 19  1  0
 13 14  1  0
 14 15  1  0
 15 16  1  0
 15 18  1  0
 16 17  2  0
 16  1  1  0
  1  2  2  0
  1  7  1  0
  2  3  1  0
  3 20  1  0
  3  4  2  0
 20 21  1  0
 21 22  2  0
 21 31  1  0
 22 23  1  0
 23 24  1  0
 24 25  2  0
 24 26  1  0
 26 27  1  0
 26 31  2  0
 27 28  2  0
 28 29  1  0
 29 30  2  0
 30 31  1  0
  4  5  1  0
  5  6  1  0
  5  7  2  0
  7  8  1  0
 18 19  1  0
M  END
>  <minimizedAffinity>  (95) 
-9.93939

$$$$
cs_full_output_folder/data/smiles/1086.pdb
     RDKit          3D

 32 36  0  0  0  0  0  0  0  0999 V2000
   71.3307   46.7832   58.8179 C   0  0  0  0  0  0  0  0  0  0  0  0
   71.4322   45.4332   58.6365 C   0  0  0  0  0  0  0  0  0  0  0  0
   70.6359   44.7873   57.7110 C   0  0  0  0  0  0  0  0  0  0  0  0
   69.7557   45.5242   56.9910 C   0  0  0  0  0  0  0  0  0  0  0  0
   69.6004   46.9205   57.1283 C   0  0  0  0  0  0  0  0  0  0  0  0
   70.4083   47.5088   58.0534 C   0  0  0  0  0  0  0  0  0  0  0  0
   71.7408   47.3987   60.9954 O   0  0  0  0  0  0  0  0  0  0  0  0
   72.1709   47.4440   59.7864 C   0  0  0  0  0  0  0  0  0  0  0  0
   73.3871   48.1100   59.5009 N   0  0  0  0  0  0  0  0  0  0  0  0
   74.1110   48.7245   60.5701 C   0  0  0  0  0  0  0  0  0  0  0  0
   74.8862   49.9334   60.2200 C   0  0  0  0  0  0  0  0  0  0  0  0
   74.8155   50.4261   58.8258 C   0  0  0  0  0  0  0  0  0  0  0  0
   74.5781   49.4078   57.7621 C   0  0  0  0  0  0  0  0  0  0  0  0
   73.8793   48.1636   58.1683 C   0  0  0  0  0  0  0  0  0  0  0  0
   73.8613   51.5375   58.5924 C   0  0  0  0  0  0  0  0  0  0  0  0
   72.5261   51.3762   58.3133 C   0  0  0  0  0  0  0  0  0  0  0  0
   71.7157   52.4828   58.1123 C   0  0  0  0  0  0  0  0  0  0  0  0
   72.1995   53.7692   58.1843 C   0  0  0  0  0  0  0  0  0  0  0  0
   73.5473   53.8875   58.4678 C   0  0  0  0  0  0  0  0  0  0  0  0
   74.3198   52.7976   58.6596 N   0  0  0  0  0  0  0  0  0  0  0  0
   68.5893   47.6217   56.2864 C   0  0  0  0  0  0  0  0  0  0  0  0
   69.0577   47.8501   54.9277 C   0  0  0  0  0  0  0  0  0  0  0  0
   69.9599   48.8573   54.7317 N   0  0  0  0  0  0  0  0  0  0  0  0
   70.4110   49.2021   53.5379 N   0  0  0  0  0  0  0  0  0  0  0  0
   70.0153   48.5861   52.4122 C   0  0  0  0  0  0  0  0  0  0  0  0
   70.4489   48.9205   51.2632 O   0  0  0  0  0  0  0  0  0  0  0  0
   69.1053   47.5548   52.5188 C   0  0  0  0  0  0  0  0  0  0  0  0
   68.6813   46.8782   51.4013 C   0  0  0  0  0  0  0  0  0  0  0  0
   67.7932   45.8405   51.5179 C   0  0  0  0  0  0  0  0  0  0  0  0
   67.3421   45.5022   52.7909 C   0  0  0  0  0  0  0  0  0  0  0  0
   67.7627   46.1786   53.9196 C   0  0  0  0  0  0  0  0  0  0  0  0
   68.6406   47.2044   53.7927 C   0  0  0  0  0  0  0  0  0  0  0  0
  7  8  2  0
  8  1  1  0
  8  9  1  0
  1  2  2  0
  1  6  1  0
  2  3  1  0
  3  4  2  0
  4  5  1  0
  5 21  1  0
  5  6  2  0
 21 22  1  0
 22 23  2  0
 22 32  1  0
 23 24  1  0
 24 25  1  0
 25 26  2  0
 25 27  1  0
 27 28  1  0
 27 32  2  0
 28 29  2  0
 29 30  1  0
 30 31  2  0
 31 32  1  0
  9 10  1  0
  9 14  1  0
 10 11  1  0
 11 12  1  0
 12 15  1  0
 12 13  1  0
 15 16  2  0
 15 20  1  0
 16 17  1  0
 17 18  2  0
 18 19  1  0
 19 20  2  0
 13 14  1  0
M  END
>  <minimizedAffinity>  (96) 
-9.92981

$$$$
cs_full_output_folder/data/smiles/221.pdb
     RDKit          3D

 28 30  0  0  0  0  0  0  0  0999 V2000
   69.1161   47.8470   52.9448 C   0  0  0  0  0  0  0  0  0  0  0  0
   68.5633   47.3607   51.7729 C   0  0  0  0  0  0  0  0  0  0  0  0
   67.8994   46.1564   51.7223 C   0  0  0  0  0  0  0  0  0  0  0  0
   67.7857   45.4048   52.8988 C   0  0  0  0  0  0  0  0  0  0  0  0
   68.3232   45.8587   54.0791 C   0  0  0  0  0  0  0  0  0  0  0  0
   68.9732   47.0709   54.0581 C   0  0  0  0  0  0  0  0  0  0  0  0
   69.9498   49.3861   52.9514 S   0  0  0  0  0  0  0  0  0  0  0  0
   71.4293   49.1148   53.1134 O   0  0  0  0  0  0  0  0  0  0  0  0
   69.7530   50.0068   51.6102 O   0  0  0  0  0  0  0  0  0  0  0  0
   70.8170   49.7997   56.1807 C   0  0  0  0  0  0  0  0  0  0  0  0
   69.4856   49.8551   55.5199 C   0  0  1  0  0  0  0  0  0  0  0  0
   68.5657   50.6791   56.4251 C   0  0  0  0  0  0  0  0  0  0  0  0
   68.9007   52.1547   56.3344 C   0  0  0  0  0  0  0  0  0  0  0  0
   68.9341   52.6268   54.9042 C   0  0  0  0  0  0  0  0  0  0  0  0
   69.8860   51.7602   54.0905 C   0  0  0  0  0  0  0  0  0  0  0  0
   69.4614   50.4091   54.2152 N   0  0  0  0  0  0  0  0  0  0  0  0
   68.1829   45.0512   55.2768 C   0  0  0  0  0  0  0  0  0  0  0  0
   68.5697   45.5758   56.3716 O   0  0  0  0  0  0  0  0  0  0  0  0
   67.6638   43.7509   55.3437 N   0  0  0  0  0  0  0  0  0  0  0  0
   67.5602   43.0262   56.5555 N   0  0  0  0  0  0  0  0  0  0  0  0
   67.5474   41.6148   56.6147 C   0  0  0  0  0  0  0  0  0  0  0  0
   67.6348   41.0176   55.5125 O   0  0  0  0  0  0  0  0  0  0  0  0
   67.4418   40.8513   57.8441 C   0  0  0  0  0  0  0  0  0  0  0  0
   68.0089   39.6251   58.0341 C   0  0  0  0  0  0  0  0  0  0  0  0
   67.8484   38.9785   59.2455 C   0  0  0  0  0  0  0  0  0  0  0  0
   67.1312   39.5132   60.2984 C   0  0  0  0  0  0  0  0  0  0  0  0
   66.5642   40.7523   60.0917 C   0  0  0  0  0  0  0  0  0  0  0  0
   66.7230   41.3965   58.8869 C   0  0  0  0  0  0  0  0  0  0  0  0
 11 10  1  1
 11 12  1  0
 11 16  1  0
 12 13  1  0
 13 14  1  0
 14 15  1  0
 15 16  1  0
 16  7  1  0
  7  8  2  0
  7  9  2  0
  7  1  1  0
  1  2  2  0
  1  6  1  0
  2  3  1  0
  3  4  2  0
  4  5  1  0
  5 17  1  0
  5  6  2  0
 17 18  2  0
 17 19  1  0
 19 20  1  0
 20 21  1  0
 21 22  2  0
 21 23  1  0
 23 24  2  0
 23 28  1  0
 24 25  1  0
 25 26  2  0
 26 27  1  0
 27 28  2  0
M  END
>  <minimizedAffinity>  (97) 
-9.92217

$$$$
cs_full_output_folder/data/smiles/6824.pdb
     RDKit          3D

 33 36  0  0  0  0  0  0  0  0999 V2000
   71.4099   46.6263   58.9185 C   0  0  0  0  0  0  0  0  0  0  0  0
   70.6967   47.5634   58.1574 C   0  0  0  0  0  0  0  0  0  0  0  0
   69.8634   47.1939   57.1494 C   0  0  0  0  0  0  0  0  0  0  0  0
   69.7522   45.8083   56.9076 C   0  0  0  0  0  0  0  0  0  0  0  0
   70.4407   44.8767   57.6406 C   0  0  0  0  0  0  0  0  0  0  0  0
   71.2868   45.2770   58.6659 C   0  0  0  0  0  0  0  0  0  0  0  0
   71.9824   44.3972   59.4131 F   0  0  0  0  0  0  0  0  0  0  0  0
   76.4870   49.3705   58.5350 C   0  0  0  0  0  0  0  0  0  0  0  0
   76.6737   50.4577   59.1708 O   0  0  0  0  0  0  0  0  0  0  0  0
   76.0255   48.2202   59.2173 N   0  0  0  0  0  0  0  0  0  0  0  0
   75.7708   48.2825   60.6373 C   0  0  0  0  0  0  0  0  0  0  0  0
   74.4494   47.6843   60.9499 C   0  0  0  0  0  0  0  0  0  0  0  0
   73.6978   47.1724   59.8345 N   0  0  0  0  0  0  0  0  0  0  0  0
   72.2674   47.1136   59.9738 C   0  0  0  0  0  0  0  0  0  0  0  0
   71.7023   47.4886   61.0331 O   0  0  0  0  0  0  0  0  0  0  0  0
   74.2800   46.7027   58.5886 C   0  0  0  0  0  0  0  0  0  0  0  0
   75.7790   46.9534   58.5783 C   0  0  0  0  0  0  0  0  0  0  0  0
   78.1801   49.1865   55.1088 C   0  0  0  0  0  0  0  0  0  0  0  0
   77.9462   49.1610   56.5787 C   0  0  0  0  0  0  0  0  0  0  0  0
   79.1075   48.8741   57.4473 C   0  0  0  0  0  0  0  0  0  0  0  0
   76.7667   49.3836   57.1155 C   0  0  0  0  0  0  0  0  0  0  0  0
   69.0782   48.1340   56.3061 C   0  0  0  0  0  0  0  0  0  0  0  0
   69.5261   48.2209   54.9144 C   0  0  0  0  0  0  0  0  0  0  0  0
   70.5127   49.0926   54.5389 N   0  0  0  0  0  0  0  0  0  0  0  0
   70.9058   49.2569   53.2975 N   0  0  0  0  0  0  0  0  0  0  0  0
   70.3425   48.5552   52.3064 C   0  0  0  0  0  0  0  0  0  0  0  0
   70.6786   48.6702   51.0862 O   0  0  0  0  0  0  0  0  0  0  0  0
   69.3237   47.6343   52.5865 C   0  0  0  0  0  0  0  0  0  0  0  0
   68.7605   46.8981   51.5736 C   0  0  0  0  0  0  0  0  0  0  0  0
   67.7815   45.9829   51.8711 C   0  0  0  0  0  0  0  0  0  0  0  0
   67.4068   45.8435   53.1833 C   0  0  0  0  0  0  0  0  0  0  0  0
   67.9542   46.5691   54.2190 C   0  0  0  0  0  0  0  0  0  0  0  0
   68.9344   47.4887   53.9179 C   0  0  0  0  0  0  0  0  0  0  0  0
 18 19  1  0
 19 20  1  0
 19 21  2  0
 21  8  1  0
  8  9  2  0
  8 10  1  0
 10 11  1  0
 10 17  1  0
 11 12  1  0
 12 13  1  0
 13 14  1  0
 13 16  1  0
 14 15  2  0
 14  1  1  0
  1  2  2  0
  1  6  1  0
  2  3  1  0
  3 22  1  0
  3  4  2  0
 22 23  1  0
 23 24  2  0
 23 33  1  0
 24 25  1  0
 25 26  1  0
 26 27  2  0
 26 28  1  0
 28 29  1  0
 28 33  2  0
 29 30  2  0
 30 31  1  0
 31 32  2  0
 32 33  1  0
  4  5  1  0
  5  6  2  0
  6  7  1  0
 16 17  1  0
M  END
>  <minimizedAffinity>  (98) 
-9.90103

$$$$
cs_full_output_folder/data/smiles/324.pdb
     RDKit          3D

 28 30  0  0  0  0  0  0  0  0999 V2000
   68.3814   45.9638   54.1264 C   0  0  0  0  0  0  0  0  0  0  0  0
   67.8234   45.5756   52.9350 C   0  0  0  0  0  0  0  0  0  0  0  0
   67.9530   46.3327   51.7759 C   0  0  0  0  0  0  0  0  0  0  0  0
   68.6630   47.5150   51.8102 C   0  0  0  0  0  0  0  0  0  0  0  0
   69.2405   47.9365   53.0002 C   0  0  0  0  0  0  0  0  0  0  0  0
   69.0827   47.1498   54.1207 C   0  0  0  0  0  0  0  0  0  0  0  0
   68.5513   45.7435   56.4588 O   0  0  0  0  0  0  0  0  0  0  0  0
   68.2698   45.2008   55.3647 C   0  0  0  0  0  0  0  0  0  0  0  0
   67.8544   43.8462   55.4199 N   0  0  0  0  0  0  0  0  0  0  0  0
   67.7582   43.1330   56.6470 N   0  0  0  0  0  0  0  0  0  0  0  0
   67.5745   41.7302   56.6707 C   0  0  0  0  0  0  0  0  0  0  0  0
   67.5086   41.1960   55.5068 O   0  0  0  0  0  0  0  0  0  0  0  0
   67.4620   40.8921   57.8503 C   0  0  0  0  0  0  0  0  0  0  0  0
   68.1242   39.6590   57.8033 C   0  0  0  0  0  0  0  0  0  0  0  0
   68.1303   38.7469   58.8108 C   0  0  0  0  0  0  0  0  0  0  0  0
   67.4277   39.0578   59.9758 C   0  0  0  0  0  0  0  0  0  0  0  0
   66.7666   40.2655   60.0500 C   0  0  0  0  0  0  0  0  0  0  0  0
   66.7859   41.1784   58.9867 C   0  0  0  0  0  0  0  0  0  0  0  0
   66.1124   42.3570   59.1168 O   0  0  0  0  0  0  0  0  0  0  0  0
   70.1207   49.4278   52.9894 S   0  0  0  0  0  0  0  0  0  0  0  0
   71.5972   49.1057   52.9096 O   0  0  0  0  0  0  0  0  0  0  0  0
   69.7863   50.1425   51.7003 O   0  0  0  0  0  0  0  0  0  0  0  0
   69.8709   50.3919   54.3588 N   0  0  0  0  0  0  0  0  0  0  0  0
   68.7355   51.2502   54.1302 C   0  0  0  0  0  0  0  0  0  0  0  0
   68.3509   51.9929   55.3973 C   0  0  0  0  0  0  0  0  0  0  0  0
   69.4886   52.7156   56.0297 C   0  0  0  0  0  0  0  0  0  0  0  0
   70.8077   52.0265   55.9333 C   0  0  0  0  0  0  0  0  0  0  0  0
   71.0010   51.2295   54.6932 C   0  0  0  0  0  0  0  0  0  0  0  0
  7  8  2  0
  8  9  1  0
  8  1  1  0
  9 10  1  0
 10 11  1  0
 11 12  2  0
 11 13  1  0
 13 14  2  0
 13 18  1  0
 14 15  1  0
 15 16  2  0
 16 17  1  0
 17 18  2  0
 18 19  1  0
  1  2  2  0
  1  6  1  0
  2  3  1  0
  3  4  2  0
  4  5  1  0
  5 20  1  0
  5  6  2  0
 20 21  2  0
 20 22  2  0
 20 23  1  0
 23 24  1  0
 23 28  1  0
 24 25  1  0
 25 26  1  0
 26 27  1  0
 27 28  1  0
M  END
>  <minimizedAffinity>  (99) 
-9.89880

$$$$
cs_full_output_folder/data/smiles/7931.pdb
     RDKit          3D

 32 36  0  0  0  0  0  0  0  0999 V2000
   71.5100   47.2091   58.7582 C   0  0  0  0  0  0  0  0  0  0  0  0
   70.6594   48.0378   58.0011 C   0  0  0  0  0  0  0  0  0  0  0  0
   69.7591   47.5382   57.1345 C   0  0  0  0  0  0  0  0  0  0  0  0
   69.7038   46.1426   57.0177 C   0  0  0  0  0  0  0  0  0  0  0  0
   70.5028   45.2926   57.7263 C   0  0  0  0  0  0  0  0  0  0  0  0
   71.4166   45.8554   58.6079 C   0  0  0  0  0  0  0  0  0  0  0  0
   72.1957   45.0072   59.2979 F   0  0  0  0  0  0  0  0  0  0  0  0
   72.1224   48.0120   60.8377 O   0  0  0  0  0  0  0  0  0  0  0  0
   72.4919   47.7820   59.6777 C   0  0  0  0  0  0  0  0  0  0  0  0
   73.8056   48.0459   59.2071 N   0  0  0  0  0  0  0  0  0  0  0  0
   74.4802   47.8702   57.9368 C   0  0  0  0  0  0  0  0  0  0  0  0
   75.8005   48.3191   58.5423 C   0  0  0  0  0  0  0  0  0  0  0  0
   75.0082   48.5906   59.7640 C   0  0  0  0  0  0  0  0  0  0  0  0
   76.4487   49.4231   57.8301 C   0  0  0  0  0  0  0  0  0  0  0  0
   75.6924   50.3496   57.3754 O   0  0  0  0  0  0  0  0  0  0  0  0
   77.8261   49.5674   57.5974 N   0  0  0  0  0  0  0  0  0  0  0  0
   78.9758   48.7800   57.9413 C   0  0  0  0  0  0  0  0  0  0  0  0
   79.6654   48.6635   56.5763 C   0  0  0  0  0  0  0  0  0  0  0  0
   79.5089   50.0812   56.0515 C   0  0  0  0  0  0  0  0  0  0  0  0
   78.4128   50.7130   56.8628 C   0  0  0  0  0  0  0  0  0  0  0  0
   68.8530   48.3521   56.3046 C   0  0  0  0  0  0  0  0  0  0  0  0
   69.2874   48.3457   54.9191 C   0  0  0  0  0  0  0  0  0  0  0  0
   70.2062   49.2898   54.5442 N   0  0  0  0  0  0  0  0  0  0  0  0
   70.6216   49.4304   53.3009 N   0  0  0  0  0  0  0  0  0  0  0  0
   70.1910   48.6683   52.2806 C   0  0  0  0  0  0  0  0  0  0  0  0
   70.5974   48.8168   51.0995 O   0  0  0  0  0  0  0  0  0  0  0  0
   69.2593   47.6873   52.5829 C   0  0  0  0  0  0  0  0  0  0  0  0
   68.7923   46.8668   51.6012 C   0  0  0  0  0  0  0  0  0  0  0  0
   67.8843   45.8850   51.9176 C   0  0  0  0  0  0  0  0  0  0  0  0
   67.4541   45.7367   53.2144 C   0  0  0  0  0  0  0  0  0  0  0  0
   67.9310   46.5745   54.2050 C   0  0  0  0  0  0  0  0  0  0  0  0
   68.8330   47.5523   53.8927 C   0  0  0  0  0  0  0  0  0  0  0  0
  8  9  2  0
  9  1  1  0
  9 10  1  0
  1  2  2  0
  1  6  1  0
  2  3  1  0
  3 21  1  0
  3  4  2  0
 21 22  1  0
 22 23  2  0
 22 32  1  0
 23 24  1  0
 24 25  1  0
 25 26  2  0
 25 27  1  0
 27 28  1  0
 27 32  2  0
 28 29  2  0
 29 30  1  0
 30 31  2  0
 31 32  1  0
  4  5  1  0
  5  6  2  0
  6  7  1  0
 10 11  1  0
 10 13  1  0
 11 12  1  0
 12 14  1  0
 12 13  1  0
 14 15  2  0
 14 16  1  0
 16 17  1  0
 16 20  1  0
 17 18  1  0
 18 19  1  0
 19 20  1  0
M  END
>  <minimizedAffinity>  (100) 
-9.89720

$$$$
