cs_full_output_folder/data/smiles/8483.pdb
     RDKit          3D

 28 31  0  0  0  0  0  0  0  0999 V2000
   71.8156   47.4781   57.9470 O   0  0  0  0  0  0  0  0  0  0  0  0
   70.9661   46.6835   58.4007 C   0  0  0  0  0  0  0  0  0  0  0  0
   69.6189   46.7942   57.9606 N   0  0  0  0  0  0  0  0  0  0  0  0
   69.2180   47.8121   56.9968 C   0  0  0  0  0  0  0  0  0  0  0  0
   68.8024   47.0857   55.7636 C   0  0  0  0  0  0  0  0  0  0  0  0
   68.1068   45.9191   55.8517 N   0  0  0  0  0  0  0  0  0  0  0  0
   67.7171   45.2335   54.7943 N   0  0  0  0  0  0  0  0  0  0  0  0
   67.9717   45.6246   53.5332 C   0  0  0  0  0  0  0  0  0  0  0  0
   67.5917   44.9565   52.5294 O   0  0  0  0  0  0  0  0  0  0  0  0
   68.6723   46.7993   53.3673 C   0  0  0  0  0  0  0  0  0  0  0  0
   68.9558   47.2404   52.1012 C   0  0  0  0  0  0  0  0  0  0  0  0
   69.6567   48.4159   51.9514 C   0  0  0  0  0  0  0  0  0  0  0  0
   70.0641   49.1328   53.0569 C   0  0  0  0  0  0  0  0  0  0  0  0
   69.7830   48.6963   54.3332 C   0  0  0  0  0  0  0  0  0  0  0  0
   69.0862   47.5278   54.4860 C   0  0  0  0  0  0  0  0  0  0  0  0
   71.4141   45.6689   59.3733 C   0  0  0  0  0  0  0  0  0  0  0  0
   72.3149   46.2854   60.3653 C   0  0  0  0  0  0  0  0  0  0  0  0
   72.5265   47.6356   60.5105 C   0  0  0  0  0  0  0  0  0  0  0  0
   73.3958   48.1328   61.4877 C   0  0  0  0  0  0  0  0  0  0  0  0
   74.0774   47.2943   62.3439 C   0  0  0  0  0  0  0  0  0  0  0  0
   73.8609   45.9462   62.1915 C   0  0  0  0  0  0  0  0  0  0  0  0
   73.0096   45.4501   61.2349 C   0  0  0  0  0  0  0  0  0  0  0  0
   72.0647   44.5780   58.6115 C   0  0  0  0  0  0  0  0  0  0  0  0
   71.3715   43.4155   58.3592 C   0  0  0  0  0  0  0  0  0  0  0  0
   71.9442   42.3649   57.6486 C   0  0  0  0  0  0  0  0  0  0  0  0
   73.2351   42.4598   57.1723 C   0  0  0  0  0  0  0  0  0  0  0  0
   73.9298   43.6188   57.4211 C   0  0  0  0  0  0  0  0  0  0  0  0
   73.3484   44.6470   58.1254 C   0  0  0  0  0  0  0  0  0  0  0  0
  1  2  2  0
  2  3  1  0
  2 16  1  0
  3  4  1  0
  4  5  1  0
  5  6  2  0
  5 15  1  0
  6  7  1  0
  7  8  1  0
  8  9  2  0
  8 10  1  0
 10 11  1  0
 10 15  2  0
 11 12  2  0
 12 13  1  0
 13 14  2  0
 14 15  1  0
 16 17  1  0
 16 23  1  0
 17 18  2  0
 17 22  1  0
 18 19  1  0
 19 20  2  0
 20 21  1  0
 21 22  2  0
 23 24  2  0
 23 28  1  0
 24 25  1  0
 25 26  2  0
 26 27  1  0
 27 28  2  0
M  END
>  <minimizedAffinity>  (1) 
-9.03620

$$$$
cs_full_output_folder/data/smiles/1202.pdb
     RDKit          3D

 32 36  0  0  0  0  0  0  0  0999 V2000
   71.8280   47.2805   58.8715 C   0  0  0  0  0  0  0  0  0  0  0  0
   70.7368   47.6668   58.1353 C   0  0  0  0  0  0  0  0  0  0  0  0
   70.8115   48.6933   57.1840 C   0  0  0  0  0  0  0  0  0  0  0  0
   72.0221   49.2956   57.0192 C   0  0  0  0  0  0  0  0  0  0  0  0
   73.1517   48.9176   57.7604 C   0  0  0  0  0  0  0  0  0  0  0  0
   73.0345   47.9086   58.6811 C   0  0  0  0  0  0  0  0  0  0  0  0
   74.1167   47.5278   59.4085 F   0  0  0  0  0  0  0  0  0  0  0  0
   71.7658   46.5385   61.0729 O   0  0  0  0  0  0  0  0  0  0  0  0
   71.7609   46.2179   59.8591 C   0  0  0  0  0  0  0  0  0  0  0  0
   71.6898   44.8467   59.5165 N   0  0  0  0  0  0  0  0  0  0  0  0
   71.6249   43.8221   60.5245 C   0  0  0  0  0  0  0  0  0  0  0  0
   70.4237   42.8939   60.2771 C   0  0  0  0  0  0  0  0  0  0  0  0
   70.1520   42.8067   58.8619 N   0  0  0  0  0  0  0  0  0  0  0  0
   68.8802   42.4923   58.3605 C   0  0  0  0  0  0  0  0  0  0  0  0
   67.9451   42.2765   59.2023 O   0  0  0  0  0  0  0  0  0  0  0  0
   71.2495   43.0573   57.9665 C   0  0  0  0  0  0  0  0  0  0  0  0
   71.6820   44.4805   58.1269 C   0  0  0  0  0  0  0  0  0  0  0  0
   68.5006   42.3837   56.9395 C   0  0  0  0  0  0  0  0  0  0  0  0
   68.0493   41.0380   56.4068 C   0  0  0  0  0  0  0  0  0  0  0  0
   67.0396   42.0804   56.6926 C   0  0  0  0  0  0  0  0  0  0  0  0
   69.5938   49.0301   56.4147 C   0  0  0  0  0  0  0  0  0  0  0  0
   69.7124   48.9356   54.9745 C   0  0  0  0  0  0  0  0  0  0  0  0
   70.4319   49.8949   54.3067 N   0  0  0  0  0  0  0  0  0  0  0  0
   70.6208   49.8534   53.0001 N   0  0  0  0  0  0  0  0  0  0  0  0
   70.1315   48.8844   52.2263 C   0  0  0  0  0  0  0  0  0  0  0  0
   70.3256   48.8614   50.9654 O   0  0  0  0  0  0  0  0  0  0  0  0
   69.3931   47.8794   52.8238 C   0  0  0  0  0  0  0  0  0  0  0  0
   68.8628   46.8672   52.0525 C   0  0  0  0  0  0  0  0  0  0  0  0
   68.1232   45.8934   52.6862 C   0  0  0  0  0  0  0  0  0  0  0  0
   67.9037   45.9054   54.0447 C   0  0  0  0  0  0  0  0  0  0  0  0
   68.4543   46.9389   54.7782 C   0  0  0  0  0  0  0  0  0  0  0  0
   69.1961   47.9265   54.2021 C   0  0  0  0  0  0  0  0  0  0  0  0
  8  9  2  0
  9  1  1  0
  9 10  1  0
  1  2  2  0
  1  6  1  0
  2  3  1  0
  3 21  1  0
  3  4  2  0
 21 22  1  0
 22 23  2  0
 22 32  1  0
 23 24  1  0
 24 25  1  0
 25 26  2  0
 25 27  1  0
 27 28  1  0
 27 32  2  0
 28 29  2  0
 29 30  1  0
 30 31  2  0
 31 32  1  0
  4  5  1  0
  5  6  2  0
  6  7  1  0
 10 11  1  0
 10 17  1  0
 11 12  1  0
 12 13  1  0
 13 14  1  0
 13 16  1  0
 14 15  2  0
 14 18  1  0
 18 19  1  0
 18 20  1  0
 19 20  1  0
 16 17  1  0
M  END
>  <minimizedAffinity>  (2) 
-9.27852

$$$$
cs_full_output_folder/data/smiles/8517.pdb
     RDKit          3D

 25 27  0  0  0  0  0  0  0  0999 V2000
   69.7326   47.9945   55.9758 C   0  0  0  0  0  0  0  0  0  0  0  0
   69.2889   46.6720   56.0974 C   0  0  0  0  0  0  0  0  0  0  0  0
   69.7386   45.8400   57.0992 C   0  0  0  0  0  0  0  0  0  0  0  0
   70.6512   46.2815   58.0312 C   0  0  0  0  0  0  0  0  0  0  0  0
   71.1030   47.5697   57.9370 C   0  0  0  0  0  0  0  0  0  0  0  0
   70.6437   48.4139   56.9165 C   0  0  0  0  0  0  0  0  0  0  0  0
   71.1982   45.1832   59.3024 S   0  0  0  0  0  0  0  0  0  0  0  0
   70.0103   44.3155   59.6932 O   0  0  0  0  0  0  0  0  0  0  0  0
   71.5243   46.0292   60.4785 O   0  0  0  0  0  0  0  0  0  0  0  0
   72.4421   44.1797   58.7883 N   0  0  0  0  0  0  0  0  0  0  0  0
   73.7153   44.7955   58.6137 C   0  0  0  0  0  0  0  0  0  0  0  0
   74.8272   43.7520   58.6699 C   0  0  0  0  0  0  0  0  0  0  0  0
   74.5672   42.6249   57.7139 C   0  0  0  0  0  0  0  0  0  0  0  0
   73.2126   42.0483   57.9888 C   0  0  0  0  0  0  0  0  0  0  0  0
   72.1473   43.1261   57.9019 C   0  0  1  0  0  0  0  0  0  0  0  0
   70.8062   42.5101   58.0262 C   0  0  0  0  0  0  0  0  0  0  0  0
   69.2099   48.8403   54.8731 C   0  0  0  0  0  0  0  0  0  0  0  0
   67.4075   45.6885   51.4225 C   0  0  0  0  0  0  0  0  0  0  0  0
   68.4250   46.6889   51.8960 C   0  0  0  0  0  0  0  0  0  0  0  0
   68.3461   47.2779   53.1326 C   0  0  0  0  0  0  0  0  0  0  0  0
   69.3020   48.2017   53.5435 C   0  0  0  0  0  0  0  0  0  0  0  0
   70.2994   48.4682   52.6384 C   0  0  0  0  0  0  0  0  0  0  0  0
   71.2106   49.3047   52.9469 O   0  0  0  0  0  0  0  0  0  0  0  0
   70.3566   47.8719   51.4174 N   0  0  0  0  0  0  0  0  0  0  0  0
   69.4240   46.9841   51.0435 N   0  0  0  0  0  0  0  0  0  0  0  0
 18 19  1  0
 19 20  1  0
 19 25  2  0
 20 21  2  0
 21 17  1  0
 21 22  1  0
 17  1  1  0
  1  2  2  0
  1  6  1  0
  2  3  1  0
  3  4  2  0
  4  7  1  0
  4  5  1  0
  7  8  2  0
  7  9  2  0
  7 10  1  0
 10 11  1  0
 10 15  1  0
 11 12  1  0
 12 13  1  0
 13 14  1  0
 14 15  1  0
 15 16  1  1
  5  6  2  0
 22 23  2  0
 22 24  1  0
 24 25  1  0
M  END
>  <minimizedAffinity>  (3) 
-8.69599

$$$$
cs_full_output_folder/data/smiles/8729.pdb
     RDKit          3D

 27 30  0  0  0  0  0  0  0  0999 V2000
   71.6232   47.1969   57.7217 O   0  0  0  0  0  0  0  0  0  0  0  0
   70.6282   46.4148   57.9208 C   0  0  0  0  0  0  0  0  0  0  0  0
   69.4600   46.6727   57.1882 N   0  0  0  0  0  0  0  0  0  0  0  0
   70.8086   45.3548   58.8838 C   0  0  0  0  0  0  0  0  0  0  0  0
   71.4151   45.5774   60.0784 N   0  0  0  0  0  0  0  0  0  0  0  0
   71.6294   44.6540   60.9914 N   0  0  0  0  0  0  0  0  0  0  0  0
   71.2553   43.3876   60.8059 C   0  0  0  0  0  0  0  0  0  0  0  0
   71.4753   42.5167   61.7098 O   0  0  0  0  0  0  0  0  0  0  0  0
   70.6387   43.0788   59.6256 C   0  0  0  0  0  0  0  0  0  0  0  0
   70.2743   41.7872   59.4009 C   0  0  0  0  0  0  0  0  0  0  0  0
   69.6750   41.3815   58.2243 C   0  0  0  0  0  0  0  0  0  0  0  0
   69.4460   42.3225   57.2589 C   0  0  0  0  0  0  0  0  0  0  0  0
   69.8209   43.6422   57.4959 C   0  0  0  0  0  0  0  0  0  0  0  0
   70.4127   44.0576   58.6598 C   0  0  0  0  0  0  0  0  0  0  0  0
   69.4222   47.7634   56.2428 C   0  0  0  0  0  0  0  0  0  0  0  0
   69.0097   47.3130   54.8891 C   0  0  0  0  0  0  0  0  0  0  0  0
   69.3460   48.0040   53.7514 C   0  0  0  0  0  0  0  0  0  0  0  0
   68.9471   47.5542   52.5255 C   0  0  0  0  0  0  0  0  0  0  0  0
   68.2046   46.4133   52.3777 C   0  0  0  0  0  0  0  0  0  0  0  0
   67.8558   45.7048   53.5088 C   0  0  0  0  0  0  0  0  0  0  0  0
   68.2637   46.1640   54.7517 C   0  0  0  0  0  0  0  0  0  0  0  0
   68.5038   48.8077   56.7432 C   0  0  0  0  0  0  0  0  0  0  0  0
   68.7140   50.1544   56.4987 C   0  0  0  0  0  0  0  0  0  0  0  0
   67.8225   51.0627   56.9929 C   0  0  0  0  0  0  0  0  0  0  0  0
   66.7098   50.7175   57.7338 C   0  0  0  0  0  0  0  0  0  0  0  0
   66.5128   49.3568   57.9726 C   0  0  0  0  0  0  0  0  0  0  0  0
   67.4119   48.4392   57.4732 C   0  0  0  0  0  0  0  0  0  0  0  0
  1  2  2  0
  2  3  1  0
  2  4  1  0
  3 15  1  0
 15 16  1  0
 15 22  1  0
 16 17  2  0
 16 21  1  0
 17 18  1  0
 18 19  2  0
 19 20  1  0
 20 21  2  0
 22 23  2  0
 22 27  1  0
 23 24  1  0
 24 25  2  0
 25 26  1  0
 26 27  2  0
  4  5  2  0
  4 14  1  0
  5  6  1  0
  6  7  1  0
  7  8  2  0
  7  9  1  0
  9 10  1  0
  9 14  2  0
 10 11  2  0
 11 12  1  0
 12 13  2  0
 13 14  1  0
M  END
>  <minimizedAffinity>  (4) 
-8.53446

$$$$
cs_full_output_folder/data/smiles/4230.pdb
     RDKit          3D

 20 21  0  0  0  0  0  0  0  0999 V2000
   68.5975   47.1671   55.0724 C   0  0  0  0  0  0  0  0  0  0  0  0
   67.8137   46.2628   54.3912 C   0  0  0  0  0  0  0  0  0  0  0  0
   67.8559   46.1662   52.9963 C   0  0  0  0  0  0  0  0  0  0  0  0
   67.0479   45.2391   52.3463 O   0  0  0  0  0  0  0  0  0  0  0  0
   68.6902   46.9825   52.2593 C   0  0  0  0  0  0  0  0  0  0  0  0
   68.7178   46.8711   50.8656 O   0  0  0  0  0  0  0  0  0  0  0  0
   69.4755   47.8891   52.9354 C   0  0  0  0  0  0  0  0  0  0  0  0
   69.4291   47.9775   54.3098 C   0  0  0  0  0  0  0  0  0  0  0  0
   70.3477   48.7447   52.2138 N   0  0  0  0  0  0  0  0  0  0  0  0
   70.0647   49.2457   51.1183 O   0  0  0  0  0  0  0  0  0  0  0  0
   71.6022   49.0692   52.7269 O   0  0  0  0  0  0  0  0  0  0  0  0
   67.5003   47.6133   57.1382 O   0  0  0  0  0  0  0  0  0  0  0  0
   68.5662   47.2806   56.5253 C   0  0  0  0  0  0  0  0  0  0  0  0
   69.7232   47.0265   57.3638 C   0  0  0  0  0  0  0  0  0  0  0  0
   70.4102   48.0250   58.0109 C   0  0  0  0  0  0  0  0  0  0  0  0
   71.5197   47.7439   58.8089 C   0  0  0  0  0  0  0  0  0  0  0  0
   71.9353   46.4345   58.9509 C   0  0  0  0  0  0  0  0  0  0  0  0
   71.2650   45.4235   58.3144 C   0  0  0  0  0  0  0  0  0  0  0  0
   70.1534   45.7315   57.5183 C   0  0  0  0  0  0  0  0  0  0  0  0
   69.5108   44.7081   56.9018 F   0  0  0  0  0  0  0  0  0  0  0  0
 12 13  2  0
 13  1  1  0
 13 14  1  0
  1  2  2  0
  1  8  1  0
  2  3  1  0
  3  4  1  0
  3  5  2  0
  5  6  1  0
  5  7  1  0
  7  9  1  0
  7  8  2  0
  9 10  2  0
  9 11  1  0
 14 15  2  0
 14 19  1  0
 15 16  1  0
 16 17  2  0
 17 18  1  0
 18 19  2  0
 19 20  1  0
M  CHG  2   9   1  11  -1
M  END
>  <minimizedAffinity>  (5) 
-8.77519

$$$$
cs_full_output_folder/data/smiles/130.pdb
     RDKit          3D

 24 27  0  0  0  0  0  0  0  0999 V2000
   69.5305   48.3565   53.1983 C   0  0  0  0  0  0  0  0  0  0  0  0
   69.7274   47.9535   51.8629 C   0  0  0  0  0  0  0  0  0  0  0  0
   70.0638   49.0418   51.1815 N   0  0  0  0  0  0  0  0  0  0  0  0
   70.0971   50.0820   51.9527 N   0  0  0  0  0  0  0  0  0  0  0  0
   69.7683   49.6831   53.2296 C   0  0  0  0  0  0  0  0  0  0  0  0
   69.2999   46.6592   57.8459 N   0  0  0  0  0  0  0  0  0  0  0  0
   69.0239   46.5790   56.4600 C   0  0  0  0  0  0  0  0  0  0  0  0
   69.3955   47.5336   55.5446 C   0  0  0  0  0  0  0  0  0  0  0  0
   69.0982   47.4055   54.1897 C   0  0  0  0  0  0  0  0  0  0  0  0
   68.4140   46.2684   53.8408 C   0  0  0  0  0  0  0  0  0  0  0  0
   68.0335   45.3021   54.7446 C   0  0  0  0  0  0  0  0  0  0  0  0
   68.3481   45.4802   56.0355 N   0  0  0  0  0  0  0  0  0  0  0  0
   69.7741   50.6238   54.3414 C   0  0  2  0  0  0  0  0  0  0  0  0
   68.3907   51.2471   54.5479 C   0  0  0  0  0  0  0  0  0  0  0  0
   68.6393   52.7123   54.7694 C   0  0  0  0  0  0  0  0  0  0  0  0
   70.0662   52.7242   55.1422 N   0  0  0  0  0  0  0  0  0  0  0  0
   70.7071   53.3925   56.1567 C   0  0  0  0  0  0  0  0  0  0  0  0
   69.9903   54.1311   56.9262 O   0  0  0  0  0  0  0  0  0  0  0  0
   70.6383   51.8187   54.1304 C   0  0  0  0  0  0  0  0  0  0  0  0
   72.1478   53.3286   56.4284 C   0  0  0  0  0  0  0  0  0  0  0  0
   72.5182   53.5298   57.8665 C   0  0  0  0  0  0  0  0  0  0  0  0
   73.7135   54.4477   57.9211 C   0  0  0  0  0  0  0  0  0  0  0  0
   73.9897   54.8693   56.5201 C   0  0  0  0  0  0  0  0  0  0  0  0
   72.9414   54.3039   55.6300 C   0  0  0  0  0  0  0  0  0  0  0  0
  6  7  1  0
  7  8  2  0
  7 12  1  0
  8  9  1  0
  9  1  1  0
  9 10  2  0
  1  2  2  0
  1  5  1  0
  2  3  1  0
  3  4  1  0
  4  5  2  0
 13  5  1  6
 13 14  1  0
 13 19  1  0
 14 15  1  0
 15 16  1  0
 16 17  1  0
 16 19  1  0
 17 18  2  0
 17 20  1  0
 20 21  1  0
 20 24  1  0
 21 22  1  0
 22 23  1  0
 23 24  1  0
 10 11  1  0
 11 12  2  0
M  END
>  <minimizedAffinity>  (6) 
-8.96816

$$$$
cs_full_output_folder/data/smiles/2077.pdb
     RDKit          3D

 31 34  0  0  0  0  0  0  0  0999 V2000
   71.3562   47.7655   58.6449 C   0  0  0  0  0  0  0  0  0  0  0  0
   71.8292   48.9551   58.0217 C   0  0  0  0  0  0  0  0  0  0  0  0
   72.9862   48.7907   57.4046 O   0  0  0  0  0  0  0  0  0  0  0  0
   71.3384   50.2400   57.9224 N   0  0  0  0  0  0  0  0  0  0  0  0
   70.2156   50.8777   58.5834 C   0  0  0  0  0  0  0  0  0  0  0  0
   69.1371   51.0938   57.5092 C   0  0  0  0  0  0  0  0  0  0  0  0
   69.7526   50.5189   56.3016 N   0  0  0  0  0  0  0  0  0  0  0  0
   70.8470   51.3012   55.7907 C   0  0  0  0  0  0  0  0  0  0  0  0
   71.9399   51.1719   56.8928 C   0  0  0  0  0  0  0  0  0  0  0  0
   69.3531   49.2977   55.7386 C   0  0  0  0  0  0  0  0  0  0  0  0
   69.6782   48.9630   54.4224 C   0  0  0  0  0  0  0  0  0  0  0  0
   69.2648   47.7939   53.8386 C   0  0  0  0  0  0  0  0  0  0  0  0
   68.4951   46.8769   54.5359 C   0  0  0  0  0  0  0  0  0  0  0  0
   68.0646   45.7176   54.0063 F   0  0  0  0  0  0  0  0  0  0  0  0
   68.1567   47.1709   55.8295 C   0  0  0  0  0  0  0  0  0  0  0  0
   68.5869   48.3598   56.3986 C   0  0  0  0  0  0  0  0  0  0  0  0
   69.7465   45.6753   59.0404 O   0  0  0  0  0  0  0  0  0  0  0  0
   70.7940   45.3599   58.3599 C   0  0  0  0  0  0  0  0  0  0  0  0
   71.6775   46.4721   58.1187 N   0  0  0  0  0  0  0  0  0  0  0  0
   70.9690   43.9807   57.9178 C   0  0  0  0  0  0  0  0  0  0  0  0
   69.7763   43.3827   57.3860 C   0  0  0  0  0  0  0  0  0  0  0  0
   68.9432   44.1236   56.6218 N   0  0  0  0  0  0  0  0  0  0  0  0
   67.8571   43.6249   56.0442 N   0  0  0  0  0  0  0  0  0  0  0  0
   67.4946   42.3433   56.1716 C   0  0  0  0  0  0  0  0  0  0  0  0
   66.4656   41.8435   55.6296 O   0  0  0  0  0  0  0  0  0  0  0  0
   68.2858   41.5075   56.9371 C   0  0  0  0  0  0  0  0  0  0  0  0
   67.9735   40.1936   57.1558 C   0  0  0  0  0  0  0  0  0  0  0  0
   68.7705   39.4009   57.9613 C   0  0  0  0  0  0  0  0  0  0  0  0
   69.8976   39.9085   58.5633 C   0  0  0  0  0  0  0  0  0  0  0  0
   70.2050   41.2572   58.3274 C   0  0  0  0  0  0  0  0  0  0  0  0
   69.4152   42.0346   57.5331 C   0  0  0  0  0  0  0  0  0  0  0  0
 17 18  2  0
 18 20  1  0
 18 19  1  0
 20 21  1  0
 21 22  2  0
 21 31  1  0
 22 23  1  0
 23 24  1  0
 24 25  2  0
 24 26  1  0
 26 27  1  0
 26 31  2  0
 27 28  2  0
 28 29  1  0
 29 30  2  0
 30 31  1  0
 19  1  1  0
  1  2  1  0
  2  3  2  0
  2  4  1  0
  4  5  1  0
  4  9  1  0
  5  6  1  0
  6  7  1  0
  7 10  1  0
  7  8  1  0
 10 11  2  0
 10 16  1  0
 11 12  1  0
 12 13  2  0
 13 14  1  0
 13 15  1  0
 15 16  2  0
  8  9  1  0
M  END
>  <minimizedAffinity>  (7) 
-8.80940

$$$$
cs_full_output_folder/data/smiles/7242.pdb
     RDKit          3D

 27 29  0  0  0  0  0  0  0  0999 V2000
   69.6461   46.1128   57.0514 N   0  0  0  0  0  0  0  0  0  0  0  0
   69.1850   44.8698   56.9865 N   0  0  0  0  0  0  0  0  0  0  0  0
   69.8495   43.8238   57.5218 C   0  0  0  0  0  0  0  0  0  0  0  0
   71.0379   44.1215   58.1396 C   0  0  0  0  0  0  0  0  0  0  0  0
   71.5389   45.4124   58.2199 C   0  0  0  0  0  0  0  0  0  0  0  0
   70.8057   46.4293   57.6510 C   0  0  0  0  0  0  0  0  0  0  0  0
   71.2175   47.6414   57.6936 O   0  0  0  0  0  0  0  0  0  0  0  0
   69.3053   42.4645   57.4283 C   0  0  0  0  0  0  0  0  0  0  0  0
   69.7680   41.4012   58.1604 C   0  0  0  0  0  0  0  0  0  0  0  0
   69.2575   40.1205   58.0744 C   0  0  0  0  0  0  0  0  0  0  0  0
   68.2321   39.8742   57.2198 C   0  0  0  0  0  0  0  0  0  0  0  0
   67.7302   40.9128   56.4605 C   0  0  0  0  0  0  0  0  0  0  0  0
   68.2515   42.1906   56.5564 C   0  0  0  0  0  0  0  0  0  0  0  0
   72.8258   45.7185   58.8917 C   0  0  0  0  0  0  0  0  0  0  0  0
   72.6526   46.5793   59.9613 F   0  0  0  0  0  0  0  0  0  0  0  0
   73.3445   44.5231   59.3575 F   0  0  0  0  0  0  0  0  0  0  0  0
   73.7110   46.2262   57.9721 F   0  0  0  0  0  0  0  0  0  0  0  0
   68.8931   47.2201   56.4507 C   0  0  0  0  0  0  0  0  0  0  0  0
   69.3519   47.9660   52.7619 C   0  0  0  0  0  0  0  0  0  0  0  0
   68.6725   46.8931   52.1824 C   0  0  0  0  0  0  0  0  0  0  0  0
   68.0822   45.9502   52.9946 C   0  0  0  0  0  0  0  0  0  0  0  0
   68.1604   46.0635   54.3642 C   0  0  0  0  0  0  0  0  0  0  0  0
   68.8317   47.1236   54.9731 C   0  0  0  0  0  0  0  0  0  0  0  0
   69.4121   48.0516   54.1348 C   0  0  0  0  0  0  0  0  0  0  0  0
   69.9699   50.3372   52.3607 N   0  0  0  0  0  0  0  0  0  0  0  0
   69.9897   48.9840   51.9630 C   0  0  0  0  0  0  0  0  0  0  0  0
   70.5710   48.6688   50.9013 O   0  0  0  0  0  0  0  0  0  0  0  0
 25 26  1  0
 26 27  2  0
 26 19  1  0
 19 20  2  0
 19 24  1  0
 20 21  1  0
 21 22  2  0
 22 23  1  0
 23 18  1  0
 23 24  2  0
 18  1  1  0
  1  2  1  0
  1  6  1  0
  2  3  2  0
  3  8  1  0
  3  4  1  0
  8  9  2  0
  8 13  1  0
  9 10  1  0
 10 11  2  0
 11 12  1  0
 12 13  2  0
  4  5  2  0
  5 14  1  0
  5  6  1  0
 14 15  1  0
 14 16  1  0
 14 17  1  0
  6  7  2  0
M  END
>  <minimizedAffinity>  (8) 
-8.89595

$$$$
cs_full_output_folder/data/smiles/6828.pdb
     RDKit          3D

 21 23  0  0  0  0  0  0  0  0999 V2000
   68.7993   46.9325   55.4895 C   0  0  0  0  0  0  0  0  0  0  0  0
   68.0509   45.7999   55.6687 N   0  0  0  0  0  0  0  0  0  0  0  0
   67.5802   45.0976   54.6592 N   0  0  0  0  0  0  0  0  0  0  0  0
   67.8090   45.4540   53.3849 C   0  0  0  0  0  0  0  0  0  0  0  0
   67.3322   44.7444   52.4364 O   0  0  0  0  0  0  0  0  0  0  0  0
   68.5525   46.5788   53.1011 C   0  0  0  0  0  0  0  0  0  0  0  0
   68.8011   46.9432   51.7958 C   0  0  0  0  0  0  0  0  0  0  0  0
   69.5577   48.0609   51.5339 C   0  0  0  0  0  0  0  0  0  0  0  0
   70.0368   48.7713   52.6122 C   0  0  0  0  0  0  0  0  0  0  0  0
   69.7996   48.4249   53.9270 C   0  0  0  0  0  0  0  0  0  0  0  0
   69.0402   47.3039   54.1952 C   0  0  0  0  0  0  0  0  0  0  0  0
   69.2475   47.6862   56.6814 C   0  0  0  0  0  0  0  0  0  0  0  0
   68.2423   51.2753   56.6606 C   0  0  0  0  0  0  0  0  0  0  0  0
   67.0884   51.3136   57.4138 C   0  0  0  0  0  0  0  0  0  0  0  0
   66.6158   50.1422   57.9431 C   0  0  0  0  0  0  0  0  0  0  0  0
   67.2901   48.9333   57.7230 C   0  0  0  0  0  0  0  0  0  0  0  0
   68.4227   48.8661   56.9895 C   0  0  0  0  0  0  0  0  0  0  0  0
   68.8915   50.0761   56.4555 C   0  0  0  0  0  0  0  0  0  0  0  0
   69.2430   53.4331   56.7882 O   0  0  0  0  0  0  0  0  0  0  0  0
   68.7736   52.5075   56.0817 C   0  0  0  0  0  0  0  0  0  0  0  0
   68.7891   52.7229   54.7033 O   0  0  0  0  0  0  0  0  0  0  0  0
 19 20  2  0
 20 21  1  0
 20 13  1  0
 13 14  2  0
 13 18  1  0
 14 15  1  0
 15 16  2  0
 16 17  1  0
 17 12  1  0
 17 18  2  0
 12  1  1  0
  1  2  2  0
  1 11  1  0
  2  3  1  0
  3  4  1  0
  4  5  2  0
  4  6  1  0
  6  7  1  0
  6 11  2  0
  7  8  2  0
  8  9  1  0
  9 10  2  0
 10 11  1  0
M  END
>  <minimizedAffinity>  (9) 
-8.82824

$$$$
cs_full_output_folder/data/smiles/3732.pdb
     RDKit          3D

 22 24  0  0  0  0  0  0  0  0999 V2000
   68.3266   44.7975   55.9199 O   0  0  0  0  0  0  0  0  0  0  0  0
   68.2950   45.9925   55.5758 C   0  0  0  0  0  0  0  0  0  0  0  0
   68.4048   46.3333   54.1558 C   0  0  0  0  0  0  0  0  0  0  0  0
   67.7040   45.6673   53.1747 C   0  0  0  0  0  0  0  0  0  0  0  0
   67.8327   46.0171   51.8461 C   0  0  0  0  0  0  0  0  0  0  0  0
   68.6632   47.0408   51.4387 C   0  0  0  0  0  0  0  0  0  0  0  0
   69.3676   47.7107   52.4155 C   0  0  0  0  0  0  0  0  0  0  0  0
   69.2341   47.3559   53.7458 C   0  0  0  0  0  0  0  0  0  0  0  0
   70.2374   48.7736   52.0538 N   0  0  0  0  0  0  0  0  0  0  0  0
   69.9965   49.4550   51.0410 O   0  0  0  0  0  0  0  0  0  0  0  0
   71.3555   49.0899   52.7838 O   0  0  0  0  0  0  0  0  0  0  0  0
   68.1571   46.8937   56.5850 O   0  0  0  0  0  0  0  0  0  0  0  0
   69.1489   47.5236   57.2753 C   0  0  0  0  0  0  0  0  0  0  0  0
   70.2292   46.9010   57.8586 C   0  0  0  0  0  0  0  0  0  0  0  0
   71.2100   47.5809   58.5482 C   0  0  0  0  0  0  0  0  0  0  0  0
   71.1320   48.9536   58.6749 C   0  0  0  0  0  0  0  0  0  0  0  0
   70.0619   49.6116   58.1019 C   0  0  0  0  0  0  0  0  0  0  0  0
   69.9963   50.9792   58.2370 C   0  0  0  0  0  0  0  0  0  0  0  0
   68.9446   51.6669   57.6786 C   0  0  0  0  0  0  0  0  0  0  0  0
   67.9754   50.9824   56.9963 C   0  0  0  0  0  0  0  0  0  0  0  0
   68.0268   49.6323   56.8552 C   0  0  0  0  0  0  0  0  0  0  0  0
   69.0703   48.9091   57.4038 C   0  0  0  0  0  0  0  0  0  0  0  0
  1  2  2  0
  2 12  1  0
  2  3  1  0
 12 13  1  0
 13 14  2  0
 13 22  1  0
 14 15  1  0
 15 16  2  0
 16 17  1  0
 17 18  1  0
 17 22  2  0
 18 19  2  0
 19 20  1  0
 20 21  2  0
 21 22  1  0
  3  4  2  0
  3  8  1  0
  4  5  1  0
  5  6  2  0
  6  7  1  0
  7  9  1  0
  7  8  2  0
  9 10  2  0
  9 11  1  0
M  CHG  2   9   1  11  -1
M  END
>  <minimizedAffinity>  (10) 
-9.10834

$$$$
cs_full_output_folder/data/smiles/8349.pdb
     RDKit          3D

 24 26  0  0  0  0  0  0  0  0999 V2000
   70.6277   46.8676   57.9614 C   0  0  0  0  0  0  0  0  0  0  0  0
   69.4746   46.4204   58.0503 O   0  0  0  0  0  0  0  0  0  0  0  0
   70.7859   48.0075   57.0951 N   0  0  0  0  0  0  0  0  0  0  0  0
   71.8142   46.3283   58.6623 C   0  0  2  0  0  0  0  0  0  0  0  0
   72.0576   44.9150   58.2734 C   0  0  0  0  0  0  0  0  0  0  0  0
   73.3236   44.4353   57.9216 C   0  0  0  0  0  0  0  0  0  0  0  0
   73.5368   43.1243   57.5571 C   0  0  0  0  0  0  0  0  0  0  0  0
   72.4840   42.2482   57.5345 C   0  0  0  0  0  0  0  0  0  0  0  0
   71.2349   42.6667   57.8688 C   0  0  0  0  0  0  0  0  0  0  0  0
   71.0427   43.9990   58.2338 C   0  0  0  0  0  0  0  0  0  0  0  0
   72.7053   47.6683   60.5838 C   0  0  0  0  0  0  0  0  0  0  0  0
   71.8271   46.5363   60.1340 C   0  0  0  0  0  0  0  0  0  0  0  0
   69.6717   48.5677   56.3937 C   0  0  0  0  0  0  0  0  0  0  0  0
   69.8588   48.6017   54.9299 C   0  0  0  0  0  0  0  0  0  0  0  0
   70.6780   49.5001   54.3537 N   0  0  0  0  0  0  0  0  0  0  0  0
   70.8775   49.5685   53.0457 N   0  0  0  0  0  0  0  0  0  0  0  0
   70.2670   48.7333   52.1912 C   0  0  0  0  0  0  0  0  0  0  0  0
   70.4457   48.7864   50.9522 O   0  0  0  0  0  0  0  0  0  0  0  0
   69.4148   47.7916   52.7295 C   0  0  0  0  0  0  0  0  0  0  0  0
   68.7353   46.8820   51.9265 C   0  0  0  0  0  0  0  0  0  0  0  0
   67.8878   45.9495   52.4880 C   0  0  0  0  0  0  0  0  0  0  0  0
   67.7037   45.9084   53.8682 C   0  0  0  0  0  0  0  0  0  0  0  0
   68.3620   46.7962   54.6923 C   0  0  0  0  0  0  0  0  0  0  0  0
   69.2027   47.7166   54.1035 C   0  0  0  0  0  0  0  0  0  0  0  0
 11 12  1  0
  4 12  1  1
  4  1  1  0
  4  5  1  0
  1  2  2  0
  1  3  1  0
  3 13  1  0
 13 14  1  0
 14 15  2  0
 14 24  1  0
 15 16  1  0
 16 17  1  0
 17 18  2  0
 17 19  1  0
 19 20  1  0
 19 24  2  0
 20 21  2  0
 21 22  1  0
 22 23  2  0
 23 24  1  0
  5  6  2  0
  5 10  1  0
  6  7  1  0
  7  8  2  0
  8  9  1  0
  9 10  2  0
M  END
>  <minimizedAffinity>  (11) 
-8.84230

$$$$
cs_full_output_folder/data/smiles/5083.pdb
     RDKit          3D

 20 21  0  0  0  0  0  0  0  0999 V2000
   68.2039   46.0060   55.5862 C   0  0  0  0  0  0  0  0  0  0  0  0
   68.4106   44.8165   55.9393 O   0  0  0  0  0  0  0  0  0  0  0  0
   68.3841   46.3627   54.1796 C   0  0  0  0  0  0  0  0  0  0  0  0
   67.6962   45.7033   53.1899 C   0  0  0  0  0  0  0  0  0  0  0  0
   67.8227   45.9910   51.8520 C   0  0  0  0  0  0  0  0  0  0  0  0
   68.6995   47.0083   51.5170 C   0  0  0  0  0  0  0  0  0  0  0  0
   69.4105   47.6972   52.4746 C   0  0  0  0  0  0  0  0  0  0  0  0
   69.2456   47.3677   53.7919 C   0  0  0  0  0  0  0  0  0  0  0  0
   70.2901   48.7274   52.0346 N   0  0  0  0  0  0  0  0  0  0  0  0
   70.0583   49.3477   50.9704 O   0  0  0  0  0  0  0  0  0  0  0  0
   71.4072   49.0759   52.7431 O   0  0  0  0  0  0  0  0  0  0  0  0
   67.8190   46.8980   56.5573 O   0  0  0  0  0  0  0  0  0  0  0  0
   71.0322   51.2140   58.3845 C   0  0  0  0  0  0  0  0  0  0  0  0
   70.2193   50.0610   57.9160 C   0  0  0  0  0  0  0  0  0  0  0  0
   70.6517   48.7622   57.9896 C   0  0  0  0  0  0  0  0  0  0  0  0
   69.8500   47.7257   57.5380 C   0  0  0  0  0  0  0  0  0  0  0  0
   68.6029   47.9452   57.0032 C   0  0  0  0  0  0  0  0  0  0  0  0
   68.1704   49.2500   56.9303 C   0  0  0  0  0  0  0  0  0  0  0  0
   68.9748   50.3038   57.3851 C   0  0  0  0  0  0  0  0  0  0  0  0
   68.4573   51.7029   57.2831 C   0  0  0  0  0  0  0  0  0  0  0  0
 13 14  1  0
 14 15  2  0
 14 19  1  0
 15 16  1  0
 16 17  2  0
 17 12  1  0
 17 18  1  0
 12  1  1  0
  1  2  2  0
  1  3  1  0
  3  4  2  0
  3  8  1  0
  4  5  1  0
  5  6  2  0
  6  7  1  0
  7  9  1  0
  7  8  2  0
  9 10  2  0
  9 11  1  0
 18 19  2  0
 19 20  1  0
M  CHG  2   9   1  11  -1
M  END
>  <minimizedAffinity>  (12) 
-8.52380

$$$$
cs_full_output_folder/data/smiles/164.pdb
     RDKit          3D

 20 22  0  0  0  0  0  0  0  0999 V2000
   70.0257   49.1967   52.5028 S   0  0  0  0  0  0  0  0  0  0  0  0
   70.1874   49.1701   50.9809 O   0  0  0  0  0  0  0  0  0  0  0  0
   71.4613   49.1602   53.0272 O   0  0  0  0  0  0  0  0  0  0  0  0
   69.1878   47.7650   53.0196 C   0  0  0  0  0  0  0  0  0  0  0  0
   68.6081   46.9517   52.0601 C   0  0  0  0  0  0  0  0  0  0  0  0
   67.8933   45.8178   52.3845 C   0  0  0  0  0  0  0  0  0  0  0  0
   67.7737   45.5144   53.7240 C   0  0  0  0  0  0  0  0  0  0  0  0
   68.3562   46.3310   54.6930 C   0  0  0  0  0  0  0  0  0  0  0  0
   68.2706   46.0377   56.0683 N   0  0  0  0  0  0  0  0  0  0  0  0
   69.1370   47.2663   56.8853 S   0  0  0  0  0  0  0  0  0  0  0  0
   69.5989   48.1481   55.4205 N   0  0  0  0  0  0  0  0  0  0  0  0
   69.0350   47.4095   54.3681 C   0  0  0  0  0  0  0  0  0  0  0  0
   69.3435   50.6680   52.9609 N   0  0  0  0  0  0  0  0  0  0  0  0
   71.4896   53.7801   56.1113 C   0  0  0  0  0  0  0  0  0  0  0  0
   70.3348   52.8761   55.7531 C   0  0  0  0  0  0  0  0  0  0  0  0
   69.2567   52.7528   56.6150 C   0  0  0  0  0  0  0  0  0  0  0  0
   68.2087   51.9257   56.2764 C   0  0  0  0  0  0  0  0  0  0  0  0
   68.2368   51.2269   55.0897 C   0  0  0  0  0  0  0  0  0  0  0  0
   69.2786   51.3185   54.2127 C   0  0  0  0  0  0  0  0  0  0  0  0
   70.3312   52.1719   54.5880 C   0  0  0  0  0  0  0  0  0  0  0  0
 14 15  1  0
 15 16  2  0
 15 20  1  0
 16 17  1  0
 17 18  2  0
 18 19  1  0
 19 13  1  0
 19 20  2  0
 13  1  1  0
  1  2  2  0
  1  3  2  0
  1  4  1  0
  4  5  2  0
  4 12  1  0
  5  6  1  0
  6  7  2  0
  7  8  1  0
  8  9  2  0
  8 12  1  0
  9 10  1  0
 10 11  1  0
 11 12  2  0
M  END
>  <minimizedAffinity>  (13) 
-8.61613

$$$$
cs_full_output_folder/data/smiles/8207.pdb
     RDKit          3D

 19 21  0  0  0  0  0  0  0  0999 V2000
   70.6540   48.5167   50.8287 O   0  0  0  0  0  0  0  0  0  0  0  0
   70.3919   48.4783   52.0639 C   0  0  0  0  0  0  0  0  0  0  0  0
   71.0624   49.2836   52.8970 N   0  0  0  0  0  0  0  0  0  0  0  0
   70.8405   49.2898   54.1854 N   0  0  0  0  0  0  0  0  0  0  0  0
   69.9058   48.4771   54.7975 C   0  0  0  0  0  0  0  0  0  0  0  0
   69.2271   47.6624   53.9609 C   0  0  0  0  0  0  0  0  0  0  0  0
   68.2808   46.7998   54.4592 C   0  0  0  0  0  0  0  0  0  0  0  0
   67.5959   45.9652   53.6088 C   0  0  0  0  0  0  0  0  0  0  0  0
   67.8289   45.9642   52.2553 C   0  0  0  0  0  0  0  0  0  0  0  0
   68.7682   46.8106   51.7192 C   0  0  0  0  0  0  0  0  0  0  0  0
   69.4413   47.6336   52.5817 C   0  0  0  0  0  0  0  0  0  0  0  0
   69.7625   48.6392   56.2503 C   0  0  0  0  0  0  0  0  0  0  0  0
   68.5860   49.3894   56.7117 C   0  0  0  0  0  0  0  0  0  0  0  0
   67.6415   48.6288   57.4221 C   0  0  0  0  0  0  0  0  0  0  0  0
   66.5309   49.2062   58.0333 C   0  0  0  0  0  0  0  0  0  0  0  0
   66.3492   50.5632   57.9391 C   0  0  0  0  0  0  0  0  0  0  0  0
   67.2680   51.3196   57.2445 C   0  0  0  0  0  0  0  0  0  0  0  0
   68.3812   50.7026   56.6369 C   0  0  0  0  0  0  0  0  0  0  0  0
   69.3785   51.7654   55.6782 Cl  0  0  0  0  0  0  0  0  0  0  0  0
  1  2  2  0
  2  3  1  0
  2 11  1  0
  3  4  1  0
  4  5  2  0
  5 12  1  0
  5  6  1  0
 12 13  1  0
 13 14  2  0
 13 18  1  0
 14 15  1  0
 15 16  2  0
 16 17  1  0
 17 18  2  0
 18 19  1  0
  6  7  1  0
  6 11  2  0
  7  8  2  0
  8  9  1  0
  9 10  2  0
 10 11  1  0
M  END
>  <minimizedAffinity>  (14) 
-8.81559

$$$$
cs_full_output_folder/data/smiles/3608.pdb
     RDKit          3D

 26 28  0  0  0  0  0  0  0  0999 V2000
   68.3643   45.7657   54.2402 C   0  0  0  0  0  0  0  0  0  0  0  0
   67.8473   45.4757   53.0012 C   0  0  0  0  0  0  0  0  0  0  0  0
   67.9760   46.3754   51.9496 C   0  0  0  0  0  0  0  0  0  0  0  0
   68.6252   47.5746   52.1362 C   0  0  0  0  0  0  0  0  0  0  0  0
   69.1596   47.9013   53.3758 C   0  0  0  0  0  0  0  0  0  0  0  0
   69.0070   46.9784   54.3817 C   0  0  0  0  0  0  0  0  0  0  0  0
   68.6192   45.2583   56.5350 O   0  0  0  0  0  0  0  0  0  0  0  0
   68.2645   44.8631   55.3912 C   0  0  0  0  0  0  0  0  0  0  0  0
   67.7830   43.5325   55.3137 N   0  0  0  0  0  0  0  0  0  0  0  0
   67.6940   42.6713   56.4434 C   0  0  0  0  0  0  0  0  0  0  0  0
   68.8189   42.0290   56.9146 C   0  0  0  0  0  0  0  0  0  0  0  0
   68.7832   41.1798   58.0139 C   0  0  0  0  0  0  0  0  0  0  0  0
   67.5856   40.9655   58.6630 C   0  0  0  0  0  0  0  0  0  0  0  0
   66.4758   41.6208   58.1701 C   0  0  0  0  0  0  0  0  0  0  0  0
   66.5391   42.4464   57.0931 N   0  0  0  0  0  0  0  0  0  0  0  0
   69.9925   49.3730   53.7234 S   0  0  0  0  0  0  0  0  0  0  0  0
   71.3886   49.3075   53.1118 O   0  0  0  0  0  0  0  0  0  0  0  0
   69.2950   50.4724   52.9539 O   0  0  0  0  0  0  0  0  0  0  0  0
   70.1540   49.7579   55.3728 N   0  0  0  0  0  0  0  0  0  0  0  0
   69.0292   49.9144   56.2122 C   0  0  0  0  0  0  0  0  0  0  0  0
   68.4706   48.9148   56.9785 C   0  0  0  0  0  0  0  0  0  0  0  0
   67.3625   49.1182   57.7630 C   0  0  0  0  0  0  0  0  0  0  0  0
   66.7876   50.3750   57.7795 C   0  0  0  0  0  0  0  0  0  0  0  0
   67.3112   51.4040   57.0295 C   0  0  0  0  0  0  0  0  0  0  0  0
   68.4175   51.1803   56.2545 C   0  0  0  0  0  0  0  0  0  0  0  0
   68.9440   52.1889   55.5071 F   0  0  0  0  0  0  0  0  0  0  0  0
  7  8  2  0
  8  9  1  0
  8  1  1  0
  9 10  1  0
 10 11  2  0
 10 15  1  0
 11 12  1  0
 12 13  2  0
 13 14  1  0
 14 15  2  0
  1  2  2  0
  1  6  1  0
  2  3  1  0
  3  4  2  0
  4  5  1  0
  5 16  1  0
  5  6  2  0
 16 17  2  0
 16 18  2  0
 16 19  1  0
 19 20  1  0
 20 21  2  0
 20 25  1  0
 21 22  1  0
 22 23  2  0
 23 24  1  0
 24 25  2  0
 25 26  1  0
M  END
>  <minimizedAffinity>  (15) 
-8.64302

$$$$
cs_full_output_folder/data/smiles/7874.pdb
     RDKit          3D

 25 27  0  0  0  0  0  0  0  0999 V2000
   70.9873   48.2229   57.3021 O   0  0  0  0  0  0  0  0  0  0  0  0
   69.9186   47.6243   57.0383 C   0  0  0  0  0  0  0  0  0  0  0  0
   69.7865   46.2890   57.4721 N   0  0  0  0  0  0  0  0  0  0  0  0
   70.7887   45.5795   58.1905 C   0  0  0  0  0  0  0  0  0  0  0  0
   71.2644   46.0776   59.3848 C   0  0  0  0  0  0  0  0  0  0  0  0
   72.2454   45.4113   60.1145 C   0  0  0  0  0  0  0  0  0  0  0  0
   72.7784   44.2218   59.6660 C   0  0  0  0  0  0  0  0  0  0  0  0
   72.3048   43.7217   58.4719 C   0  0  0  0  0  0  0  0  0  0  0  0
   71.3195   44.3902   57.7384 C   0  0  0  0  0  0  0  0  0  0  0  0
   72.8487   42.4531   57.9577 C   0  0  0  0  0  0  0  0  0  0  0  0
   71.8618   41.5403   57.6477 F   0  0  0  0  0  0  0  0  0  0  0  0
   73.7351   41.9619   58.8920 F   0  0  0  0  0  0  0  0  0  0  0  0
   73.5562   42.6913   56.8010 F   0  0  0  0  0  0  0  0  0  0  0  0
   68.8748   48.3609   56.2917 C   0  0  0  0  0  0  0  0  0  0  0  0
   69.3004   48.5146   54.8795 C   0  0  0  0  0  0  0  0  0  0  0  0
   70.1285   49.4704   54.4453 N   0  0  0  0  0  0  0  0  0  0  0  0
   70.4971   49.5918   53.1757 N   0  0  0  0  0  0  0  0  0  0  0  0
   70.0600   48.7491   52.2166 C   0  0  0  0  0  0  0  0  0  0  0  0
   70.4141   48.8703   51.0157 O   0  0  0  0  0  0  0  0  0  0  0  0
   69.2017   47.7451   52.6171 C   0  0  0  0  0  0  0  0  0  0  0  0
   68.7098   46.8423   51.6942 C   0  0  0  0  0  0  0  0  0  0  0  0
   67.8507   45.8188   52.0320 C   0  0  0  0  0  0  0  0  0  0  0  0
   67.4840   45.7185   53.3612 C   0  0  0  0  0  0  0  0  0  0  0  0
   67.9669   46.6178   54.3150 C   0  0  0  0  0  0  0  0  0  0  0  0
   68.8153   47.6160   53.9364 C   0  0  0  0  0  0  0  0  0  0  0  0
  1  2  2  0
  2 14  1  0
  2  3  1  0
 14 15  1  0
 15 16  2  0
 15 25  1  0
 16 17  1  0
 17 18  1  0
 18 19  2  0
 18 20  1  0
 20 21  1  0
 20 25  2  0
 21 22  2  0
 22 23  1  0
 23 24  2  0
 24 25  1  0
  3  4  1  0
  4  5  2  0
  4  9  1  0
  5  6  1  0
  6  7  2  0
  7  8  1  0
  8 10  1  0
  8  9  2  0
 10 11  1  0
 10 12  1  0
 10 13  1  0
M  END
>  <minimizedAffinity>  (16) 
-8.55833

$$$$
cs_full_output_folder/data/smiles/6054.pdb
     RDKit          3D

 25 27  0  0  0  0  0  0  0  0999 V2000
   71.2446   43.7266   57.9392 C   0  0  0  0  0  0  0  0  0  0  0  0
   67.0256   42.1017   56.0831 C   0  0  0  0  0  0  0  0  0  0  0  0
   68.2769   41.8662   56.7820 N   0  0  0  0  0  0  0  0  0  0  0  0
   69.1624   42.8207   57.0115 N   0  0  0  0  0  0  0  0  0  0  0  0
   70.3160   42.6119   57.6671 C   0  0  0  0  0  0  0  0  0  0  0  0
   70.5590   41.3292   58.1055 C   0  0  0  0  0  0  0  0  0  0  0  0
   71.7223   41.0064   58.7765 C   0  0  0  0  0  0  0  0  0  0  0  0
   72.0545   39.7692   59.2350 C   0  0  0  0  0  0  0  0  0  0  0  0
   71.1390   38.7323   59.0102 C   0  0  0  0  0  0  0  0  0  0  0  0
   69.9638   39.0285   58.3400 C   0  0  0  0  0  0  0  0  0  0  0  0
   69.6600   40.2949   57.8887 C   0  0  0  0  0  0  0  0  0  0  0  0
   68.5018   40.6060   57.2078 C   0  0  0  0  0  0  0  0  0  0  0  0
   67.6682   39.6804   56.9979 O   0  0  0  0  0  0  0  0  0  0  0  0
   70.4103   44.9442   58.0190 C   0  0  0  0  0  0  0  0  0  0  0  0
   69.7843   45.0514   59.1189 O   0  0  0  0  0  0  0  0  0  0  0  0
   70.2306   45.9512   57.0801 N   0  0  0  0  0  0  0  0  0  0  0  0
   69.4465   47.1194   57.1406 C   0  0  0  0  0  0  0  0  0  0  0  0
   68.3772   47.3816   56.1857 C   0  0  0  0  0  0  0  0  0  0  0  0
   68.5924   47.2458   54.7556 C   0  0  0  0  0  0  0  0  0  0  0  0
   69.1572   48.2913   54.0509 C   0  0  0  0  0  0  0  0  0  0  0  0
   69.4255   48.2271   52.6821 C   0  0  0  0  0  0  0  0  0  0  0  0
   69.1197   47.0795   51.9858 C   0  0  0  0  0  0  0  0  0  0  0  0
   68.5519   46.0325   52.6993 C   0  0  0  0  0  0  0  0  0  0  0  0
   68.2930   46.1010   54.0407 C   0  0  0  0  0  0  0  0  0  0  0  0
   67.7475   45.0697   54.6679 F   0  0  0  0  0  0  0  0  0  0  0  0
  2  3  1  0
  3  4  1  0
  3 12  1  0
  4  5  2  0
  5  1  1  0
  5  6  1  0
  1 14  1  0
 14 15  2  0
 14 16  1  0
 16 17  1  0
 17 18  1  0
 18 19  1  0
 19 20  2  0
 19 24  1  0
 20 21  1  0
 21 22  2  0
 22 23  1  0
 23 24  2  0
 24 25  1  0
  6  7  1  0
  6 11  2  0
  7  8  2  0
  8  9  1  0
  9 10  2  0
 10 11  1  0
 11 12  1  0
 12 13  2  0
M  END
>  <minimizedAffinity>  (17) 
-8.54471

$$$$
cs_full_output_folder/data/smiles/6206.pdb
     RDKit          3D

 24 26  0  0  0  0  0  0  0  0999 V2000
   70.8554   47.7827   57.6846 N   0  0  0  0  0  0  0  0  0  0  0  0
   69.5520   47.5661   57.1281 C   0  0  0  0  0  0  0  0  0  0  0  0
   69.0368   46.4630   57.3912 O   0  0  0  0  0  0  0  0  0  0  0  0
   72.1257   44.4680   58.8951 C   0  0  0  0  0  0  0  0  0  0  0  0
   72.5594   44.8383   60.1511 C   0  0  0  0  0  0  0  0  0  0  0  0
   72.4460   46.1497   60.5993 C   0  0  0  0  0  0  0  0  0  0  0  0
   71.8814   47.0881   59.7520 C   0  0  0  0  0  0  0  0  0  0  0  0
   71.4303   46.7544   58.4771 C   0  0  0  0  0  0  0  0  0  0  0  0
   71.5717   45.4405   58.0925 C   0  0  0  0  0  0  0  0  0  0  0  0
   73.4463   43.0428   57.4857 C   0  0  0  0  0  0  0  0  0  0  0  0
   72.2511   43.0534   58.4569 C   0  0  0  0  0  0  0  0  0  0  0  0
   71.0768   42.5299   57.7150 C   0  0  0  0  0  0  0  0  0  0  0  0
   68.8930   48.6140   56.2954 C   0  0  0  0  0  0  0  0  0  0  0  0
   69.3047   48.6053   54.8760 C   0  0  0  0  0  0  0  0  0  0  0  0
   70.2293   49.5271   54.4555 N   0  0  0  0  0  0  0  0  0  0  0  0
   70.6763   49.5451   53.2284 N   0  0  0  0  0  0  0  0  0  0  0  0
   70.2746   48.6749   52.2906 C   0  0  0  0  0  0  0  0  0  0  0  0
   70.6699   48.6473   51.1048 O   0  0  0  0  0  0  0  0  0  0  0  0
   69.3379   47.7164   52.6545 C   0  0  0  0  0  0  0  0  0  0  0  0
   68.8766   46.7979   51.7487 C   0  0  0  0  0  0  0  0  0  0  0  0
   67.9333   45.8512   52.1325 C   0  0  0  0  0  0  0  0  0  0  0  0
   67.4532   45.8253   53.4215 C   0  0  0  0  0  0  0  0  0  0  0  0
   67.9211   46.7595   54.3490 C   0  0  0  0  0  0  0  0  0  0  0  0
   68.8582   47.6933   53.9590 C   0  0  0  0  0  0  0  0  0  0  0  0
 10 11  1  0
 11 12  1  0
 11  4  1  0
  4  5  2  0
  4  9  1  0
  5  6  1  0
  6  7  2  0
  7  8  1  0
  8  1  1  0
  8  9  2  0
  1  2  1  0
  2  3  2  0
  2 13  1  0
 13 14  1  0
 14 15  2  0
 14 24  1  0
 15 16  1  0
 16 17  1  0
 17 18  2  0
 17 19  1  0
 19 20  1  0
 19 24  2  0
 20 21  2  0
 21 22  1  0
 22 23  2  0
 23 24  1  0
M  END
>  <minimizedAffinity>  (18) 
-8.77573

$$$$
cs_full_output_folder/data/smiles/986.pdb
     RDKit          3D

 28 31  0  0  0  0  0  0  0  0999 V2000
   73.4177   49.4559   56.1567 O   0  0  0  0  0  0  0  0  0  0  0  0
   72.4888   49.4315   57.0063 C   0  0  0  0  0  0  0  0  0  0  0  0
   72.7194   48.7462   58.2174 N   0  0  0  0  0  0  0  0  0  0  0  0
   71.7369   48.6446   59.2818 C   0  0  0  0  0  0  0  0  0  0  0  0
   71.9434   47.2675   59.9076 C   0  0  0  0  0  0  0  0  0  0  0  0
   72.4416   46.3497   58.9026 N   0  0  0  0  0  0  0  0  0  0  0  0
   73.7988   46.5931   58.4345 C   0  0  0  0  0  0  0  0  0  0  0  0
   73.9928   48.0985   58.4426 C   0  0  0  0  0  0  0  0  0  0  0  0
   71.6885   45.2785   58.3766 C   0  0  0  0  0  0  0  0  0  0  0  0
   70.4613   45.5219   57.7704 C   0  0  0  0  0  0  0  0  0  0  0  0
   69.7335   44.4568   57.2688 C   0  0  0  0  0  0  0  0  0  0  0  0
   70.1549   43.1517   57.3339 C   0  0  0  0  0  0  0  0  0  0  0  0
   69.4150   42.1318   56.8300 F   0  0  0  0  0  0  0  0  0  0  0  0
   71.3833   42.9035   57.9392 C   0  0  0  0  0  0  0  0  0  0  0  0
   72.1185   43.9678   58.4452 C   0  0  0  0  0  0  0  0  0  0  0  0
   71.2218   50.1096   56.6951 C   0  0  0  0  0  0  0  0  0  0  0  0
   71.0325   50.5468   55.3174 C   0  0  0  0  0  0  0  0  0  0  0  0
   70.4734   49.5883   54.3511 C   0  0  0  0  0  0  0  0  0  0  0  0
   69.6930   48.6114   54.8932 N   0  0  0  0  0  0  0  0  0  0  0  0
   69.1194   47.6863   54.1028 C   0  0  0  0  0  0  0  0  0  0  0  0
   68.3159   46.6783   54.6496 C   0  0  0  0  0  0  0  0  0  0  0  0
   67.7346   45.7369   53.8228 C   0  0  0  0  0  0  0  0  0  0  0  0
   67.9895   45.8518   52.4724 C   0  0  0  0  0  0  0  0  0  0  0  0
   68.7735   46.8308   51.9129 C   0  0  0  0  0  0  0  0  0  0  0  0
   69.3491   47.7660   52.7463 C   0  0  0  0  0  0  0  0  0  0  0  0
   70.1426   48.7637   52.2189 C   0  0  0  0  0  0  0  0  0  0  0  0
   70.3653   48.8569   50.9965 O   0  0  0  0  0  0  0  0  0  0  0  0
   70.6999   49.6731   53.0476 N   0  0  0  0  0  0  0  0  0  0  0  0
  1  2  2  0
  2 16  1  0
  2  3  1  0
 16 17  1  0
 17 18  1  0
 18 19  2  0
 18 28  1  0
 19 20  1  0
 20 21  2  0
 20 25  1  0
 21 22  1  0
 22 23  2  0
 23 24  1  0
 24 25  2  0
 25 26  1  0
 26 27  2  0
 26 28  1  0
  3  4  1  0
  3  8  1  0
  4  5  1  0
  5  6  1  0
  6  9  1  0
  6  7  1  0
  9 10  2  0
  9 15  1  0
 10 11  1  0
 11 12  2  0
 12 13  1  0
 12 14  1  0
 14 15  2  0
  7  8  1  0
M  END
>  <minimizedAffinity>  (19) 
-8.81779

$$$$
cs_full_output_folder/data/smiles/7143.pdb
     RDKit          3D

 26 28  0  0  0  0  0  0  0  0999 V2000
   70.3009   47.1692   57.8793 C   0  0  0  0  0  0  0  0  0  0  0  0
   69.3834   46.3097   57.7602 O   0  0  0  0  0  0  0  0  0  0  0  0
   70.2220   48.4053   57.1629 N   0  0  0  0  0  0  0  0  0  0  0  0
   71.1935   46.3560   59.9095 O   0  0  0  0  0  0  0  0  0  0  0  0
   71.4180   46.8581   58.7581 C   0  0  0  0  0  0  0  0  0  0  0  0
   72.7542   47.1063   58.3553 N   0  0  0  0  0  0  0  0  0  0  0  0
   73.9129   46.8213   59.1839 C   0  0  0  0  0  0  0  0  0  0  0  0
   74.9308   45.9744   58.4670 C   0  0  0  0  0  0  0  0  0  0  0  0
   74.6151   44.5348   58.5250 C   0  0  0  0  0  0  0  0  0  0  0  0
   73.7038   44.0508   57.6890 C   0  0  0  0  0  0  0  0  0  0  0  0
   73.2601   42.6535   57.5995 C   0  0  0  0  0  0  0  0  0  0  0  0
   73.7876   41.7925   58.7223 C   0  0  0  0  0  0  0  0  0  0  0  0
   75.2022   42.1863   59.0873 C   0  0  0  0  0  0  0  0  0  0  0  0
   75.2905   43.6234   59.4962 C   0  0  0  0  0  0  0  0  0  0  0  0
   69.0914   48.6450   56.3159 C   0  0  0  0  0  0  0  0  0  0  0  0
   69.4885   48.6631   54.8760 C   0  0  0  0  0  0  0  0  0  0  0  0
   70.3549   49.5650   54.3625 N   0  0  0  0  0  0  0  0  0  0  0  0
   70.7247   49.6086   53.1034 N   0  0  0  0  0  0  0  0  0  0  0  0
   70.2032   48.6878   52.2535 C   0  0  0  0  0  0  0  0  0  0  0  0
   70.5827   48.7658   51.0608 O   0  0  0  0  0  0  0  0  0  0  0  0
   69.3159   47.7320   52.6817 C   0  0  0  0  0  0  0  0  0  0  0  0
   68.8213   46.8268   51.7786 C   0  0  0  0  0  0  0  0  0  0  0  0
   67.9123   45.8391   52.1858 C   0  0  0  0  0  0  0  0  0  0  0  0
   67.5517   45.8295   53.5178 C   0  0  0  0  0  0  0  0  0  0  0  0
   68.0679   46.7548   54.4009 C   0  0  0  0  0  0  0  0  0  0  0  0
   68.9604   47.7293   54.0108 C   0  0  0  0  0  0  0  0  0  0  0  0
  4  5  2  0
  5  6  1  0
  5  1  1  0
  6  7  1  0
  7  8  1  0
  8  9  1  0
  9 10  2  0
  9 14  1  0
 10 11  1  0
 11 12  1  0
 12 13  1  0
 13 14  1  0
  1  2  2  0
  1  3  1  0
  3 15  1  0
 15 16  1  0
 16 17  2  0
 16 26  1  0
 17 18  1  0
 18 19  1  0
 19 20  2  0
 19 21  1  0
 21 22  1  0
 21 26  2  0
 22 23  2  0
 23 24  1  0
 24 25  2  0
 25 26  1  0
M  END
>  <minimizedAffinity>  (20) 
-8.88494

$$$$
cs_full_output_folder/data/smiles/1537.pdb
     RDKit          3D

 29 32  0  0  0  0  0  0  0  0999 V2000
   71.4480   47.0794   58.8773 C   0  0  0  0  0  0  0  0  0  0  0  0
   70.6031   47.8368   58.0532 C   0  0  0  0  0  0  0  0  0  0  0  0
   69.7573   47.2916   57.1262 C   0  0  0  0  0  0  0  0  0  0  0  0
   69.7589   45.8977   57.0175 C   0  0  0  0  0  0  0  0  0  0  0  0
   70.5701   45.1158   57.8043 C   0  0  0  0  0  0  0  0  0  0  0  0
   71.4071   45.7069   58.7255 C   0  0  0  0  0  0  0  0  0  0  0  0
   72.2254   44.9389   59.5202 F   0  0  0  0  0  0  0  0  0  0  0  0
   73.9488   50.9065   58.7524 C   0  0  0  0  0  0  0  0  0  0  0  0
   74.7723   50.4311   59.9268 C   0  0  0  0  0  0  0  0  0  0  0  0
   74.3517   49.0608   60.4012 C   0  0  0  0  0  0  0  0  0  0  0  0
   73.4959   48.4235   59.4470 N   0  0  0  0  0  0  0  0  0  0  0  0
   72.3235   47.7300   59.8441 C   0  0  0  0  0  0  0  0  0  0  0  0
   72.0372   47.6803   61.0599 O   0  0  0  0  0  0  0  0  0  0  0  0
   73.8630   48.5057   58.0463 C   0  0  0  0  0  0  0  0  0  0  0  0
   74.0458   49.9365   57.5953 C   0  0  0  0  0  0  0  0  0  0  0  0
   71.9192   51.8222   58.2163 C   0  0  0  0  0  0  0  0  0  0  0  0
   72.6129   51.0097   59.1036 O   0  0  0  0  0  0  0  0  0  0  0  0
   68.8987   48.1273   56.2747 C   0  0  0  0  0  0  0  0  0  0  0  0
   69.2840   48.2036   54.8585 C   0  0  0  0  0  0  0  0  0  0  0  0
   70.1977   49.1639   54.5141 N   0  0  0  0  0  0  0  0  0  0  0  0
   70.5996   49.3659   53.2882 N   0  0  0  0  0  0  0  0  0  0  0  0
   70.1488   48.6439   52.2476 C   0  0  0  0  0  0  0  0  0  0  0  0
   70.5321   48.8360   51.0680 O   0  0  0  0  0  0  0  0  0  0  0  0
   69.2224   47.6562   52.5285 C   0  0  0  0  0  0  0  0  0  0  0  0
   68.7228   46.8674   51.5149 C   0  0  0  0  0  0  0  0  0  0  0  0
   67.8056   45.8723   51.7981 C   0  0  0  0  0  0  0  0  0  0  0  0
   67.3935   45.6719   53.1067 C   0  0  0  0  0  0  0  0  0  0  0  0
   67.8796   46.4471   54.1301 C   0  0  0  0  0  0  0  0  0  0  0  0
   68.7905   47.4382   53.8448 C   0  0  0  0  0  0  0  0  0  0  0  0
 16 17  1  0
 17  8  1  0
  8  9  1  0
  8 15  1  0
  9 10  1  0
 10 11  1  0
 11 12  1  0
 11 14  1  0
 12 13  2  0
 12  1  1  0
  1  2  2  0
  1  6  1  0
  2  3  1  0
  3 18  1  0
  3  4  2  0
 18 19  1  0
 19 20  2  0
 19 29  1  0
 20 21  1  0
 21 22  1  0
 22 23  2  0
 22 24  1  0
 24 25  1  0
 24 29  2  0
 25 26  2  0
 26 27  1  0
 27 28  2  0
 28 29  1  0
  4  5  1  0
  5  6  2  0
  6  7  1  0
 14 15  1  0
M  END
>  <minimizedAffinity>  (21) 
-9.49257

$$$$
cs_full_output_folder/data/smiles/41.pdb
     RDKit          3D

 23 25  0  0  0  0  0  0  0  0999 V2000
   71.4481   49.8185   54.6035 O   0  0  0  0  0  0  0  0  0  0  0  0
   70.7094   50.0099   53.4489 C   0  0  0  0  0  0  0  0  0  0  0  0
   70.4603   51.2163   53.1468 O   0  0  0  0  0  0  0  0  0  0  0  0
   70.2517   48.9131   52.6396 C   0  0  0  0  0  0  0  0  0  0  0  0
   70.5202   48.6041   51.3752 N   0  0  0  0  0  0  0  0  0  0  0  0
   69.8631   47.4796   51.0333 N   0  0  0  0  0  0  0  0  0  0  0  0
   69.1458   47.0221   52.0699 C   0  0  0  0  0  0  0  0  0  0  0  0
   68.3230   45.9251   52.2140 C   0  0  0  0  0  0  0  0  0  0  0  0
   67.7132   45.7286   53.4465 C   0  0  0  0  0  0  0  0  0  0  0  0
   67.9114   46.5830   54.4885 C   0  0  0  0  0  0  0  0  0  0  0  0
   68.7515   47.6738   54.2909 C   0  0  0  0  0  0  0  0  0  0  0  0
   69.3787   47.9128   53.0897 C   0  0  0  0  0  0  0  0  0  0  0  0
   71.8929   50.8606   55.4184 C   0  0  0  0  0  0  0  0  0  0  0  0
   71.2468   52.2959   57.1087 O   0  0  0  0  0  0  0  0  0  0  0  0
   70.9626   51.1921   56.4726 C   0  0  0  0  0  0  0  0  0  0  0  0
   69.7905   50.4879   56.9093 C   0  0  0  0  0  0  0  0  0  0  0  0
   69.6928   49.1657   57.2455 C   0  0  0  0  0  0  0  0  0  0  0  0
   68.5072   48.5433   57.6657 C   0  0  0  0  0  0  0  0  0  0  0  0
   67.3691   49.2618   57.7574 C   0  0  0  0  0  0  0  0  0  0  0  0
   66.2104   48.6663   58.1655 F   0  0  0  0  0  0  0  0  0  0  0  0
   67.4105   50.5917   57.4333 C   0  0  0  0  0  0  0  0  0  0  0  0
   66.2591   51.3127   57.5279 F   0  0  0  0  0  0  0  0  0  0  0  0
   68.5684   51.1969   57.0226 C   0  0  0  0  0  0  0  0  0  0  0  0
 14 15  2  0
 15 13  1  0
 15 16  1  0
 13  1  1  0
  1  2  1  0
  2  3  2  0
  2  4  1  0
  4  5  1  0
  4 12  2  0
  5  6  1  0
  6  7  2  0
  7  8  1  0
  7 12  1  0
  8  9  2  0
  9 10  1  0
 10 11  2  0
 11 12  1  0
 16 17  2  0
 16 23  1  0
 17 18  1  0
 18 19  2  0
 19 20  1  0
 19 21  1  0
 21 22  1  0
 21 23  2  0
M  END
>  <minimizedAffinity>  (22) 
-8.84608

$$$$
cs_full_output_folder/data/smiles/504.pdb
     RDKit          3D

 19 21  0  0  0  0  0  0  0  0999 V2000
   70.6612   50.5325   53.4418 N   0  0  0  0  0  0  0  0  0  0  0  0
   69.9688   49.3711   53.0700 C   0  0  0  0  0  0  0  0  0  0  0  0
   69.5675   48.4822   54.0487 C   0  0  0  0  0  0  0  0  0  0  0  0
   68.8890   47.3538   53.6280 C   0  0  0  0  0  0  0  0  0  0  0  0
   68.4588   46.4246   54.5517 C   0  0  0  0  0  0  0  0  0  0  0  0
   67.7870   45.3032   54.1653 C   0  0  0  0  0  0  0  0  0  0  0  0
   67.5153   45.0603   52.8379 C   0  0  0  0  0  0  0  0  0  0  0  0
   67.9322   45.9711   51.8969 C   0  0  0  0  0  0  0  0  0  0  0  0
   68.6079   47.0963   52.3038 C   0  0  0  0  0  0  0  0  0  0  0  0
   69.0165   47.9812   51.4072 O   0  0  0  0  0  0  0  0  0  0  0  0
   69.6657   49.0742   51.7414 C   0  0  0  0  0  0  0  0  0  0  0  0
   70.0187   49.8656   50.8193 O   0  0  0  0  0  0  0  0  0  0  0  0
   69.8309   48.6993   55.4333 N   0  0  0  0  0  0  0  0  0  0  0  0
   68.8439   49.3601   56.2178 C   0  0  0  0  0  0  0  0  0  0  0  0
   68.0507   48.6239   57.0757 C   0  0  0  0  0  0  0  0  0  0  0  0
   67.0968   49.2869   57.8299 C   0  0  0  0  0  0  0  0  0  0  0  0
   66.9125   50.6518   57.7535 C   0  0  0  0  0  0  0  0  0  0  0  0
   67.6977   51.3811   56.9034 C   0  0  0  0  0  0  0  0  0  0  0  0
   68.6563   50.7118   56.1472 C   0  0  0  0  0  0  0  0  0  0  0  0
  1  2  1  0
  2  3  2  0
  2 11  1  0
  3 13  1  0
  3  4  1  0
 13 14  1  0
 14 15  2  0
 14 19  1  0
 15 16  1  0
 16 17  2  0
 17 18  1  0
 18 19  2  0
  4  5  2  0
  4  9  1  0
  5  6  1  0
  6  7  2  0
  7  8  1  0
  8  9  2  0
  9 10  1  0
 10 11  1  0
 11 12  2  0
M  END
>  <minimizedAffinity>  (23) 
-8.64194

$$$$
cs_full_output_folder/data/smiles/8834.pdb
     RDKit          3D

 29 32  0  0  0  0  0  0  0  0999 V2000
   69.2381   47.6688   54.8851 C   0  0  0  0  0  0  0  0  0  0  0  0
   69.9398   48.8361   54.7794 N   0  0  0  0  0  0  0  0  0  0  0  0
   70.1742   49.4388   53.6298 N   0  0  0  0  0  0  0  0  0  0  0  0
   69.6887   48.8544   52.5253 C   0  0  0  0  0  0  0  0  0  0  0  0
   69.8617   49.3524   51.3851 O   0  0  0  0  0  0  0  0  0  0  0  0
   68.9680   47.6703   52.5575 C   0  0  0  0  0  0  0  0  0  0  0  0
   68.4731   47.0764   51.4295 C   0  0  0  0  0  0  0  0  0  0  0  0
   67.7504   45.8885   51.4789 C   0  0  0  0  0  0  0  0  0  0  0  0
   67.5102   45.2661   52.6844 C   0  0  0  0  0  0  0  0  0  0  0  0
   68.0134   45.8687   53.8286 C   0  0  0  0  0  0  0  0  0  0  0  0
   68.7329   47.0539   53.7805 C   0  0  0  0  0  0  0  0  0  0  0  0
   68.0216   47.1044   56.9002 O   0  0  0  0  0  0  0  0  0  0  0  0
   69.0603   47.1116   56.2132 C   0  0  0  0  0  0  0  0  0  0  0  0
   70.1707   46.4717   56.8839 N   0  0  0  0  0  0  0  0  0  0  0  0
   70.0897   45.8846   58.1962 C   0  0  0  0  0  0  0  0  0  0  0  0
   70.6067   44.5051   58.1562 C   0  0  0  0  0  0  0  0  0  0  0  0
   69.8234   43.4728   57.6567 C   0  0  0  0  0  0  0  0  0  0  0  0
   70.2715   42.1793   57.5847 C   0  0  0  0  0  0  0  0  0  0  0  0
   71.5364   41.8999   58.0219 C   0  0  0  0  0  0  0  0  0  0  0  0
   71.9456   40.6034   57.9360 F   0  0  0  0  0  0  0  0  0  0  0  0
   72.3281   42.8850   58.5160 C   0  0  0  0  0  0  0  0  0  0  0  0
   71.8656   44.1999   58.5866 C   0  0  0  0  0  0  0  0  0  0  0  0
   70.9149   50.6609   53.5820 C   0  0  0  0  0  0  0  0  0  0  0  0
   70.4730   51.6717   54.5470 C   0  0  0  0  0  0  0  0  0  0  0  0
   71.4536   52.4105   55.1946 C   0  0  0  0  0  0  0  0  0  0  0  0
   71.1371   53.3882   56.1178 C   0  0  0  0  0  0  0  0  0  0  0  0
   69.8315   53.6677   56.4320 C   0  0  0  0  0  0  0  0  0  0  0  0
   68.8583   52.9365   55.7902 C   0  0  0  0  0  0  0  0  0  0  0  0
   69.1762   51.9579   54.8664 C   0  0  0  0  0  0  0  0  0  0  0  0
 12 13  2  0
 13 14  1  0
 13  1  1  0
 14 15  1  0
 15 16  1  0
 16 17  2  0
 16 22  1  0
 17 18  1  0
 18 19  2  0
 19 20  1  0
 19 21  1  0
 21 22  2  0
  1  2  2  0
  1 11  1  0
  2  3  1  0
  3 23  1  0
  3  4  1  0
 23 24  1  0
 24 25  2  0
 24 29  1  0
 25 26  1  0
 26 27  2  0
 27 28  1  0
 28 29  2  0
  4  5  2  0
  4  6  1  0
  6  7  1  0
  6 11  2  0
  7  8  2  0
  8  9  1  0
  9 10  2  0
 10 11  1  0
M  END
>  <minimizedAffinity>  (24) 
-8.83241

$$$$
cs_full_output_folder/data/smiles/8612.pdb
     RDKit          3D

 30 33  0  0  0  0  0  0  0  0999 V2000
   69.6911   46.0034   57.3650 O   0  0  0  0  0  0  0  0  0  0  0  0
   69.7345   47.3037   57.3349 C   0  0  0  0  0  0  0  0  0  0  0  0
   70.6371   47.8911   58.2153 N   0  0  0  0  0  0  0  0  0  0  0  0
   70.9923   49.2679   58.3980 C   0  0  0  0  0  0  0  0  0  0  0  0
   72.4865   49.4711   58.2235 C   0  0  0  0  0  0  0  0  0  0  0  0
   73.2689   48.2953   58.2632 N   0  0  0  0  0  0  0  0  0  0  0  0
   72.7609   46.9383   58.5250 C   0  0  0  0  0  0  0  0  0  0  0  0
   71.3818   47.0246   59.1696 C   0  0  0  0  0  0  0  0  0  0  0  0
   74.6634   48.3572   58.0496 C   0  0  0  0  0  0  0  0  0  0  0  0
   75.5024   47.6666   58.9154 C   0  0  0  0  0  0  0  0  0  0  0  0
   76.8793   47.6967   58.7993 C   0  0  0  0  0  0  0  0  0  0  0  0
   77.4223   48.4454   57.7791 C   0  0  0  0  0  0  0  0  0  0  0  0
   76.6337   49.1514   56.8908 C   0  0  0  0  0  0  0  0  0  0  0  0
   75.2682   49.0870   57.0507 C   0  0  0  0  0  0  0  0  0  0  0  0
   77.2754   49.9750   55.7998 C   0  0  0  0  0  0  0  0  0  0  0  0
   78.5293   50.3182   56.2458 F   0  0  0  0  0  0  0  0  0  0  0  0
   77.4876   49.0619   54.7583 F   0  0  0  0  0  0  0  0  0  0  0  0
   76.4946   51.0244   55.4262 F   0  0  0  0  0  0  0  0  0  0  0  0
   68.8251   47.8943   56.3828 C   0  0  0  0  0  0  0  0  0  0  0  0
   69.2444   48.1031   55.0092 C   0  0  0  0  0  0  0  0  0  0  0  0
   70.0823   49.1000   54.7385 N   0  0  0  0  0  0  0  0  0  0  0  0
   70.4812   49.4029   53.5413 N   0  0  0  0  0  0  0  0  0  0  0  0
   70.0397   48.6827   52.4932 C   0  0  0  0  0  0  0  0  0  0  0  0
   70.4263   48.9720   51.3238 O   0  0  0  0  0  0  0  0  0  0  0  0
   69.1674   47.6230   52.6594 C   0  0  0  0  0  0  0  0  0  0  0  0
   68.7211   46.8773   51.5793 C   0  0  0  0  0  0  0  0  0  0  0  0
   67.8575   45.8295   51.8113 C   0  0  0  0  0  0  0  0  0  0  0  0
   67.4382   45.5209   53.1077 C   0  0  0  0  0  0  0  0  0  0  0  0
   67.9111   46.2917   54.1442 C   0  0  0  0  0  0  0  0  0  0  0  0
   68.7797   47.3539   53.9572 C   0  0  0  0  0  0  0  0  0  0  0  0
  1  2  2  0
  2 19  1  0
  2  3  1  0
 19 20  1  0
 20 21  2  0
 20 30  1  0
 21 22  1  0
 22 23  1  0
 23 24  2  0
 23 25  1  0
 25 26  1  0
 25 30  2  0
 26 27  2  0
 27 28  1  0
 28 29  2  0
 29 30  1  0
  3  4  1  0
  3  8  1  0
  4  5  1  0
  5  6  1  0
  6  9  1  0
  6  7  1  0
  9 10  2  0
  9 14  1  0
 10 11  1  0
 11 12  2  0
 12 13  1  0
 13 15  1  0
 13 14  2  0
 15 16  1  0
 15 17  1  0
 15 18  1  0
  7  8  1  0
M  END
>  <minimizedAffinity>  (25) 
-8.77574

$$$$
cs_full_output_folder/data/smiles/96.pdb
     RDKit          3D

 25 26  0  0  0  0  0  0  0  0999 V2000
   70.0439   49.1339   52.4982 S   0  0  0  0  0  0  0  0  0  0  0  0
   70.7631   48.6806   51.2362 O   0  0  0  0  0  0  0  0  0  0  0  0
   69.0084   50.1431   52.0694 O   0  0  0  0  0  0  0  0  0  0  0  0
   69.2929   47.7479   53.2338 C   0  0  0  0  0  0  0  0  0  0  0  0
   69.3221   47.5184   54.5828 C   0  0  0  0  0  0  0  0  0  0  0  0
   69.9659   48.3468   55.4441 F   0  0  0  0  0  0  0  0  0  0  0  0
   68.6917   46.4002   55.1165 C   0  0  0  0  0  0  0  0  0  0  0  0
   68.7206   46.1689   56.4667 F   0  0  0  0  0  0  0  0  0  0  0  0
   68.0402   45.5246   54.2969 C   0  0  0  0  0  0  0  0  0  0  0  0
   67.4357   44.4384   54.8739 F   0  0  0  0  0  0  0  0  0  0  0  0
   67.9994   45.7371   52.9396 C   0  0  0  0  0  0  0  0  0  0  0  0
   67.3516   44.8614   52.1461 F   0  0  0  0  0  0  0  0  0  0  0  0
   68.6174   46.8359   52.4125 C   0  0  0  0  0  0  0  0  0  0  0  0
   68.5892   47.0654   51.0655 F   0  0  0  0  0  0  0  0  0  0  0  0
   71.1765   49.8128   53.5872 N   0  0  0  0  0  0  0  0  0  0  0  0
   71.9454   51.6013   54.9808 C   0  0  0  0  0  0  0  0  0  0  0  0
   71.7569   52.7493   55.7263 C   0  0  0  0  0  0  0  0  0  0  0  0
   70.5150   53.3375   55.8353 C   0  0  0  0  0  0  0  0  0  0  0  0
   69.4701   52.7357   55.1702 C   0  0  0  0  0  0  0  0  0  0  0  0
   69.6433   51.5753   54.4119 C   0  0  0  0  0  0  0  0  0  0  0  0
   70.8843   50.9851   54.3018 C   0  0  0  0  0  0  0  0  0  0  0  0
   74.7779   51.9475   55.3044 N   0  0  0  0  0  0  0  0  0  0  0  0
   73.5172   50.8659   54.8523 S   0  0  0  0  0  0  0  0  0  0  0  0
   73.8093   50.3181   53.4987 O   0  0  0  0  0  0  0  0  0  0  0  0
   73.5670   49.7237   55.8487 O   0  0  0  0  0  0  0  0  0  0  0  0
 22 23  1  0
 23 24  2  0
 23 25  2  0
 23 16  1  0
 16 17  2  0
 16 21  1  0
 17 18  1  0
 18 19  2  0
 19 20  1  0
 20 21  2  0
 21 15  1  0
 15  1  1  0
  1  2  2  0
  1  3  2  0
  1  4  1  0
  4  5  2  0
  4 13  1  0
  5  6  1  0
  5  7  1  0
  7  8  1  0
  7  9  2  0
  9 10  1  0
  9 11  1  0
 11 12  1  0
 11 13  2  0
 13 14  1  0
M  END
>  <minimizedAffinity>  (26) 
-9.28620

$$$$
cs_full_output_folder/data/smiles/3327.pdb
     RDKit          3D

 24 26  0  0  0  0  0  0  0  0999 V2000
   71.3532   49.1612   52.9273 O   0  0  0  0  0  0  0  0  0  0  0  0
   70.4078   49.4437   53.7661 C   0  0  0  0  0  0  0  0  0  0  0  0
   69.5965   48.3633   54.2869 C   0  0  0  0  0  0  0  0  0  0  0  0
   69.4899   48.2195   55.6896 C   0  0  0  0  0  0  0  0  0  0  0  0
   68.7378   47.2180   56.2356 C   0  0  0  0  0  0  0  0  0  0  0  0
   68.6399   47.0872   57.4790 O   0  0  0  0  0  0  0  0  0  0  0  0
   68.0966   46.3648   55.4463 N   0  0  0  0  0  0  0  0  0  0  0  0
   68.1545   46.4419   54.1123 C   0  0  0  0  0  0  0  0  0  0  0  0
   67.4632   45.5216   53.3164 C   0  0  0  0  0  0  0  0  0  0  0  0
   67.5102   45.5858   51.9436 C   0  0  0  0  0  0  0  0  0  0  0  0
   68.2610   46.5861   51.3895 C   0  0  0  0  0  0  0  0  0  0  0  0
   68.9624   47.5195   52.1597 C   0  0  0  0  0  0  0  0  0  0  0  0
   68.9149   47.4562   53.5288 C   0  0  0  0  0  0  0  0  0  0  0  0
   70.3311   50.7853   54.0329 O   0  0  0  0  0  0  0  0  0  0  0  0
   71.2773   51.5653   54.6926 C   0  0  0  0  0  0  0  0  0  0  0  0
   70.7607   52.8721   55.2168 C   0  0  0  0  0  0  0  0  0  0  0  0
   70.4897   52.7273   56.5982 O   0  0  0  0  0  0  0  0  0  0  0  0
   69.5105   51.8963   57.0961 C   0  0  0  0  0  0  0  0  0  0  0  0
   68.2467   51.9663   56.5482 C   0  0  0  0  0  0  0  0  0  0  0  0
   67.2192   51.1562   57.0050 C   0  0  0  0  0  0  0  0  0  0  0  0
   67.4548   50.2511   58.0358 C   0  0  0  0  0  0  0  0  0  0  0  0
   66.4002   49.4853   58.4370 F   0  0  0  0  0  0  0  0  0  0  0  0
   68.7035   50.1672   58.5918 C   0  0  0  0  0  0  0  0  0  0  0  0
   69.7118   50.9887   58.1155 C   0  0  0  0  0  0  0  0  0  0  0  0
  1  2  2  0
  2 14  1  0
  2  3  1  0
 14 15  1  0
 15 16  1  0
 16 17  1  0
 17 18  1  0
 18 19  2  0
 18 24  1  0
 19 20  1  0
 20 21  2  0
 21 22  1  0
 21 23  1  0
 23 24  2  0
  3  4  2  0
  3 13  1  0
  4  5  1  0
  5  6  2  0
  5  7  1  0
  7  8  1  0
  8  9  1  0
  8 13  2  0
  9 10  2  0
 10 11  1  0
 11 12  2  0
 12 13  1  0
M  END
>  <minimizedAffinity>  (27) 
-8.60951

$$$$
cs_full_output_folder/data/smiles/8039.pdb
     RDKit          3D

 26 28  0  0  0  0  0  0  0  0999 V2000
   69.3237   45.4250   56.9987 O   0  0  0  0  0  0  0  0  0  0  0  0
   69.6393   46.6059   57.2325 C   0  0  0  0  0  0  0  0  0  0  0  0
   70.7449   46.8685   58.0696 N   0  0  0  0  0  0  0  0  0  0  0  0
   71.5372   45.8551   58.6722 C   0  0  0  0  0  0  0  0  0  0  0  0
   71.9149   44.7205   57.9844 C   0  0  0  0  0  0  0  0  0  0  0  0
   72.6850   43.7787   58.6377 C   0  0  0  0  0  0  0  0  0  0  0  0
   73.0686   43.9709   59.9547 C   0  0  0  0  0  0  0  0  0  0  0  0
   72.6906   45.0821   60.6075 N   0  0  0  0  0  0  0  0  0  0  0  0
   71.9380   46.0057   59.9725 C   0  0  0  0  0  0  0  0  0  0  0  0
   71.5833   47.0485   60.5836 O   0  0  0  0  0  0  0  0  0  0  0  0
   73.1089   42.5434   57.9275 C   0  0  0  0  0  0  0  0  0  0  0  0
   73.7059   42.8711   56.7493 F   0  0  0  0  0  0  0  0  0  0  0  0
   73.9266   41.8020   58.7503 F   0  0  0  0  0  0  0  0  0  0  0  0
   71.9549   41.8259   57.6165 F   0  0  0  0  0  0  0  0  0  0  0  0
   68.8213   47.6976   56.6090 C   0  0  0  0  0  0  0  0  0  0  0  0
   69.3082   48.0064   55.2747 C   0  0  0  0  0  0  0  0  0  0  0  0
   70.2384   48.9615   55.1008 N   0  0  0  0  0  0  0  0  0  0  0  0
   70.7170   49.2832   53.9077 N   0  0  0  0  0  0  0  0  0  0  0  0
   70.3083   48.6789   52.7783 C   0  0  0  0  0  0  0  0  0  0  0  0
   70.7710   48.9936   51.6456 O   0  0  0  0  0  0  0  0  0  0  0  0
   69.3659   47.6989   52.8763 C   0  0  0  0  0  0  0  0  0  0  0  0
   68.8917   47.0306   51.7677 C   0  0  0  0  0  0  0  0  0  0  0  0
   67.9334   46.0366   51.8684 C   0  0  0  0  0  0  0  0  0  0  0  0
   67.4368   45.7046   53.1236 C   0  0  0  0  0  0  0  0  0  0  0  0
   67.9323   46.3937   54.2162 C   0  0  0  0  0  0  0  0  0  0  0  0
   68.8750   47.3724   54.1246 C   0  0  0  0  0  0  0  0  0  0  0  0
  1  2  2  0
  2 15  1  0
  2  3  1  0
 15 16  1  0
 16 17  2  0
 16 26  1  0
 17 18  1  0
 18 19  1  0
 19 20  2  0
 19 21  1  0
 21 22  1  0
 21 26  2  0
 22 23  2  0
 23 24  1  0
 24 25  2  0
 25 26  1  0
  3  4  1  0
  4  5  2  0
  4  9  1  0
  5  6  1  0
  6 11  1  0
  6  7  2  0
 11 12  1  0
 11 13  1  0
 11 14  1  0
  7  8  1  0
  8  9  1  0
  9 10  2  0
M  END
>  <minimizedAffinity>  (28) 
-9.05398

$$$$
cs_full_output_folder/data/smiles/2239.pdb
     RDKit          3D

 27 29  0  0  0  0  0  0  0  0999 V2000
   70.6658   46.2153   58.4022 C   0  0  0  0  0  0  0  0  0  0  0  0
   71.6302   46.5714   59.2957 C   0  0  0  0  0  0  0  0  0  0  0  0
   72.2452   47.8111   59.2499 C   0  0  0  0  0  0  0  0  0  0  0  0
   71.9171   48.7503   58.3037 C   0  0  0  0  0  0  0  0  0  0  0  0
   70.9363   48.4105   57.3822 C   0  0  0  0  0  0  0  0  0  0  0  0
   70.3343   47.1716   57.4415 C   0  0  0  0  0  0  0  0  0  0  0  0
   69.6134   44.4399   59.4707 O   0  0  0  0  0  0  0  0  0  0  0  0
   69.9689   44.9103   58.3927 C   0  0  0  0  0  0  0  0  0  0  0  0
   69.7003   44.1955   57.2121 N   0  0  0  0  0  0  0  0  0  0  0  0
   69.0461   42.9593   57.0354 C   0  0  0  0  0  0  0  0  0  0  0  0
   69.6015   41.9138   57.8125 C   0  0  0  0  0  0  0  0  0  0  0  0
   69.1013   40.6485   57.7495 C   0  0  0  0  0  0  0  0  0  0  0  0
   68.0396   40.3503   56.9269 C   0  0  0  0  0  0  0  0  0  0  0  0
   67.5063   41.3652   56.1781 C   0  0  0  0  0  0  0  0  0  0  0  0
   68.0052   42.6614   56.2298 C   0  0  0  0  0  0  0  0  0  0  0  0
   67.4185   43.6115   55.4488 O   0  0  0  0  0  0  0  0  0  0  0  0
   70.4584   49.5379   56.1648 S   0  0  0  0  0  0  0  0  0  0  0  0
   70.3362   50.9117   56.7822 O   0  0  0  0  0  0  0  0  0  0  0  0
   71.5502   49.6547   55.1196 O   0  0  0  0  0  0  0  0  0  0  0  0
   68.9846   49.0769   55.4252 N   0  0  0  0  0  0  0  0  0  0  0  0
   68.9290   48.2187   54.3112 C   0  0  0  0  0  0  0  0  0  0  0  0
   69.5360   48.4971   53.1114 C   0  0  0  0  0  0  0  0  0  0  0  0
   69.4881   47.6543   52.0324 C   0  0  0  0  0  0  0  0  0  0  0  0
   68.8049   46.4659   52.1358 C   0  0  0  0  0  0  0  0  0  0  0  0
   68.1799   46.1467   53.3272 C   0  0  0  0  0  0  0  0  0  0  0  0
   68.2416   47.0091   54.3957 C   0  0  0  0  0  0  0  0  0  0  0  0
   67.6127   46.6676   55.5646 O   0  0  0  0  0  0  0  0  0  0  0  0
  7  8  2  0
  8  9  1  0
  8  1  1  0
  9 10  1  0
 10 11  2  0
 10 15  1  0
 11 12  1  0
 12 13  2  0
 13 14  1  0
 14 15  2  0
 15 16  1  0
  1  2  2  0
  1  6  1  0
  2  3  1  0
  3  4  2  0
  4  5  1  0
  5 17  1  0
  5  6  2  0
 17 18  2  0
 17 19  2  0
 17 20  1  0
 20 21  1  0
 21 22  2  0
 21 26  1  0
 22 23  1  0
 23 24  2  0
 24 25  1  0
 25 26  2  0
 26 27  1  0
M  END
>  <minimizedAffinity>  (29) 
-8.86643

$$$$
cs_full_output_folder/data/smiles/7318.pdb
     RDKit          3D

 26 28  0  0  0  0  0  0  0  0999 V2000
   69.5065   47.4161   57.7495 O   0  0  0  0  0  0  0  0  0  0  0  0
   71.4170   46.8052   58.9816 C   0  0  0  0  0  0  0  0  0  0  0  0
   70.5358   46.4784   57.7957 C   0  0  1  0  0  0  0  0  0  0  0  0
   69.9571   45.1049   58.0780 C   0  0  0  0  0  0  0  0  0  0  0  0
   69.7618   44.7814   59.2648 O   0  0  0  0  0  0  0  0  0  0  0  0
   69.6465   44.2119   57.0495 N   0  0  0  0  0  0  0  0  0  0  0  0
   69.0977   42.9212   57.1097 C   0  0  0  0  0  0  0  0  0  0  0  0
   69.7105   41.9807   57.9705 C   0  0  0  0  0  0  0  0  0  0  0  0
   69.2830   40.6879   58.0917 C   0  0  0  0  0  0  0  0  0  0  0  0
   68.2006   40.2702   57.3414 C   0  0  0  0  0  0  0  0  0  0  0  0
   67.5708   41.1487   56.4904 C   0  0  0  0  0  0  0  0  0  0  0  0
   68.0345   42.4816   56.3831 C   0  0  0  0  0  0  0  0  0  0  0  0
   67.4067   43.2965   55.5094 F   0  0  0  0  0  0  0  0  0  0  0  0
   68.7146   47.7128   56.6973 C   0  0  0  0  0  0  0  0  0  0  0  0
   67.4587   47.6799   56.9454 O   0  0  0  0  0  0  0  0  0  0  0  0
   69.1393   48.0521   55.3581 C   0  0  0  0  0  0  0  0  0  0  0  0
   69.9733   49.1692   55.1768 C   0  0  0  0  0  0  0  0  0  0  0  0
   70.3980   49.5142   53.9334 C   0  0  0  0  0  0  0  0  0  0  0  0
   71.1616   50.5334   53.7433 O   0  0  0  0  0  0  0  0  0  0  0  0
   70.0536   48.8243   52.8401 N   0  0  0  0  0  0  0  0  0  0  0  0
   69.2627   47.7547   52.9613 C   0  0  0  0  0  0  0  0  0  0  0  0
   68.8854   47.0208   51.8540 C   0  0  0  0  0  0  0  0  0  0  0  0
   68.0710   45.9214   51.9781 C   0  0  0  0  0  0  0  0  0  0  0  0
   67.6003   45.5069   53.1868 C   0  0  0  0  0  0  0  0  0  0  0  0
   67.9788   46.2484   54.3175 C   0  0  0  0  0  0  0  0  0  0  0  0
   68.7936   47.3533   54.2259 C   0  0  0  0  0  0  0  0  0  0  0  0
  3  2  1  1
  3  1  1  0
  3  4  1  0
  1 14  1  0
 14 15  2  0
 14 16  1  0
 16 17  2  0
 16 26  1  0
 17 18  1  0
 18 19  2  0
 18 20  1  0
 20 21  1  0
 21 22  1  0
 21 26  2  0
 22 23  2  0
 23 24  1  0
 24 25  2  0
 25 26  1  0
  4  5  2  0
  4  6  1  0
  6  7  1  0
  7  8  2  0
  7 12  1  0
  8  9  1  0
  9 10  2  0
 10 11  1  0
 11 12  2  0
 12 13  1  0
M  END
>  <minimizedAffinity>  (30) 
-9.54025

$$$$
cs_full_output_folder/data/smiles/5911.pdb
     RDKit          3D

 23 26  0  0  0  0  0  0  0  0999 V2000
   70.8602   48.0989   57.2982 O   0  0  0  0  0  0  0  0  0  0  0  0
   69.6378   48.3410   56.9772 C   0  0  0  0  0  0  0  0  0  0  0  0
   68.9944   49.3925   57.6275 N   0  0  0  0  0  0  0  0  0  0  0  0
   67.6520   49.8639   57.4581 C   0  0  0  0  0  0  0  0  0  0  0  0
   67.6526   51.3277   57.1190 C   0  0  0  0  0  0  0  0  0  0  0  0
   69.0045   51.9402   57.1339 C   0  0  0  0  0  0  0  0  0  0  0  0
   69.2144   53.0951   56.3593 C   0  0  0  0  0  0  0  0  0  0  0  0
   70.4561   53.7046   56.3367 C   0  0  0  0  0  0  0  0  0  0  0  0
   71.4980   53.1711   57.0835 C   0  0  0  0  0  0  0  0  0  0  0  0
   71.2674   52.0192   57.8511 C   0  0  0  0  0  0  0  0  0  0  0  0
   70.0530   51.4150   57.8767 C   0  0  0  0  0  0  0  0  0  0  0  0
   69.7564   50.1804   58.6333 C   0  0  0  0  0  0  0  0  0  0  0  0
   69.1202   47.4578   55.9648 C   0  0  0  0  0  0  0  0  0  0  0  0
   68.4659   46.3322   56.2885 N   0  0  0  0  0  0  0  0  0  0  0  0
   67.9522   45.5101   55.3850 N   0  0  0  0  0  0  0  0  0  0  0  0
   68.0503   45.7494   54.0651 C   0  0  0  0  0  0  0  0  0  0  0  0
   67.5664   44.9813   53.1972 O   0  0  0  0  0  0  0  0  0  0  0  0
   68.7203   46.9033   53.6763 C   0  0  0  0  0  0  0  0  0  0  0  0
   68.8192   47.1476   52.3258 C   0  0  0  0  0  0  0  0  0  0  0  0
   69.4658   48.2695   51.8823 C   0  0  0  0  0  0  0  0  0  0  0  0
   70.0056   49.1283   52.8443 C   0  0  0  0  0  0  0  0  0  0  0  0
   69.9056   48.8824   54.1855 C   0  0  0  0  0  0  0  0  0  0  0  0
   69.2543   47.7552   54.6213 C   0  0  0  0  0  0  0  0  0  0  0  0
  1  2  2  0
  2 13  1  0
  2  3  1  0
 13 14  2  0
 13 23  1  0
 14 15  1  0
 15 16  1  0
 16 17  2  0
 16 18  1  0
 18 19  1  0
 18 23  2  0
 19 20  2  0
 20 21  1  0
 21 22  2  0
 22 23  1  0
  3  4  1  0
  3 12  1  0
  4  5  1  0
  5  6  1  0
  6  7  2  0
  6 11  1  0
  7  8  1  0
  8  9  2  0
  9 10  1  0
 10 11  2  0
 11 12  1  0
M  END
>  <minimizedAffinity>  (31) 
-8.59558

$$$$
cs_full_output_folder/data/smiles/1855.pdb
     RDKit          3D

 21 23  0  0  0  0  0  0  0  0999 V2000
   68.6550   46.9987   56.0961 C   0  0  0  0  0  0  0  0  0  0  0  0
   69.1131   46.1126   56.8906 N   0  0  0  0  0  0  0  0  0  0  0  0
   68.5396   46.7764   51.8371 C   0  0  0  0  0  0  0  0  0  0  0  0
   67.8541   45.8639   52.6085 C   0  0  0  0  0  0  0  0  0  0  0  0
   67.9710   45.9620   53.9683 C   0  0  0  0  0  0  0  0  0  0  0  0
   68.7190   46.8984   54.6598 C   0  0  0  0  0  0  0  0  0  0  0  0
   69.3964   47.8050   53.8535 C   0  0  0  0  0  0  0  0  0  0  0  0
   69.3070   47.7416   52.4516 C   0  0  0  0  0  0  0  0  0  0  0  0
   68.0797   48.1695   56.7879 C   0  0  0  0  0  0  0  0  0  0  0  0
   68.5467   49.4450   56.6906 C   0  0  0  0  0  0  0  0  0  0  0  0
   67.9087   50.5406   57.2865 C   0  0  0  0  0  0  0  0  0  0  0  0
   66.7657   50.3175   58.0017 C   0  0  0  0  0  0  0  0  0  0  0  0
   66.2947   49.0215   58.1023 C   0  0  0  0  0  0  0  0  0  0  0  0
   66.9273   47.9979   57.5191 N   0  0  0  0  0  0  0  0  0  0  0  0
   69.7316   44.9300   56.7722 N   0  0  0  0  0  0  0  0  0  0  0  0
   68.9956   43.6825   56.7226 C   0  0  0  0  0  0  0  0  0  0  0  0
   69.4071   42.5458   57.3821 C   0  0  0  0  0  0  0  0  0  0  0  0
   68.7058   41.3670   57.3311 C   0  0  0  0  0  0  0  0  0  0  0  0
   67.5450   41.3163   56.5911 C   0  0  0  0  0  0  0  0  0  0  0  0
   67.1438   42.4557   55.9377 C   0  0  0  0  0  0  0  0  0  0  0  0
   67.8540   43.5960   56.0080 N   0  0  0  0  0  0  0  0  0  0  0  0
  3  4  2  0
  3  8  1  0
  4  5  1  0
  5  6  2  0
  6  1  1  0
  6  7  1  0
  1  2  2  0
  1  9  1  0
  2 15  1  0
 15 16  1  0
 16 17  2  0
 16 21  1  0
 17 18  1  0
 18 19  2  0
 19 20  1  0
 20 21  2  0
  9 10  2  0
  9 14  1  0
 10 11  1  0
 11 12  2  0
 12 13  1  0
 13 14  2  0
  7  8  2  0
M  END
>  <minimizedAffinity>  (32) 
-9.16736

$$$$
cs_full_output_folder/data/smiles/11.pdb
     RDKit          3D

 22 24  0  0  0  0  0  0  0  0999 V2000
   70.5605   50.7609   53.2393 N   0  0  0  0  0  0  0  0  0  0  0  0
   69.9175   49.5337   52.9320 C   0  0  0  0  0  0  0  0  0  0  0  0
   69.5605   48.7294   54.0074 C   0  0  0  0  0  0  0  0  0  0  0  0
   68.9287   47.5255   53.6945 C   0  0  0  0  0  0  0  0  0  0  0  0
   68.5249   46.6380   54.6848 C   0  0  0  0  0  0  0  0  0  0  0  0
   67.8974   45.4378   54.4231 C   0  0  0  0  0  0  0  0  0  0  0  0
   67.6564   45.0956   53.1132 C   0  0  0  0  0  0  0  0  0  0  0  0
   68.0438   45.9529   52.0890 C   0  0  0  0  0  0  0  0  0  0  0  0
   68.6684   47.1431   52.4007 C   0  0  0  0  0  0  0  0  0  0  0  0
   69.0403   47.9653   51.4320 O   0  0  0  0  0  0  0  0  0  0  0  0
   69.6321   49.0991   51.6711 C   0  0  0  0  0  0  0  0  0  0  0  0
   69.9809   49.8761   50.7161 O   0  0  0  0  0  0  0  0  0  0  0  0
   69.7501   49.1220   55.3307 N   0  0  0  0  0  0  0  0  0  0  0  0
   68.7336   49.5954   56.2276 C   0  0  0  0  0  0  0  0  0  0  0  0
   68.0992   48.5805   56.9663 C   0  0  0  0  0  0  0  0  0  0  0  0
   67.1165   48.9212   57.8406 C   0  0  0  0  0  0  0  0  0  0  0  0
   66.7277   50.2287   58.0208 C   0  0  0  0  0  0  0  0  0  0  0  0
   67.3455   51.2159   57.3034 C   0  0  0  0  0  0  0  0  0  0  0  0
   68.3531   50.8753   56.4070 C   0  0  0  0  0  0  0  0  0  0  0  0
   69.0068   51.9624   55.7070 C   0  0  0  0  0  0  0  0  0  0  0  0
   70.1768   52.3014   56.0806 O   0  0  0  0  0  0  0  0  0  0  0  0
   68.4553   52.6556   54.6636 O   0  0  0  0  0  0  0  0  0  0  0  0
  1  2  1  0
  2  3  2  0
  2 11  1  0
  3 13  1  0
  3  4  1  0
 13 14  1  0
 14 15  2  0
 14 19  1  0
 15 16  1  0
 16 17  2  0
 17 18  1  0
 18 19  2  0
 19 20  1  0
 20 21  2  0
 20 22  1  0
  4  5  2  0
  4  9  1  0
  5  6  1  0
  6  7  2  0
  7  8  1  0
  8  9  2  0
  9 10  1  0
 10 11  1  0
 11 12  2  0
M  END
>  <minimizedAffinity>  (33) 
-9.01327

$$$$
cs_full_output_folder/data/smiles/7210.pdb
     RDKit          3D

 26 28  0  0  0  0  0  0  0  0999 V2000
   70.8936   48.2660   57.1795 N   0  0  0  0  0  0  0  0  0  0  0  0
   69.7789   48.7184   56.4490 C   0  0  0  0  0  0  0  0  0  0  0  0
   68.7909   49.1016   57.0556 O   0  0  0  0  0  0  0  0  0  0  0  0
   69.8296   48.7182   54.9966 C   0  0  0  0  0  0  0  0  0  0  0  0
   70.5269   49.7160   54.3807 N   0  0  0  0  0  0  0  0  0  0  0  0
   70.6324   49.8104   53.0776 N   0  0  0  0  0  0  0  0  0  0  0  0
   70.0620   48.9336   52.2546 C   0  0  0  0  0  0  0  0  0  0  0  0
   70.1978   49.0754   51.0036 O   0  0  0  0  0  0  0  0  0  0  0  0
   69.3383   47.8930   52.7752 C   0  0  0  0  0  0  0  0  0  0  0  0
   68.7363   46.9744   51.9326 C   0  0  0  0  0  0  0  0  0  0  0  0
   68.0159   45.9465   52.4909 C   0  0  0  0  0  0  0  0  0  0  0  0
   67.9067   45.8503   53.8510 C   0  0  0  0  0  0  0  0  0  0  0  0
   68.5096   46.7702   54.7131 C   0  0  0  0  0  0  0  0  0  0  0  0
   69.2315   47.8005   54.1677 C   0  0  0  0  0  0  0  0  0  0  0  0
   71.0585   48.1595   58.5822 C   0  0  0  0  0  0  0  0  0  0  0  0
   71.0823   46.8493   59.1925 C   0  0  0  0  0  0  0  0  0  0  0  0
   71.9326   44.7220   57.7419 O   0  0  0  0  0  0  0  0  0  0  0  0
   70.7259   44.6808   58.0358 C   0  0  0  0  0  0  0  0  0  0  0  0
   70.2111   45.7919   58.8122 N   0  0  0  0  0  0  0  0  0  0  0  0
   69.8973   43.5711   57.6131 C   0  0  0  0  0  0  0  0  0  0  0  0
   70.1265   42.3217   58.1870 C   0  0  0  0  0  0  0  0  0  0  0  0
   69.3793   41.2228   57.8346 C   0  0  0  0  0  0  0  0  0  0  0  0
   68.3695   41.2896   56.9025 C   0  0  0  0  0  0  0  0  0  0  0  0
   67.6500   40.1893   56.5752 F   0  0  0  0  0  0  0  0  0  0  0  0
   68.1325   42.5171   56.3285 C   0  0  0  0  0  0  0  0  0  0  0  0
   68.8888   43.6432   56.6811 C   0  0  0  0  0  0  0  0  0  0  0  0
 17 18  2  0
 18 19  1  0
 18 20  1  0
 19 16  1  0
 16 15  1  0
 15  1  1  0
  1  2  1  0
  2  3  2  0
  2  4  1  0
  4  5  2  0
  4 14  1  0
  5  6  1  0
  6  7  1  0
  7  8  2  0
  7  9  1  0
  9 10  1  0
  9 14  2  0
 10 11  2  0
 11 12  1  0
 12 13  2  0
 13 14  1  0
 20 21  2  0
 20 26  1  0
 21 22  1  0
 22 23  2  0
 23 24  1  0
 23 25  1  0
 25 26  2  0
M  END
>  <minimizedAffinity>  (34) 
-8.68754

$$$$
cs_full_output_folder/data/smiles/7189.pdb
     RDKit          3D

 23 25  0  0  0  0  0  0  0  0999 V2000
   70.7254   44.0770   57.9620 C   0  0  0  0  0  0  0  0  0  0  0  0
   69.5954   43.3820   57.3464 C   0  0  0  0  0  0  0  0  0  0  0  0
   68.7530   44.0522   56.5446 N   0  0  0  0  0  0  0  0  0  0  0  0
   67.7056   43.4531   55.9599 N   0  0  0  0  0  0  0  0  0  0  0  0
   67.4263   42.1495   56.1327 C   0  0  0  0  0  0  0  0  0  0  0  0
   66.4118   41.6360   55.5473 O   0  0  0  0  0  0  0  0  0  0  0  0
   68.2492   41.4116   56.9397 C   0  0  0  0  0  0  0  0  0  0  0  0
   68.0118   40.0701   57.1531 C   0  0  0  0  0  0  0  0  0  0  0  0
   68.8542   39.3333   57.9740 C   0  0  0  0  0  0  0  0  0  0  0  0
   69.9252   39.9732   58.5652 C   0  0  0  0  0  0  0  0  0  0  0  0
   70.1509   41.3121   58.3439 C   0  0  0  0  0  0  0  0  0  0  0  0
   69.3288   42.0440   57.5388 C   0  0  0  0  0  0  0  0  0  0  0  0
   70.4908   46.1174   59.1198 O   0  0  0  0  0  0  0  0  0  0  0  0
   70.4316   45.5295   58.0145 C   0  0  0  0  0  0  0  0  0  0  0  0
   70.0837   46.2971   56.8739 N   0  0  0  0  0  0  0  0  0  0  0  0
   69.8139   47.6210   56.9104 O   0  0  0  0  0  0  0  0  0  0  0  0
   68.6003   47.8109   56.2490 C   0  0  0  0  0  0  0  0  0  0  0  0
   68.6832   47.4984   54.7998 C   0  0  0  0  0  0  0  0  0  0  0  0
   67.9715   46.4562   54.2874 C   0  0  0  0  0  0  0  0  0  0  0  0
   68.0046   46.1173   52.9590 C   0  0  0  0  0  0  0  0  0  0  0  0
   68.7967   46.8633   52.0804 C   0  0  0  0  0  0  0  0  0  0  0  0
   69.5185   47.9168   52.5903 C   0  0  0  0  0  0  0  0  0  0  0  0
   69.4643   48.2306   53.9275 C   0  0  0  0  0  0  0  0  0  0  0  0
 13 14  2  0
 14  1  1  0
 14 15  1  0
  1  2  1  0
  2  3  2  0
  2 12  1  0
  3  4  1  0
  4  5  1  0
  5  6  2  0
  5  7  1  0
  7  8  1  0
  7 12  2  0
  8  9  2  0
  9 10  1  0
 10 11  2  0
 11 12  1  0
 15 16  1  0
 16 17  1  0
 17 18  1  0
 18 19  2  0
 18 23  1  0
 19 20  1  0
 20 21  2  0
 21 22  1  0
 22 23  2  0
M  END
>  <minimizedAffinity>  (35) 
-8.59354

$$$$
cs_full_output_folder/data/smiles/7719.pdb
     RDKit          3D

 25 27  0  0  0  0  0  0  0  0999 V2000
   71.0702   45.8561   57.8597 O   0  0  0  0  0  0  0  0  0  0  0  0
   70.0187   45.3523   57.4200 C   0  0  0  0  0  0  0  0  0  0  0  0
   69.1117   46.1789   56.7438 N   0  0  0  0  0  0  0  0  0  0  0  0
   69.7826   43.9047   57.6334 C   0  0  0  0  0  0  0  0  0  0  0  0
   70.3768   43.1607   58.6150 C   0  0  0  0  0  0  0  0  0  0  0  0
   70.0817   41.7944   58.7522 C   0  0  0  0  0  0  0  0  0  0  0  0
   69.1949   41.1577   57.9132 C   0  0  0  0  0  0  0  0  0  0  0  0
   68.6012   41.9166   56.9236 C   0  0  0  0  0  0  0  0  0  0  0  0
   68.8954   43.2600   56.7958 C   0  0  0  0  0  0  0  0  0  0  0  0
   68.9040   39.6916   58.0761 C   0  0  0  0  0  0  0  0  0  0  0  0
   68.0087   39.3065   57.1258 F   0  0  0  0  0  0  0  0  0  0  0  0
   68.3440   39.4352   59.3120 F   0  0  0  0  0  0  0  0  0  0  0  0
   70.0639   38.9676   57.9616 F   0  0  0  0  0  0  0  0  0  0  0  0
   69.1443   47.5746   56.4469 C   0  0  0  0  0  0  0  0  0  0  0  0
   69.2999   47.8536   55.0463 C   0  0  0  0  0  0  0  0  0  0  0  0
   70.1373   48.9092   54.7573 N   0  0  0  0  0  0  0  0  0  0  0  0
   70.4569   49.2353   53.5366 N   0  0  0  0  0  0  0  0  0  0  0  0
   70.0068   48.5866   52.4619 C   0  0  0  0  0  0  0  0  0  0  0  0
   70.3532   48.9483   51.2963 O   0  0  0  0  0  0  0  0  0  0  0  0
   69.1620   47.5198   52.6518 C   0  0  0  0  0  0  0  0  0  0  0  0
   68.6529   46.8524   51.5673 C   0  0  0  0  0  0  0  0  0  0  0  0
   67.7727   45.8054   51.8078 C   0  0  0  0  0  0  0  0  0  0  0  0
   67.4285   45.4579   53.1083 C   0  0  0  0  0  0  0  0  0  0  0  0
   67.9409   46.1275   54.1758 C   0  0  0  0  0  0  0  0  0  0  0  0
   68.8302   47.1828   53.9583 C   0  0  0  0  0  0  0  0  0  0  0  0
  1  2  2  0
  2  3  1  0
  2  4  1  0
  3 14  1  0
 14 15  1  0
 15 16  2  0
 15 25  1  0
 16 17  1  0
 17 18  1  0
 18 19  2  0
 18 20  1  0
 20 21  1  0
 20 25  2  0
 21 22  2  0
 22 23  1  0
 23 24  2  0
 24 25  1  0
  4  5  2  0
  4  9  1  0
  5  6  1  0
  6  7  2  0
  7 10  1  0
  7  8  1  0
 10 11  1  0
 10 12  1  0
 10 13  1  0
  8  9  2  0
M  END
>  <minimizedAffinity>  (36) 
-8.58226

$$$$
cs_full_output_folder/data/smiles/1030.pdb
     RDKit          3D

 20 22  0  0  0  0  0  0  0  0999 V2000
   71.4853   49.0957   53.0832 O   0  0  0  0  0  0  0  0  0  0  0  0
   70.1054   49.1264   52.4404 S   0  0  0  0  0  0  0  0  0  0  0  0
   70.3497   49.0125   50.9592 O   0  0  0  0  0  0  0  0  0  0  0  0
   69.1677   47.7418   52.9480 C   0  0  0  0  0  0  0  0  0  0  0  0
   68.6314   46.8158   52.0905 C   0  0  0  0  0  0  0  0  0  0  0  0
   67.8915   45.7362   52.5509 C   0  0  0  0  0  0  0  0  0  0  0  0
   67.6979   45.5994   53.9030 C   0  0  0  0  0  0  0  0  0  0  0  0
   68.2131   46.4992   54.7982 C   0  0  0  0  0  0  0  0  0  0  0  0
   68.1945   46.6308   56.1344 N   0  0  0  0  0  0  0  0  0  0  0  0
   68.8588   47.6862   56.4336 O   0  0  0  0  0  0  0  0  0  0  0  0
   69.3278   48.2802   55.3836 N   0  0  0  0  0  0  0  0  0  0  0  0
   68.9463   47.5646   54.2951 C   0  0  0  0  0  0  0  0  0  0  0  0
   69.2982   50.5895   52.7997 N   0  0  0  0  0  0  0  0  0  0  0  0
   69.6498   51.4117   53.8857 C   0  0  0  0  0  0  0  0  0  0  0  0
   70.9414   51.6614   54.2501 C   0  0  0  0  0  0  0  0  0  0  0  0
   71.2878   52.4615   55.3034 C   0  0  0  0  0  0  0  0  0  0  0  0
   70.3170   53.0653   56.0606 C   0  0  0  0  0  0  0  0  0  0  0  0
   68.9978   52.8375   55.7228 C   0  0  0  0  0  0  0  0  0  0  0  0
   68.6608   52.0281   54.6587 C   0  0  0  0  0  0  0  0  0  0  0  0
   67.3664   51.8227   54.3508 F   0  0  0  0  0  0  0  0  0  0  0  0
  1  2  2  0
  2  3  2  0
  2 13  1  0
  2  4  1  0
 13 14  1  0
 14 15  2  0
 14 19  1  0
 15 16  1  0
 16 17  2  0
 17 18  1  0
 18 19  2  0
 19 20  1  0
  4  5  2  0
  4 12  1  0
  5  6  1  0
  6  7  2  0
  7  8  1  0
  8  9  2  0
  8 12  1  0
  9 10  1  0
 10 11  1  0
 11 12  2  0
M  END
>  <minimizedAffinity>  (37) 
-8.55490

$$$$
cs_full_output_folder/data/smiles/7315.pdb
     RDKit          3D

 25 28  0  0  0  0  0  0  0  0999 V2000
   69.5453   46.1638   58.1742 O   0  0  0  0  0  0  0  0  0  0  0  0
   70.5044   46.9947   58.0884 C   0  0  0  0  0  0  0  0  0  0  0  0
   70.3596   48.0127   57.1110 N   0  0  0  0  0  0  0  0  0  0  0  0
   71.6802   46.8970   58.9487 C   0  0  0  0  0  0  0  0  0  0  0  0
   71.9030   47.8393   59.9360 C   0  0  0  0  0  0  0  0  0  0  0  0
   73.0104   47.7574   60.7557 C   0  0  0  0  0  0  0  0  0  0  0  0
   73.9171   46.7370   60.6099 C   0  0  0  0  0  0  0  0  0  0  0  0
   73.7254   45.7795   59.6350 C   0  0  0  0  0  0  0  0  0  0  0  0
   74.6329   44.7557   59.4878 C   0  0  0  0  0  0  0  0  0  0  0  0
   74.4715   43.7856   58.5267 C   0  0  0  0  0  0  0  0  0  0  0  0
   73.3486   43.8940   57.7168 C   0  0  0  0  0  0  0  0  0  0  0  0
   72.4383   44.9201   57.8635 C   0  0  0  0  0  0  0  0  0  0  0  0
   72.6005   45.8830   58.8187 C   0  0  0  0  0  0  0  0  0  0  0  0
   69.1613   48.0369   56.2974 C   0  0  0  0  0  0  0  0  0  0  0  0
   69.4956   48.2419   54.8690 C   0  0  0  0  0  0  0  0  0  0  0  0
   70.3379   49.1968   54.4724 N   0  0  0  0  0  0  0  0  0  0  0  0
   70.6767   49.4341   53.2228 N   0  0  0  0  0  0  0  0  0  0  0  0
   70.1389   48.6608   52.2633 C   0  0  0  0  0  0  0  0  0  0  0  0
   70.4536   48.8760   51.0571 O   0  0  0  0  0  0  0  0  0  0  0  0
   69.2605   47.6539   52.5876 C   0  0  0  0  0  0  0  0  0  0  0  0
   68.7091   46.8647   51.6222 C   0  0  0  0  0  0  0  0  0  0  0  0
   67.8291   45.8565   51.9598 C   0  0  0  0  0  0  0  0  0  0  0  0
   67.5040   45.6473   53.2977 C   0  0  0  0  0  0  0  0  0  0  0  0
   68.0494   46.4345   54.2973 C   0  0  0  0  0  0  0  0  0  0  0  0
   68.9235   47.4298   53.9222 C   0  0  0  0  0  0  0  0  0  0  0  0
  1  2  2  0
  2  3  1  0
  2  4  1  0
  3 14  1  0
 14 15  1  0
 15 16  2  0
 15 25  1  0
 16 17  1  0
 17 18  1  0
 18 19  2  0
 18 20  1  0
 20 21  1  0
 20 25  2  0
 21 22  2  0
 22 23  1  0
 23 24  2  0
 24 25  1  0
  4  5  2  0
  4 13  1  0
  5  6  1  0
  6  7  2  0
  7  8  1  0
  8  9  1  0
  8 13  2  0
  9 10  2  0
 10 11  1  0
 11 12  2  0
 12 13  1  0
M  END
>  <minimizedAffinity>  (38) 
-8.53257

$$$$
cs_full_output_folder/data/smiles/14.pdb
     RDKit          3D

 21 22  0  0  0  0  0  0  0  0999 V2000
   67.8297   43.9856   55.3454 N   0  0  0  0  0  0  0  0  0  0  0  0
   68.1640   45.3328   55.1344 C   0  0  0  0  0  0  0  0  0  0  0  0
   68.3692   46.0667   56.1339 O   0  0  0  0  0  0  0  0  0  0  0  0
   68.2913   45.9423   53.8125 C   0  0  0  0  0  0  0  0  0  0  0  0
   67.5670   45.4877   52.7209 C   0  0  0  0  0  0  0  0  0  0  0  0
   67.6959   46.0789   51.4607 C   0  0  0  0  0  0  0  0  0  0  0  0
   68.5584   47.1381   51.2870 C   0  0  0  0  0  0  0  0  0  0  0  0
   69.2922   47.6131   52.3515 C   0  0  0  0  0  0  0  0  0  0  0  0
   69.1374   47.0049   53.5758 C   0  0  0  0  0  0  0  0  0  0  0  0
   70.1674   48.6954   52.1534 N   0  0  0  0  0  0  0  0  0  0  0  0
   71.1183   48.8747   52.9175 O   0  0  0  0  0  0  0  0  0  0  0  0
   69.9649   49.5503   51.1136 O   0  0  0  0  0  0  0  0  0  0  0  0
   67.7131   43.4264   56.5727 O   0  0  0  0  0  0  0  0  0  0  0  0
   67.3984   42.0682   56.4791 C   0  0  0  0  0  0  0  0  0  0  0  0
   71.3620   38.9536   59.2559 C   0  0  0  0  0  0  0  0  0  0  0  0
   70.3312   39.7374   58.5420 C   0  0  0  0  0  0  0  0  0  0  0  0
   70.5477   41.0627   58.2346 C   0  0  0  0  0  0  0  0  0  0  0  0
   69.6029   41.8081   57.5720 C   0  0  0  0  0  0  0  0  0  0  0  0
   68.4170   41.2275   57.2046 C   0  0  0  0  0  0  0  0  0  0  0  0
   68.1691   39.9071   57.4964 C   0  0  0  0  0  0  0  0  0  0  0  0
   69.1239   39.1776   58.1588 C   0  0  0  0  0  0  0  0  0  0  0  0
 15 16  1  0
 16 17  2  0
 16 21  1  0
 17 18  1  0
 18 19  2  0
 19 14  1  0
 19 20  1  0
 14 13  1  0
 13  1  1  0
  1  2  1  0
  2  3  2  0
  2  4  1  0
  4  5  2  0
  4  9  1  0
  5  6  1  0
  6  7  2  0
  7  8  1  0
  8 10  1  0
  8  9  2  0
 10 11  2  0
 10 12  1  0
 20 21  2  0
M  CHG  2  10   1  12  -1
M  END
>  <minimizedAffinity>  (39) 
-8.94048

$$$$
cs_full_output_folder/data/smiles/6146.pdb
     RDKit          3D

 23 25  0  0  0  0  0  0  0  0999 V2000
   69.0254   48.3458   56.3077 C   0  0  0  0  0  0  0  0  0  0  0  0
   69.4746   48.3733   54.8798 C   0  0  0  0  0  0  0  0  0  0  0  0
   70.3489   49.2920   54.4585 N   0  0  0  0  0  0  0  0  0  0  0  0
   70.6659   49.4162   53.2110 N   0  0  0  0  0  0  0  0  0  0  0  0
   70.1352   48.6260   52.2780 C   0  0  0  0  0  0  0  0  0  0  0  0
   70.4753   48.7854   51.0665 O   0  0  0  0  0  0  0  0  0  0  0  0
   69.2333   47.6565   52.6238 C   0  0  0  0  0  0  0  0  0  0  0  0
   68.7005   46.8436   51.6599 C   0  0  0  0  0  0  0  0  0  0  0  0
   67.8127   45.8740   52.0289 C   0  0  0  0  0  0  0  0  0  0  0  0
   67.4432   45.6959   53.3360 C   0  0  0  0  0  0  0  0  0  0  0  0
   68.0010   46.5366   54.2781 C   0  0  0  0  0  0  0  0  0  0  0  0
   68.9028   47.5367   53.9739 C   0  0  0  0  0  0  0  0  0  0  0  0
   70.9971   47.8482   57.5453 O   0  0  0  0  0  0  0  0  0  0  0  0
   69.9453   47.4221   57.0631 C   0  0  0  0  0  0  0  0  0  0  0  0
   69.5794   46.0697   57.1909 N   0  0  0  0  0  0  0  0  0  0  0  0
   70.3865   45.0519   57.8631 C   0  0  0  0  0  0  0  0  0  0  0  0
   69.6906   43.7627   57.5043 C   0  0  0  0  0  0  0  0  0  0  0  0
   70.0120   42.5778   58.0909 C   0  0  0  0  0  0  0  0  0  0  0  0
   69.3972   41.3725   57.7531 C   0  0  0  0  0  0  0  0  0  0  0  0
   68.4335   41.3952   56.7893 C   0  0  0  0  0  0  0  0  0  0  0  0
   67.7977   40.2371   56.4312 F   0  0  0  0  0  0  0  0  0  0  0  0
   68.0845   42.5606   56.1785 C   0  0  0  0  0  0  0  0  0  0  0  0
   68.7150   43.7585   56.5345 C   0  0  0  0  0  0  0  0  0  0  0  0
 13 14  2  0
 14  1  1  0
 14 15  1  0
  1  2  1  0
  2  3  2  0
  2 12  1  0
  3  4  1  0
  4  5  1  0
  5  6  2  0
  5  7  1  0
  7  8  1  0
  7 12  2  0
  8  9  2  0
  9 10  1  0
 10 11  2  0
 11 12  1  0
 15 16  1  0
 16 17  1  0
 17 18  2  0
 17 23  1  0
 18 19  1  0
 19 20  2  0
 20 21  1  0
 20 22  1  0
 22 23  2  0
M  END
>  <minimizedAffinity>  (40) 
-8.74267

$$$$
cs_full_output_folder/data/smiles/2258.pdb
     RDKit          3D

 20 21  0  0  0  0  0  0  0  0999 V2000
   68.5180   47.2968   55.0654 C   0  0  0  0  0  0  0  0  0  0  0  0
   67.7632   46.3654   54.4120 C   0  0  0  0  0  0  0  0  0  0  0  0
   67.8464   46.2081   53.0156 C   0  0  0  0  0  0  0  0  0  0  0  0
   67.0746   45.2615   52.3774 O   0  0  0  0  0  0  0  0  0  0  0  0
   68.7147   47.0179   52.2905 C   0  0  0  0  0  0  0  0  0  0  0  0
   68.8116   46.8808   50.8970 O   0  0  0  0  0  0  0  0  0  0  0  0
   69.4796   47.9610   52.9456 C   0  0  0  0  0  0  0  0  0  0  0  0
   69.3627   48.0790   54.3235 C   0  0  0  0  0  0  0  0  0  0  0  0
   70.3405   48.7724   52.1680 N   0  0  0  0  0  0  0  0  0  0  0  0
   71.5313   48.9152   52.5861 O   0  0  0  0  0  0  0  0  0  0  0  0
   70.0175   49.4120   51.0201 O   0  0  0  0  0  0  0  0  0  0  0  0
   68.4159   47.4743   56.4893 C   0  0  0  0  0  0  0  0  0  0  0  0
   67.2422   47.5735   56.9709 O   0  0  0  0  0  0  0  0  0  0  0  0
   72.8507   47.5829   60.2144 C   0  0  0  0  0  0  0  0  0  0  0  0
   71.7132   47.5603   59.2345 C   0  0  0  0  0  0  0  0  0  0  0  0
   71.1256   48.7309   58.7762 C   0  0  0  0  0  0  0  0  0  0  0  0
   70.0680   48.7203   57.8802 C   0  0  0  0  0  0  0  0  0  0  0  0
   69.5444   47.5426   57.3971 C   0  0  0  0  0  0  0  0  0  0  0  0
   70.1454   46.3687   57.8657 C   0  0  0  0  0  0  0  0  0  0  0  0
   71.1965   46.3788   58.7564 C   0  0  0  0  0  0  0  0  0  0  0  0
 14 15  1  0
 15 16  2  0
 15 20  1  0
 16 17  1  0
 17 18  2  0
 18 12  1  0
 18 19  1  0
 12 13  2  0
 12  1  1  0
  1  2  2  0
  1  8  1  0
  2  3  1  0
  3  4  1  0
  3  5  2  0
  5  6  1  0
  5  7  1  0
  7  9  1  0
  7  8  2  0
  9 10  2  0
  9 11  1  0
 19 20  2  0
M  CHG  2   9   1  11  -1
M  END
>  <minimizedAffinity>  (41) 
-8.71988

$$$$
cs_full_output_folder/data/smiles/17.pdb
     RDKit          3D

 21 22  0  0  0  0  0  0  0  0999 V2000
   68.0202   46.8120   55.9783 O   0  0  0  0  0  0  0  0  0  0  0  0
   68.2449   46.8471   54.6182 C   0  0  0  0  0  0  0  0  0  0  0  0
   67.5691   46.0250   53.7306 C   0  0  0  0  0  0  0  0  0  0  0  0
   67.7889   46.0571   52.3787 C   0  0  0  0  0  0  0  0  0  0  0  0
   67.0737   45.1977   51.5211 N   0  0  0  0  0  0  0  0  0  0  0  0
   68.7064   46.9212   51.8414 C   0  0  0  0  0  0  0  0  0  0  0  0
   69.3969   47.7539   52.6964 C   0  0  0  0  0  0  0  0  0  0  0  0
   69.1629   47.7098   54.0640 C   0  0  0  0  0  0  0  0  0  0  0  0
   70.3492   48.6529   52.1427 N   0  0  0  0  0  0  0  0  0  0  0  0
   70.2601   49.0662   50.9934 O   0  0  0  0  0  0  0  0  0  0  0  0
   71.4087   49.0796   52.9059 O   0  0  0  0  0  0  0  0  0  0  0  0
   71.1977   47.9546   58.5550 C   0  0  0  0  0  0  0  0  0  0  0  0
   71.0042   46.6292   58.1077 C   0  0  0  0  0  0  0  0  0  0  0  0
   69.9688   46.2966   57.2767 C   0  0  0  0  0  0  0  0  0  0  0  0
   69.0474   47.2141   56.8188 C   0  0  0  0  0  0  0  0  0  0  0  0
   69.2284   48.5064   57.2481 C   0  0  0  0  0  0  0  0  0  0  0  0
   70.2843   48.8645   58.0993 C   0  0  0  0  0  0  0  0  0  0  0  0
   73.7118   47.9438   61.4771 C   0  0  0  0  0  0  0  0  0  0  0  0
   72.5151   47.5894   60.6390 C   0  0  0  0  0  0  0  0  0  0  0  0
   71.7515   46.7139   61.1056 O   0  0  0  0  0  0  0  0  0  0  0  0
   72.2913   48.2185   59.4120 N   0  0  0  0  0  0  0  0  0  0  0  0
 18 19  1  0
 19 20  2  0
 19 21  1  0
 21 12  1  0
 12 13  2  0
 12 17  1  0
 13 14  1  0
 14 15  2  0
 15  1  1  0
 15 16  1  0
  1  2  1  0
  2  3  2  0
  2  8  1  0
  3  4  1  0
  4  5  1  0
  4  6  2  0
  6  7  1  0
  7  9  1  0
  7  8  2  0
  9 10  2  0
  9 11  1  0
 16 17  2  0
M  CHG  2   9   1  11  -1
M  END
>  <minimizedAffinity>  (42) 
-9.11599

$$$$
cs_full_output_folder/data/smiles/7959.pdb
     RDKit          3D

 23 25  0  0  0  0  0  0  0  0999 V2000
   68.9415   47.9594   56.2630 C   0  0  0  0  0  0  0  0  0  0  0  0
   69.4025   48.1810   54.8994 C   0  0  0  0  0  0  0  0  0  0  0  0
   70.3345   49.0864   54.5690 N   0  0  0  0  0  0  0  0  0  0  0  0
   70.7322   49.2609   53.3093 N   0  0  0  0  0  0  0  0  0  0  0  0
   70.2429   48.5553   52.2791 C   0  0  0  0  0  0  0  0  0  0  0  0
   70.6124   48.7137   51.0897 O   0  0  0  0  0  0  0  0  0  0  0  0
   69.2786   47.6058   52.5538 C   0  0  0  0  0  0  0  0  0  0  0  0
   68.7215   46.8331   51.5325 C   0  0  0  0  0  0  0  0  0  0  0  0
   67.7604   45.8913   51.8300 C   0  0  0  0  0  0  0  0  0  0  0  0
   67.3366   45.6974   53.1253 C   0  0  0  0  0  0  0  0  0  0  0  0
   67.9012   46.4713   54.1122 C   0  0  0  0  0  0  0  0  0  0  0  0
   68.8664   47.4268   53.8666 C   0  0  0  0  0  0  0  0  0  0  0  0
   70.6021   47.0846   57.7871 O   0  0  0  0  0  0  0  0  0  0  0  0
   69.6713   46.8832   56.9761 C   0  0  0  0  0  0  0  0  0  0  0  0
   69.2763   45.5418   56.7078 N   0  0  0  0  0  0  0  0  0  0  0  0
   69.8676   44.3860   57.3038 C   0  0  0  0  0  0  0  0  0  0  0  0
   69.1294   43.1408   57.0849 C   0  0  0  0  0  0  0  0  0  0  0  0
   69.4814   42.0076   57.7811 C   0  0  0  0  0  0  0  0  0  0  0  0
   68.8206   40.8102   57.6137 C   0  0  0  0  0  0  0  0  0  0  0  0
   67.7701   40.7240   56.7248 C   0  0  0  0  0  0  0  0  0  0  0  0
   67.4324   41.8742   56.0353 C   0  0  0  0  0  0  0  0  0  0  0  0
   66.0853   41.7479   54.9020 Cl  0  0  0  0  0  0  0  0  0  0  0  0
   68.0840   43.0751   56.1936 C   0  0  0  0  0  0  0  0  0  0  0  0
 13 14  2  0
 14  1  1  0
 14 15  1  0
  1  2  1  0
  2  3  2  0
  2 12  1  0
  3  4  1  0
  4  5  1  0
  5  6  2  0
  5  7  1  0
  7  8  1  0
  7 12  2  0
  8  9  2  0
  9 10  1  0
 10 11  2  0
 11 12  1  0
 15 16  1  0
 16 17  1  0
 17 18  2  0
 17 23  1  0
 18 19  1  0
 19 20  2  0
 20 21  1  0
 21 22  1  0
 21 23  2  0
M  END
>  <minimizedAffinity>  (43) 
-9.20128

$$$$
cs_full_output_folder/data/smiles/948.pdb
     RDKit          3D

 20 21  0  0  0  0  0  0  0  0999 V2000
   68.8517   46.8793   54.9042 C   0  0  0  0  0  0  0  0  0  0  0  0
   68.0460   45.9737   54.2517 C   0  0  0  0  0  0  0  0  0  0  0  0
   67.8306   45.9478   52.8899 C   0  0  0  0  0  0  0  0  0  0  0  0
   66.9874   44.9801   52.3317 O   0  0  0  0  0  0  0  0  0  0  0  0
   68.4541   46.8835   52.0928 C   0  0  0  0  0  0  0  0  0  0  0  0
   68.2522   46.8788   50.7213 O   0  0  0  0  0  0  0  0  0  0  0  0
   69.2831   47.8279   52.6879 C   0  0  0  0  0  0  0  0  0  0  0  0
   69.4636   47.8114   54.0490 C   0  0  0  0  0  0  0  0  0  0  0  0
   69.9025   48.7559   51.8350 N   0  0  0  0  0  0  0  0  0  0  0  0
   70.6191   48.3681   50.9041 O   0  0  0  0  0  0  0  0  0  0  0  0
   69.7263   50.0895   52.0237 O   0  0  0  0  0  0  0  0  0  0  0  0
   69.0756   45.7097   56.8684 O   0  0  0  0  0  0  0  0  0  0  0  0
   69.1172   46.8832   56.3076 C   0  0  0  0  0  0  0  0  0  0  0  0
   69.4184   47.9526   57.2311 C   0  0  0  0  0  0  0  0  0  0  0  0
   68.5034   49.0728   57.3471 C   0  0  0  0  0  0  0  0  0  0  0  0
   68.8623   50.3399   56.8960 C   0  0  0  0  0  0  0  0  0  0  0  0
   67.9930   51.4010   56.9560 C   0  0  0  0  0  0  0  0  0  0  0  0
   66.7294   51.2261   57.4695 C   0  0  0  0  0  0  0  0  0  0  0  0
   66.3669   49.9656   57.9180 C   0  0  0  0  0  0  0  0  0  0  0  0
   67.2379   48.9172   57.8574 C   0  0  0  0  0  0  0  0  0  0  0  0
 12 13  2  0
 13 14  1  0
 13  1  1  0
 14 15  1  0
 15 16  2  0
 15 20  1  0
 16 17  1  0
 17 18  2  0
 18 19  1  0
 19 20  2  0
  1  2  2  0
  1  8  1  0
  2  3  1  0
  3  4  1  0
  3  5  2  0
  5  6  1  0
  5  7  1  0
  7  9  1  0
  7  8  2  0
  9 10  2  0
  9 11  1  0
M  CHG  2   9   1  11  -1
M  END
>  <minimizedAffinity>  (44) 
-9.05117

$$$$
cs_full_output_folder/data/smiles/8155.pdb
     RDKit          3D

 23 25  0  0  0  0  0  0  0  0999 V2000
   71.9766   49.9256   54.9658 O   0  0  0  0  0  0  0  0  0  0  0  0
   70.9591   50.3080   54.2969 C   0  0  0  0  0  0  0  0  0  0  0  0
   70.6113   51.6600   54.4446 N   0  0  0  0  0  0  0  0  0  0  0  0
   70.2988   49.2986   53.4887 C   0  0  0  0  0  0  0  0  0  0  0  0
   70.4364   49.3689   52.1197 N   0  0  0  0  0  0  0  0  0  0  0  0
   69.8559   48.4967   51.3472 N   0  0  0  0  0  0  0  0  0  0  0  0
   69.0985   47.4852   51.8001 C   0  0  0  0  0  0  0  0  0  0  0  0
   68.5660   46.6719   50.9755 O   0  0  0  0  0  0  0  0  0  0  0  0
   68.9071   47.3439   53.1550 C   0  0  0  0  0  0  0  0  0  0  0  0
   68.1053   46.3229   53.6144 C   0  0  0  0  0  0  0  0  0  0  0  0
   67.9023   46.2233   54.9729 C   0  0  0  0  0  0  0  0  0  0  0  0
   68.5021   47.1393   55.8025 C   0  0  0  0  0  0  0  0  0  0  0  0
   69.3110   48.1648   55.3310 C   0  0  0  0  0  0  0  0  0  0  0  0
   69.5269   48.2779   53.9867 C   0  0  0  0  0  0  0  0  0  0  0  0
   71.3489   52.5965   55.2726 C   0  0  0  0  0  0  0  0  0  0  0  0
   70.5805   53.1013   56.4489 C   0  0  0  0  0  0  0  0  0  0  0  0
   69.6532   52.1049   57.0284 C   0  0  0  0  0  0  0  0  0  0  0  0
   70.1690   51.1105   57.8230 C   0  0  0  0  0  0  0  0  0  0  0  0
   69.3387   50.1508   58.3893 C   0  0  0  0  0  0  0  0  0  0  0  0
   67.9830   50.1784   58.1635 C   0  0  0  0  0  0  0  0  0  0  0  0
   67.4446   51.1798   57.3607 C   0  0  0  0  0  0  0  0  0  0  0  0
   66.1065   51.1860   57.1532 F   0  0  0  0  0  0  0  0  0  0  0  0
   68.2955   52.1262   56.8087 C   0  0  0  0  0  0  0  0  0  0  0  0
  1  2  2  0
  2  3  1  0
  2  4  1  0
  3 15  1  0
 15 16  1  0
 16 17  1  0
 17 18  2  0
 17 23  1  0
 18 19  1  0
 19 20  2  0
 20 21  1  0
 21 22  1  0
 21 23  2  0
  4  5  2  0
  4 14  1  0
  5  6  1  0
  6  7  1  0
  7  8  2  0
  7  9  1  0
  9 10  1  0
  9 14  2  0
 10 11  2  0
 11 12  1  0
 12 13  2  0
 13 14  1  0
M  END
>  <minimizedAffinity>  (45) 
-8.88850

$$$$
cs_full_output_folder/data/smiles/5225.pdb
     RDKit          3D

 22 23  0  0  0  0  0  0  0  0999 V2000
   69.3604   47.7875   52.9912 C   0  0  0  0  0  0  0  0  0  0  0  0
   69.2214   47.7049   54.3489 C   0  0  0  0  0  0  0  0  0  0  0  0
   68.3683   46.7934   54.9549 C   0  0  0  0  0  0  0  0  0  0  0  0
   67.6632   45.9677   54.1212 C   0  0  0  0  0  0  0  0  0  0  0  0
   67.7794   46.0217   52.7243 C   0  0  0  0  0  0  0  0  0  0  0  0
   68.6273   46.9314   52.1740 C   0  0  0  0  0  0  0  0  0  0  0  0
   68.7856   47.0336   50.7976 O   0  0  0  0  0  0  0  0  0  0  0  0
   71.3963   49.0090   52.9244 O   0  0  0  0  0  0  0  0  0  0  0  0
   70.2762   48.7705   52.4137 C   0  0  0  0  0  0  0  0  0  0  0  0
   69.8981   49.4550   51.2750 O   0  0  0  0  0  0  0  0  0  0  0  0
   67.0097   45.1266   51.9127 N   0  0  0  0  0  0  0  0  0  0  0  0
   66.6931   43.9892   52.3255 O   0  0  0  0  0  0  0  0  0  0  0  0
   66.5992   45.4952   50.6623 O   0  0  0  0  0  0  0  0  0  0  0  0
   68.3003   46.7858   56.2958 O   0  0  0  0  0  0  0  0  0  0  0  0
   68.9079   47.5158   57.2885 C   0  0  0  0  0  0  0  0  0  0  0  0
   68.5852   48.9604   57.3188 C   0  0  0  0  0  0  0  0  0  0  0  0
   69.4835   49.9680   57.0553 C   0  0  0  0  0  0  0  0  0  0  0  0
   69.1301   51.3025   57.0687 C   0  0  0  0  0  0  0  0  0  0  0  0
   67.8460   51.6887   57.3496 C   0  0  0  0  0  0  0  0  0  0  0  0
   66.9148   50.7156   57.6192 C   0  0  0  0  0  0  0  0  0  0  0  0
   67.2830   49.3912   57.6017 C   0  0  0  0  0  0  0  0  0  0  0  0
   66.3732   48.4274   57.8670 F   0  0  0  0  0  0  0  0  0  0  0  0
  8  9  2  0
  9 10  1  0
  9  1  1  0
  1  2  2  0
  1  6  1  0
  2  3  1  0
  3 14  1  0
  3  4  2  0
 14 15  1  0
 15 16  1  0
 16 17  2  0
 16 21  1  0
 17 18  1  0
 18 19  2  0
 19 20  1  0
 20 21  2  0
 21 22  1  0
  4  5  1  0
  5 11  1  0
  5  6  2  0
 11 12  2  0
 11 13  1  0
  6  7  1  0
M  CHG  2  11   1  13  -1
M  END
>  <minimizedAffinity>  (46) 
-9.33462

$$$$
cs_full_output_folder/data/smiles/1.pdb
     RDKit          3D

 22 24  0  0  0  0  0  0  0  0999 V2000
   68.9073   45.4454   56.5443 C   0  0  0  0  0  0  0  0  0  0  0  0
   70.0325   45.9369   57.1097 N   0  0  0  0  0  0  0  0  0  0  0  0
   70.8782   45.1433   57.7788 C   0  0  0  0  0  0  0  0  0  0  0  0
   70.5819   43.8058   57.8817 C   0  0  0  0  0  0  0  0  0  0  0  0
   69.4563   43.2588   57.3267 C   0  0  0  0  0  0  0  0  0  0  0  0
   68.6513   44.1485   56.6632 N   0  0  0  0  0  0  0  0  0  0  0  0
   69.0753   41.8588   57.4166 C   0  0  0  0  0  0  0  0  0  0  0  0
   69.7198   41.0215   58.3083 C   0  0  0  0  0  0  0  0  0  0  0  0
   69.3530   39.6719   58.3859 C   0  0  0  0  0  0  0  0  0  0  0  0
   68.3505   39.1640   57.5799 C   0  0  0  0  0  0  0  0  0  0  0  0
   67.7481   40.0110   56.7268 N   0  0  0  0  0  0  0  0  0  0  0  0
   68.0888   41.3346   56.6316 C   0  0  0  0  0  0  0  0  0  0  0  0
   68.0570   46.3603   55.8649 N   0  0  0  0  0  0  0  0  0  0  0  0
   69.3735   47.7417   52.6504 C   0  0  0  0  0  0  0  0  0  0  0  0
   68.7332   46.8996   51.7375 C   0  0  0  0  0  0  0  0  0  0  0  0
   67.8978   45.9069   52.1900 C   0  0  0  0  0  0  0  0  0  0  0  0
   67.6749   45.7200   53.5612 C   0  0  0  0  0  0  0  0  0  0  0  0
   68.3020   46.5445   54.4681 C   0  0  0  0  0  0  0  0  0  0  0  0
   69.1206   47.5155   53.9805 C   0  0  0  0  0  0  0  0  0  0  0  0
   71.3359   49.0668   52.6871 O   0  0  0  0  0  0  0  0  0  0  0  0
   70.2448   48.7876   52.1428 C   0  0  0  0  0  0  0  0  0  0  0  0
   69.8953   49.5296   51.0130 O   0  0  0  0  0  0  0  0  0  0  0  0
 20 21  2  0
 21 22  1  0
 21 14  1  0
 14 15  2  0
 14 19  1  0
 15 16  1  0
 16 17  2  0
 17 18  1  0
 18 13  1  0
 18 19  2  0
 13  1  1  0
  1  2  2  0
  1  6  1  0
  2  3  1  0
  3  4  2  0
  4  5  1  0
  5  7  1  0
  5  6  2  0
  7  8  2  0
  7 12  1  0
  8  9  1  0
  9 10  2  0
 10 11  1  0
 11 12  2  0
M  END
>  <minimizedAffinity>  (47) 
-9.37032

$$$$
cs_full_output_folder/data/smiles/5107.pdb
     RDKit          3D

 22 24  0  0  0  0  0  0  0  0999 V2000
   68.8490   47.5250   57.0313 C   0  0  0  0  0  0  0  0  0  0  0  0
   68.2552   48.8572   57.1601 C   0  0  0  0  0  0  0  0  0  0  0  0
   66.9874   49.0267   57.7161 C   0  0  0  0  0  0  0  0  0  0  0  0
   66.3422   47.8685   58.1266 O   0  0  0  0  0  0  0  0  0  0  0  0
   66.4044   50.2649   57.8542 C   0  0  0  0  0  0  0  0  0  0  0  0
   67.0704   51.3875   57.4382 C   0  0  0  0  0  0  0  0  0  0  0  0
   68.3229   51.2535   56.8846 C   0  0  0  0  0  0  0  0  0  0  0  0
   68.9592   52.4098   56.4823 C   0  0  0  0  0  0  0  0  0  0  0  0
   70.2094   52.3072   55.9293 C   0  0  0  0  0  0  0  0  0  0  0  0
   70.8064   51.0705   55.7864 C   0  0  0  0  0  0  0  0  0  0  0  0
   70.1740   49.9181   56.1873 C   0  0  0  0  0  0  0  0  0  0  0  0
   68.9171   49.9858   56.7450 C   0  0  0  0  0  0  0  0  0  0  0  0
   68.1501   46.6928   56.0717 N   0  0  0  0  0  0  0  0  0  0  0  0
   69.3880   47.7839   52.7159 C   0  0  0  0  0  0  0  0  0  0  0  0
   68.7262   46.8743   51.8995 C   0  0  0  0  0  0  0  0  0  0  0  0
   67.8889   45.9220   52.4659 C   0  0  0  0  0  0  0  0  0  0  0  0
   67.7144   45.8793   53.8314 C   0  0  0  0  0  0  0  0  0  0  0  0
   68.3634   46.7774   54.6760 C   0  0  0  0  0  0  0  0  0  0  0  0
   69.1749   47.6934   54.0754 C   0  0  0  0  0  0  0  0  0  0  0  0
   71.3687   49.0029   52.6260 O   0  0  0  0  0  0  0  0  0  0  0  0
   70.2586   48.7692   52.1105 C   0  0  0  0  0  0  0  0  0  0  0  0
   69.8843   49.4532   50.9776 O   0  0  0  0  0  0  0  0  0  0  0  0
 20 21  2  0
 21 22  1  0
 21 14  1  0
 14 15  2  0
 14 19  1  0
 15 16  1  0
 16 17  2  0
 17 18  1  0
 18 13  1  0
 18 19  2  0
 13  1  1  0
  1  2  1  0
  2  3  2  0
  2 12  1  0
  3  4  1  0
  3  5  1  0
  5  6  2  0
  6  7  1  0
  7  8  1  0
  7 12  2  0
  8  9  2  0
  9 10  1  0
 10 11  2  0
 11 12  1  0
M  END
>  <minimizedAffinity>  (48) 
-9.31060

$$$$
cs_full_output_folder/data/smiles/5289.pdb
     RDKit          3D

 21 22  0  0  0  0  0  0  0  0999 V2000
   68.3113   46.5998   56.0866 N   0  0  0  0  0  0  0  0  0  0  0  0
   69.1834   47.6184   52.6218 C   0  0  0  0  0  0  0  0  0  0  0  0
   68.4515   46.7090   51.8560 C   0  0  0  0  0  0  0  0  0  0  0  0
   67.6826   45.7901   52.5328 C   0  0  0  0  0  0  0  0  0  0  0  0
   66.9284   44.8523   51.8356 O   0  0  0  0  0  0  0  0  0  0  0  0
   67.6537   45.7892   53.8843 C   0  0  0  0  0  0  0  0  0  0  0  0
   68.3788   46.6936   54.6850 C   0  0  0  0  0  0  0  0  0  0  0  0
   69.1336   47.5935   53.9891 C   0  0  0  0  0  0  0  0  0  0  0  0
   70.6160   48.2186   50.8891 O   0  0  0  0  0  0  0  0  0  0  0  0
   69.9933   48.5875   51.9120 C   0  0  0  0  0  0  0  0  0  0  0  0
   70.0884   49.8974   52.3383 O   0  0  0  0  0  0  0  0  0  0  0  0
   68.9531   47.4500   57.0277 C   0  0  0  0  0  0  0  0  0  0  0  0
   68.1988   48.7046   57.1847 C   0  0  0  0  0  0  0  0  0  0  0  0
   67.0494   48.8052   57.8868 C   0  0  0  0  0  0  0  0  0  0  0  0
   66.3655   50.0263   58.0372 C   0  0  0  0  0  0  0  0  0  0  0  0
   66.8913   51.1552   57.4431 C   0  0  0  0  0  0  0  0  0  0  0  0
   68.0692   51.0786   56.7156 C   0  0  0  0  0  0  0  0  0  0  0  0
   68.7078   49.8709   56.5930 C   0  0  0  0  0  0  0  0  0  0  0  0
   68.5979   52.2591   56.1075 N   0  0  0  0  0  0  0  0  0  0  0  0
   69.0784   53.1688   56.7952 O   0  0  0  0  0  0  0  0  0  0  0  0
   68.5680   52.3723   54.7544 O   0  0  0  0  0  0  0  0  0  0  0  0
  9 10  2  0
 10 11  1  0
 10  2  1  0
  2  3  2  0
  2  8  1  0
  3  4  1  0
  4  5  1  0
  4  6  2  0
  6  7  1  0
  7  1  1  0
  7  8  2  0
  1 12  1  0
 12 13  1  0
 13 14  2  0
 13 18  1  0
 14 15  1  0
 15 16  2  0
 16 17  1  0
 17 19  1  0
 17 18  2  0
 19 20  2  0
 19 21  1  0
M  CHG  2  19   1  21  -1
M  END
>  <minimizedAffinity>  (49) 
-9.24498

$$$$
cs_full_output_folder/data/smiles/4629.pdb
     RDKit          3D

 22 24  0  0  0  0  0  0  0  0999 V2000
   68.8108   45.6967   56.3660 C   0  0  0  0  0  0  0  0  0  0  0  0
   69.8663   46.2928   56.9740 N   0  0  0  0  0  0  0  0  0  0  0  0
   70.7191   45.6067   57.7277 C   0  0  0  0  0  0  0  0  0  0  0  0
   70.5016   44.2438   57.8836 C   0  0  0  0  0  0  0  0  0  0  0  0
   69.4417   43.6058   57.2820 C   0  0  0  0  0  0  0  0  0  0  0  0
   68.6296   44.3770   56.5363 N   0  0  0  0  0  0  0  0  0  0  0  0
   69.1924   42.1815   57.4281 C   0  0  0  0  0  0  0  0  0  0  0  0
   68.1682   41.5078   56.8403 C   0  0  0  0  0  0  0  0  0  0  0  0
   67.9939   40.1509   57.0254 C   0  0  0  0  0  0  0  0  0  0  0  0
   68.8587   39.4560   57.8115 C   0  0  0  0  0  0  0  0  0  0  0  0
   69.9203   40.0950   58.4342 C   0  0  0  0  0  0  0  0  0  0  0  0
   70.0561   41.4365   58.2249 C   0  0  0  0  0  0  0  0  0  0  0  0
   67.9340   46.4507   55.5800 O   0  0  0  0  0  0  0  0  0  0  0  0
   69.4009   47.7821   52.4888 C   0  0  0  0  0  0  0  0  0  0  0  0
   68.7940   46.9352   51.5827 C   0  0  0  0  0  0  0  0  0  0  0  0
   67.9169   45.9441   51.9980 C   0  0  0  0  0  0  0  0  0  0  0  0
   67.6173   45.7680   53.3307 C   0  0  0  0  0  0  0  0  0  0  0  0
   68.2209   46.6115   54.2396 C   0  0  0  0  0  0  0  0  0  0  0  0
   69.0974   47.6016   53.8222 C   0  0  0  0  0  0  0  0  0  0  0  0
   71.3177   49.0395   52.6866 O   0  0  0  0  0  0  0  0  0  0  0  0
   70.2965   48.7929   52.0543 N   0  0  0  0  0  0  0  0  0  0  0  0
   70.0218   49.5037   50.9180 O   0  0  0  0  0  0  0  0  0  0  0  0
 20 21  2  0
 21 22  1  0
 21 14  1  0
 14 15  2  0
 14 19  1  0
 15 16  1  0
 16 17  2  0
 17 18  1  0
 18 13  1  0
 18 19  2  0
 13  1  1  0
  1  2  2  0
  1  6  1  0
  2  3  1  0
  3  4  2  0
  4  5  1  0
  5  7  1  0
  5  6  2  0
  7  8  2  0
  7 12  1  0
  8  9  1  0
  9 10  2  0
 10 11  1  0
 11 12  2  0
M  CHG  2  21   1  22  -1
M  END
>  <minimizedAffinity>  (50) 
-9.23143

$$$$
cs_full_output_folder/data/smiles/3.pdb
     RDKit          3D

 21 23  0  0  0  0  0  0  0  0999 V2000
   69.5017   48.3025   54.0443 C   0  0  0  0  0  0  0  0  0  0  0  0
   69.2757   48.0851   55.3977 C   0  0  0  0  0  0  0  0  0  0  0  0
   68.3929   47.1361   55.8636 C   0  0  0  0  0  0  0  0  0  0  0  0
   68.2295   46.9872   57.1192 O   0  0  0  0  0  0  0  0  0  0  0  0
   67.7165   46.3823   55.0321 O   0  0  0  0  0  0  0  0  0  0  0  0
   67.8685   46.5147   53.7438 C   0  0  0  0  0  0  0  0  0  0  0  0
   67.1925   45.7471   52.8651 N   0  0  0  0  0  0  0  0  0  0  0  0
   67.3316   45.8490   51.5313 C   0  0  0  0  0  0  0  0  0  0  0  0
   66.6764   45.1095   50.7277 O   0  0  0  0  0  0  0  0  0  0  0  0
   68.1816   46.7535   51.0175 N   0  0  0  0  0  0  0  0  0  0  0  0
   68.8895   47.5556   51.8701 C   0  0  0  0  0  0  0  0  0  0  0  0
   69.6599   48.3608   51.3519 O   0  0  0  0  0  0  0  0  0  0  0  0
   68.7533   47.4651   53.2158 C   0  0  0  0  0  0  0  0  0  0  0  0
   70.3873   49.3572   53.5574 C   0  0  0  0  0  0  0  0  0  0  0  0
   70.2455   50.7166   54.0884 C   0  0  0  0  0  0  0  0  0  0  0  0
   68.9545   51.1497   54.7108 C   0  0  0  0  0  0  0  0  0  0  0  0
   69.0188   51.7978   56.0417 C   0  0  0  0  0  0  0  0  0  0  0  0
   69.1833   50.9408   57.2852 C   0  0  0  0  0  0  0  0  0  0  0  0
   67.8123   51.3934   56.9391 C   0  0  0  0  0  0  0  0  0  0  0  0
   70.6890   53.6420   56.3513 C   0  0  0  0  0  0  0  0  0  0  0  0
   69.2310   53.3031   56.1299 C   0  0  0  0  0  0  0  0  0  0  0  0
 20 21  1  0
 21 17  1  0
 17 16  1  0
 17 18  1  0
 17 19  1  0
 16 15  1  0
 15 14  1  0
 14  1  1  0
  1  2  2  0
  1 13  1  0
  2  3  1  0
  3  4  2  0
  3  5  1  0
  5  6  1  0
  6  7  1  0
  6 13  2  0
  7  8  1  0
  8  9  2  0
  8 10  1  0
 10 11  1  0
 11 12  2  0
 11 13  1  0
 18 19  1  0
M  END
>  <minimizedAffinity>  (51) 
-9.20642

$$$$
cs_full_output_folder/data/smiles/8523.pdb
     RDKit          3D

 22 24  0  0  0  0  0  0  0  0999 V2000
   71.5729   48.1990   58.9744 C   0  0  0  0  0  0  0  0  0  0  0  0
   70.8471   47.0909   58.3016 C   0  0  0  0  0  0  0  0  0  0  0  0
   69.7808   47.3921   57.4562 C   0  0  0  0  0  0  0  0  0  0  0  0
   69.0987   46.3746   56.8263 C   0  0  0  0  0  0  0  0  0  0  0  0
   69.4788   45.1264   57.0429 N   0  0  0  0  0  0  0  0  0  0  0  0
   70.5131   44.7961   57.8611 C   0  0  0  0  0  0  0  0  0  0  0  0
   71.1649   45.7990   58.4650 N   0  0  0  0  0  0  0  0  0  0  0  0
   70.8592   43.3925   58.0389 C   0  0  0  0  0  0  0  0  0  0  0  0
   70.0330   42.3854   58.2717 C   0  0  0  0  0  0  0  0  0  0  0  0
   70.8133   41.1354   58.3835 C   0  0  0  0  0  0  0  0  0  0  0  0
   72.0465   41.5189   58.2020 C   0  0  0  0  0  0  0  0  0  0  0  0
   72.1970   42.8171   57.9943 C   0  0  0  0  0  0  0  0  0  0  0  0
   68.0446   46.6803   55.9902 O   0  0  0  0  0  0  0  0  0  0  0  0
   68.2896   46.7568   54.6275 C   0  0  0  0  0  0  0  0  0  0  0  0
   67.7260   45.8494   53.7541 C   0  0  0  0  0  0  0  0  0  0  0  0
   67.9628   45.9140   52.3919 C   0  0  0  0  0  0  0  0  0  0  0  0
   68.7752   46.8954   51.8610 C   0  0  0  0  0  0  0  0  0  0  0  0
   69.3426   47.8070   52.7246 C   0  0  0  0  0  0  0  0  0  0  0  0
   69.1036   47.7370   54.0811 C   0  0  0  0  0  0  0  0  0  0  0  0
   70.1981   48.8431   52.1843 C   0  0  0  0  0  0  0  0  0  0  0  0
   69.8143   49.6060   51.0305 N   0  0  0  0  0  0  0  0  0  0  0  0
   71.3077   49.1146   52.7001 O   0  0  0  0  0  0  0  0  0  0  0  0
  1  2  1  0
  2  3  2  0
  2  7  1  0
  3  4  1  0
  4 13  1  0
  4  5  2  0
 13 14  1  0
 14 15  2  0
 14 19  1  0
 15 16  1  0
 16 17  2  0
 17 18  1  0
 18 20  1  0
 18 19  2  0
 20 21  1  0
 20 22  2  0
  5  6  1  0
  6  8  1  0
  6  7  2  0
  8  9  2  0
  8 12  1  0
  9 10  1  0
 10 11  2  0
 11 12  2  0
M  END
>  <minimizedAffinity>  (52) 
-9.19208

$$$$
cs_full_output_folder/data/smiles/8042.pdb
     RDKit          3D

 21 23  0  0  0  0  0  0  0  0999 V2000
   70.4055   49.1500   53.9952 C   0  0  0  0  0  0  0  0  0  0  0  0
   71.5407   49.4717   53.3601 N   0  0  0  0  0  0  0  0  0  0  0  0
   72.1130   50.5211   53.9562 N   0  0  0  0  0  0  0  0  0  0  0  0
   71.3559   50.9200   55.0136 C   0  0  0  0  0  0  0  0  0  0  0  0
   70.2672   50.0405   55.0332 C   0  0  0  0  0  0  0  0  0  0  0  0
   66.9321   44.9456   52.5311 O   0  0  0  0  0  0  0  0  0  0  0  0
   67.7948   45.9857   52.9163 C   0  0  0  0  0  0  0  0  0  0  0  0
   68.1506   46.1883   54.2267 C   0  0  0  0  0  0  0  0  0  0  0  0
   68.9867   47.1971   54.5939 C   0  0  0  0  0  0  0  0  0  0  0  0
   69.5209   48.0763   53.6439 C   0  0  0  0  0  0  0  0  0  0  0  0
   69.1644   47.8723   52.3297 C   0  0  0  0  0  0  0  0  0  0  0  0
   69.6670   48.7184   51.3393 O   0  0  0  0  0  0  0  0  0  0  0  0
   68.3134   46.8435   51.9683 C   0  0  0  0  0  0  0  0  0  0  0  0
   67.9787   46.6766   50.6165 O   0  0  0  0  0  0  0  0  0  0  0  0
   69.1765   50.0561   55.9775 C   0  0  0  0  0  0  0  0  0  0  0  0
   68.9580   48.9914   56.8155 C   0  0  0  0  0  0  0  0  0  0  0  0
   67.9384   48.9429   57.7382 C   0  0  0  0  0  0  0  0  0  0  0  0
   67.0821   50.0121   57.8377 C   0  0  0  0  0  0  0  0  0  0  0  0
   66.0473   50.0034   58.7496 F   0  0  0  0  0  0  0  0  0  0  0  0
   67.2697   51.0984   57.0130 C   0  0  0  0  0  0  0  0  0  0  0  0
   68.3165   51.1250   56.0798 C   0  0  0  0  0  0  0  0  0  0  0  0
  6  7  1  0
  7  8  2  0
  7 13  1  0
  8  9  1  0
  9 10  2  0
 10  1  1  0
 10 11  1  0
  1  2  1  0
  1  5  2  0
  2  3  1  0
  3  4  2  0
  4  5  1  0
  5 15  1  0
 15 16  2  0
 15 21  1  0
 16 17  1  0
 17 18  2  0
 18 19  1  0
 18 20  1  0
 20 21  2  0
 11 12  1  0
 11 13  2  0
 13 14  1  0
M  END
>  <minimizedAffinity>  (53) 
-9.18648

$$$$
cs_full_output_folder/data/smiles/3951.pdb
     RDKit          3D

 22 24  0  0  0  0  0  0  0  0999 V2000
   68.7512   45.5999   56.3586 C   0  0  0  0  0  0  0  0  0  0  0  0
   69.8192   46.2050   56.9188 N   0  0  0  0  0  0  0  0  0  0  0  0
   70.7256   45.5625   57.6556 C   0  0  0  0  0  0  0  0  0  0  0  0
   70.5504   44.1873   57.8523 C   0  0  0  0  0  0  0  0  0  0  0  0
   69.4777   43.5336   57.3007 C   0  0  0  0  0  0  0  0  0  0  0  0
   68.6195   44.2825   56.5703 N   0  0  0  0  0  0  0  0  0  0  0  0
   69.2768   42.1078   57.4919 C   0  0  0  0  0  0  0  0  0  0  0  0
   70.2124   41.3672   58.2076 C   0  0  0  0  0  0  0  0  0  0  0  0
   70.0808   40.0114   58.4238 C   0  0  0  0  0  0  0  0  0  0  0  0
   68.9907   39.3315   57.9261 C   0  0  0  0  0  0  0  0  0  0  0  0
   68.0531   40.0423   57.2156 C   0  0  0  0  0  0  0  0  0  0  0  0
   68.1964   41.4233   57.0004 C   0  0  0  0  0  0  0  0  0  0  0  0
   67.8448   46.3339   55.6009 O   0  0  0  0  0  0  0  0  0  0  0  0
   69.2876   47.7003   52.4897 C   0  0  0  0  0  0  0  0  0  0  0  0
   68.7093   46.8605   51.5636 C   0  0  0  0  0  0  0  0  0  0  0  0
   67.8460   45.8483   51.9682 C   0  0  0  0  0  0  0  0  0  0  0  0
   67.5672   45.6879   53.3320 C   0  0  0  0  0  0  0  0  0  0  0  0
   68.1395   46.5197   54.2646 C   0  0  0  0  0  0  0  0  0  0  0  0
   68.9849   47.5036   53.8224 C   0  0  0  0  0  0  0  0  0  0  0  0
   71.2755   49.1512   52.9177 N   0  0  0  0  0  0  0  0  0  0  0  0
   70.1944   48.7655   52.0843 C   0  0  0  0  0  0  0  0  0  0  0  0
   70.0394   49.3641   50.9906 O   0  0  0  0  0  0  0  0  0  0  0  0
 20 21  1  0
 21 22  2  0
 21 14  1  0
 14 15  2  0
 14 19  1  0
 15 16  1  0
 16 17  2  0
 17 18  1  0
 18 13  1  0
 18 19  2  0
 13  1  1  0
  1  2  2  0
  1  6  1  0
  2  3  1  0
  3  4  2  0
  4  5  1  0
  5  7  1  0
  5  6  2  0
  7  8  2  0
  7 12  1  0
  8  9  1  0
  9 10  2  0
 10 11  1  0
 11 12  2  0
M  END
>  <minimizedAffinity>  (54) 
-9.18421

$$$$
cs_full_output_folder/data/smiles/7.pdb
     RDKit          3D

 19 21  0  0  0  0  0  0  0  0999 V2000
   66.8435   45.3784   51.0466 N   0  0  0  0  0  0  0  0  0  0  0  0
   67.7462   46.1769   51.8063 C   0  0  0  0  0  0  0  0  0  0  0  0
   67.7346   46.1298   53.2014 C   0  0  0  0  0  0  0  0  0  0  0  0
   68.5944   46.8881   53.9558 C   0  0  0  0  0  0  0  0  0  0  0  0
   69.4703   47.6997   53.2148 C   0  0  0  0  0  0  0  0  0  0  0  0
   70.4230   48.5514   53.6568 N   0  0  0  0  0  0  0  0  0  0  0  0
   70.9791   49.0832   52.5673 N   0  0  0  0  0  0  0  0  0  0  0  0
   70.4300   48.6139   51.4803 N   0  0  0  0  0  0  0  0  0  0  0  0
   69.4753   47.7399   51.8577 C   0  0  0  0  0  0  0  0  0  0  0  0
   68.6096   46.9738   51.1960 N   0  0  0  0  0  0  0  0  0  0  0  0
   68.6448   46.9007   55.2828 O   0  0  0  0  0  0  0  0  0  0  0  0
   69.2045   47.6232   56.2813 C   0  0  0  0  0  0  0  0  0  0  0  0
   68.4658   48.8114   56.7305 C   0  0  0  0  0  0  0  0  0  0  0  0
   67.3701   48.7429   57.5301 C   0  0  0  0  0  0  0  0  0  0  0  0
   66.7135   49.9066   57.9323 C   0  0  0  0  0  0  0  0  0  0  0  0
   67.1807   51.1273   57.5153 C   0  0  0  0  0  0  0  0  0  0  0  0
   68.2859   51.2153   56.7064 C   0  0  0  0  0  0  0  0  0  0  0  0
   68.8266   52.7987   56.2108 Cl  0  0  0  0  0  0  0  0  0  0  0  0
   68.9266   50.0490   56.3150 C   0  0  0  0  0  0  0  0  0  0  0  0
  1  2  1  0
  2  3  2  0
  2 10  1  0
  3  4  1  0
  4 11  1  0
  4  5  2  0
 11 12  1  0
 12 13  1  0
 13 14  2  0
 13 19  1  0
 14 15  1  0
 15 16  2  0
 16 17  1  0
 17 18  1  0
 17 19  2  0
  5  6  1  0
  5  9  1  0
  6  7  2  0
  7  8  1  0
  8  9  1  0
  9 10  2  0
M  END
>  <minimizedAffinity>  (55) 
-9.17792

$$$$
cs_full_output_folder/data/smiles/5396.pdb
     RDKit          3D

 22 24  0  0  0  0  0  0  0  0999 V2000
   68.4845   51.3656   56.2721 C   0  0  0  0  0  0  0  0  0  0  0  0
   67.4637   51.2773   57.1821 C   0  0  0  0  0  0  0  0  0  0  0  0
   67.0601   50.0625   57.6931 C   0  0  0  0  0  0  0  0  0  0  0  0
   66.0466   49.9805   58.5969 F   0  0  0  0  0  0  0  0  0  0  0  0
   67.7269   48.9271   57.2517 C   0  0  0  0  0  0  0  0  0  0  0  0
   67.3319   47.8399   57.7405 O   0  0  0  0  0  0  0  0  0  0  0  0
   68.7452   48.9795   56.3475 N   0  0  0  0  0  0  0  0  0  0  0  0
   69.1039   50.1847   55.8789 C   0  0  0  0  0  0  0  0  0  0  0  0
   68.9046   52.6600   55.7337 C   0  0  0  0  0  0  0  0  0  0  0  0
   68.4915   52.9571   54.5560 O   0  0  0  0  0  0  0  0  0  0  0  0
   71.0362   53.5865   56.2574 C   0  0  0  0  0  0  0  0  0  0  0  0
   69.7333   53.6029   56.4224 C   0  0  0  0  0  0  0  0  0  0  0  0
   69.3844   47.7434   55.9547 C   0  0  0  0  0  0  0  0  0  0  0  0
   69.0133   47.3147   54.5934 C   0  0  0  0  0  0  0  0  0  0  0  0
   68.0727   46.2886   54.4005 C   0  0  0  0  0  0  0  0  0  0  0  0
   67.6701   45.8982   53.1520 C   0  0  0  0  0  0  0  0  0  0  0  0
   68.1773   46.4991   52.0329 C   0  0  0  0  0  0  0  0  0  0  0  0
   69.1133   47.5193   52.1595 C   0  0  0  0  0  0  0  0  0  0  0  0
   69.7722   48.2505   51.2292 N   0  0  0  0  0  0  0  0  0  0  0  0
   70.5582   49.0639   51.8954 N   0  0  0  0  0  0  0  0  0  0  0  0
   70.4292   48.8839   53.2238 C   0  0  0  0  0  0  0  0  0  0  0  0
   69.5060   47.8980   53.4394 C   0  0  0  0  0  0  0  0  0  0  0  0
 11 12  2  0
 12  9  1  0
  9 10  2  0
  9  1  1  0
  1  2  1  0
  1  8  2  0
  2  3  2  0
  3  4  1  0
  3  5  1  0
  5  6  2  0
  5  7  1  0
  7 13  1  0
  7  8  1  0
 13 14  1  0
 14 15  2  0
 14 22  1  0
 15 16  1  0
 16 17  2  0
 17 18  1  0
 18 19  1  0
 18 22  2  0
 19 20  1  0
 20 21  2  0
 21 22  1  0
M  END
>  <minimizedAffinity>  (56) 
-9.15263

$$$$
cs_full_output_folder/data/smiles/12.pdb
     RDKit          3D

 21 23  0  0  0  0  0  0  0  0999 V2000
   70.3199   50.0640   54.9826 N   0  0  0  0  0  0  0  0  0  0  0  0
   70.3914   49.2285   53.9479 C   0  0  0  0  0  0  0  0  0  0  0  0
   71.6280   49.4430   53.3675 N   0  0  0  0  0  0  0  0  0  0  0  0
   72.2562   50.3718   54.0370 N   0  0  0  0  0  0  0  0  0  0  0  0
   71.4951   50.7865   55.0382 C   0  0  0  0  0  0  0  0  0  0  0  0
   71.7145   51.6457   55.9015 O   0  0  0  0  0  0  0  0  0  0  0  0
   69.5170   48.1987   53.4053 C   0  0  0  0  0  0  0  0  0  0  0  0
   68.7245   47.4926   54.3153 C   0  0  0  0  0  0  0  0  0  0  0  0
   67.9034   46.4826   53.9175 C   0  0  0  0  0  0  0  0  0  0  0  0
   67.8261   46.1151   52.5854 C   0  0  0  0  0  0  0  0  0  0  0  0
   66.9807   45.0812   52.2001 O   0  0  0  0  0  0  0  0  0  0  0  0
   68.5865   46.7825   51.6767 C   0  0  0  0  0  0  0  0  0  0  0  0
   69.4267   47.8215   52.1072 C   0  0  0  0  0  0  0  0  0  0  0  0
   70.1717   48.4447   51.1302 O   0  0  0  0  0  0  0  0  0  0  0  0
   68.4852   52.0955   54.5866 C   0  0  0  0  0  0  0  0  0  0  0  0
   68.3545   51.2095   55.7724 C   0  0  0  0  0  0  0  0  0  0  0  0
   67.3399   51.3901   56.7060 C   0  0  0  0  0  0  0  0  0  0  0  0
   67.2518   50.5455   57.7932 C   0  0  0  0  0  0  0  0  0  0  0  0
   68.1773   49.5236   57.9437 C   0  0  0  0  0  0  0  0  0  0  0  0
   69.1874   49.3353   57.0241 C   0  0  0  0  0  0  0  0  0  0  0  0
   69.2723   50.1931   55.9248 C   0  0  0  0  0  0  0  0  0  0  0  0
 15 16  1  0
 16 17  2  0
 16 21  1  0
 17 18  1  0
 18 19  2  0
 19 20  1  0
 20 21  2  0
 21  1  1  0
  1  2  1  0
  1  5  1  0
  2  7  1  0
  2  3  2  0
  7  8  2  0
  7 13  1  0
  8  9  1  0
  9 10  2  0
 10 11  1  0
 10 12  1  0
 12 13  2  0
 13 14  1  0
  3  4  1  0
  4  5  1  0
  5  6  2  0
M  END
>  <minimizedAffinity>  (57) 
-9.11401

$$$$
cs_full_output_folder/data/smiles/5259.pdb
     RDKit          3D

 22 24  0  0  0  0  0  0  0  0999 V2000
   68.8101   45.5291   56.3753 C   0  0  0  0  0  0  0  0  0  0  0  0
   69.8798   46.1249   56.9649 N   0  0  0  0  0  0  0  0  0  0  0  0
   70.7540   45.4387   57.7077 C   0  0  0  0  0  0  0  0  0  0  0  0
   70.5809   44.1176   57.8851 N   0  0  0  0  0  0  0  0  0  0  0  0
   69.5207   43.4837   57.3106 C   0  0  0  0  0  0  0  0  0  0  0  0
   68.6703   44.2084   56.5747 N   0  0  0  0  0  0  0  0  0  0  0  0
   69.3501   42.0588   57.5125 C   0  0  0  0  0  0  0  0  0  0  0  0
   68.2468   41.4064   57.0080 C   0  0  0  0  0  0  0  0  0  0  0  0
   68.0958   40.0353   57.2099 C   0  0  0  0  0  0  0  0  0  0  0  0
   69.0322   39.3053   57.9105 C   0  0  0  0  0  0  0  0  0  0  0  0
   70.1327   39.9659   58.4109 C   0  0  0  0  0  0  0  0  0  0  0  0
   70.2821   41.3336   58.2093 C   0  0  0  0  0  0  0  0  0  0  0  0
   67.9234   46.2727   55.6112 O   0  0  0  0  0  0  0  0  0  0  0  0
   69.2857   47.7199   52.4917 C   0  0  0  0  0  0  0  0  0  0  0  0
   68.7087   46.9268   51.5262 C   0  0  0  0  0  0  0  0  0  0  0  0
   67.8712   45.9173   51.9513 C   0  0  0  0  0  0  0  0  0  0  0  0
   67.6025   45.6896   53.2858 C   0  0  0  0  0  0  0  0  0  0  0  0
   68.1754   46.4795   54.2616 C   0  0  0  0  0  0  0  0  0  0  0  0
   69.0161   47.4918   53.8462 C   0  0  0  0  0  0  0  0  0  0  0  0
   71.2307   49.1762   52.9236 N   0  0  0  0  0  0  0  0  0  0  0  0
   70.1678   48.7856   52.0868 C   0  0  0  0  0  0  0  0  0  0  0  0
   69.9923   49.3634   50.9970 O   0  0  0  0  0  0  0  0  0  0  0  0
 20 21  1  0
 21 22  2  0
 21 14  1  0
 14 15  2  0
 14 19  1  0
 15 16  1  0
 16 17  2  0
 17 18  1  0
 18 13  1  0
 18 19  2  0
 13  1  1  0
  1  2  2  0
  1  6  1  0
  2  3  1  0
  3  4  2  0
  4  5  1  0
  5  7  1  0
  5  6  2  0
  7  8  2  0
  7 12  1  0
  8  9  1  0
  9 10  2  0
 10 11  1  0
 11 12  2  0
M  END
>  <minimizedAffinity>  (58) 
-9.11349

$$$$
cs_full_output_folder/data/smiles/4676.pdb
     RDKit          3D

 21 23  0  0  0  0  0  0  0  0999 V2000
   69.7182   48.1236   54.7996 C   0  0  0  0  0  0  0  0  0  0  0  0
   70.6235   49.0395   54.3764 N   0  0  0  0  0  0  0  0  0  0  0  0
   70.9131   49.2669   53.1143 N   0  0  0  0  0  0  0  0  0  0  0  0
   70.2818   48.5566   52.1711 C   0  0  0  0  0  0  0  0  0  0  0  0
   70.5160   48.7269   50.9287 O   0  0  0  0  0  0  0  0  0  0  0  0
   69.3453   47.6051   52.5003 C   0  0  0  0  0  0  0  0  0  0  0  0
   68.6738   46.8791   51.5453 C   0  0  0  0  0  0  0  0  0  0  0  0
   67.7253   45.9431   51.8916 C   0  0  0  0  0  0  0  0  0  0  0  0
   67.4353   45.7226   53.2172 C   0  0  0  0  0  0  0  0  0  0  0  0
   68.0938   46.4375   54.1989 C   0  0  0  0  0  0  0  0  0  0  0  0
   69.0554   47.3848   53.8572 C   0  0  0  0  0  0  0  0  0  0  0  0
   69.5157   47.9055   56.2506 C   0  0  0  0  0  0  0  0  0  0  0  0
   67.9769   51.1290   57.3023 C   0  0  0  0  0  0  0  0  0  0  0  0
   66.8014   50.7259   57.8982 C   0  0  0  0  0  0  0  0  0  0  0  0
   66.4535   49.3982   57.9840 C   0  0  0  0  0  0  0  0  0  0  0  0
   67.3341   48.4508   57.4444 C   0  0  0  0  0  0  0  0  0  0  0  0
   68.5106   48.8337   56.8471 C   0  0  0  0  0  0  0  0  0  0  0  0
   68.8333   50.1959   56.7773 C   0  0  0  0  0  0  0  0  0  0  0  0
   68.3276   52.4848   57.2155 O   0  0  0  0  0  0  0  0  0  0  0  0
   68.9305   52.7744   54.5788 N   0  0  0  0  0  0  0  0  0  0  0  0
   69.4116   53.0900   56.0491 S   0  0  0  0  0  0  0  0  0  0  0  0
 20 21  2  0
 21 19  1  0
 19 13  1  0
 13 14  2  0
 13 18  1  0
 14 15  1  0
 15 16  2  0
 16 17  1  0
 17 12  1  0
 17 18  2  0
 12  1  1  0
  1  2  2  0
  1 11  1  0
  2  3  1  0
  3  4  1  0
  4  5  2  0
  4  6  1  0
  6  7  1  0
  6 11  2  0
  7  8  2  0
  8  9  1  0
  9 10  2  0
 10 11  1  0
M  END
>  <minimizedAffinity>  (59) 
-9.09360

$$$$
cs_full_output_folder/data/smiles/6454.pdb
     RDKit          3D

 21 23  0  0  0  0  0  0  0  0999 V2000
   70.6207   48.4892   50.8107 O   0  0  0  0  0  0  0  0  0  0  0  0
   70.3423   48.3767   52.0443 C   0  0  0  0  0  0  0  0  0  0  0  0
   70.9708   49.0628   52.9934 N   0  0  0  0  0  0  0  0  0  0  0  0
   70.6587   48.9222   54.2595 N   0  0  0  0  0  0  0  0  0  0  0  0
   69.6989   48.0938   54.7077 C   0  0  0  0  0  0  0  0  0  0  0  0
   69.0281   47.3647   53.7345 C   0  0  0  0  0  0  0  0  0  0  0  0
   68.0408   46.5067   54.1615 C   0  0  0  0  0  0  0  0  0  0  0  0
   67.3626   45.7739   53.2047 C   0  0  0  0  0  0  0  0  0  0  0  0
   67.6774   45.9089   51.8723 C   0  0  0  0  0  0  0  0  0  0  0  0
   68.6638   46.7635   51.4259 C   0  0  0  0  0  0  0  0  0  0  0  0
   69.3411   47.4983   52.4027 C   0  0  0  0  0  0  0  0  0  0  0  0
   69.3641   47.9527   56.1519 C   0  0  0  0  0  0  0  0  0  0  0  0
   68.6584   49.1873   56.5568 C   0  0  0  0  0  0  0  0  0  0  0  0
   67.6279   49.0957   57.4637 C   0  0  0  0  0  0  0  0  0  0  0  0
   66.9292   50.2377   57.8786 C   0  0  0  0  0  0  0  0  0  0  0  0
   67.2996   51.4798   57.3501 C   0  0  0  0  0  0  0  0  0  0  0  0
   68.3304   51.5807   56.4419 C   0  0  0  0  0  0  0  0  0  0  0  0
   68.9794   50.4175   56.0734 C   0  0  0  0  0  0  0  0  0  0  0  0
   68.6646   52.8593   55.9397 N   0  0  0  0  0  0  0  0  0  0  0  0
   69.0716   53.7360   56.7219 O   0  0  0  0  0  0  0  0  0  0  0  0
   68.5627   53.1883   54.6143 O   0  0  0  0  0  0  0  0  0  0  0  0
  1  2  2  0
  2  3  1  0
  2 11  1  0
  3  4  1  0
  4  5  2  0
  5 12  1  0
  5  6  1  0
 12 13  1  0
 13 14  2  0
 13 18  1  0
 14 15  1  0
 15 16  2  0
 16 17  1  0
 17 19  1  0
 17 18  2  0
 19 20  2  0
 19 21  1  0
  6  7  1  0
  6 11  2  0
  7  8  2  0
  8  9  1  0
  9 10  2  0
 10 11  1  0
M  CHG  2  19   1  21  -1
M  END
>  <minimizedAffinity>  (60) 
-9.07546

$$$$
cs_full_output_folder/data/smiles/4706.pdb
     RDKit          3D

 23 25  0  0  0  0  0  0  0  0999 V2000
   67.9030   47.9304   56.7743 C   0  0  0  0  0  0  0  0  0  0  0  0
   66.7686   48.0261   57.5112 N   0  0  0  0  0  0  0  0  0  0  0  0
   66.4423   49.1722   58.1209 C   0  0  0  0  0  0  0  0  0  0  0  0
   67.2733   50.2994   58.0083 C   0  0  0  0  0  0  0  0  0  0  0  0
   68.4200   50.2067   57.2635 C   0  0  0  0  0  0  0  0  0  0  0  0
   68.6785   49.0220   56.6821 N   0  0  0  0  0  0  0  0  0  0  0  0
   69.3091   51.3524   57.1210 C   0  0  0  0  0  0  0  0  0  0  0  0
   68.8627   52.5026   56.4559 C   0  0  0  0  0  0  0  0  0  0  0  0
   69.6480   53.6201   56.2852 C   0  0  0  0  0  0  0  0  0  0  0  0
   70.9353   53.6516   56.7745 C   0  0  0  0  0  0  0  0  0  0  0  0
   71.3934   52.5319   57.4315 C   0  0  0  0  0  0  0  0  0  0  0  0
   70.5901   51.3944   57.6038 C   0  0  0  0  0  0  0  0  0  0  0  0
   68.2261   46.7298   56.1471 O   0  0  0  0  0  0  0  0  0  0  0  0
   69.4273   47.7440   52.7956 C   0  0  0  0  0  0  0  0  0  0  0  0
   68.7341   46.8783   51.9777 C   0  0  0  0  0  0  0  0  0  0  0  0
   67.8795   45.9737   52.5778 C   0  0  0  0  0  0  0  0  0  0  0  0
   67.2060   45.1274   51.7423 F   0  0  0  0  0  0  0  0  0  0  0  0
   67.7041   45.9151   53.9426 C   0  0  0  0  0  0  0  0  0  0  0  0
   68.3900   46.7749   54.7702 C   0  0  0  0  0  0  0  0  0  0  0  0
   69.2425   47.6770   54.1733 C   0  0  0  0  0  0  0  0  0  0  0  0
   70.1343   49.1167   51.0542 O   0  0  0  0  0  0  0  0  0  0  0  0
   70.3140   48.6869   52.2153 N   0  0  0  0  0  0  0  0  0  0  0  0
   71.3881   49.1394   52.9360 O   0  0  0  0  0  0  0  0  0  0  0  0
 21 22  2  0
 22 23  1  0
 22 14  1  0
 14 15  2  0
 14 20  1  0
 15 16  1  0
 16 17  1  0
 16 18  2  0
 18 19  1  0
 19 13  1  0
 19 20  2  0
 13  1  1  0
  1  2  2  0
  1  6  1  0
  2  3  1  0
  3  4  2  0
  4  5  1  0
  5  7  1  0
  5  6  2  0
  7  8  2  0
  7 12  1  0
  8  9  1  0
  9 10  2  0
 10 11  1  0
 11 12  2  0
M  CHG  2  22   1  23  -1
M  END
>  <minimizedAffinity>  (61) 
-9.87339

$$$$
cs_full_output_folder/data/smiles/681.pdb
     RDKit          3D

 24 27  0  0  0  0  0  0  0  0999 V2000
   69.8736   47.2312   50.9931 O   0  0  0  0  0  0  0  0  0  0  0  0
   69.7934   48.3008   51.6129 C   0  0  0  0  0  0  0  0  0  0  0  0
   70.0452   49.5190   51.1063 N   0  0  0  0  0  0  0  0  0  0  0  0
   69.8683   50.4546   52.0485 N   0  0  0  0  0  0  0  0  0  0  0  0
   69.5032   49.8361   53.1611 C   0  0  0  0  0  0  0  0  0  0  0  0
   69.4543   48.5013   52.8883 N   0  0  0  0  0  0  0  0  0  0  0  0
   69.0846   47.5194   53.8516 C   0  0  0  0  0  0  0  0  0  0  0  0
   68.5881   46.4139   53.2085 C   0  0  0  0  0  0  0  0  0  0  0  0
   68.1804   45.3001   53.9538 C   0  0  0  0  0  0  0  0  0  0  0  0
   68.2456   45.2470   55.3151 C   0  0  0  0  0  0  0  0  0  0  0  0
   68.7562   46.3955   55.9478 C   0  0  0  0  0  0  0  0  0  0  0  0
   69.1662   47.5084   55.2257 C   0  0  0  0  0  0  0  0  0  0  0  0
   69.6188   48.5732   56.1446 C   0  0  0  0  0  0  0  0  0  0  0  0
   70.1702   49.7810   55.5043 C   0  0  0  0  0  0  0  0  0  0  0  0
   69.2509   50.4789   54.5089 C   0  0  0  0  0  0  0  0  0  0  0  0
   67.8619   44.1901   56.0867 O   0  0  0  0  0  0  0  0  0  0  0  0
   67.6526   42.8627   55.8762 C   0  0  0  0  0  0  0  0  0  0  0  0
   68.3184   41.8937   56.7532 C   0  0  0  0  0  0  0  0  0  0  0  0
   69.5341   42.2517   57.3374 C   0  0  0  0  0  0  0  0  0  0  0  0
   70.2554   41.4234   58.1399 C   0  0  0  0  0  0  0  0  0  0  0  0
   69.7653   40.1664   58.3922 C   0  0  0  0  0  0  0  0  0  0  0  0
   68.5766   39.7685   57.8415 C   0  0  0  0  0  0  0  0  0  0  0  0
   68.1106   38.5317   58.0993 F   0  0  0  0  0  0  0  0  0  0  0  0
   67.8598   40.6386   57.0236 C   0  0  0  0  0  0  0  0  0  0  0  0
  1  2  2  0
  2  3  1  0
  2  6  1  0
  3  4  1  0
  4  5  2  0
  5  6  1  0
  5 15  1  0
  6  7  1  0
  7  8  2  0
  7 12  1  0
  8  9  1  0
  9 10  2  0
 10 16  1  0
 10 11  1  0
 16 17  1  0
 17 18  1  0
 18 19  2  0
 18 24  1  0
 19 20  1  0
 20 21  2  0
 21 22  1  0
 22 23  1  0
 22 24  2  0
 11 12  2  0
 12 13  1  0
 13 14  1  0
 14 15  1  0
M  END
>  <minimizedAffinity>  (62) 
-9.75663

$$$$
cs_full_output_folder/data/smiles/1392.pdb
     RDKit          3D

 26 28  0  0  0  0  0  0  0  0999 V2000
   70.7210   44.7128   57.9627 C   0  0  0  0  0  0  0  0  0  0  0  0
   71.3259   45.7715   58.5845 C   0  0  0  0  0  0  0  0  0  0  0  0
   70.8744   47.0832   58.3858 C   0  0  0  0  0  0  0  0  0  0  0  0
   69.8321   47.2716   57.5679 N   0  0  0  0  0  0  0  0  0  0  0  0
   69.2128   46.2435   56.9366 C   0  0  0  0  0  0  0  0  0  0  0  0
   69.6652   45.0050   57.1455 N   0  0  0  0  0  0  0  0  0  0  0  0
   71.9224   40.6558   58.4403 C   0  0  0  0  0  0  0  0  0  0  0  0
   70.6099   40.9891   58.3303 C   0  0  0  0  0  0  0  0  0  0  0  0
   70.2257   42.3273   58.1740 C   0  0  0  0  0  0  0  0  0  0  0  0
   71.1671   43.3337   58.1271 C   0  0  0  0  0  0  0  0  0  0  0  0
   72.4829   42.9769   58.2385 C   0  0  0  0  0  0  0  0  0  0  0  0
   72.8971   41.6751   58.3940 C   0  0  0  0  0  0  0  0  0  0  0  0
   72.3527   36.7922   58.6252 C   0  0  0  0  0  0  0  0  0  0  0  0
   71.7055   38.1271   58.4167 C   0  0  0  0  0  0  0  0  0  0  0  0
   70.5110   38.1509   58.0673 O   0  0  0  0  0  0  0  0  0  0  0  0
   72.3942   39.3395   58.6001 N   0  0  0  0  0  0  0  0  0  0  0  0
   68.1526   46.5507   56.0739 N   0  0  0  0  0  0  0  0  0  0  0  0
   68.3675   46.7203   54.6852 C   0  0  0  0  0  0  0  0  0  0  0  0
   67.7468   45.8179   53.8007 C   0  0  0  0  0  0  0  0  0  0  0  0
   67.9448   45.9116   52.4431 C   0  0  0  0  0  0  0  0  0  0  0  0
   68.7548   46.8866   51.9006 C   0  0  0  0  0  0  0  0  0  0  0  0
   69.3848   47.7914   52.7393 C   0  0  0  0  0  0  0  0  0  0  0  0
   69.1623   47.6679   54.1022 C   0  0  0  0  0  0  0  0  0  0  0  0
   70.2324   48.8023   52.1559 C   0  0  0  0  0  0  0  0  0  0  0  0
   69.7798   49.5663   51.0653 N   0  0  0  0  0  0  0  0  0  0  0  0
   71.3720   49.0032   52.6202 O   0  0  0  0  0  0  0  0  0  0  0  0
 13 14  1  0
 14 15  2  0
 14 16  1  0
 16  7  1  0
  7  8  2  0
  7 12  1  0
  8  9  1  0
  9 10  2  0
 10  1  1  0
 10 11  1  0
  1  2  2  0
  1  6  1  0
  2  3  1  0
  3  4  2  0
  4  5  1  0
  5 17  1  0
  5  6  2  0
 17 18  1  0
 18 19  2  0
 18 23  1  0
 19 20  1  0
 20 21  2  0
 21 22  1  0
 22 24  1  0
 22 23  2  0
 24 25  1  0
 24 26  2  0
 11 12  2  0
M  END
>  <minimizedAffinity>  (63) 
-9.75279

$$$$
cs_full_output_folder/data/smiles/3111.pdb
     RDKit          3D

 26 29  0  0  0  0  0  0  0  0999 V2000
   70.8076   46.3108   58.4327 C   0  0  0  0  0  0  0  0  0  0  0  0
   69.9278   46.8612   57.5138 C   0  0  0  0  0  0  0  0  0  0  0  0
   69.8506   48.2307   57.2690 C   0  0  0  0  0  0  0  0  0  0  0  0
   70.6819   49.0518   57.9727 C   0  0  0  0  0  0  0  0  0  0  0  0
   71.5926   48.5579   58.9149 C   0  0  0  0  0  0  0  0  0  0  0  0
   71.6153   47.1712   59.1103 C   0  0  0  0  0  0  0  0  0  0  0  0
   72.4700   46.7459   60.0860 F   0  0  0  0  0  0  0  0  0  0  0  0
   69.6591   44.3997   59.1767 O   0  0  0  0  0  0  0  0  0  0  0  0
   70.7459   44.8918   58.6442 C   0  0  0  0  0  0  0  0  0  0  0  0
   71.7378   43.9307   58.3396 N   0  0  0  0  0  0  0  0  0  0  0  0
   71.6707   42.5877   58.6045 C   0  0  0  0  0  0  0  0  0  0  0  0
   72.7571   41.9385   58.1189 C   0  0  0  0  0  0  0  0  0  0  0  0
   73.5554   42.8708   57.5237 C   0  0  0  0  0  0  0  0  0  0  0  0
   72.8862   44.0925   57.6821 C   0  0  0  0  0  0  0  0  0  0  0  0
   68.8492   48.6896   56.2840 C   0  0  0  0  0  0  0  0  0  0  0  0
   69.3245   48.6397   54.8769 C   0  0  0  0  0  0  0  0  0  0  0  0
   70.2136   49.5786   54.4472 N   0  0  0  0  0  0  0  0  0  0  0  0
   70.6197   49.5981   53.2104 N   0  0  0  0  0  0  0  0  0  0  0  0
   70.1916   48.7091   52.3063 C   0  0  0  0  0  0  0  0  0  0  0  0
   70.5960   48.7386   51.0958 O   0  0  0  0  0  0  0  0  0  0  0  0
   69.2829   47.7160   52.6644 C   0  0  0  0  0  0  0  0  0  0  0  0
   68.8545   46.7983   51.7342 C   0  0  0  0  0  0  0  0  0  0  0  0
   67.9644   45.8316   52.1499 C   0  0  0  0  0  0  0  0  0  0  0  0
   67.5262   45.7928   53.4544 C   0  0  0  0  0  0  0  0  0  0  0  0
   67.9575   46.7149   54.3859 C   0  0  0  0  0  0  0  0  0  0  0  0
   68.8597   47.7094   53.9926 C   0  0  0  0  0  0  0  0  0  0  0  0
  8  9  2  0
  9  1  1  0
  9 10  1  0
  1  2  2  0
  1  6  1  0
  2  3  1  0
  3 15  1  0
  3  4  2  0
 15 16  1  0
 16 17  2  0
 16 26  1  0
 17 18  1  0
 18 19  1  0
 19 20  2  0
 19 21  1  0
 21 22  1  0
 21 26  2  0
 22 23  2  0
 23 24  1  0
 24 25  2  0
 25 26  1  0
  4  5  1  0
  5  6  2  0
  6  7  1  0
 10 11  1  0
 10 14  1  0
 11 12  2  0
 12 13  1  0
 13 14  2  0
M  END
>  <minimizedAffinity>  (64) 
-9.67563

$$$$
cs_full_output_folder/data/smiles/1249.pdb
     RDKit          3D

 24 26  0  0  0  0  0  0  0  0999 V2000
   68.6934   45.8083   56.8776 O   0  0  0  0  0  0  0  0  0  0  0  0
   69.0816   46.8164   56.2294 C   0  0  0  0  0  0  0  0  0  0  0  0
   68.8631   46.8487   54.8001 C   0  0  0  0  0  0  0  0  0  0  0  0
   68.0160   45.9378   54.1756 C   0  0  0  0  0  0  0  0  0  0  0  0
   67.7939   45.9486   52.8327 C   0  0  0  0  0  0  0  0  0  0  0  0
   66.9381   45.0216   52.2340 O   0  0  0  0  0  0  0  0  0  0  0  0
   68.4384   46.9049   52.0676 C   0  0  0  0  0  0  0  0  0  0  0  0
   68.2037   46.9053   50.7010 O   0  0  0  0  0  0  0  0  0  0  0  0
   69.2963   47.8430   52.6282 C   0  0  0  0  0  0  0  0  0  0  0  0
   69.4779   47.7778   53.9968 C   0  0  0  0  0  0  0  0  0  0  0  0
   69.9112   48.7785   51.7945 N   0  0  0  0  0  0  0  0  0  0  0  0
   70.6494   48.4037   50.8721 O   0  0  0  0  0  0  0  0  0  0  0  0
   69.7165   50.1195   51.9745 O   0  0  0  0  0  0  0  0  0  0  0  0
   69.7598   47.9591   56.9432 C   0  0  0  0  0  0  0  0  0  0  0  0
   68.8830   49.1093   57.0594 C   0  0  0  0  0  0  0  0  0  0  0  0
   67.6707   48.9858   57.7077 C   0  0  0  0  0  0  0  0  0  0  0  0
   66.7721   50.0174   57.8665 C   0  0  0  0  0  0  0  0  0  0  0  0
   67.0811   51.2588   57.3560 C   0  0  0  0  0  0  0  0  0  0  0  0
   68.2923   51.4183   56.6971 C   0  0  0  0  0  0  0  0  0  0  0  0
   68.6678   52.6376   56.1595 C   0  0  0  0  0  0  0  0  0  0  0  0
   69.8628   52.8305   55.5003 C   0  0  0  0  0  0  0  0  0  0  0  0
   70.7202   51.7598   55.3731 C   0  0  0  0  0  0  0  0  0  0  0  0
   70.3778   50.5168   55.9012 C   0  0  0  0  0  0  0  0  0  0  0  0
   69.1831   50.3687   56.5473 C   0  0  0  0  0  0  0  0  0  0  0  0
  1  2  2  0
  2 14  1  0
  2  3  1  0
 14 15  1  0
 15 16  2  0
 15 24  1  0
 16 17  1  0
 17 18  2  0
 18 19  1  0
 19 20  1  0
 19 24  2  0
 20 21  2  0
 21 22  1  0
 22 23  2  0
 23 24  1  0
  3  4  2  0
  3 10  1  0
  4  5  1  0
  5  6  1  0
  5  7  2  0
  7  8  1  0
  7  9  1  0
  9 11  1  0
  9 10  2  0
 11 12  2  0
 11 13  1  0
M  CHG  2  11   1  13  -1
M  END
>  <minimizedAffinity>  (65) 
-9.64426

$$$$
cs_full_output_folder/data/smiles/2363.pdb
     RDKit          3D

 25 27  0  0  0  0  0  0  0  0999 V2000
   73.2588   50.4529   53.9274 O   0  0  0  0  0  0  0  0  0  0  0  0
   72.6613   50.8737   55.0133 C   0  0  0  0  0  0  0  0  0  0  0  0
   73.5398   51.2742   56.0366 N   0  0  0  0  0  0  0  0  0  0  0  0
   74.9518   51.2282   55.8729 N   0  0  0  0  0  0  0  0  0  0  0  0
   75.6753   50.0264   56.0874 C   0  0  0  0  0  0  0  0  0  0  0  0
   75.0755   48.9694   56.4497 O   0  0  0  0  0  0  0  0  0  0  0  0
   77.1323   49.9579   55.8999 C   0  0  0  0  0  0  0  0  0  0  0  0
   77.9590   50.8594   56.5815 C   0  0  0  0  0  0  0  0  0  0  0  0
   79.3428   50.8108   56.5032 C   0  0  0  0  0  0  0  0  0  0  0  0
   79.9477   49.8466   55.7311 C   0  0  0  0  0  0  0  0  0  0  0  0
   81.2908   49.7471   55.6047 F   0  0  0  0  0  0  0  0  0  0  0  0
   79.1452   48.9417   55.0470 C   0  0  0  0  0  0  0  0  0  0  0  0
   77.7571   49.0007   55.1327 C   0  0  0  0  0  0  0  0  0  0  0  0
   71.2068   50.8649   55.0193 C   0  0  0  0  0  0  0  0  0  0  0  0
   70.5268   49.7871   54.2944 C   0  0  0  0  0  0  0  0  0  0  0  0
   69.7299   48.8574   54.8383 N   0  0  0  0  0  0  0  0  0  0  0  0
   69.1723   47.8682   54.0913 C   0  0  0  0  0  0  0  0  0  0  0  0
   68.3560   46.9196   54.6343 C   0  0  0  0  0  0  0  0  0  0  0  0
   67.7822   45.9030   53.8731 C   0  0  0  0  0  0  0  0  0  0  0  0
   68.0239   45.8173   52.5270 C   0  0  0  0  0  0  0  0  0  0  0  0
   68.8521   46.7826   51.9685 C   0  0  0  0  0  0  0  0  0  0  0  0
   69.4188   47.7961   52.7311 C   0  0  0  0  0  0  0  0  0  0  0  0
   70.2448   48.7643   52.1861 C   0  0  0  0  0  0  0  0  0  0  0  0
   70.4549   48.6897   50.9610 O   0  0  0  0  0  0  0  0  0  0  0  0
   70.7616   49.7068   52.9687 N   0  0  0  0  0  0  0  0  0  0  0  0
  1  2  2  0
  2 14  1  0
  2  3  1  0
 14 15  1  0
 15 16  2  0
 15 25  1  0
 16 17  1  0
 17 18  2  0
 17 22  1  0
 18 19  1  0
 19 20  2  0
 20 21  1  0
 21 22  2  0
 22 23  1  0
 23 24  2  0
 23 25  1  0
  3  4  1  0
  4  5  1  0
  5  6  2  0
  5  7  1  0
  7  8  2  0
  7 13  1  0
  8  9  1  0
  9 10  2  0
 10 11  1  0
 10 12  1  0
 12 13  2  0
M  END
>  <minimizedAffinity>  (66) 
-9.62845

$$$$
cs_full_output_folder/data/smiles/907.pdb
     RDKit          3D

 24 26  0  0  0  0  0  0  0  0999 V2000
   68.7272   45.5373   56.7603 O   0  0  0  0  0  0  0  0  0  0  0  0
   69.0435   46.6626   56.1969 C   0  0  0  0  0  0  0  0  0  0  0  0
   68.7839   46.6998   54.7830 C   0  0  0  0  0  0  0  0  0  0  0  0
   67.9037   45.8108   54.1657 C   0  0  0  0  0  0  0  0  0  0  0  0
   67.7690   45.8777   52.8025 C   0  0  0  0  0  0  0  0  0  0  0  0
   66.8712   44.9799   52.2183 O   0  0  0  0  0  0  0  0  0  0  0  0
   68.4677   46.7797   52.0312 C   0  0  0  0  0  0  0  0  0  0  0  0
   68.3097   46.8188   50.6547 O   0  0  0  0  0  0  0  0  0  0  0  0
   69.3567   47.6782   52.6262 C   0  0  0  0  0  0  0  0  0  0  0  0
   69.4946   47.6219   53.9870 C   0  0  0  0  0  0  0  0  0  0  0  0
   70.1132   48.5931   51.8621 N   0  0  2  0  0  0  0  0  0  0  0  0
   71.2746   48.9306   52.4224 O   0  0  0  0  0  0  0  0  0  0  0  0
   69.4255   49.6662   51.4981 F   0  0  0  0  0  0  0  0  0  0  0  0
   69.6024   47.7267   57.0555 C   0  0  0  0  0  0  0  0  0  0  0  0
   68.7735   48.9057   57.0269 C   0  0  0  0  0  0  0  0  0  0  0  0
   67.5702   48.8493   57.7549 C   0  0  0  0  0  0  0  0  0  0  0  0
   66.7655   49.9638   57.8886 C   0  0  0  0  0  0  0  0  0  0  0  0
   67.1021   51.1804   57.3134 C   0  0  0  0  0  0  0  0  0  0  0  0
   68.2619   51.2475   56.6034 C   0  0  0  0  0  0  0  0  0  0  0  0
   68.5491   52.4620   56.0031 C   0  0  0  0  0  0  0  0  0  0  0  0
   69.6903   52.5435   55.2438 C   0  0  0  0  0  0  0  0  0  0  0  0
   70.5230   51.4552   55.0842 C   0  0  0  0  0  0  0  0  0  0  0  0
   70.1979   50.2465   55.7089 C   0  0  0  0  0  0  0  0  0  0  0  0
   69.0616   50.1404   56.4718 C   0  0  0  0  0  0  0  0  0  0  0  0
  1  2  2  0
  2 14  1  0
  2  3  1  0
 14 15  1  0
 15 16  2  0
 15 24  1  0
 16 17  1  0
 17 18  2  0
 18 19  1  0
 19 20  1  0
 19 24  2  0
 20 21  2  0
 21 22  1  0
 22 23  2  0
 23 24  1  0
  3  4  2  0
  3 10  1  0
  4  5  1  0
  5  6  1  0
  5  7  2  0
  7  8  1  0
  7  9  1  0
  9 11  1  0
  9 10  2  0
 11 12  1  1
 11 13  1  0
M  CHG  2  11   1  12  -1
M  END
>  <minimizedAffinity>  (67) 
-9.62426

$$$$
cs_full_output_folder/data/smiles/183.pdb
     RDKit          3D

 24 26  0  0  0  0  0  0  0  0999 V2000
   69.9488   47.6262   57.5281 O   0  0  0  0  0  0  0  0  0  0  0  0
   69.9964   46.3826   57.6067 C   0  0  0  0  0  0  0  0  0  0  0  0
   69.0118   45.7537   56.7420 N   0  0  0  0  0  0  0  0  0  0  0  0
   70.8754   45.6106   58.4184 C   0  0  0  0  0  0  0  0  0  0  0  0
   70.9559   46.0811   59.6418 O   0  0  0  0  0  0  0  0  0  0  0  0
   71.6791   44.4499   58.2035 C   0  0  0  0  0  0  0  0  0  0  0  0
   71.1408   43.2287   57.7329 C   0  0  0  0  0  0  0  0  0  0  0  0
   72.1221   42.3361   57.5569 N   0  0  0  0  0  0  0  0  0  0  0  0
   73.3091   42.8674   57.8784 C   0  0  0  0  0  0  0  0  0  0  0  0
   74.5751   42.3311   57.8691 C   0  0  0  0  0  0  0  0  0  0  0  0
   75.6459   43.0984   58.2730 C   0  0  0  0  0  0  0  0  0  0  0  0
   75.3844   44.3959   58.6739 C   0  0  0  0  0  0  0  0  0  0  0  0
   74.0877   44.9159   58.6731 C   0  0  0  0  0  0  0  0  0  0  0  0
   73.0245   44.1720   58.2773 C   0  0  0  0  0  0  0  0  0  0  0  0
   68.1531   46.4960   55.9360 N   0  0  0  0  0  0  0  0  0  0  0  0
   68.3463   46.6632   54.5374 C   0  0  0  0  0  0  0  0  0  0  0  0
   67.7125   45.8322   53.6300 C   0  0  0  0  0  0  0  0  0  0  0  0
   67.8839   45.9359   52.2739 C   0  0  0  0  0  0  0  0  0  0  0  0
   68.7316   46.9133   51.7527 C   0  0  0  0  0  0  0  0  0  0  0  0
   69.3695   47.7507   52.6710 C   0  0  0  0  0  0  0  0  0  0  0  0
   69.1812   47.6285   54.0249 C   0  0  0  0  0  0  0  0  0  0  0  0
   70.2477   48.7633   52.1561 N   0  0  0  0  0  0  0  0  0  0  0  0
   70.0426   49.3272   51.0763 O   0  0  0  0  0  0  0  0  0  0  0  0
   71.3476   49.0921   52.9079 O   0  0  0  0  0  0  0  0  0  0  0  0
  1  2  2  0
  2  3  1  0
  2  4  1  0
  3 15  1  0
 15 16  1  0
 16 17  2  0
 16 21  1  0
 17 18  1  0
 18 19  2  0
 19 20  1  0
 20 22  1  0
 20 21  2  0
 22 23  2  0
 22 24  1  0
  4  5  2  0
  4  6  1  0
  6  7  2  0
  6 14  1  0
  7  8  1  0
  8  9  1  0
  9 10  1  0
  9 14  2  0
 10 11  2  0
 11 12  1  0
 12 13  2  0
 13 14  1  0
M  CHG  2  22   1  24  -1
M  END
>  <minimizedAffinity>  (68) 
-9.61779

$$$$
cs_full_output_folder/data/smiles/1674.pdb
     RDKit          3D

 24 26  0  0  0  0  0  0  0  0999 V2000
   68.2743   45.5705   55.8834 N   0  0  0  0  0  0  0  0  0  0  0  0
   69.1239   47.6385   52.9224 C   0  0  0  0  0  0  0  0  0  0  0  0
   68.5103   46.9134   51.8961 C   0  0  0  0  0  0  0  0  0  0  0  0
   67.8151   45.7584   52.1752 C   0  0  0  0  0  0  0  0  0  0  0  0
   67.7263   45.3117   53.5009 C   0  0  0  0  0  0  0  0  0  0  0  0
   68.3110   45.9863   54.5354 C   0  0  0  0  0  0  0  0  0  0  0  0
   69.0014   47.1515   54.1910 C   0  0  0  0  0  0  0  0  0  0  0  0
   69.9877   49.0843   52.4971 S   0  0  0  0  0  0  0  0  0  0  0  0
   69.9754   49.3510   51.0046 O   0  0  0  0  0  0  0  0  0  0  0  0
   71.4235   49.0514   52.9270 O   0  0  0  0  0  0  0  0  0  0  0  0
   70.1895   51.1304   54.1390 C   0  0  0  0  0  0  0  0  0  0  0  0
   69.2363   50.4902   53.2152 N   0  0  0  0  0  0  0  0  0  0  0  0
   68.5227   44.2313   56.2759 C   0  0  0  0  0  0  0  0  0  0  0  0
   67.4872   43.3388   56.1250 N   0  0  0  0  0  0  0  0  0  0  0  0
   67.6005   42.0539   56.4829 C   0  0  0  0  0  0  0  0  0  0  0  0
   68.8044   41.6002   57.0282 C   0  0  0  0  0  0  0  0  0  0  0  0
   69.8535   42.4748   57.1893 C   0  0  0  0  0  0  0  0  0  0  0  0
   69.6218   43.7380   56.7934 N   0  0  0  0  0  0  0  0  0  0  0  0
   71.1320   42.0683   57.7584 C   0  0  0  0  0  0  0  0  0  0  0  0
   72.2664   42.8274   57.6749 C   0  0  0  0  0  0  0  0  0  0  0  0
   73.4714   42.3839   58.2381 C   0  0  0  0  0  0  0  0  0  0  0  0
   73.5559   41.1766   58.8906 C   0  0  0  0  0  0  0  0  0  0  0  0
   72.4231   40.3997   58.9840 C   0  0  0  0  0  0  0  0  0  0  0  0
   71.2466   40.8480   58.4263 C   0  0  0  0  0  0  0  0  0  0  0  0
 11 12  1  0
 12  8  1  0
  8  9  2  0
  8 10  2  0
  8  2  1  0
  2  3  2  0
  2  7  1  0
  3  4  1  0
  4  5  2  0
  5  6  1  0
  6  1  1  0
  6  7  2  0
  1 13  1  0
 13 14  2  0
 13 18  1  0
 14 15  1  0
 15 16  2  0
 16 17  1  0
 17 19  1  0
 17 18  2  0
 19 20  2  0
 19 24  1  0
 20 21  1  0
 21 22  2  0
 22 23  1  0
 23 24  2  0
M  END
>  <minimizedAffinity>  (69) 
-9.53683

$$$$
cs_full_output_folder/data/smiles/1878.pdb
     RDKit          3D

 26 29  0  0  0  0  0  0  0  0999 V2000
   70.4472   45.5196   58.0967 C   0  0  0  0  0  0  0  0  0  0  0  0
   71.2707   46.4219   58.5425 C   0  0  0  0  0  0  0  0  0  0  0  0
   70.8617   47.7620   57.9884 C   0  0  0  0  0  0  0  0  0  0  0  0
   69.6875   47.4327   57.1778 C   0  0  0  0  0  0  0  0  0  0  0  0
   69.4906   46.1705   57.2652 N   0  0  0  0  0  0  0  0  0  0  0  0
   68.8666   43.6770   56.6701 O   0  0  0  0  0  0  0  0  0  0  0  0
   69.5969   43.2015   57.5948 C   0  0  0  0  0  0  0  0  0  0  0  0
   70.3969   44.0952   58.3239 N   0  0  0  0  0  0  0  0  0  0  0  0
   69.5451   41.7644   57.8247 C   0  0  0  0  0  0  0  0  0  0  0  0
   68.4021   41.0545   57.5333 C   0  0  0  0  0  0  0  0  0  0  0  0
   68.3094   39.6827   57.7377 C   0  0  0  0  0  0  0  0  0  0  0  0
   69.3729   38.9798   58.2462 C   0  0  0  0  0  0  0  0  0  0  0  0
   70.5198   39.6710   58.5423 C   0  0  0  0  0  0  0  0  0  0  0  0
   70.6025   41.0541   58.3318 C   0  0  0  0  0  0  0  0  0  0  0  0
   68.8389   48.3586   56.3644 C   0  0  0  0  0  0  0  0  0  0  0  0
   69.2722   48.4440   54.9509 C   0  0  0  0  0  0  0  0  0  0  0  0
   70.0802   49.4443   54.5608 N   0  0  0  0  0  0  0  0  0  0  0  0
   70.5189   49.5996   53.3313 N   0  0  0  0  0  0  0  0  0  0  0  0
   70.1716   48.7398   52.3637 C   0  0  0  0  0  0  0  0  0  0  0  0
   70.5794   48.8772   51.2004 O   0  0  0  0  0  0  0  0  0  0  0  0
   69.3441   47.6873   52.6925 C   0  0  0  0  0  0  0  0  0  0  0  0
   68.8842   47.5282   53.9932 C   0  0  0  0  0  0  0  0  0  0  0  0
   67.9978   46.4113   54.3599 C   0  0  0  0  0  0  0  0  0  0  0  0
   67.8005   45.4440   53.2335 C   0  0  0  0  0  0  0  0  0  0  0  0
   67.6026   46.2091   51.9185 C   0  0  0  0  0  0  0  0  0  0  0  0
   68.9838   46.7502   51.5847 C   0  0  0  0  0  0  0  0  0  0  0  0
  6  7  2  0
  7  8  1  0
  7  9  1  0
  8  1  1  0
  1  2  2  0
  1  5  1  0
  2  3  1  0
  3  4  1  0
  4 15  1  0
  4  5  2  0
 15 16  1  0
 16 17  2  0
 16 22  1  0
 17 18  1  0
 18 19  1  0
 19 20  2  0
 19 21  1  0
 21 22  2  0
 21 26  1  0
 22 23  1  0
 23 24  1  0
 24 25  1  0
 25 26  1  0
  9 10  2  0
  9 14  1  0
 10 11  1  0
 11 12  2  0
 12 13  1  0
 13 14  2  0
M  END
>  <minimizedAffinity>  (70) 
-9.53539

$$$$
cs_full_output_folder/data/smiles/5961.pdb
     RDKit          3D

 25 27  0  0  0  0  0  0  0  0999 V2000
   72.5349   50.4973   55.7192 C   0  0  0  0  0  0  0  0  0  0  0  0
   73.7102   51.1409   55.0725 C   0  0  2  0  0  0  0  0  0  0  0  0
   73.8170   50.6332   53.7159 N   0  0  0  0  0  0  0  0  0  0  0  0
   75.8748   49.9791   55.5054 C   0  0  0  0  0  0  0  0  0  0  0  0
   75.5891   49.2039   54.5538 O   0  0  0  0  0  0  0  0  0  0  0  0
   74.9425   50.9876   55.8078 N   0  0  0  0  0  0  0  0  0  0  0  0
   80.5580   49.4498   58.5738 N   0  0  0  0  0  0  0  0  0  0  0  0
   79.3908   49.5813   57.8043 C   0  0  0  0  0  0  0  0  0  0  0  0
   79.4415   49.3507   56.4421 C   0  0  0  0  0  0  0  0  0  0  0  0
   78.3122   49.4729   55.6655 C   0  0  0  0  0  0  0  0  0  0  0  0
   77.1275   49.8262   56.2567 C   0  0  0  0  0  0  0  0  0  0  0  0
   77.0982   50.0529   57.6277 C   0  0  0  0  0  0  0  0  0  0  0  0
   78.2059   49.9409   58.4332 C   0  0  0  0  0  0  0  0  0  0  0  0
   71.2397   50.9953   55.0768 C   0  0  0  0  0  0  0  0  0  0  0  0
   70.5943   49.8903   54.3005 C   0  0  0  0  0  0  0  0  0  0  0  0
   69.8082   48.9705   54.8943 N   0  0  0  0  0  0  0  0  0  0  0  0
   69.2229   47.9756   54.2149 C   0  0  0  0  0  0  0  0  0  0  0  0
   68.4175   47.0319   54.8191 C   0  0  0  0  0  0  0  0  0  0  0  0
   67.8128   46.0039   54.1154 C   0  0  0  0  0  0  0  0  0  0  0  0
   68.0058   45.8933   52.7569 C   0  0  0  0  0  0  0  0  0  0  0  0
   68.8075   46.8267   52.1349 C   0  0  0  0  0  0  0  0  0  0  0  0
   69.4137   47.8603   52.8526 C   0  0  0  0  0  0  0  0  0  0  0  0
   70.2178   48.7996   52.2392 C   0  0  0  0  0  0  0  0  0  0  0  0
   70.4078   48.7189   51.0014 O   0  0  0  0  0  0  0  0  0  0  0  0
   70.7856   49.7847   52.9709 N   0  0  0  0  0  0  0  0  0  0  0  0
  7  8  1  0
  8  9  2  0
  8 13  1  0
  9 10  1  0
 10 11  2  0
 11  4  1  0
 11 12  1  0
  4  5  2  0
  4  6  1  0
  6  2  1  0
  2  3  1  6
  2  1  1  0
  1 14  1  0
 14 15  1  0
 15 16  2  0
 15 25  1  0
 16 17  1  0
 17 18  2  0
 17 22  1  0
 18 19  1  0
 19 20  2  0
 20 21  1  0
 21 22  2  0
 22 23  1  0
 23 24  2  0
 23 25  1  0
 12 13  2  0
M  CHG  1   3   1
M  END
>  <minimizedAffinity>  (71) 
-9.48303

$$$$
cs_full_output_folder/data/smiles/466.pdb
     RDKit          3D

 26 29  0  0  0  0  0  0  0  0999 V2000
   69.2451   47.6632   56.1304 N   0  0  0  0  0  0  0  0  0  0  0  0
   69.6740   48.6410   55.2973 C   0  0  0  0  0  0  0  0  0  0  0  0
   69.4915   48.5680   53.9218 C   0  0  0  0  0  0  0  0  0  0  0  0
   68.8586   47.4883   53.3326 C   0  0  0  0  0  0  0  0  0  0  0  0
   68.6654   47.3925   51.9622 C   0  0  0  0  0  0  0  0  0  0  0  0
   68.0319   46.3106   51.3849 C   0  0  0  0  0  0  0  0  0  0  0  0
   67.5934   45.3157   52.2338 C   0  0  0  0  0  0  0  0  0  0  0  0
   67.7872   45.4116   53.5965 C   0  0  0  0  0  0  0  0  0  0  0  0
   68.4220   46.4981   54.1751 C   0  0  0  0  0  0  0  0  0  0  0  0
   68.6204   46.6061   55.5266 C   0  0  0  0  0  0  0  0  0  0  0  0
   68.1921   45.6576   56.2742 O   0  0  0  0  0  0  0  0  0  0  0  0
   70.0403   49.7525   53.2776 C   0  0  0  0  0  0  0  0  0  0  0  0
   70.0732   50.0596   52.0588 O   0  0  0  0  0  0  0  0  0  0  0  0
   70.5840   50.5851   54.3392 C   0  0  0  0  0  0  0  0  0  0  0  0
   71.2199   51.8235   54.3249 C   0  0  0  0  0  0  0  0  0  0  0  0
   71.6422   52.4152   55.4854 C   0  0  0  0  0  0  0  0  0  0  0  0
   71.4107   51.7364   56.6507 C   0  0  0  0  0  0  0  0  0  0  0  0
   70.7772   50.4946   56.7064 C   0  0  0  0  0  0  0  0  0  0  0  0
   70.3557   49.9047   55.5419 C   0  0  0  0  0  0  0  0  0  0  0  0
   69.4069   47.6607   57.5488 C   0  0  0  0  0  0  0  0  0  0  0  0
   70.4361   46.7658   58.1216 C   0  0  2  0  0  0  0  0  0  0  0  0
   69.9992   45.7178   58.9128 O   0  0  0  0  0  0  0  0  0  0  0  0
   71.5418   47.4384   58.9034 C   0  0  0  0  0  0  0  0  0  0  0  0
   73.0179   47.9106   62.0208 N   0  0  0  0  0  0  0  0  0  0  0  0
   72.2342   47.7052   61.0701 N   0  0  0  0  0  0  0  0  0  0  0  0
   71.4931   47.0550   60.3016 N   0  0  0  0  0  0  0  0  0  0  0  0
 24 25  2  0
 25 26  2  0
 26 23  1  0
 23 21  1  0
 21 22  1  1
 21 20  1  0
 20  1  1  0
  1  2  1  0
  1 10  1  0
  2  3  2  0
  2 19  1  0
  3  4  1  0
  3 12  1  0
  4  5  1  0
  4  9  2  0
  5  6  2  0
  6  7  1  0
  7  8  2  0
  8  9  1  0
  9 10  1  0
 10 11  2  0
 12 13  2  0
 12 14  1  0
 14 15  1  0
 14 19  2  0
 15 16  2  0
 16 17  1  0
 17 18  2  0
 18 19  1  0
M  CHG  2  24  -1  25   1
M  END
>  <minimizedAffinity>  (72) 
-9.42010

$$$$
cs_full_output_folder/data/smiles/2827.pdb
     RDKit          3D

 23 26  0  0  0  0  0  0  0  0999 V2000
   69.9664   49.5163   53.5168 C   0  0  0  0  0  0  0  0  0  0  0  0
   70.0376   50.0532   52.2742 N   0  0  0  0  0  0  0  0  0  0  0  0
   69.5405   49.1774   51.4313 N   0  0  0  0  0  0  0  0  0  0  0  0
   69.1355   48.0629   52.0760 C   0  0  0  0  0  0  0  0  0  0  0  0
   68.5575   46.8885   51.6117 C   0  0  0  0  0  0  0  0  0  0  0  0
   68.2435   45.9013   52.5213 C   0  0  0  0  0  0  0  0  0  0  0  0
   68.4912   46.0535   53.8792 C   0  0  0  0  0  0  0  0  0  0  0  0
   69.0646   47.2359   54.2805 C   0  0  0  0  0  0  0  0  0  0  0  0
   69.3976   48.2554   53.4172 C   0  0  0  0  0  0  0  0  0  0  0  0
   68.1427   44.9811   54.8009 C   0  0  0  0  0  0  0  0  0  0  0  0
   68.5803   44.7771   56.0524 N   0  0  0  0  0  0  0  0  0  0  0  0
   68.0137   43.6721   56.5625 N   0  0  0  0  0  0  0  0  0  0  0  0
   67.2220   43.1825   55.6323 N   0  0  0  0  0  0  0  0  0  0  0  0
   67.2925   43.9694   54.5573 N   0  0  0  0  0  0  0  0  0  0  0  0
   70.4104   50.1499   54.7547 C   0  0  0  0  0  0  0  0  0  0  0  0
   70.1078   49.4490   56.0306 C   0  0  0  0  0  0  0  0  0  0  0  0
   68.4228   47.4867   57.4935 N   0  0  0  0  0  0  0  0  0  0  0  0
   68.0672   48.8525   57.3562 C   0  0  0  0  0  0  0  0  0  0  0  0
   66.8655   49.2300   57.9552 C   0  0  0  0  0  0  0  0  0  0  0  0
   66.4165   50.5286   57.8674 C   0  0  0  0  0  0  0  0  0  0  0  0
   67.1724   51.4413   57.1818 C   0  0  0  0  0  0  0  0  0  0  0  0
   68.3422   51.0605   56.6017 C   0  0  0  0  0  0  0  0  0  0  0  0
   68.8352   49.7515   56.6667 C   0  0  0  0  0  0  0  0  0  0  0  0
 17 18  1  0
 18 19  2  0
 18 23  1  0
 19 20  1  0
 20 21  2  0
 21 22  1  0
 22 23  2  0
 23 16  1  0
 16 15  1  0
 15  1  1  0
  1  2  2  0
  1  9  1  0
  2  3  1  0
  3  4  1  0
  4  5  1  0
  4  9  2  0
  5  6  2  0
  6  7  1  0
  7 10  1  0
  7  8  2  0
 10 11  2  0
 10 14  1  0
 11 12  1  0
 12 13  2  0
 13 14  1  0
  8  9  1  0
M  END
>  <minimizedAffinity>  (73) 
-9.41939

$$$$
cs_full_output_folder/data/smiles/3698.pdb
     RDKit          3D

 25 28  0  0  0  0  0  0  0  0999 V2000
   70.0402   50.9039   54.3642 C   0  0  0  0  0  0  0  0  0  0  0  0
   68.7533   51.4266   54.5658 C   0  0  0  0  0  0  0  0  0  0  0  0
   68.5586   52.5628   55.3122 C   0  0  0  0  0  0  0  0  0  0  0  0
   69.6300   53.2208   55.8858 C   0  0  0  0  0  0  0  0  0  0  0  0
   69.4779   54.3417   56.6295 F   0  0  0  0  0  0  0  0  0  0  0  0
   70.9091   52.7402   55.7130 C   0  0  0  0  0  0  0  0  0  0  0  0
   71.0741   51.5785   54.9440 C   0  0  0  0  0  0  0  0  0  0  0  0
   72.0487   53.4198   56.3090 C   0  0  0  0  0  0  0  0  0  0  0  0
   72.8793   54.1958   55.5317 C   0  0  0  0  0  0  0  0  0  0  0  0
   73.9712   54.8437   56.1202 C   0  0  0  0  0  0  0  0  0  0  0  0
   74.2262   54.7233   57.4364 N   0  0  0  0  0  0  0  0  0  0  0  0
   73.4289   53.9688   58.2225 C   0  0  0  0  0  0  0  0  0  0  0  0
   72.3492   53.3252   57.6486 C   0  0  0  0  0  0  0  0  0  0  0  0
   70.2101   49.7068   53.5368 C   0  0  0  0  0  0  0  0  0  0  0  0
   68.2064   45.2817   56.1252 O   0  0  0  0  0  0  0  0  0  0  0  0
   68.6258   46.2677   55.4699 C   0  0  0  0  0  0  0  0  0  0  0  0
   69.2632   47.2572   56.1257 N   0  0  0  0  0  0  0  0  0  0  0  0
   69.7313   48.3187   55.5140 N   0  0  0  0  0  0  0  0  0  0  0  0
   69.6088   48.5033   54.1579 C   0  0  0  0  0  0  0  0  0  0  0  0
   68.9606   47.5031   53.4747 C   0  0  0  0  0  0  0  0  0  0  0  0
   68.7731   47.6054   52.1256 C   0  0  0  0  0  0  0  0  0  0  0  0
   68.1043   46.5979   51.4266 C   0  0  0  0  0  0  0  0  0  0  0  0
   67.6097   45.4762   52.0625 C   0  0  0  0  0  0  0  0  0  0  0  0
   67.7907   45.3635   53.4214 C   0  0  0  0  0  0  0  0  0  0  0  0
   68.4523   46.3610   54.1039 C   0  0  0  0  0  0  0  0  0  0  0  0
 15 16  2  0
 16 17  1  0
 16 25  1  0
 17 18  1  0
 18 19  2  0
 19 14  1  0
 19 20  1  0
 14  1  1  0
  1  2  2  0
  1  7  1  0
  2  3  1  0
  3  4  2  0
  4  5  1  0
  4  6  1  0
  6  8  1  0
  6  7  2  0
  8  9  2  0
  8 13  1  0
  9 10  1  0
 10 11  2  0
 11 12  1  0
 12 13  2  0
 20 21  1  0
 20 25  2  0
 21 22  2  0
 22 23  1  0
 23 24  2  0
 24 25  1  0
M  END
>  <minimizedAffinity>  (74) 
-9.40024

$$$$
cs_full_output_folder/data/smiles/4827.pdb
     RDKit          3D

 29 32  0  0  0  0  0  0  0  0999 V2000
   70.6558   46.1812   58.4130 C   0  0  0  0  0  0  0  0  0  0  0  0
   69.8083   46.7248   57.4524 C   0  0  0  0  0  0  0  0  0  0  0  0
   69.7698   48.0623   57.2023 C   0  0  0  0  0  0  0  0  0  0  0  0
   70.6030   48.9218   57.9275 C   0  0  0  0  0  0  0  0  0  0  0  0
   71.4414   48.4174   58.8725 C   0  0  0  0  0  0  0  0  0  0  0  0
   71.4586   47.0469   59.1056 C   0  0  0  0  0  0  0  0  0  0  0  0
   72.3237   46.6175   60.0652 F   0  0  0  0  0  0  0  0  0  0  0  0
   70.7122   44.7728   58.6925 C   0  0  0  0  0  0  0  0  0  0  0  0
   70.5512   44.3659   59.8951 O   0  0  0  0  0  0  0  0  0  0  0  0
   70.9268   43.7651   57.7715 O   0  0  0  0  0  0  0  0  0  0  0  0
   70.2709   42.4903   57.8906 C   0  0  0  0  0  0  0  0  0  0  0  0
   68.1790   40.2057   57.3805 C   0  0  0  0  0  0  0  0  0  0  0  0
   68.0955   41.5895   56.8125 C   0  0  0  0  0  0  0  0  0  0  0  0
   67.1175   42.0948   55.9895 C   0  0  0  0  0  0  0  0  0  0  0  0
   67.4581   43.3652   55.7415 N   0  0  0  0  0  0  0  0  0  0  0  0
   68.5890   43.6425   56.3735 N   0  0  0  0  0  0  0  0  0  0  0  0
   69.0420   42.5781   57.0611 C   0  0  0  0  0  0  0  0  0  0  0  0
   68.8934   48.7153   56.2164 C   0  0  0  0  0  0  0  0  0  0  0  0
   69.3446   48.6508   54.8285 C   0  0  0  0  0  0  0  0  0  0  0  0
   70.2428   49.5599   54.3378 N   0  0  0  0  0  0  0  0  0  0  0  0
   70.6440   49.5786   53.0943 N   0  0  0  0  0  0  0  0  0  0  0  0
   70.1964   48.6869   52.1845 C   0  0  0  0  0  0  0  0  0  0  0  0
   70.5784   48.6968   50.9780 O   0  0  0  0  0  0  0  0  0  0  0  0
   69.2936   47.7373   52.5919 C   0  0  0  0  0  0  0  0  0  0  0  0
   68.8276   46.8073   51.7054 C   0  0  0  0  0  0  0  0  0  0  0  0
   67.9373   45.8402   52.0932 C   0  0  0  0  0  0  0  0  0  0  0  0
   67.5083   45.8045   53.3952 C   0  0  0  0  0  0  0  0  0  0  0  0
   67.9824   46.7506   54.2957 C   0  0  0  0  0  0  0  0  0  0  0  0
   68.8762   47.7347   53.9294 C   0  0  0  0  0  0  0  0  0  0  0  0
 12 13  1  0
 13 14  2  0
 13 17  1  0
 14 15  1  0
 15 16  1  0
 16 17  2  0
 17 11  1  0
 11 10  1  0
 10  8  1  0
  8  9  2  0
  8  1  1  0
  1  2  2  0
  1  6  1  0
  2  3  1  0
  3 18  1  0
  3  4  2  0
 18 19  1  0
 19 20  2  0
 19 29  1  0
 20 21  1  0
 21 22  1  0
 22 23  2  0
 22 24  1  0
 24 25  1  0
 24 29  2  0
 25 26  2  0
 26 27  1  0
 27 28  2  0
 28 29  1  0
  4  5  1  0
  5  6  2  0
  6  7  1  0
M  END
>  <minimizedAffinity>  (75) 
-10.86775

$$$$
cs_full_output_folder/data/smiles/3422.pdb
     RDKit          3D

 28 30  0  0  0  0  0  0  0  0999 V2000
   68.2895   45.8591   54.0312 C   0  0  0  0  0  0  0  0  0  0  0  0
   67.6582   45.3447   52.9193 C   0  0  0  0  0  0  0  0  0  0  0  0
   67.7190   46.0043   51.6994 C   0  0  0  0  0  0  0  0  0  0  0  0
   68.4216   47.1932   51.5944 C   0  0  0  0  0  0  0  0  0  0  0  0
   69.0630   47.7282   52.6939 C   0  0  0  0  0  0  0  0  0  0  0  0
   68.9687   47.0322   53.8759 C   0  0  0  0  0  0  0  0  0  0  0  0
   67.8094   43.8016   55.4328 N   0  0  0  0  0  0  0  0  0  0  0  0
   68.2095   45.1460   55.2983 C   0  0  0  0  0  0  0  0  0  0  0  0
   68.5146   45.7550   56.3537 O   0  0  0  0  0  0  0  0  0  0  0  0
   67.4751   41.1576   55.4981 O   0  0  0  0  0  0  0  0  0  0  0  0
   67.5607   41.7199   56.6276 C   0  0  0  0  0  0  0  0  0  0  0  0
   67.7387   43.1248   56.6694 N   0  0  0  0  0  0  0  0  0  0  0  0
   67.4666   40.8619   57.8072 C   0  0  0  0  0  0  0  0  0  0  0  0
   68.1059   39.6508   57.8478 C   0  0  0  0  0  0  0  0  0  0  0  0
   67.9928   38.8709   58.9783 C   0  0  0  0  0  0  0  0  0  0  0  0
   67.2494   39.2870   60.0660 C   0  0  0  0  0  0  0  0  0  0  0  0
   66.6086   40.5093   60.0162 C   0  0  0  0  0  0  0  0  0  0  0  0
   66.7278   41.2785   58.8849 C   0  0  0  0  0  0  0  0  0  0  0  0
   69.9194   49.2148   52.4826 S   0  0  0  0  0  0  0  0  0  0  0  0
   71.2794   49.0617   53.0980 O   0  0  0  0  0  0  0  0  0  0  0  0
   70.1576   49.3807   50.9881 O   0  0  0  0  0  0  0  0  0  0  0  0
   69.1568   50.5889   53.0668 N   0  0  0  0  0  0  0  0  0  0  0  0
   69.0510   50.9882   54.4285 C   0  0  0  0  0  0  0  0  0  0  0  0
   69.0544   52.3399   54.6784 C   0  0  0  0  0  0  0  0  0  0  0  0
   68.9601   52.8708   55.9477 C   0  0  0  0  0  0  0  0  0  0  0  0
   68.8609   51.9584   56.9762 C   0  0  0  0  0  0  0  0  0  0  0  0
   68.8544   50.5943   56.7623 C   0  0  0  0  0  0  0  0  0  0  0  0
   68.9502   50.1308   55.4817 C   0  0  0  0  0  0  0  0  0  0  0  0
 10 11  2  0
 11 12  1  0
 11 13  1  0
 12  7  1  0
  7  8  1  0
  8  9  2  0
  8  1  1  0
  1  2  2  0
  1  6  1  0
  2  3  1  0
  3  4  2  0
  4  5  1  0
  5 19  1  0
  5  6  2  0
 19 20  2  0
 19 21  2  0
 19 22  1  0
 22 23  1  0
 23 24  2  0
 23 28  1  0
 24 25  1  0
 25 26  2  0
 26 27  1  0
 27 28  2  0
 13 14  2  0
 13 18  1  0
 14 15  1  0
 15 16  2  0
 16 17  1  0
 17 18  2  0
M  END
>  <minimizedAffinity>  (76) 
-10.54740

$$$$
cs_full_output_folder/data/smiles/5438.pdb
     RDKit          3D

 29 32  0  0  0  0  0  0  0  0999 V2000
   70.6194   46.3381   58.3362 C   0  0  0  0  0  0  0  0  0  0  0  0
   69.9150   47.1599   57.4436 C   0  0  0  0  0  0  0  0  0  0  0  0
   70.1680   48.5092   57.3005 C   0  0  0  0  0  0  0  0  0  0  0  0
   71.1584   49.0453   58.0798 C   0  0  0  0  0  0  0  0  0  0  0  0
   71.8574   48.2601   58.9559 C   0  0  0  0  0  0  0  0  0  0  0  0
   71.5973   46.8966   59.0965 C   0  0  0  0  0  0  0  0  0  0  0  0
   72.3210   46.1621   59.9727 F   0  0  0  0  0  0  0  0  0  0  0  0
   70.4258   43.9845   57.3584 N   0  0  0  0  0  0  0  0  0  0  0  0
   70.2232   44.9378   58.3810 C   0  0  0  0  0  0  0  0  0  0  0  0
   69.6392   44.5114   59.4275 O   0  0  0  0  0  0  0  0  0  0  0  0
   69.9801   42.6084   57.5166 C   0  0  0  0  0  0  0  0  0  0  0  0
   68.3523   39.9067   57.5349 C   0  0  0  0  0  0  0  0  0  0  0  0
   67.9653   41.1878   56.9464 C   0  0  0  0  0  0  0  0  0  0  0  0
   66.7754   41.4254   56.2783 C   0  0  0  0  0  0  0  0  0  0  0  0
   66.7942   42.6834   55.9046 O   0  0  0  0  0  0  0  0  0  0  0  0
   67.8933   43.2524   56.2808 N   0  0  0  0  0  0  0  0  0  0  0  0
   68.6605   42.3729   56.9334 C   0  0  0  0  0  0  0  0  0  0  0  0
   69.3251   49.2676   56.3423 C   0  0  0  0  0  0  0  0  0  0  0  0
   69.6242   49.0297   54.9309 C   0  0  0  0  0  0  0  0  0  0  0  0
   70.4504   49.8824   54.2889 N   0  0  0  0  0  0  0  0  0  0  0  0
   70.7455   49.7504   52.9874 N   0  0  0  0  0  0  0  0  0  0  0  0
   70.2174   48.7492   52.2770 C   0  0  0  0  0  0  0  0  0  0  0  0
   70.5353   48.6750   51.0397 O   0  0  0  0  0  0  0  0  0  0  0  0
   69.3701   47.8398   52.8543 C   0  0  0  0  0  0  0  0  0  0  0  0
   68.8593   46.8246   52.1010 C   0  0  0  0  0  0  0  0  0  0  0  0
   68.0092   45.9042   52.7104 C   0  0  0  0  0  0  0  0  0  0  0  0
   67.6864   46.0083   54.0443 C   0  0  0  0  0  0  0  0  0  0  0  0
   68.2380   47.0672   54.7697 C   0  0  0  0  0  0  0  0  0  0  0  0
   69.0808   48.0033   54.2137 C   0  0  0  0  0  0  0  0  0  0  0  0
 12 13  1  0
 13 14  2  0
 13 17  1  0
 14 15  1  0
 15 16  1  0
 16 17  2  0
 17 11  1  0
 11  8  1  0
  8  9  1  0
  9 10  2  0
  9  1  1  0
  1  2  2  0
  1  6  1  0
  2  3  1  0
  3 18  1  0
  3  4  2  0
 18 19  1  0
 19 20  2  0
 19 29  1  0
 20 21  1  0
 21 22  1  0
 22 23  2  0
 22 24  1  0
 24 25  1  0
 24 29  2  0
 25 26  2  0
 26 27  1  0
 27 28  2  0
 28 29  1  0
  4  5  1  0
  5  6  2  0
  6  7  1  0
M  END
>  <minimizedAffinity>  (77) 
-10.49542

$$$$
cs_full_output_folder/data/smiles/1221.pdb
     RDKit          3D

 29 32  0  0  0  0  0  0  0  0999 V2000
   70.5667   45.5683   58.0649 C   0  0  0  0  0  0  0  0  0  0  0  0
   71.4284   46.3546   58.8439 C   0  0  0  0  0  0  0  0  0  0  0  0
   71.4470   47.7142   58.7930 C   0  0  0  0  0  0  0  0  0  0  0  0
   70.6001   48.3691   57.9561 C   0  0  0  0  0  0  0  0  0  0  0  0
   69.7072   47.6351   57.1479 C   0  0  0  0  0  0  0  0  0  0  0  0
   69.7405   46.2831   57.2447 C   0  0  0  0  0  0  0  0  0  0  0  0
   68.8439   43.6014   56.9476 O   0  0  0  0  0  0  0  0  0  0  0  0
   69.7842   43.2445   57.6764 C   0  0  0  0  0  0  0  0  0  0  0  0
   70.6380   44.1940   58.2325 N   0  0  0  0  0  0  0  0  0  0  0  0
   69.9382   41.7857   57.9153 C   0  0  0  0  0  0  0  0  0  0  0  0
   68.9032   40.9065   57.8629 C   0  0  0  0  0  0  0  0  0  0  0  0
   69.0724   39.5436   58.0945 C   0  0  0  0  0  0  0  0  0  0  0  0
   68.0395   38.6636   58.0417 F   0  0  0  0  0  0  0  0  0  0  0  0
   70.3430   39.0453   58.3951 C   0  0  0  0  0  0  0  0  0  0  0  0
   71.3846   39.9436   58.4460 C   0  0  0  0  0  0  0  0  0  0  0  0
   72.6187   39.4694   58.7353 F   0  0  0  0  0  0  0  0  0  0  0  0
   71.1850   41.3154   58.2057 C   0  0  0  0  0  0  0  0  0  0  0  0
   68.8206   48.4634   56.2845 C   0  0  0  0  0  0  0  0  0  0  0  0
   69.3621   48.4577   54.9014 C   0  0  0  0  0  0  0  0  0  0  0  0
   70.1988   49.4619   54.4967 N   0  0  0  0  0  0  0  0  0  0  0  0
   70.6259   49.5966   53.2572 N   0  0  0  0  0  0  0  0  0  0  0  0
   70.2234   48.7081   52.3343 C   0  0  0  0  0  0  0  0  0  0  0  0
   70.6186   48.8143   51.1277 O   0  0  0  0  0  0  0  0  0  0  0  0
   69.3732   47.6429   52.6318 C   0  0  0  0  0  0  0  0  0  0  0  0
   68.9517   47.5372   53.9478 C   0  0  0  0  0  0  0  0  0  0  0  0
   68.1553   46.3964   54.4566 C   0  0  0  0  0  0  0  0  0  0  0  0
   67.7529   45.4812   53.3391 C   0  0  0  0  0  0  0  0  0  0  0  0
   67.5647   46.2041   52.0297 C   0  0  0  0  0  0  0  0  0  0  0  0
   68.9472   46.7004   51.5570 C   0  0  0  0  0  0  0  0  0  0  0  0
  7  8  2  0
  8  9  1  0
  8 10  1  0
  9  1  1  0
  1  2  2  0
  1  6  1  0
  2  3  1  0
  3  4  2  0
  4  5  1  0
  5 18  1  0
  5  6  2  0
 18 19  1  0
 19 20  2  0
 19 25  1  0
 20 21  1  0
 21 22  1  0
 22 23  2  0
 22 24  1  0
 24 25  2  0
 24 29  1  0
 25 26  1  0
 26 27  1  0
 27 28  1  0
 28 29  1  0
 10 11  2  0
 10 17  1  0
 11 12  1  0
 12 13  1  0
 12 14  2  0
 14 15  1  0
 15 16  1  0
 15 17  2  0
M  END
>  <minimizedAffinity>  (78) 
-10.29588

$$$$
cs_full_output_folder/data/smiles/9016.pdb
     RDKit          3D

 27 29  0  0  0  0  0  0  0  0999 V2000
   70.6775   46.4755   58.3263 C   0  0  0  0  0  0  0  0  0  0  0  0
   69.8583   47.0853   57.3643 C   0  0  0  0  0  0  0  0  0  0  0  0
   69.8660   48.4190   57.0874 C   0  0  0  0  0  0  0  0  0  0  0  0
   70.7485   49.2021   57.8172 C   0  0  0  0  0  0  0  0  0  0  0  0
   71.5770   48.6617   58.7768 C   0  0  0  0  0  0  0  0  0  0  0  0
   71.5289   47.2966   59.0190 C   0  0  0  0  0  0  0  0  0  0  0  0
   72.3442   46.7775   59.9477 F   0  0  0  0  0  0  0  0  0  0  0  0
   71.2464   44.0721   57.8130 N   0  0  0  0  0  0  0  0  0  0  0  0
   70.5323   45.0501   58.5092 C   0  0  0  0  0  0  0  0  0  0  0  0
   69.6904   44.6162   59.3738 O   0  0  0  0  0  0  0  0  0  0  0  0
   71.0463   42.6423   58.0362 C   0  0  0  0  0  0  0  0  0  0  0  0
   68.7312   41.7678   56.9753 C   0  0  0  0  0  0  0  0  0  0  0  0
   69.7904   42.1764   57.4620 C   0  0  0  0  0  0  0  0  0  0  0  0
   67.5417   40.3619   55.4781 N   0  0  0  0  0  0  0  0  0  0  0  0
   67.5097   41.2796   56.4021 C   0  0  0  0  0  0  0  0  0  0  0  0
   69.0007   49.0872   56.0962 C   0  0  0  0  0  0  0  0  0  0  0  0
   69.4051   48.8477   54.6913 C   0  0  0  0  0  0  0  0  0  0  0  0
   70.3168   49.6973   54.1203 N   0  0  0  0  0  0  0  0  0  0  0  0
   70.7015   49.5506   52.8718 N   0  0  0  0  0  0  0  0  0  0  0  0
   70.2389   48.5663   52.0588 C   0  0  0  0  0  0  0  0  0  0  0  0
   70.6417   48.4812   50.8897 O   0  0  0  0  0  0  0  0  0  0  0  0
   69.3125   47.6713   52.5761 C   0  0  0  0  0  0  0  0  0  0  0  0
   68.8239   46.6581   51.7630 C   0  0  0  0  0  0  0  0  0  0  0  0
   67.9093   45.7670   52.2581 C   0  0  0  0  0  0  0  0  0  0  0  0
   67.5064   45.9261   53.5848 C   0  0  0  0  0  0  0  0  0  0  0  0
   68.0048   46.9386   54.3712 C   0  0  0  0  0  0  0  0  0  0  0  0
   68.9265   47.8480   53.8879 C   0  0  0  0  0  0  0  0  0  0  0  0
 14 15  2  0
 15 12  1  0
 12 13  3  0
 13 11  1  0
 11  8  1  0
  8  9  1  0
  9 10  2  0
  9  1  1  0
  1  2  2  0
  1  6  1  0
  2  3  1  0
  3 16  1  0
  3  4  2  0
 16 17  1  0
 17 18  2  0
 17 27  1  0
 18 19  1  0
 19 20  1  0
 20 21  2  0
 20 22  1  0
 22 23  1  0
 22 27  2  0
 23 24  2  0
 24 25  1  0
 25 26  2  0
 26 27  1  0
  4  5  1  0
  5  6  2  0
  6  7  1  0
M  END
>  <minimizedAffinity>  (79) 
-10.14183

$$$$
cs_full_output_folder/data/smiles/6749.pdb
     RDKit          3D

 28 31  0  0  0  0  0  0  0  0999 V2000
   70.4354   45.1626   57.8232 C   0  0  0  0  0  0  0  0  0  0  0  0
   71.4821   45.5282   58.6320 C   0  0  0  0  0  0  0  0  0  0  0  0
   71.8446   46.8547   58.6676 C   0  0  0  0  0  0  0  0  0  0  0  0
   71.1731   47.8075   57.9065 C   0  0  0  0  0  0  0  0  0  0  0  0
   70.1310   47.4559   57.0995 C   0  0  0  0  0  0  0  0  0  0  0  0
   69.7851   46.1097   57.0817 C   0  0  0  0  0  0  0  0  0  0  0  0
   68.5924   42.0239   56.8667 C   0  0  0  0  0  0  0  0  0  0  0  0
   69.2650   41.0924   57.6669 C   0  0  0  0  0  0  0  0  0  0  0  0
   70.2938   41.4826   58.4958 C   0  0  0  0  0  0  0  0  0  0  0  0
   70.6832   42.8025   58.5552 C   0  0  0  0  0  0  0  0  0  0  0  0
   70.0491   43.7629   57.7831 C   0  0  0  0  0  0  0  0  0  0  0  0
   69.0129   43.3248   56.9585 C   0  0  0  0  0  0  0  0  0  0  0  0
   67.5932   40.4389   55.4799 O   0  0  0  0  0  0  0  0  0  0  0  0
   67.5218   41.5611   56.0164 C   0  0  0  0  0  0  0  0  0  0  0  0
   66.3923   42.3709   55.7857 N   0  0  0  0  0  0  0  0  0  0  0  0
   65.3919   41.9047   54.9731 F   0  0  0  0  0  0  0  0  0  0  0  0
   69.3958   48.4580   56.2967 C   0  0  0  0  0  0  0  0  0  0  0  0
   69.5993   48.3775   54.8728 C   0  0  0  0  0  0  0  0  0  0  0  0
   70.6688   49.0529   54.3498 N   0  0  0  0  0  0  0  0  0  0  0  0
   70.9823   49.0281   53.0688 N   0  0  0  0  0  0  0  0  0  0  0  0
   70.2427   48.3125   52.1784 C   0  0  0  0  0  0  0  0  0  0  0  0
   70.5236   48.2732   50.9532 O   0  0  0  0  0  0  0  0  0  0  0  0
   69.1578   47.6132   52.6384 C   0  0  0  0  0  0  0  0  0  0  0  0
   68.8573   47.6676   54.0105 C   0  0  0  0  0  0  0  0  0  0  0  0
   67.6663   46.9273   54.4147 C   0  0  0  0  0  0  0  0  0  0  0  0
   67.8850   45.4821   53.9435 C   0  0  0  0  0  0  0  0  0  0  0  0
   68.0661   45.4267   52.4478 C   0  0  0  0  0  0  0  0  0  0  0  0
   68.2633   46.7833   51.8094 C   0  0  0  0  0  0  0  0  0  0  0  0
 13 14  2  0
 14 15  1  0
 14  7  1  0
 15 16  1  0
  7  8  2  0
  7 12  1  0
  8  9  1  0
  9 10  2  0
 10 11  1  0
 11  1  1  0
 11 12  2  0
  1  2  2  0
  1  6  1  0
  2  3  1  0
  3  4  2  0
  4  5  1  0
  5 17  1  0
  5  6  2  0
 17 18  1  0
 18 19  2  0
 18 24  1  0
 19 20  1  0
 20 21  1  0
 21 22  2  0
 21 23  1  0
 23 24  2  0
 23 28  1  0
 24 25  1  0
 25 26  1  0
 26 27  1  0
 27 28  1  0
M  END
>  <minimizedAffinity>  (80) 
-10.10955

$$$$
cs_full_output_folder/data/smiles/9581.pdb
     RDKit          3D

 30 33  0  0  0  0  0  0  0  0999 V2000
   70.6407   45.3073   57.9335 C   0  0  0  0  0  0  0  0  0  0  0  0
   71.5390   45.9852   58.7102 C   0  0  0  0  0  0  0  0  0  0  0  0
   71.6179   47.3939   58.7114 C   0  0  0  0  0  0  0  0  0  0  0  0
   70.7667   48.0925   57.9067 C   0  0  0  0  0  0  0  0  0  0  0  0
   69.8235   47.4491   57.0852 C   0  0  0  0  0  0  0  0  0  0  0  0
   69.8034   46.0957   57.1359 C   0  0  0  0  0  0  0  0  0  0  0  0
   69.8072   43.0701   58.7836 C   0  0  0  0  0  0  0  0  0  0  0  0
   69.2575   43.6018   59.7786 O   0  0  0  0  0  0  0  0  0  0  0  0
   70.4871   43.9146   57.8830 N   0  0  0  0  0  0  0  0  0  0  0  0
   68.6586   41.1125   57.8859 C   0  0  0  0  0  0  0  0  0  0  0  0
   68.5259   39.7393   57.7026 C   0  0  0  0  0  0  0  0  0  0  0  0
   69.4439   38.8690   58.2433 C   0  0  0  0  0  0  0  0  0  0  0  0
   70.5012   39.3666   58.9719 C   0  0  0  0  0  0  0  0  0  0  0  0
   70.6167   40.7548   59.1448 C   0  0  0  0  0  0  0  0  0  0  0  0
   69.7155   41.6249   58.6153 C   0  0  0  0  0  0  0  0  0  0  0  0
   66.5669   42.1479   57.8755 O   0  0  0  0  0  0  0  0  0  0  0  0
   67.6566   41.9739   57.2840 C   0  0  0  0  0  0  0  0  0  0  0  0
   67.8922   42.6155   56.0478 O   0  0  0  0  0  0  0  0  0  0  0  0
   68.9043   48.2802   56.2553 C   0  0  0  0  0  0  0  0  0  0  0  0
   69.2582   48.3505   54.8428 C   0  0  0  0  0  0  0  0  0  0  0  0
   70.1611   49.3092   54.4467 N   0  0  0  0  0  0  0  0  0  0  0  0
   70.5740   49.4477   53.2162 N   0  0  0  0  0  0  0  0  0  0  0  0
   70.1494   48.6613   52.2294 C   0  0  0  0  0  0  0  0  0  0  0  0
   70.5336   48.7829   51.0576 O   0  0  0  0  0  0  0  0  0  0  0  0
   69.2282   47.6550   52.5243 C   0  0  0  0  0  0  0  0  0  0  0  0
   68.7474   46.8179   51.5515 C   0  0  0  0  0  0  0  0  0  0  0  0
   67.8300   45.8273   51.8339 C   0  0  0  0  0  0  0  0  0  0  0  0
   67.4223   45.7229   53.1533 C   0  0  0  0  0  0  0  0  0  0  0  0
   67.9070   46.5704   54.1499 C   0  0  0  0  0  0  0  0  0  0  0  0
   68.8107   47.5325   53.8312 C   0  0  0  0  0  0  0  0  0  0  0  0
 16 17  2  0
 17 18  1  0
 17 10  1  0
 10 11  2  0
 10 15  1  0
 11 12  1  0
 12 13  2  0
 13 14  1  0
 14 15  2  0
 15  7  1  0
  7  8  2  0
  7  9  1  0
  9  1  1  0
  1  2  2  0
  1  6  1  0
  2  3  1  0
  3  4  2  0
  4  5  1  0
  5 19  1  0
  5  6  2  0
 19 20  1  0
 20 21  2  0
 20 30  1  0
 21 22  1  0
 22 23  1  0
 23 24  2  0
 23 25  1  0
 25 26  1  0
 25 30  2  0
 26 27  2  0
 27 28  1  0
 28 29  2  0
 29 30  1  0
M  END
>  <minimizedAffinity>  (81) 
-10.08375

$$$$
cs_full_output_folder/data/smiles/2382.pdb
     RDKit          3D

 28 31  0  0  0  0  0  0  0  0999 V2000
   71.1485   46.3764   58.0981 C   0  0  0  0  0  0  0  0  0  0  0  0
   71.9360   47.0578   58.9830 C   0  0  0  0  0  0  0  0  0  0  0  0
   71.7842   48.4487   59.0468 C   0  0  0  0  0  0  0  0  0  0  0  0
   70.8913   49.1262   58.2639 C   0  0  0  0  0  0  0  0  0  0  0  0
   70.1123   48.4142   57.3829 C   0  0  0  0  0  0  0  0  0  0  0  0
   70.2703   47.0918   57.3358 N   0  0  0  0  0  0  0  0  0  0  0  0
   69.6055   44.3920   59.4991 O   0  0  0  0  0  0  0  0  0  0  0  0
   70.4130   44.0429   58.6294 C   0  0  0  0  0  0  0  0  0  0  0  0
   71.1856   44.9820   57.9209 N   0  0  0  0  0  0  0  0  0  0  0  0
   70.6207   42.5910   58.2723 C   0  0  0  0  0  0  0  0  0  0  0  0
   69.4651   42.0479   57.5425 C   0  0  0  0  0  0  0  0  0  0  0  0
   68.7389   42.9320   56.7597 C   0  0  0  0  0  0  0  0  0  0  0  0
   67.6381   42.5399   56.0321 C   0  0  0  0  0  0  0  0  0  0  0  0
   67.2387   41.2064   56.0835 C   0  0  0  0  0  0  0  0  0  0  0  0
   67.9582   40.3279   56.8605 C   0  0  0  0  0  0  0  0  0  0  0  0
   69.0548   40.7424   57.5781 C   0  0  0  0  0  0  0  0  0  0  0  0
   69.1079   49.0373   56.4654 C   0  0  0  0  0  0  0  0  0  0  0  0
   69.4689   48.8735   55.0388 C   0  0  0  0  0  0  0  0  0  0  0  0
   70.3958   49.6964   54.4635 N   0  0  0  0  0  0  0  0  0  0  0  0
   70.7561   49.6165   53.2013 N   0  0  0  0  0  0  0  0  0  0  0  0
   70.2325   48.7061   52.3639 C   0  0  0  0  0  0  0  0  0  0  0  0
   70.5998   48.6619   51.1708 O   0  0  0  0  0  0  0  0  0  0  0  0
   69.2781   47.8290   52.8757 C   0  0  0  0  0  0  0  0  0  0  0  0
   68.9181   47.9268   54.1883 C   0  0  0  0  0  0  0  0  0  0  0  0
   67.9150   46.9786   54.7252 C   0  0  0  0  0  0  0  0  0  0  0  0
   67.9924   45.6310   54.0384 C   0  0  0  0  0  0  0  0  0  0  0  0
   67.9093   45.7467   52.5509 C   0  0  0  0  0  0  0  0  0  0  0  0
   68.7077   46.8538   51.9696 C   0  0  0  0  0  0  0  0  0  0  0  0
  7  8  2  0
  8 10  1  0
  8  9  1  0
 10 11  1  0
 11 12  2  0
 11 16  1  0
 12 13  1  0
 13 14  2  0
 14 15  1  0
 15 16  2  0
  9  1  1  0
  1  2  2  0
  1  6  1  0
  2  3  1  0
  3  4  2  0
  4  5  1  0
  5 17  1  0
  5  6  2  0
 17 18  1  0
 18 19  2  0
 18 24  1  0
 19 20  1  0
 20 21  1  0
 21 22  2  0
 21 23  1  0
 23 24  2  0
 23 28  1  0
 24 25  1  0
 25 26  1  0
 26 27  1  0
 27 28  1  0
M  END
>  <minimizedAffinity>  (82) 
-9.95604

$$$$
cs_full_output_folder/data/smiles/53.pdb
     RDKit          3D

 26 28  0  0  0  0  0  0  0  0999 V2000
   73.7923   52.5869   54.6838 O   0  0  0  0  0  0  0  0  0  0  0  0
   73.1063   51.5384   54.6696 C   0  0  0  0  0  0  0  0  0  0  0  0
   73.8029   50.3107   54.6746 N   0  0  0  0  0  0  0  0  0  0  0  0
   75.1870   50.1848   54.6939 N   0  0  0  0  0  0  0  0  0  0  0  0
   75.9889   50.2581   55.8400 C   0  0  0  0  0  0  0  0  0  0  0  0
   75.3919   50.4532   56.9367 O   0  0  0  0  0  0  0  0  0  0  0  0
   77.4434   50.1252   55.8545 C   0  0  0  0  0  0  0  0  0  0  0  0
   78.2745   51.0462   56.4560 C   0  0  0  0  0  0  0  0  0  0  0  0
   79.6634   50.8750   56.4437 C   0  0  0  0  0  0  0  0  0  0  0  0
   80.2504   49.7871   55.8342 C   0  0  0  0  0  0  0  0  0  0  0  0
   81.6020   49.6280   55.8273 F   0  0  0  0  0  0  0  0  0  0  0  0
   79.4170   48.8677   55.2340 C   0  0  0  0  0  0  0  0  0  0  0  0
   78.0495   49.0444   55.2507 C   0  0  0  0  0  0  0  0  0  0  0  0
   71.6344   51.6654   54.6492 C   0  0  0  0  0  0  0  0  0  0  0  0
   71.0149   50.5035   55.3855 C   0  0  0  0  0  0  0  0  0  0  0  0
   70.4054   49.5421   54.4360 C   0  0  0  0  0  0  0  0  0  0  0  0
   69.5899   48.5477   54.8033 N   0  0  0  0  0  0  0  0  0  0  0  0
   69.0312   47.6697   53.9614 C   0  0  0  0  0  0  0  0  0  0  0  0
   68.1943   46.6564   54.3733 C   0  0  0  0  0  0  0  0  0  0  0  0
   67.6222   45.7560   53.5038 C   0  0  0  0  0  0  0  0  0  0  0  0
   67.8991   45.8744   52.1529 C   0  0  0  0  0  0  0  0  0  0  0  0
   68.7394   46.8913   51.7349 C   0  0  0  0  0  0  0  0  0  0  0  0
   69.3076   47.7888   52.6159 C   0  0  0  0  0  0  0  0  0  0  0  0
   70.1494   48.8077   52.2035 C   0  0  0  0  0  0  0  0  0  0  0  0
   70.3798   48.8884   50.9797 O   0  0  0  0  0  0  0  0  0  0  0  0
   70.6700   49.6483   53.1148 N   0  0  0  0  0  0  0  0  0  0  0  0
  1  2  2  0
  2 14  1  0
  2  3  1  0
 14 15  1  0
 15 16  1  0
 16 17  2  0
 16 26  1  0
 17 18  1  0
 18 19  2  0
 18 23  1  0
 19 20  1  0
 20 21  2  0
 21 22  1  0
 22 23  2  0
 23 24  1  0
 24 25  2  0
 24 26  1  0
  3  4  1  0
  4  5  1  0
  5  6  2  0
  5  7  1  0
  7  8  2  0
  7 13  1  0
  8  9  1  0
  9 10  2  0
 10 11  1  0
 10 12  1  0
 12 13  2  0
M  END
>  <minimizedAffinity>  (83) 
-9.94250

$$$$
cs_full_output_folder/data/smiles/2083.pdb
     RDKit          3D

 26 27  0  0  0  0  0  0  0  0999 V2000
   69.9296   49.2575   52.5870 S   0  0  0  0  0  0  0  0  0  0  0  0
   71.3703   49.2232   53.0543 O   0  0  0  0  0  0  0  0  0  0  0  0
   69.9305   49.2393   51.0539 O   0  0  0  0  0  0  0  0  0  0  0  0
   69.1880   47.8045   53.1774 C   0  0  0  0  0  0  0  0  0  0  0  0
   68.5475   46.8982   52.3475 C   0  0  0  0  0  0  0  0  0  0  0  0
   68.4951   47.1500   51.0197 F   0  0  0  0  0  0  0  0  0  0  0  0
   67.9964   45.7827   52.9166 C   0  0  0  0  0  0  0  0  0  0  0  0
   67.3627   44.8815   52.1047 F   0  0  0  0  0  0  0  0  0  0  0  0
   68.0736   45.5656   54.2721 C   0  0  0  0  0  0  0  0  0  0  0  0
   67.5236   44.4532   54.8396 F   0  0  0  0  0  0  0  0  0  0  0  0
   68.7082   46.4648   55.0974 C   0  0  0  0  0  0  0  0  0  0  0  0
   68.7836   46.2491   56.4407 F   0  0  0  0  0  0  0  0  0  0  0  0
   69.2692   47.5888   54.5574 C   0  0  0  0  0  0  0  0  0  0  0  0
   69.9004   48.4844   55.3731 F   0  0  0  0  0  0  0  0  0  0  0  0
   69.1161   50.6353   53.1722 N   0  0  0  0  0  0  0  0  0  0  0  0
   71.5384   52.6610   55.2076 C   0  0  0  0  0  0  0  0  0  0  0  0
   70.5933   53.2036   56.0443 C   0  0  0  0  0  0  0  0  0  0  0  0
   69.2285   52.9408   55.9582 C   0  0  0  0  0  0  0  0  0  0  0  0
   68.7771   52.0990   54.9941 C   0  0  0  0  0  0  0  0  0  0  0  0
   69.6879   51.5118   54.1094 C   0  0  0  0  0  0  0  0  0  0  0  0
   71.0113   51.7922   54.2243 C   0  0  0  0  0  0  0  0  0  0  0  0
   73.3677   54.2938   55.4526 C   0  0  0  0  0  0  0  0  0  0  0  0
   72.9245   52.8902   55.2551 N   0  0  0  0  0  0  0  0  0  0  0  0
   73.9267   51.9546   55.1395 C   0  0  0  0  0  0  0  0  0  0  0  0
   73.7069   50.5811   54.9400 N   0  0  0  0  0  0  0  0  0  0  0  0
   75.1622   52.3615   55.2199 O   0  0  0  0  0  0  0  0  0  0  0  0
 22 23  1  0
 23 24  1  0
 23 16  1  0
 24 25  1  0
 24 26  2  0
 16 17  2  0
 16 21  1  0
 17 18  1  0
 18 19  2  0
 19 20  1  0
 20 15  1  0
 20 21  2  0
 15  1  1  0
  1  2  2  0
  1  3  2  0
  1  4  1  0
  4  5  2  0
  4 13  1  0
  5  6  1  0
  5  7  1  0
  7  8  1  0
  7  9  2  0
  9 10  1  0
  9 11  1  0
 11 12  1  0
 11 13  2  0
 13 14  1  0
M  END
>  <minimizedAffinity>  (84) 
-9.89820

$$$$
cs_full_output_folder/data/smiles/9026.pdb
     RDKit          3D

 27 31  0  0  0  0  0  0  0  0999 V2000
   70.7943   45.8463   58.0614 C   0  0  0  0  0  0  0  0  0  0  0  0
   71.2340   47.0410   58.6110 C   0  0  0  0  0  0  0  0  0  0  0  0
   71.4931   48.3482   58.9851 C   0  0  0  0  0  0  0  0  0  0  0  0
   70.5250   48.1401   57.9750 C   0  0  0  0  0  0  0  0  0  0  0  0
   69.6852   47.5837   57.0674 C   0  0  0  0  0  0  0  0  0  0  0  0
   69.8655   46.1967   57.1363 C   0  0  0  0  0  0  0  0  0  0  0  0
   69.1606   45.3431   56.3333 F   0  0  0  0  0  0  0  0  0  0  0  0
   73.5839   45.0051   58.1464 N   0  0  0  0  0  0  0  0  0  0  0  0
   72.6263   44.1660   58.1622 C   0  0  0  0  0  0  0  0  0  0  0  0
   72.9350   42.7189   57.8601 C   0  0  0  0  0  0  0  0  0  0  0  0
   71.6534   41.9606   57.7617 C   0  0  0  0  0  0  0  0  0  0  0  0
   70.8360   42.1626   59.0003 C   0  0  0  0  0  0  0  0  0  0  0  0
   70.5106   43.6045   59.1678 C   0  0  0  0  0  0  0  0  0  0  0  0
   69.5855   43.9477   59.9023 O   0  0  0  0  0  0  0  0  0  0  0  0
   71.2969   44.5751   58.4573 N   0  0  0  0  0  0  0  0  0  0  0  0
   68.7275   48.2969   56.1497 C   0  0  0  0  0  0  0  0  0  0  0  0
   69.2522   48.4585   54.7972 C   0  0  0  0  0  0  0  0  0  0  0  0
   70.1530   49.3740   54.4218 N   0  0  0  0  0  0  0  0  0  0  0  0
   70.6182   49.5087   53.1907 N   0  0  0  0  0  0  0  0  0  0  0  0
   70.1870   48.6914   52.2133 C   0  0  0  0  0  0  0  0  0  0  0  0
   70.5819   48.7590   51.0273 O   0  0  0  0  0  0  0  0  0  0  0  0
   69.2441   47.6976   52.5028 C   0  0  0  0  0  0  0  0  0  0  0  0
   68.7927   46.8484   51.4955 C   0  0  0  0  0  0  0  0  0  0  0  0
   67.8626   45.8830   51.8207 C   0  0  0  0  0  0  0  0  0  0  0  0
   67.3974   45.7687   53.1145 C   0  0  0  0  0  0  0  0  0  0  0  0
   67.8544   46.6165   54.0975 C   0  0  0  0  0  0  0  0  0  0  0  0
   68.7882   47.5964   53.7998 C   0  0  0  0  0  0  0  0  0  0  0  0
  8  9  2  0
  9 10  1  0
  9 15  1  0
 10 11  1  0
 11 12  1  0
 12 13  1  0
 13 14  2  0
 13 15  1  0
 15  1  1  0
  1  2  1  0
  1  6  2  0
  2  3  2  0
  2  4  1  0
  3  4  1  0
  4  5  2  0
  5 16  1  0
  5  6  1  0
 16 17  1  0
 17 18  2  0
 17 27  1  0
 18 19  1  0
 19 20  1  0
 20 21  2  0
 20 22  1  0
 22 23  1  0
 22 27  2  0
 23 24  2  0
 24 25  1  0
 25 26  2  0
 26 27  1  0
  6  7  1  0
M  CHG  1   8   1
M  END
>  <minimizedAffinity>  (85) 
-9.89572

$$$$
cs_full_output_folder/data/smiles/50.pdb
     RDKit          3D

 27 30  0  0  0  0  0  0  0  0999 V2000
   70.0432   48.2428   57.1245 C   0  0  0  0  0  0  0  0  0  0  0  0
   71.2504   48.7582   57.5365 C   0  0  0  0  0  0  0  0  0  0  0  0
   72.0515   48.0384   58.3934 C   0  0  0  0  0  0  0  0  0  0  0  0
   71.6467   46.8001   58.8425 C   0  0  0  0  0  0  0  0  0  0  0  0
   70.4117   46.2276   58.4469 C   0  0  0  0  0  0  0  0  0  0  0  0
   69.6802   47.0008   57.5994 C   0  0  0  0  0  0  0  0  0  0  0  0
   69.1638   49.0111   56.1757 C   0  0  0  0  0  0  0  0  0  0  0  0
   70.5561   48.6707   50.9191 O   0  0  0  0  0  0  0  0  0  0  0  0
   70.2004   48.6960   52.1276 C   0  0  0  0  0  0  0  0  0  0  0  0
   70.6375   49.6667   52.9158 N   0  0  0  0  0  0  0  0  0  0  0  0
   70.2785   49.7046   54.1603 N   0  0  0  0  0  0  0  0  0  0  0  0
   69.4538   48.7985   54.7674 C   0  0  0  0  0  0  0  0  0  0  0  0
   68.9916   47.7858   53.9681 C   0  0  0  0  0  0  0  0  0  0  0  0
   69.3648   47.7266   52.6291 C   0  0  0  0  0  0  0  0  0  0  0  0
   68.9123   46.6631   51.7092 C   0  0  0  0  0  0  0  0  0  0  0  0
   67.6455   46.0655   52.2733 C   0  0  0  0  0  0  0  0  0  0  0  0
   68.0073   45.5313   53.6550 C   0  0  0  0  0  0  0  0  0  0  0  0
   68.0984   46.7690   54.5616 C   0  0  0  0  0  0  0  0  0  0  0  0
   70.1127   44.9633   58.9823 N   0  0  0  0  0  0  0  0  0  0  0  0
   70.3473   43.4228   58.3815 S   0  0  0  0  0  0  0  0  0  0  0  0
   70.5615   42.4304   59.5225 O   0  0  0  0  0  0  0  0  0  0  0  0
   71.6907   43.3854   57.6399 O   0  0  0  0  0  0  0  0  0  0  0  0
   69.1083   42.7192   57.3990 C   0  0  0  0  0  0  0  0  0  0  0  0
   68.7092   41.4202   57.2775 C   0  0  0  0  0  0  0  0  0  0  0  0
   67.6870   41.3753   56.3603 C   0  0  0  0  0  0  0  0  0  0  0  0
   67.5191   42.6775   55.9667 C   0  0  0  0  0  0  0  0  0  0  0  0
   68.3555   43.4360   56.5856 O   0  0  0  0  0  0  0  0  0  0  0  0
  8  9  2  0
  9 10  1  0
  9 14  1  0
 10 11  1  0
 11 12  2  0
 12  7  1  0
 12 13  1  0
  7  1  1  0
  1  2  2  0
  1  6  1  0
  2  3  1  0
  3  4  2  0
  4  5  1  0
  5 19  1  0
  5  6  2  0
 19 20  1  0
 20 21  2  0
 20 22  2  0
 20 23  1  0
 23 24  2  0
 23 27  1  0
 24 25  1  0
 25 26  2  0
 26 27  1  0
 13 14  2  0
 13 18  1  0
 14 15  1  0
 15 16  1  0
 16 17  1  0
 17 18  1  0
M  END
>  <minimizedAffinity>  (86) 
-9.87049

$$$$
cs_full_output_folder/data/smiles/3408.pdb
     RDKit          3D

 27 29  0  0  0  0  0  0  0  0999 V2000
   69.1921   47.9071   52.9823 C   0  0  0  0  0  0  0  0  0  0  0  0
   68.6426   47.4584   51.8013 C   0  0  0  0  0  0  0  0  0  0  0  0
   67.9688   46.2540   51.7998 C   0  0  0  0  0  0  0  0  0  0  0  0
   67.8585   45.5272   52.9710 C   0  0  0  0  0  0  0  0  0  0  0  0
   68.4000   45.9552   54.1629 C   0  0  0  0  0  0  0  0  0  0  0  0
   69.0649   47.1454   54.1640 C   0  0  0  0  0  0  0  0  0  0  0  0
   70.0366   49.4119   52.9938 S   0  0  0  0  0  0  0  0  0  0  0  0
   71.5258   49.1205   52.8832 O   0  0  0  0  0  0  0  0  0  0  0  0
   69.6939   50.2876   51.8235 O   0  0  0  0  0  0  0  0  0  0  0  0
   68.7849   52.2958   56.6345 C   0  0  0  0  0  0  0  0  0  0  0  0
   69.2322   52.5154   55.2048 C   0  0  1  0  0  0  0  0  0  0  0  0
   70.7289   52.4672   55.0738 C   0  0  0  0  0  0  0  0  0  0  0  0
   71.0572   50.9802   54.9751 C   0  0  0  0  0  0  0  0  0  0  0  0
   69.8025   50.3252   54.4883 C   0  0  1  0  0  0  0  0  0  0  0  0
   68.7639   51.4094   54.3120 C   0  0  0  0  0  0  0  0  0  0  0  0
   68.2554   45.1494   55.3708 C   0  0  0  0  0  0  0  0  0  0  0  0
   68.5271   45.6965   56.4761 O   0  0  0  0  0  0  0  0  0  0  0  0
   67.8389   43.8085   55.4207 N   0  0  0  0  0  0  0  0  0  0  0  0
   67.6646   42.9545   56.4637 N   0  0  0  0  0  0  0  0  0  0  0  0
   67.4903   41.5681   56.5340 C   0  0  0  0  0  0  0  0  0  0  0  0
   67.4788   40.9039   55.4901 O   0  0  0  0  0  0  0  0  0  0  0  0
   67.3162   40.8334   57.7975 C   0  0  0  0  0  0  0  0  0  0  0  0
   67.9535   39.6370   58.0318 C   0  0  0  0  0  0  0  0  0  0  0  0
   67.8007   38.9334   59.2128 C   0  0  0  0  0  0  0  0  0  0  0  0
   66.9708   39.4520   60.2085 C   0  0  0  0  0  0  0  0  0  0  0  0
   66.3493   40.6443   59.9485 C   0  0  0  0  0  0  0  0  0  0  0  0
   66.5238   41.3070   58.7753 N   0  0  0  0  0  0  0  0  0  0  0  0
 11 10  1  1
 11 12  1  0
 11 15  1  0
 12 13  1  0
 13 14  1  0
 14  7  1  6
 14 15  1  0
  7  8  2  0
  7  9  2  0
  7  1  1  0
  1  2  2  0
  1  6  1  0
  2  3  1  0
  3  4  2  0
  4  5  1  0
  5 16  1  0
  5  6  2  0
 16 17  2  0
 16 18  1  0
 18 19  1  0
 19 20  1  0
 20 21  2  0
 20 22  1  0
 22 23  2  0
 22 27  1  0
 23 24  1  0
 24 25  2  0
 25 26  1  0
 26 27  2  0
M  END
>  <minimizedAffinity>  (87) 
-9.84866

$$$$
cs_full_output_folder/data/smiles/1640.pdb
     RDKit          3D

 31 33  0  0  0  0  0  0  0  0999 V2000
   68.9774   47.6832   52.5737 C   0  0  0  0  0  0  0  0  0  0  0  0
   68.3918   47.0954   51.4795 C   0  0  0  0  0  0  0  0  0  0  0  0
   67.7319   45.8792   51.6057 C   0  0  0  0  0  0  0  0  0  0  0  0
   67.6872   45.2905   52.8535 C   0  0  0  0  0  0  0  0  0  0  0  0
   68.2613   45.8426   53.9782 C   0  0  0  0  0  0  0  0  0  0  0  0
   68.9023   47.0452   53.8115 C   0  0  0  0  0  0  0  0  0  0  0  0
   69.8191   49.2120   52.4894 S   0  0  0  0  0  0  0  0  0  0  0  0
   71.1863   48.9853   53.0671 O   0  0  0  0  0  0  0  0  0  0  0  0
   70.0457   49.6072   51.0455 O   0  0  0  0  0  0  0  0  0  0  0  0
   68.9812   50.4627   53.3314 N   0  0  0  0  0  0  0  0  0  0  0  0
   68.6562   53.0588   54.4300 N   0  0  0  0  0  0  0  0  0  0  0  0
   68.8335   51.9169   55.2523 C   0  0  0  0  0  0  0  0  0  0  0  0
   68.8409   52.0919   56.6188 C   0  0  0  0  0  0  0  0  0  0  0  0
   68.6774   53.3445   57.1047 F   0  0  0  0  0  0  0  0  0  0  0  0
   69.0078   51.0416   57.4900 C   0  0  0  0  0  0  0  0  0  0  0  0
   69.1707   49.7804   56.9685 C   0  0  0  0  0  0  0  0  0  0  0  0
   69.1631   49.6061   55.5909 C   0  0  0  0  0  0  0  0  0  0  0  0
   68.9972   50.6563   54.7175 C   0  0  0  0  0  0  0  0  0  0  0  0
   68.1651   45.1470   55.2541 C   0  0  0  0  0  0  0  0  0  0  0  0
   68.4509   45.7679   56.3074 O   0  0  0  0  0  0  0  0  0  0  0  0
   67.7630   43.7968   55.3894 N   0  0  0  0  0  0  0  0  0  0  0  0
   67.6786   43.1572   56.6390 N   0  0  0  0  0  0  0  0  0  0  0  0
   67.4624   41.7756   56.7737 C   0  0  0  0  0  0  0  0  0  0  0  0
   67.3470   41.1489   55.6693 O   0  0  0  0  0  0  0  0  0  0  0  0
   67.3562   41.0062   57.9969 C   0  0  0  0  0  0  0  0  0  0  0  0
   66.6279   41.5102   59.0839 C   0  0  0  0  0  0  0  0  0  0  0  0
   66.4974   40.8266   60.2689 C   0  0  0  0  0  0  0  0  0  0  0  0
   67.0820   39.5945   60.4550 C   0  0  0  0  0  0  0  0  0  0  0  0
   67.8036   39.0713   59.4075 C   0  0  0  0  0  0  0  0  0  0  0  0
   67.9320   39.7781   58.1987 C   0  0  0  0  0  0  0  0  0  0  0  0
   68.6563   39.1928   57.2167 F   0  0  0  0  0  0  0  0  0  0  0  0
 11 12  1  0
 12 13  2  0
 12 18  1  0
 13 14  1  0
 13 15  1  0
 15 16  2  0
 16 17  1  0
 17 18  2  0
 18 10  1  0
 10  7  1  0
  7  8  2  0
  7  9  2  0
  7  1  1  0
  1  2  2  0
  1  6  1  0
  2  3  1  0
  3  4  2  0
  4  5  1  0
  5 19  1  0
  5  6  2  0
 19 20  2  0
 19 21  1  0
 21 22  1  0
 22 23  1  0
 23 24  2  0
 23 25  1  0
 25 26  2  0
 25 30  1  0
 26 27  1  0
 27 28  2  0
 28 29  1  0
 29 30  2  0
 30 31  1  0
M  END
>  <minimizedAffinity>  (88) 
-10.74809

$$$$
cs_full_output_folder/data/smiles/1433.pdb
     RDKit          3D

 29 31  0  0  0  0  0  0  0  0999 V2000
   68.3299   45.9690   53.9950 C   0  0  0  0  0  0  0  0  0  0  0  0
   67.8360   45.4974   52.8210 C   0  0  0  0  0  0  0  0  0  0  0  0
   67.9928   46.2640   51.6592 C   0  0  0  0  0  0  0  0  0  0  0  0
   68.6374   47.4838   51.6822 C   0  0  0  0  0  0  0  0  0  0  0  0
   69.1415   47.9666   52.8753 C   0  0  0  0  0  0  0  0  0  0  0  0
   68.9722   47.1899   54.0026 C   0  0  0  0  0  0  0  0  0  0  0  0
   68.4704   45.8388   56.3628 O   0  0  0  0  0  0  0  0  0  0  0  0
   68.2263   45.2607   55.2650 C   0  0  0  0  0  0  0  0  0  0  0  0
   67.8519   43.8936   55.3713 N   0  0  0  0  0  0  0  0  0  0  0  0
   67.7627   43.2375   56.6321 N   0  0  0  0  0  0  0  0  0  0  0  0
   67.4411   41.8715   56.7338 C   0  0  0  0  0  0  0  0  0  0  0  0
   67.2417   41.2870   55.6065 O   0  0  0  0  0  0  0  0  0  0  0  0
   67.3166   41.0785   57.9354 C   0  0  0  0  0  0  0  0  0  0  0  0
   66.6037   41.6008   59.0250 C   0  0  0  0  0  0  0  0  0  0  0  0
   66.4263   40.9329   60.2076 C   0  0  0  0  0  0  0  0  0  0  0  0
   66.9726   39.6734   60.3608 C   0  0  0  0  0  0  0  0  0  0  0  0
   67.6821   39.1156   59.3211 C   0  0  0  0  0  0  0  0  0  0  0  0
   67.8419   39.8312   58.1219 C   0  0  0  0  0  0  0  0  0  0  0  0
   68.5415   39.2579   57.1225 F   0  0  0  0  0  0  0  0  0  0  0  0
   69.9675   49.5082   52.9606 S   0  0  0  0  0  0  0  0  0  0  0  0
   69.8859   50.2510   51.6626 O   0  0  0  0  0  0  0  0  0  0  0  0
   71.4377   49.1911   53.1807 O   0  0  0  0  0  0  0  0  0  0  0  0
   69.3786   50.4710   54.2957 C   0  0  0  0  0  0  0  0  0  0  0  0
   69.2466   51.8352   54.1800 C   0  0  0  0  0  0  0  0  0  0  0  0
   68.7790   52.5646   55.2530 C   0  0  0  0  0  0  0  0  0  0  0  0
   68.4339   51.9831   56.4542 C   0  0  0  0  0  0  0  0  0  0  0  0
   68.5655   50.6085   56.5754 C   0  0  0  0  0  0  0  0  0  0  0  0
   68.2241   50.0559   57.7543 F   0  0  0  0  0  0  0  0  0  0  0  0
   69.0364   49.8711   55.4954 C   0  0  0  0  0  0  0  0  0  0  0  0
  7  8  2  0
  8  9  1  0
  8  1  1  0
  9 10  1  0
 10 11  1  0
 11 12  2  0
 11 13  1  0
 13 14  2  0
 13 18  1  0
 14 15  1  0
 15 16  2  0
 16 17  1  0
 17 18  2  0
 18 19  1  0
  1  2  2  0
  1  6  1  0
  2  3  1  0
  3  4  2  0
  4  5  1  0
  5 20  1  0
  5  6  2  0
 20 21  2  0
 20 22  2  0
 20 23  1  0
 23 24  2  0
 23 29  1  0
 24 25  1  0
 25 26  2  0
 26 27  1  0
 27 28  1  0
 27 29  2  0
M  END
>  <minimizedAffinity>  (89) 
-10.67539

$$$$
cs_full_output_folder/data/smiles/6417.pdb
     RDKit          3D

 31 35  0  0  0  0  0  0  0  0999 V2000
   71.0526   45.9405   58.0771 C   0  0  0  0  0  0  0  0  0  0  0  0
   71.7162   46.7721   58.9473 C   0  0  0  0  0  0  0  0  0  0  0  0
   71.4234   48.1467   58.9792 C   0  0  0  0  0  0  0  0  0  0  0  0
   70.4716   48.6848   58.1421 C   0  0  0  0  0  0  0  0  0  0  0  0
   69.7976   47.8901   57.2717 C   0  0  0  0  0  0  0  0  0  0  0  0
   70.1167   46.5253   57.2679 C   0  0  0  0  0  0  0  0  0  0  0  0
   73.7047   44.4767   57.5155 O   0  0  0  0  0  0  0  0  0  0  0  0
   72.6044   43.9173   57.7885 C   0  0  0  0  0  0  0  0  0  0  0  0
   72.4187   42.4511   57.8824 C   0  0  0  0  0  0  0  0  0  0  0  0
   71.1694   42.1630   58.1805 C   0  0  0  0  0  0  0  0  0  0  0  0
   70.4766   43.4403   58.2969 C   0  0  0  0  0  0  0  0  0  0  0  0
   69.2502   43.5364   58.5766 O   0  0  0  0  0  0  0  0  0  0  0  0
   71.3596   44.5435   58.0546 N   0  0  0  0  0  0  0  0  0  0  0  0
   70.6467   40.8032   58.3488 C   0  0  0  0  0  0  0  0  0  0  0  0
   71.4554   39.7491   58.7130 C   0  0  0  0  0  0  0  0  0  0  0  0
   71.0068   38.4617   58.8811 C   0  0  0  0  0  0  0  0  0  0  0  0
   69.6587   38.1776   58.6770 C   0  0  0  0  0  0  0  0  0  0  0  0
   68.8275   39.2088   58.3131 C   0  0  0  0  0  0  0  0  0  0  0  0
   69.3185   40.5069   58.1516 C   0  0  0  0  0  0  0  0  0  0  0  0
   68.7537   48.4135   56.3605 C   0  0  0  0  0  0  0  0  0  0  0  0
   69.1684   48.4751   54.9398 C   0  0  0  0  0  0  0  0  0  0  0  0
   70.0440   49.4532   54.5321 N   0  0  0  0  0  0  0  0  0  0  0  0
   70.4884   49.5437   53.2975 N   0  0  0  0  0  0  0  0  0  0  0  0
   70.1239   48.6853   52.3314 C   0  0  0  0  0  0  0  0  0  0  0  0
   70.5806   48.8096   51.1442 O   0  0  0  0  0  0  0  0  0  0  0  0
   69.2502   47.6806   52.6603 C   0  0  0  0  0  0  0  0  0  0  0  0
   68.8572   46.8034   51.6794 C   0  0  0  0  0  0  0  0  0  0  0  0
   67.9682   45.7951   51.9875 C   0  0  0  0  0  0  0  0  0  0  0  0
   67.5101   45.7138   53.2815 C   0  0  0  0  0  0  0  0  0  0  0  0
   67.8870   46.5791   54.2848 C   0  0  0  0  0  0  0  0  0  0  0  0
   68.7879   47.5945   53.9605 C   0  0  0  0  0  0  0  0  0  0  0  0
  7  8  2  0
  8  9  1  0
  8 13  1  0
  9 10  2  0
 10 14  1  0
 10 11  1  0
 14 15  2  0
 14 19  1  0
 15 16  1  0
 16 17  2  0
 17 18  1  0
 18 19  2  0
 11 12  2  0
 11 13  1  0
 13  1  1  0
  1  2  2  0
  1  6  1  0
  2  3  1  0
  3  4  2  0
  4  5  1  0
  5 20  1  0
  5  6  2  0
 20 21  1  0
 21 22  2  0
 21 31  1  0
 22 23  1  0
 23 24  1  0
 24 25  2  0
 24 26  1  0
 26 27  1  0
 26 31  2  0
 27 28  2  0
 28 29  1  0
 29 30  2  0
 30 31  1  0
M  END
>  <minimizedAffinity>  (90) 
-10.36129

$$$$
cs_full_output_folder/data/smiles/2766.pdb
     RDKit          3D

 26 27  0  0  0  0  0  0  0  0999 V2000
   69.9921   49.1335   52.5566 S   0  0  0  0  0  0  0  0  0  0  0  0
   70.1011   49.0425   51.0519 O   0  0  0  0  0  0  0  0  0  0  0  0
   71.3913   49.2219   53.0796 O   0  0  0  0  0  0  0  0  0  0  0  0
   69.2017   47.7032   53.1707 C   0  0  0  0  0  0  0  0  0  0  0  0
   68.5654   46.8271   52.3170 C   0  0  0  0  0  0  0  0  0  0  0  0
   68.5274   47.0293   50.9726 F   0  0  0  0  0  0  0  0  0  0  0  0
   67.9394   45.6920   52.8398 C   0  0  0  0  0  0  0  0  0  0  0  0
   67.3211   44.8431   51.9946 F   0  0  0  0  0  0  0  0  0  0  0  0
   67.9870   45.5007   54.1874 C   0  0  0  0  0  0  0  0  0  0  0  0
   67.3768   44.3949   54.6977 F   0  0  0  0  0  0  0  0  0  0  0  0
   68.6248   46.3807   55.0390 C   0  0  0  0  0  0  0  0  0  0  0  0
   68.6608   46.1740   56.3692 F   0  0  0  0  0  0  0  0  0  0  0  0
   69.2473   47.5060   54.5370 C   0  0  0  0  0  0  0  0  0  0  0  0
   69.8795   48.3804   55.3704 F   0  0  0  0  0  0  0  0  0  0  0  0
   69.1415   50.5596   52.9370 N   0  0  0  0  0  0  0  0  0  0  0  0
   71.3089   52.3463   55.2720 C   0  0  0  0  0  0  0  0  0  0  0  0
   70.3640   53.0135   56.0490 C   0  0  0  0  0  0  0  0  0  0  0  0
   69.0236   52.8709   55.8008 C   0  0  0  0  0  0  0  0  0  0  0  0
   68.5969   52.0696   54.7848 C   0  0  0  0  0  0  0  0  0  0  0  0
   69.5188   51.4072   54.0130 C   0  0  0  0  0  0  0  0  0  0  0  0
   70.8564   51.5538   54.2656 C   0  0  0  0  0  0  0  0  0  0  0  0
   72.6888   52.5153   55.5574 N   0  0  0  0  0  0  0  0  0  0  0  0
   74.0283   50.5993   54.0086 N   0  0  0  0  0  0  0  0  0  0  0  0
   73.9176   52.2635   54.3769 S   0  0  0  0  0  0  0  0  0  0  0  0
   75.2366   52.7013   54.9469 O   0  0  0  0  0  0  0  0  0  0  0  0
   73.6561   53.0496   53.1454 O   0  0  0  0  0  0  0  0  0  0  0  0
 23 24  1  0
 24 25  2  0
 24 26  2  0
 24 22  1  0
 22 16  1  0
 16 17  2  0
 16 21  1  0
 17 18  1  0
 18 19  2  0
 19 20  1  0
 20 15  1  0
 20 21  2  0
 15  1  1  0
  1  2  2  0
  1  3  2  0
  1  4  1  0
  4  5  2  0
  4 13  1  0
  5  6  1  0
  5  7  1  0
  7  8  1  0
  7  9  2  0
  9 10  1  0
  9 11  1  0
 11 12  1  0
 11 13  2  0
 13 14  1  0
M  END
>  <minimizedAffinity>  (91) 
-10.25835

$$$$
cs_full_output_folder/data/smiles/1617.pdb
     RDKit          3D

 33 37  0  0  0  0  0  0  0  0999 V2000
   71.5234   47.2344   58.8166 C   0  0  0  0  0  0  0  0  0  0  0  0
   70.6736   48.0184   58.0468 C   0  0  0  0  0  0  0  0  0  0  0  0
   69.7819   47.4715   57.1685 C   0  0  0  0  0  0  0  0  0  0  0  0
   69.7275   46.0665   57.0492 C   0  0  0  0  0  0  0  0  0  0  0  0
   70.5475   45.2814   57.7924 C   0  0  0  0  0  0  0  0  0  0  0  0
   71.4369   45.8738   58.6695 C   0  0  0  0  0  0  0  0  0  0  0  0
   72.2386   45.0452   59.3951 F   0  0  0  0  0  0  0  0  0  0  0  0
   76.2572   48.9493   58.1118 N   0  0  0  0  0  0  0  0  0  0  0  0
   76.5164   47.9065   59.0719 C   0  0  0  0  0  0  0  0  0  0  0  0
   75.9271   48.2873   60.3940 C   0  0  0  0  0  0  0  0  0  0  0  0
   74.5999   48.9283   60.2180 C   0  0  0  0  0  0  0  0  0  0  0  0
   73.7370   48.3316   59.2391 N   0  0  0  0  0  0  0  0  0  0  0  0
   72.4930   47.8579   59.7152 C   0  0  0  0  0  0  0  0  0  0  0  0
   72.2258   47.9775   60.9265 O   0  0  0  0  0  0  0  0  0  0  0  0
   73.9731   48.1517   57.8172 C   0  0  0  0  0  0  0  0  0  0  0  0
   75.0464   49.0886   57.3111 C   0  0  0  0  0  0  0  0  0  0  0  0
   77.2075   51.0932   58.6877 N   0  0  0  0  0  0  0  0  0  0  0  0
   77.2448   49.9215   57.8995 C   0  0  0  0  0  0  0  0  0  0  0  0
   78.2106   49.7930   57.0077 C   0  0  0  0  0  0  0  0  0  0  0  0
   79.4333   50.3454   56.3412 C   0  0  0  0  0  0  0  0  0  0  0  0
   78.9493   49.0567   55.9138 C   0  0  0  0  0  0  0  0  0  0  0  0
   68.8565   48.2406   56.3191 C   0  0  0  0  0  0  0  0  0  0  0  0
   69.3220   48.2318   54.9248 C   0  0  0  0  0  0  0  0  0  0  0  0
   70.2913   49.1501   54.6160 N   0  0  0  0  0  0  0  0  0  0  0  0
   70.7636   49.3391   53.4164 N   0  0  0  0  0  0  0  0  0  0  0  0
   70.2751   48.5830   52.3894 C   0  0  0  0  0  0  0  0  0  0  0  0
   70.7052   48.7407   51.2256 O   0  0  0  0  0  0  0  0  0  0  0  0
   69.3000   47.6345   52.6113 C   0  0  0  0  0  0  0  0  0  0  0  0
   68.7963   46.8364   51.6018 C   0  0  0  0  0  0  0  0  0  0  0  0
   67.8377   45.8926   51.9103 C   0  0  0  0  0  0  0  0  0  0  0  0
   67.3717   45.7265   53.1941 C   0  0  0  0  0  0  0  0  0  0  0  0
   67.8776   46.5241   54.1950 C   0  0  0  0  0  0  0  0  0  0  0  0
   68.8313   47.4713   53.9033 C   0  0  0  0  0  0  0  0  0  0  0  0
 17 18  1  0
 18 19  2  0
 18  8  1  0
 19 20  1  0
 19 21  1  0
 20 21  1  0
  8  9  1  0
  8 16  1  0
  9 10  1  0
 10 11  1  0
 11 12  1  0
 12 13  1  0
 12 15  1  0
 13 14  2  0
 13  1  1  0
  1  2  2  0
  1  6  1  0
  2  3  1  0
  3 22  1  0
  3  4  2  0
 22 23  1  0
 23 24  2  0
 23 33  1  0
 24 25  1  0
 25 26  1  0
 26 27  2  0
 26 28  1  0
 28 29  1  0
 28 33  2  0
 29 30  2  0
 30 31  1  0
 31 32  2  0
 32 33  1  0
  4  5  1  0
  5  6  2  0
  6  7  1  0
 15 16  1  0
M  END
>  <minimizedAffinity>  (92) 
-10.18130

$$$$
cs_full_output_folder/data/smiles/1868.pdb
     RDKit          3D

 27 29  0  0  0  0  0  0  0  0999 V2000
   70.0716   49.1877   52.5280 S   0  0  0  0  0  0  0  0  0  0  0  0
   70.1655   49.0192   51.0400 O   0  0  0  0  0  0  0  0  0  0  0  0
   71.4663   49.2956   53.0829 O   0  0  0  0  0  0  0  0  0  0  0  0
   69.2669   47.7574   53.1645 C   0  0  0  0  0  0  0  0  0  0  0  0
   69.2959   47.5533   54.5354 C   0  0  0  0  0  0  0  0  0  0  0  0
   69.9305   48.4511   55.3320 F   0  0  0  0  0  0  0  0  0  0  0  0
   68.6813   46.4456   55.0742 C   0  0  0  0  0  0  0  0  0  0  0  0
   68.6983   46.2289   56.4186 F   0  0  0  0  0  0  0  0  0  0  0  0
   68.0389   45.5323   54.2926 C   0  0  0  0  0  0  0  0  0  0  0  0
   67.4385   44.4409   54.8709 F   0  0  0  0  0  0  0  0  0  0  0  0
   68.0043   45.7246   52.9277 C   0  0  0  0  0  0  0  0  0  0  0  0
   67.3858   44.8571   52.1091 F   0  0  0  0  0  0  0  0  0  0  0  0
   68.6245   46.8436   52.3807 C   0  0  0  0  0  0  0  0  0  0  0  0
   68.5844   47.0132   51.0558 F   0  0  0  0  0  0  0  0  0  0  0  0
   69.1537   50.5989   52.8667 N   0  0  0  0  0  0  0  0  0  0  0  0
   73.7362   52.2390   53.4725 N   0  0  0  0  0  0  0  0  0  0  0  0
   73.7504   52.7600   54.7758 C   0  0  0  0  0  0  0  0  0  0  0  0
   74.8564   53.1439   55.2651 O   0  0  0  0  0  0  0  0  0  0  0  0
   72.5927   52.8871   55.5941 N   0  0  0  0  0  0  0  0  0  0  0  0
   72.5008   53.4041   56.9318 C   0  0  0  0  0  0  0  0  0  0  0  0
   71.0612   53.8790   57.0526 C   0  0  0  0  0  0  0  0  0  0  0  0
   70.3428   53.0710   56.0465 C   0  0  0  0  0  0  0  0  0  0  0  0
   69.0005   52.8366   55.8610 C   0  0  0  0  0  0  0  0  0  0  0  0
   68.6204   52.0127   54.8043 C   0  0  0  0  0  0  0  0  0  0  0  0
   69.5137   51.4293   53.9479 C   0  0  0  0  0  0  0  0  0  0  0  0
   70.8641   51.7008   54.1829 C   0  0  0  0  0  0  0  0  0  0  0  0
   71.2692   52.5097   55.2175 C   0  0  0  0  0  0  0  0  0  0  0  0
 16 17  1  0
 17 18  2  0
 17 19  1  0
 19 20  1  0
 19 27  1  0
 20 21  1  0
 21 22  1  0
 22 23  2  0
 22 27  1  0
 23 24  1  0
 24 25  2  0
 25 15  1  0
 25 26  1  0
 15  1  1  0
  1  2  2  0
  1  3  2  0
  1  4  1  0
  4  5  2  0
  4 13  1  0
  5  6  1  0
  5  7  1  0
  7  8  1  0
  7  9  2  0
  9 10  1  0
  9 11  1  0
 11 12  1  0
 11 13  2  0
 13 14  1  0
 26 27  2  0
M  END
>  <minimizedAffinity>  (93) 
-10.07618

$$$$
cs_full_output_folder/data/smiles/161.pdb
     RDKit          3D

 28 30  0  0  0  0  0  0  0  0999 V2000
   68.3957   46.0296   54.1440 C   0  0  0  0  0  0  0  0  0  0  0  0
   67.8300   45.6709   52.9273 C   0  0  0  0  0  0  0  0  0  0  0  0
   67.9762   46.4378   51.7825 C   0  0  0  0  0  0  0  0  0  0  0  0
   68.7022   47.5941   51.8434 C   0  0  0  0  0  0  0  0  0  0  0  0
   69.2805   47.9858   53.0353 C   0  0  0  0  0  0  0  0  0  0  0  0
   69.1125   47.2016   54.1378 C   0  0  0  0  0  0  0  0  0  0  0  0
   67.7813   43.8700   55.3522 N   0  0  0  0  0  0  0  0  0  0  0  0
   68.2493   45.2100   55.3331 C   0  0  0  0  0  0  0  0  0  0  0  0
   68.5542   45.6941   56.4518 O   0  0  0  0  0  0  0  0  0  0  0  0
   67.6058   41.0248   55.6300 O   0  0  0  0  0  0  0  0  0  0  0  0
   67.6058   41.7372   56.6469 C   0  0  0  0  0  0  0  0  0  0  0  0
   67.6888   43.1318   56.5355 N   0  0  0  0  0  0  0  0  0  0  0  0
   67.5121   41.0503   57.9849 C   0  0  0  0  0  0  0  0  0  0  0  0
   68.7521   40.2787   58.2589 C   0  0  0  0  0  0  0  0  0  0  0  0
   69.9378   40.9846   58.2387 C   0  0  0  0  0  0  0  0  0  0  0  0
   71.1498   40.3725   58.4721 C   0  0  0  0  0  0  0  0  0  0  0  0
   71.1520   39.0120   58.7327 C   0  0  0  0  0  0  0  0  0  0  0  0
   69.9950   38.2701   58.7631 C   0  0  0  0  0  0  0  0  0  0  0  0
   68.7908   38.9278   58.5213 C   0  0  0  0  0  0  0  0  0  0  0  0
   70.2074   49.4582   53.0557 S   0  0  0  0  0  0  0  0  0  0  0  0
   71.6545   49.1035   52.8530 O   0  0  0  0  0  0  0  0  0  0  0  0
   69.7528   50.2701   51.8500 O   0  0  0  0  0  0  0  0  0  0  0  0
   70.0147   50.3920   54.4205 N   0  0  0  0  0  0  0  0  0  0  0  0
   69.9198   49.8155   55.6843 C   0  0  0  0  0  0  0  0  0  0  0  0
   68.7852   50.2888   56.5503 C   0  0  0  0  0  0  0  0  0  0  0  0
   68.2263   51.6209   56.2136 C   0  0  0  0  0  0  0  0  0  0  0  0
   68.2250   51.9559   54.7392 C   0  0  0  0  0  0  0  0  0  0  0  0
   69.6496   51.7489   54.2575 C   0  0  0  0  0  0  0  0  0  0  0  0
 10 11  2  0
 11 13  1  0
 11 12  1  0
 13 14  1  0
 14 15  2  0
 14 19  1  0
 15 16  1  0
 16 17  2  0
 17 18  1  0
 18 19  2  0
 12  7  1  0
  7  8  1  0
  8  9  2  0
  8  1  1  0
  1  2  2  0
  1  6  1  0
  2  3  1  0
  3  4  2  0
  4  5  1  0
  5 20  1  0
  5  6  2  0
 20 21  2  0
 20 22  2  0
 20 23  1  0
 23 24  1  0
 23 28  1  0
 24 25  1  0
 25 26  1  0
 26 27  1  0
 27 28  1  0
M  END
>  <minimizedAffinity>  (94) 
-10.03452

$$$$
cs_full_output_folder/data/smiles/75.pdb
     RDKit          3D

 29 31  0  0  0  0  0  0  0  0999 V2000
   68.4158   45.9330   54.2638 C   0  0  0  0  0  0  0  0  0  0  0  0
   67.9192   45.6054   53.0316 C   0  0  0  0  0  0  0  0  0  0  0  0
   68.0734   46.4444   51.9413 C   0  0  0  0  0  0  0  0  0  0  0  0
   68.7469   47.6360   52.1232 C   0  0  0  0  0  0  0  0  0  0  0  0
   69.2697   48.0241   53.3374 C   0  0  0  0  0  0  0  0  0  0  0  0
   69.0779   47.1315   54.3912 C   0  0  0  0  0  0  0  0  0  0  0  0
   67.7804   43.7690   55.4298 N   0  0  0  0  0  0  0  0  0  0  0  0
   68.2872   45.0974   55.4458 C   0  0  0  0  0  0  0  0  0  0  0  0
   68.6333   45.5350   56.5716 O   0  0  0  0  0  0  0  0  0  0  0  0
   67.5346   41.0316   55.4605 O   0  0  0  0  0  0  0  0  0  0  0  0
   67.5482   41.5834   56.5866 C   0  0  0  0  0  0  0  0  0  0  0  0
   67.6742   42.9965   56.5980 N   0  0  0  0  0  0  0  0  0  0  0  0
   67.4368   40.7635   57.7875 C   0  0  0  0  0  0  0  0  0  0  0  0
   66.7154   41.2197   58.8707 C   0  0  0  0  0  0  0  0  0  0  0  0
   66.5690   40.4974   60.0361 C   0  0  0  0  0  0  0  0  0  0  0  0
   67.1536   39.2884   60.1331 N   0  0  0  0  0  0  0  0  0  0  0  0
   67.8729   38.8011   59.0906 C   0  0  0  0  0  0  0  0  0  0  0  0
   68.0197   39.5236   57.9243 C   0  0  0  0  0  0  0  0  0  0  0  0
   70.1340   49.5312   53.5844 S   0  0  0  0  0  0  0  0  0  0  0  0
   71.5797   49.3500   53.1436 O   0  0  0  0  0  0  0  0  0  0  0  0
   69.5492   50.5709   52.7038 O   0  0  0  0  0  0  0  0  0  0  0  0
   70.1439   50.0570   55.2007 N   0  0  0  0  0  0  0  0  0  0  0  0
   69.0343   50.1612   56.0603 C   0  0  0  0  0  0  0  0  0  0  0  0
   68.6462   49.0896   56.8271 C   0  0  0  0  0  0  0  0  0  0  0  0
   67.5571   49.1445   57.7011 C   0  0  0  0  0  0  0  0  0  0  0  0
   66.8725   50.3356   57.7690 C   0  0  0  0  0  0  0  0  0  0  0  0
   67.2327   51.4265   57.0179 C   0  0  0  0  0  0  0  0  0  0  0  0
   68.3078   51.3236   56.1742 C   0  0  0  0  0  0  0  0  0  0  0  0
   68.6245   52.4373   55.4498 F   0  0  0  0  0  0  0  0  0  0  0  0
 10 11  2  0
 11 12  1  0
 11 13  1  0
 12  7  1  0
  7  8  1  0
  8  9  2  0
  8  1  1  0
  1  2  2  0
  1  6  1  0
  2  3  1  0
  3  4  2  0
  4  5  1  0
  5 19  1  0
  5  6  2  0
 19 20  2  0
 19 21  2  0
 19 22  1  0
 22 23  1  0
 23 24  2  0
 23 28  1  0
 24 25  1  0
 25 26  2  0
 26 27  1  0
 27 28  2  0
 28 29  1  0
 13 14  2  0
 13 18  1  0
 14 15  1  0
 15 16  2  0
 16 17  1  0
 17 18  2  0
M  END
>  <minimizedAffinity>  (95) 
-10.00645

$$$$
cs_full_output_folder/data/smiles/7297.pdb
     RDKit          3D

 31 35  0  0  0  0  0  0  0  0999 V2000
   71.4096   47.0148   58.8370 C   0  0  0  0  0  0  0  0  0  0  0  0
   71.3807   45.6419   58.7708 C   0  0  0  0  0  0  0  0  0  0  0  0
   70.5345   45.0404   57.8712 C   0  0  0  0  0  0  0  0  0  0  0  0
   69.7127   45.8158   57.0351 C   0  0  0  0  0  0  0  0  0  0  0  0
   69.7269   47.1802   57.0873 C   0  0  0  0  0  0  0  0  0  0  0  0
   70.6005   47.7480   58.0128 C   0  0  0  0  0  0  0  0  0  0  0  0
   72.0128   47.6838   61.0278 O   0  0  0  0  0  0  0  0  0  0  0  0
   72.2855   47.7057   59.7891 C   0  0  0  0  0  0  0  0  0  0  0  0
   73.4264   48.3936   59.3364 N   0  0  0  0  0  0  0  0  0  0  0  0
   74.2826   49.0806   60.2894 C   0  0  0  0  0  0  0  0  0  0  0  0
   74.3983   50.5571   59.9267 C   0  0  0  0  0  0  0  0  0  0  0  0
   73.7531   50.8003   58.5673 C   0  0  0  0  0  0  0  0  0  0  0  0
   74.3729   49.8003   57.6059 C   0  0  0  0  0  0  0  0  0  0  0  0
   73.7804   48.4376   57.9228 C   0  0  0  0  0  0  0  0  0  0  0  0
   74.0491   52.0631   58.0691 O   0  0  0  0  0  0  0  0  0  0  0  0
   72.8745   52.8283   58.1841 C   0  0  0  0  0  0  0  0  0  0  0  0
   71.6695   52.1432   57.5345 C   0  0  0  0  0  0  0  0  0  0  0  0
   71.3447   53.4097   56.7877 C   0  0  0  0  0  0  0  0  0  0  0  0
   72.7412   53.9155   57.1701 C   0  0  0  0  0  0  0  0  0  0  0  0
   68.8619   47.9872   56.2428 C   0  0  0  0  0  0  0  0  0  0  0  0
   69.3223   48.1828   54.8543 C   0  0  0  0  0  0  0  0  0  0  0  0
   70.2098   49.1390   54.5423 N   0  0  0  0  0  0  0  0  0  0  0  0
   70.5835   49.3573   53.3095 N   0  0  0  0  0  0  0  0  0  0  0  0
   70.1124   48.6486   52.2702 C   0  0  0  0  0  0  0  0  0  0  0  0
   70.4932   48.8843   51.0717 O   0  0  0  0  0  0  0  0  0  0  0  0
   69.1970   47.6473   52.5161 C   0  0  0  0  0  0  0  0  0  0  0  0
   68.7115   46.9002   51.4669 C   0  0  0  0  0  0  0  0  0  0  0  0
   67.8062   45.8829   51.6930 C   0  0  0  0  0  0  0  0  0  0  0  0
   67.3940   45.6244   52.9818 C   0  0  0  0  0  0  0  0  0  0  0  0
   67.9066   46.4023   54.0148 C   0  0  0  0  0  0  0  0  0  0  0  0
   68.8081   47.4257   53.8386 C   0  0  0  0  0  0  0  0  0  0  0  0
  7  8  2  0
  8  1  1  0
  8  9  1  0
  1  2  2  0
  1  6  1  0
  2  3  1  0
  3  4  2  0
  4  5  1  0
  5 20  1  0
  5  6  2  0
 20 21  1  0
 21 22  2  0
 21 31  1  0
 22 23  1  0
 23 24  1  0
 24 25  2  0
 24 26  1  0
 26 27  1  0
 26 31  2  0
 27 28  2  0
 28 29  1  0
 29 30  2  0
 30 31  1  0
  9 10  1  0
  9 14  1  0
 10 11  1  0
 11 12  1  0
 12 15  1  0
 12 13  1  0
 15 16  1  0
 16 17  1  0
 16 19  1  0
 17 18  1  0
 18 19  1  0
 13 14  1  0
M  END
>  <minimizedAffinity>  (96) 
-9.98685

$$$$
cs_full_output_folder/data/smiles/76.pdb
     RDKit          3D

 30 33  0  0  0  0  0  0  0  0999 V2000
   68.4216   46.0582   54.1671 C   0  0  0  0  0  0  0  0  0  0  0  0
   67.8602   45.6529   52.9808 C   0  0  0  0  0  0  0  0  0  0  0  0
   67.9961   46.4141   51.8124 C   0  0  0  0  0  0  0  0  0  0  0  0
   68.7198   47.6001   51.8835 C   0  0  0  0  0  0  0  0  0  0  0  0
   69.2909   48.0255   53.0608 C   0  0  0  0  0  0  0  0  0  0  0  0
   69.1273   47.2458   54.1690 C   0  0  0  0  0  0  0  0  0  0  0  0
   67.8182   43.9129   55.3968 N   0  0  0  0  0  0  0  0  0  0  0  0
   68.2592   45.2422   55.3555 C   0  0  0  0  0  0  0  0  0  0  0  0
   68.5439   45.7877   56.4701 O   0  0  0  0  0  0  0  0  0  0  0  0
   67.5621   41.2006   55.4611 O   0  0  0  0  0  0  0  0  0  0  0  0
   67.5463   41.7539   56.5922 C   0  0  0  0  0  0  0  0  0  0  0  0
   67.6785   43.1701   56.5792 N   0  0  0  0  0  0  0  0  0  0  0  0
   67.4016   40.9706   57.8002 C   0  0  0  0  0  0  0  0  0  0  0  0
   68.0030   39.7364   57.8671 C   0  0  0  0  0  0  0  0  0  0  0  0
   67.8814   38.9560   59.0217 C   0  0  0  0  0  0  0  0  0  0  0  0
   67.1612   39.4052   60.1082 C   0  0  0  0  0  0  0  0  0  0  0  0
   66.5654   40.6290   60.0406 C   0  0  0  0  0  0  0  0  0  0  0  0
   66.6885   41.4018   58.8914 C   0  0  0  0  0  0  0  0  0  0  0  0
   70.1807   49.5221   53.0645 S   0  0  0  0  0  0  0  0  0  0  0  0
   69.7653   50.3150   51.8575 O   0  0  0  0  0  0  0  0  0  0  0  0
   71.6434   49.2911   53.1177 O   0  0  0  0  0  0  0  0  0  0  0  0
   69.6345   50.4330   54.4501 N   0  0  0  0  0  0  0  0  0  0  0  0
   68.7687   51.5961   54.4427 C   0  0  0  0  0  0  0  0  0  0  0  0
   68.0345   51.5569   55.7420 C   0  0  0  0  0  0  0  0  0  0  0  0
   69.0139   50.8443   56.6277 C   0  0  0  0  0  0  0  0  0  0  0  0
   69.0648   50.7885   57.9922 C   0  0  0  0  0  0  0  0  0  0  0  0
   70.0740   50.0586   58.5710 C   0  0  0  0  0  0  0  0  0  0  0  0
   71.0087   49.4014   57.7933 C   0  0  0  0  0  0  0  0  0  0  0  0
   70.9545   49.4613   56.4165 C   0  0  0  0  0  0  0  0  0  0  0  0
   69.9430   50.1917   55.8233 C   0  0  0  0  0  0  0  0  0  0  0  0
 10 11  2  0
 11 12  1  0
 11 13  1  0
 12  7  1  0
  7  8  1  0
  8  9  2  0
  8  1  1  0
  1  2  2  0
  1  6  1  0
  2  3  1  0
  3  4  2  0
  4  5  1  0
  5 19  1  0
  5  6  2  0
 19 20  2  0
 19 21  2  0
 19 22  1  0
 22 23  1  0
 22 30  1  0
 23 24  1  0
 24 25  1  0
 25 26  1  0
 25 30  2  0
 26 27  2  0
 27 28  1  0
 28 29  2  0
 29 30  1  0
 13 14  2  0
 13 18  1  0
 14 15  1  0
 15 16  2  0
 16 17  1  0
 17 18  2  0
M  END
>  <minimizedAffinity>  (97) 
-9.98060

$$$$
cs_full_output_folder/data/smiles/3260.pdb
     RDKit          3D

 32 36  0  0  0  0  0  0  0  0999 V2000
   71.8709   46.9242   59.3464 C   0  0  0  0  0  0  0  0  0  0  0  0
   72.0882   45.5592   59.2195 C   0  0  0  0  0  0  0  0  0  0  0  0
   71.3280   44.8216   58.3417 C   0  0  0  0  0  0  0  0  0  0  0  0
   70.3356   45.4559   57.5818 C   0  0  0  0  0  0  0  0  0  0  0  0
   70.0933   46.7920   57.6802 C   0  0  0  0  0  0  0  0  0  0  0  0
   70.8938   47.5094   58.5896 C   0  0  0  0  0  0  0  0  0  0  0  0
   72.4290   47.7594   61.4936 O   0  0  0  0  0  0  0  0  0  0  0  0
   72.7044   47.7074   60.2769 C   0  0  0  0  0  0  0  0  0  0  0  0
   73.8360   48.4026   59.7291 N   0  0  0  0  0  0  0  0  0  0  0  0
   74.7146   49.1933   60.5447 C   0  0  0  0  0  0  0  0  0  0  0  0
   75.0212   50.5495   59.9371 C   0  0  0  0  0  0  0  0  0  0  0  0
   74.2697   50.7792   58.7260 N   0  0  0  0  0  0  0  0  0  0  0  0
   74.1398   49.7168   57.7372 C   0  0  0  0  0  0  0  0  0  0  0  0
   74.1579   48.3416   58.3118 C   0  0  0  0  0  0  0  0  0  0  0  0
   73.6610   52.0389   58.4733 C   0  0  0  0  0  0  0  0  0  0  0  0
   72.4327   52.1931   57.8857 C   0  0  0  0  0  0  0  0  0  0  0  0
   71.8939   53.4377   57.6566 C   0  0  0  0  0  0  0  0  0  0  0  0
   72.6169   54.5491   58.0312 C   0  0  0  0  0  0  0  0  0  0  0  0
   73.8494   54.3839   58.6210 C   0  0  0  0  0  0  0  0  0  0  0  0
   74.3533   53.1559   58.8342 N   0  0  0  0  0  0  0  0  0  0  0  0
   69.0824   47.5613   56.8991 C   0  0  0  0  0  0  0  0  0  0  0  0
   68.6455   46.9100   55.6553 C   0  0  0  0  0  0  0  0  0  0  0  0
   68.1094   45.6547   55.7600 N   0  0  0  0  0  0  0  0  0  0  0  0
   67.7376   44.9186   54.7328 N   0  0  0  0  0  0  0  0  0  0  0  0
   67.8829   45.4066   53.4966 C   0  0  0  0  0  0  0  0  0  0  0  0
   67.5229   44.6895   52.5323 O   0  0  0  0  0  0  0  0  0  0  0  0
   68.4179   46.6729   53.3184 C   0  0  0  0  0  0  0  0  0  0  0  0
   68.8032   47.4344   54.4159 C   0  0  0  0  0  0  0  0  0  0  0  0
   69.2888   48.7764   54.1655 C   0  0  0  0  0  0  0  0  0  0  0  0
   70.3054   48.8001   53.0156 C   0  0  0  0  0  0  0  0  0  0  0  0
   69.9298   47.9045   51.8830 C   0  0  0  0  0  0  0  0  0  0  0  0
   68.5943   47.2480   51.9805 C   0  0  0  0  0  0  0  0  0  0  0  0
  7  8  2  0
  8  1  1  0
  8  9  1  0
  1  2  2  0
  1  6  1  0
  2  3  1  0
  3  4  2  0
  4  5  1  0
  5 21  1  0
  5  6  2  0
 21 22  1  0
 22 23  2  0
 22 28  1  0
 23 24  1  0
 24 25  1  0
 25 26  2  0
 25 27  1  0
 27 28  2  0
 27 32  1  0
 28 29  1  0
 29 30  1  0
 30 31  1  0
 31 32  1  0
  9 10  1  0
  9 14  1  0
 10 11  1  0
 11 12  1  0
 12 15  1  0
 12 13  1  0
 15 16  2  0
 15 20  1  0
 16 17  1  0
 17 18  2  0
 18 19  1  0
 19 20  2  0
 13 14  1  0
M  END
>  <minimizedAffinity>  (98) 
-9.95287

$$$$
cs_full_output_folder/data/smiles/324.pdb
     RDKit          3D

 28 30  0  0  0  0  0  0  0  0999 V2000
   68.3814   45.9638   54.1264 C   0  0  0  0  0  0  0  0  0  0  0  0
   67.8234   45.5756   52.9350 C   0  0  0  0  0  0  0  0  0  0  0  0
   67.9530   46.3327   51.7759 C   0  0  0  0  0  0  0  0  0  0  0  0
   68.6630   47.5150   51.8102 C   0  0  0  0  0  0  0  0  0  0  0  0
   69.2405   47.9365   53.0002 C   0  0  0  0  0  0  0  0  0  0  0  0
   69.0827   47.1498   54.1207 C   0  0  0  0  0  0  0  0  0  0  0  0
   68.5513   45.7435   56.4588 O   0  0  0  0  0  0  0  0  0  0  0  0
   68.2698   45.2008   55.3647 C   0  0  0  0  0  0  0  0  0  0  0  0
   67.8544   43.8462   55.4199 N   0  0  0  0  0  0  0  0  0  0  0  0
   67.7582   43.1330   56.6470 N   0  0  0  0  0  0  0  0  0  0  0  0
   67.5745   41.7302   56.6707 C   0  0  0  0  0  0  0  0  0  0  0  0
   67.5086   41.1960   55.5068 O   0  0  0  0  0  0  0  0  0  0  0  0
   67.4620   40.8921   57.8503 C   0  0  0  0  0  0  0  0  0  0  0  0
   68.1242   39.6590   57.8033 C   0  0  0  0  0  0  0  0  0  0  0  0
   68.1303   38.7469   58.8108 C   0  0  0  0  0  0  0  0  0  0  0  0
   67.4277   39.0578   59.9758 C   0  0  0  0  0  0  0  0  0  0  0  0
   66.7666   40.2655   60.0500 C   0  0  0  0  0  0  0  0  0  0  0  0
   66.7859   41.1784   58.9867 C   0  0  0  0  0  0  0  0  0  0  0  0
   66.1124   42.3570   59.1168 O   0  0  0  0  0  0  0  0  0  0  0  0
   70.1207   49.4278   52.9894 S   0  0  0  0  0  0  0  0  0  0  0  0
   71.5972   49.1057   52.9096 O   0  0  0  0  0  0  0  0  0  0  0  0
   69.7863   50.1425   51.7003 O   0  0  0  0  0  0  0  0  0  0  0  0
   69.8709   50.3919   54.3588 N   0  0  0  0  0  0  0  0  0  0  0  0
   68.7355   51.2502   54.1302 C   0  0  0  0  0  0  0  0  0  0  0  0
   68.3509   51.9929   55.3973 C   0  0  0  0  0  0  0  0  0  0  0  0
   69.4886   52.7156   56.0297 C   0  0  0  0  0  0  0  0  0  0  0  0
   70.8077   52.0265   55.9333 C   0  0  0  0  0  0  0  0  0  0  0  0
   71.0010   51.2295   54.6932 C   0  0  0  0  0  0  0  0  0  0  0  0
  7  8  2  0
  8  9  1  0
  8  1  1  0
  9 10  1  0
 10 11  1  0
 11 12  2  0
 11 13  1  0
 13 14  2  0
 13 18  1  0
 14 15  1  0
 15 16  2  0
 16 17  1  0
 17 18  2  0
 18 19  1  0
  1  2  2  0
  1  6  1  0
  2  3  1  0
  3  4  2  0
  4  5  1  0
  5 20  1  0
  5  6  2  0
 20 21  2  0
 20 22  2  0
 20 23  1  0
 23 24  1  0
 23 28  1  0
 24 25  1  0
 25 26  1  0
 26 27  1  0
 27 28  1  0
M  END
>  <minimizedAffinity>  (99) 
-9.89880

$$$$
cs_full_output_folder/data/smiles/7931.pdb
     RDKit          3D

 32 36  0  0  0  0  0  0  0  0999 V2000
   71.5100   47.2091   58.7582 C   0  0  0  0  0  0  0  0  0  0  0  0
   70.6594   48.0378   58.0011 C   0  0  0  0  0  0  0  0  0  0  0  0
   69.7591   47.5382   57.1345 C   0  0  0  0  0  0  0  0  0  0  0  0
   69.7038   46.1426   57.0177 C   0  0  0  0  0  0  0  0  0  0  0  0
   70.5028   45.2926   57.7263 C   0  0  0  0  0  0  0  0  0  0  0  0
   71.4166   45.8554   58.6079 C   0  0  0  0  0  0  0  0  0  0  0  0
   72.1957   45.0072   59.2979 F   0  0  0  0  0  0  0  0  0  0  0  0
   72.1224   48.0120   60.8377 O   0  0  0  0  0  0  0  0  0  0  0  0
   72.4919   47.7820   59.6777 C   0  0  0  0  0  0  0  0  0  0  0  0
   73.8056   48.0459   59.2071 N   0  0  0  0  0  0  0  0  0  0  0  0
   74.4802   47.8702   57.9368 C   0  0  0  0  0  0  0  0  0  0  0  0
   75.8005   48.3191   58.5423 C   0  0  0  0  0  0  0  0  0  0  0  0
   75.0082   48.5906   59.7640 C   0  0  0  0  0  0  0  0  0  0  0  0
   76.4487   49.4231   57.8301 C   0  0  0  0  0  0  0  0  0  0  0  0
   75.6924   50.3496   57.3754 O   0  0  0  0  0  0  0  0  0  0  0  0
   77.8261   49.5674   57.5974 N   0  0  0  0  0  0  0  0  0  0  0  0
   78.9758   48.7800   57.9413 C   0  0  0  0  0  0  0  0  0  0  0  0
   79.6654   48.6635   56.5763 C   0  0  0  0  0  0  0  0  0  0  0  0
   79.5089   50.0812   56.0515 C   0  0  0  0  0  0  0  0  0  0  0  0
   78.4128   50.7130   56.8628 C   0  0  0  0  0  0  0  0  0  0  0  0
   68.8530   48.3521   56.3046 C   0  0  0  0  0  0  0  0  0  0  0  0
   69.2874   48.3457   54.9191 C   0  0  0  0  0  0  0  0  0  0  0  0
   70.2062   49.2898   54.5442 N   0  0  0  0  0  0  0  0  0  0  0  0
   70.6216   49.4304   53.3009 N   0  0  0  0  0  0  0  0  0  0  0  0
   70.1910   48.6683   52.2806 C   0  0  0  0  0  0  0  0  0  0  0  0
   70.5974   48.8168   51.0995 O   0  0  0  0  0  0  0  0  0  0  0  0
   69.2593   47.6873   52.5829 C   0  0  0  0  0  0  0  0  0  0  0  0
   68.7923   46.8668   51.6012 C   0  0  0  0  0  0  0  0  0  0  0  0
   67.8843   45.8850   51.9176 C   0  0  0  0  0  0  0  0  0  0  0  0
   67.4541   45.7367   53.2144 C   0  0  0  0  0  0  0  0  0  0  0  0
   67.9310   46.5745   54.2050 C   0  0  0  0  0  0  0  0  0  0  0  0
   68.8330   47.5523   53.8927 C   0  0  0  0  0  0  0  0  0  0  0  0
  8  9  2  0
  9  1  1  0
  9 10  1  0
  1  2  2  0
  1  6  1  0
  2  3  1  0
  3 21  1  0
  3  4  2  0
 21 22  1  0
 22 23  2  0
 22 32  1  0
 23 24  1  0
 24 25  1  0
 25 26  2  0
 25 27  1  0
 27 28  1  0
 27 32  2  0
 28 29  2  0
 29 30  1  0
 30 31  2  0
 31 32  1  0
  4  5  1  0
  5  6  2  0
  6  7  1  0
 10 11  1  0
 10 13  1  0
 11 12  1  0
 12 14  1  0
 12 13  1  0
 14 15  2  0
 14 16  1  0
 16 17  1  0
 16 20  1  0
 17 18  1  0
 18 19  1  0
 19 20  1  0
M  END
$$$$
