cs_full_output_folder/data/smiles/6226.pdb
     RDKit          3D

 29 32  0  0  0  0  0  0  0  0999 V2000
   70.4392   45.3558   57.8433 C   0  0  0  0  0  0  0  0  0  0  0  0
   69.7031   46.2541   57.0515 C   0  0  0  0  0  0  0  0  0  0  0  0
   69.8149   47.6114   57.1243 C   0  0  0  0  0  0  0  0  0  0  0  0
   70.7375   48.0929   58.0675 C   0  0  0  0  0  0  0  0  0  0  0  0
   71.4655   47.2339   58.8505 C   0  0  0  0  0  0  0  0  0  0  0  0
   71.3182   45.8540   58.7397 C   0  0  0  0  0  0  0  0  0  0  0  0
   72.0703   45.0786   59.5242 F   0  0  0  0  0  0  0  0  0  0  0  0
   71.2179   43.2029   57.4887 O   0  0  0  0  0  0  0  0  0  0  0  0
   70.1916   43.9350   57.6668 C   0  0  0  0  0  0  0  0  0  0  0  0
   68.9609   43.2749   57.6676 N   0  0  0  0  0  0  0  0  0  0  0  0
   68.6775   41.9000   57.5051 C   0  0  0  0  0  0  0  0  0  0  0  0
   69.0885   40.9033   58.3233 C   0  0  0  0  0  0  0  0  0  0  0  0
   68.7661   39.5500   58.0953 C   0  0  0  0  0  0  0  0  0  0  0  0
   68.0297   39.2782   57.0270 N   0  0  0  0  0  0  0  0  0  0  0  0
   67.6128   40.2346   56.2080 N   0  0  0  0  0  0  0  0  0  0  0  0
   67.9012   41.5173   56.3986 C   0  0  0  0  0  0  0  0  0  0  0  0
   67.4647   42.4942   55.5432 F   0  0  0  0  0  0  0  0  0  0  0  0
   69.0716   48.5989   56.3011 C   0  0  0  0  0  0  0  0  0  0  0  0
   69.4085   48.5936   54.8749 C   0  0  0  0  0  0  0  0  0  0  0  0
   70.3132   49.4982   54.3761 N   0  0  0  0  0  0  0  0  0  0  0  0
   70.6845   49.5183   53.1160 N   0  0  0  0  0  0  0  0  0  0  0  0
   70.2128   48.6575   52.2035 C   0  0  0  0  0  0  0  0  0  0  0  0
   70.5754   48.6849   50.9979 O   0  0  0  0  0  0  0  0  0  0  0  0
   69.3025   47.7216   52.6218 C   0  0  0  0  0  0  0  0  0  0  0  0
   68.7818   46.8183   51.6964 C   0  0  0  0  0  0  0  0  0  0  0  0
   67.8572   45.8715   52.0682 C   0  0  0  0  0  0  0  0  0  0  0  0
   67.4737   45.8595   53.3901 C   0  0  0  0  0  0  0  0  0  0  0  0
   67.9901   46.7574   54.3108 C   0  0  0  0  0  0  0  0  0  0  0  0
   68.9162   47.7059   53.9473 C   0  0  0  0  0  0  0  0  0  0  0  0
  8  9  2  0
  9 10  1  0
  9  1  1  0
 10 11  1  0
 11 12  2  0
 11 16  1  0
 12 13  1  0
 13 14  2  0
 14 15  1  0
 15 16  2  0
 16 17  1  0
  1  2  2  0
  1  6  1  0
  2  3  1  0
  3 18  1  0
  3  4  2  0
 18 19  1  0
 19 20  2  0
 19 29  1  0
 20 21  1  0
 21 22  1  0
 22 23  2  0
 22 24  1  0
 24 25  1  0
 24 29  2  0
 25 26  2  0
 26 27  1  0
 27 28  2  0
 28 29  1  0
  4  5  1  0
  5  6  2  0
  6  7  1  0
M  END
>  <minimizedAffinity>  (1) 
-10.94137

$$$$
cs_full_output_folder/data/smiles/4827.pdb
     RDKit          3D

 29 32  0  0  0  0  0  0  0  0999 V2000
   70.6558   46.1812   58.4130 C   0  0  0  0  0  0  0  0  0  0  0  0
   69.8083   46.7248   57.4524 C   0  0  0  0  0  0  0  0  0  0  0  0
   69.7698   48.0623   57.2023 C   0  0  0  0  0  0  0  0  0  0  0  0
   70.6030   48.9218   57.9275 C   0  0  0  0  0  0  0  0  0  0  0  0
   71.4414   48.4174   58.8725 C   0  0  0  0  0  0  0  0  0  0  0  0
   71.4586   47.0469   59.1056 C   0  0  0  0  0  0  0  0  0  0  0  0
   72.3237   46.6175   60.0652 F   0  0  0  0  0  0  0  0  0  0  0  0
   70.7122   44.7728   58.6925 C   0  0  0  0  0  0  0  0  0  0  0  0
   70.5512   44.3659   59.8951 O   0  0  0  0  0  0  0  0  0  0  0  0
   70.9268   43.7651   57.7715 O   0  0  0  0  0  0  0  0  0  0  0  0
   70.2709   42.4903   57.8906 C   0  0  0  0  0  0  0  0  0  0  0  0
   68.1790   40.2057   57.3805 C   0  0  0  0  0  0  0  0  0  0  0  0
   68.0955   41.5895   56.8125 C   0  0  0  0  0  0  0  0  0  0  0  0
   67.1175   42.0948   55.9895 C   0  0  0  0  0  0  0  0  0  0  0  0
   67.4581   43.3652   55.7415 N   0  0  0  0  0  0  0  0  0  0  0  0
   68.5890   43.6425   56.3735 N   0  0  0  0  0  0  0  0  0  0  0  0
   69.0420   42.5781   57.0611 C   0  0  0  0  0  0  0  0  0  0  0  0
   68.8934   48.7153   56.2164 C   0  0  0  0  0  0  0  0  0  0  0  0
   69.3446   48.6508   54.8285 C   0  0  0  0  0  0  0  0  0  0  0  0
   70.2428   49.5599   54.3378 N   0  0  0  0  0  0  0  0  0  0  0  0
   70.6440   49.5786   53.0943 N   0  0  0  0  0  0  0  0  0  0  0  0
   70.1964   48.6869   52.1845 C   0  0  0  0  0  0  0  0  0  0  0  0
   70.5784   48.6968   50.9780 O   0  0  0  0  0  0  0  0  0  0  0  0
   69.2936   47.7373   52.5919 C   0  0  0  0  0  0  0  0  0  0  0  0
   68.8276   46.8073   51.7054 C   0  0  0  0  0  0  0  0  0  0  0  0
   67.9373   45.8402   52.0932 C   0  0  0  0  0  0  0  0  0  0  0  0
   67.5083   45.8045   53.3952 C   0  0  0  0  0  0  0  0  0  0  0  0
   67.9824   46.7506   54.2957 C   0  0  0  0  0  0  0  0  0  0  0  0
   68.8762   47.7347   53.9294 C   0  0  0  0  0  0  0  0  0  0  0  0
 12 13  1  0
 13 14  2  0
 13 17  1  0
 14 15  1  0
 15 16  1  0
 16 17  2  0
 17 11  1  0
 11 10  1  0
 10  8  1  0
  8  9  2  0
  8  1  1  0
  1  2  2  0
  1  6  1  0
  2  3  1  0
  3 18  1  0
  3  4  2  0
 18 19  1  0
 19 20  2  0
 19 29  1  0
 20 21  1  0
 21 22  1  0
 22 23  2  0
 22 24  1  0
 24 25  1  0
 24 29  2  0
 25 26  2  0
 26 27  1  0
 27 28  2  0
 28 29  1  0
  4  5  1  0
  5  6  2  0
  6  7  1  0
M  END
>  <minimizedAffinity>  (2) 
-10.86775

$$$$
cs_full_output_folder/data/smiles/8378.pdb
     RDKit          3D

 28 31  0  0  0  0  0  0  0  0999 V2000
   70.6348   45.4466   57.9980 C   0  0  0  0  0  0  0  0  0  0  0  0
   71.6163   46.0548   58.7441 C   0  0  0  0  0  0  0  0  0  0  0  0
   71.7573   47.4406   58.6837 C   0  0  0  0  0  0  0  0  0  0  0  0
   70.9241   48.1684   57.8890 C   0  0  0  0  0  0  0  0  0  0  0  0
   69.9021   47.5941   57.1029 C   0  0  0  0  0  0  0  0  0  0  0  0
   69.8180   46.2412   57.2070 C   0  0  0  0  0  0  0  0  0  0  0  0
   71.3855   43.2482   57.6700 O   0  0  0  0  0  0  0  0  0  0  0  0
   70.4434   44.0067   58.0566 C   0  0  0  0  0  0  0  0  0  0  0  0
   69.2482   43.4010   58.5237 N   0  0  0  0  0  0  0  0  0  0  0  0
   69.0612   41.9653   58.5767 C   0  0  0  0  0  0  0  0  0  0  0  0
   68.3613   41.5346   57.3270 C   0  0  0  0  0  0  0  0  0  0  0  0
   67.7176   42.3065   56.3909 C   0  0  0  0  0  0  0  0  0  0  0  0
   67.2546   41.4961   55.4437 O   0  0  0  0  0  0  0  0  0  0  0  0
   67.5633   40.2834   55.7226 N   0  0  0  0  0  0  0  0  0  0  0  0
   68.2364   40.2317   56.8553 C   0  0  0  0  0  0  0  0  0  0  0  0
   68.7608   39.1729   57.5291 F   0  0  0  0  0  0  0  0  0  0  0  0
   69.0454   48.4863   56.2821 C   0  0  0  0  0  0  0  0  0  0  0  0
   69.3728   48.5428   54.8598 C   0  0  0  0  0  0  0  0  0  0  0  0
   70.2507   49.4678   54.3830 N   0  0  0  0  0  0  0  0  0  0  0  0
   70.6369   49.5322   53.1330 N   0  0  0  0  0  0  0  0  0  0  0  0
   70.1723   48.6600   52.2274 C   0  0  0  0  0  0  0  0  0  0  0  0
   70.5514   48.7239   51.0120 O   0  0  0  0  0  0  0  0  0  0  0  0
   69.2780   47.6850   52.6057 C   0  0  0  0  0  0  0  0  0  0  0  0
   68.7745   46.7983   51.6541 C   0  0  0  0  0  0  0  0  0  0  0  0
   67.8608   45.8552   52.0571 C   0  0  0  0  0  0  0  0  0  0  0  0
   67.4806   45.8268   53.3812 C   0  0  0  0  0  0  0  0  0  0  0  0
   67.9810   46.7033   54.3169 C   0  0  0  0  0  0  0  0  0  0  0  0
   68.8861   47.6394   53.9301 C   0  0  0  0  0  0  0  0  0  0  0  0
  7  8  2  0
  8  9  1  0
  8  1  1  0
  9 10  1  0
 10 11  1  0
 11 12  2  0
 11 15  1  0
 12 13  1  0
 13 14  1  0
 14 15  2  0
 15 16  1  0
  1  2  2  0
  1  6  1  0
  2  3  1  0
  3  4  2  0
  4  5  1  0
  5 17  1  0
  5  6  2  0
 17 18  1  0
 18 19  2  0
 18 28  1  0
 19 20  1  0
 20 21  1  0
 21 22  2  0
 21 23  1  0
 23 24  1  0
 23 28  2  0
 24 25  2  0
 25 26  1  0
 26 27  2  0
 27 28  1  0
M  END
>  <minimizedAffinity>  (3) 
-10.68887

$$$$
cs_full_output_folder/data/smiles/4186.pdb
     RDKit          3D

 29 32  0  0  0  0  0  0  0  0999 V2000
   70.4659   45.0892   57.7897 C   0  0  0  0  0  0  0  0  0  0  0  0
   69.7176   46.0503   57.1157 C   0  0  0  0  0  0  0  0  0  0  0  0
   69.9626   47.4037   57.1938 C   0  0  0  0  0  0  0  0  0  0  0  0
   70.9954   47.8419   57.9728 C   0  0  0  0  0  0  0  0  0  0  0  0
   71.7592   46.9151   58.6559 C   0  0  0  0  0  0  0  0  0  0  0  0
   71.4899   45.5480   58.5604 C   0  0  0  0  0  0  0  0  0  0  0  0
   72.2987   44.7341   59.2718 F   0  0  0  0  0  0  0  0  0  0  0  0
   68.8868   43.0894   57.8798 N   0  0  0  0  0  0  0  0  0  0  0  0
   70.1287   43.6963   57.6364 C   0  0  0  0  0  0  0  0  0  0  0  0
   71.0667   42.9198   57.2314 O   0  0  0  0  0  0  0  0  0  0  0  0
   67.1257   42.2689   55.7870 C   0  0  0  0  0  0  0  0  0  0  0  0
   67.8151   41.2790   56.6759 C   0  0  0  0  0  0  0  0  0  0  0  0
   67.6206   39.9600   56.5105 N   0  0  0  0  0  0  0  0  0  0  0  0
   68.2104   39.0543   57.2752 N   0  0  0  0  0  0  0  0  0  0  0  0
   69.0386   39.3934   58.2632 C   0  0  0  0  0  0  0  0  0  0  0  0
   69.2807   40.7365   58.4843 C   0  0  0  0  0  0  0  0  0  0  0  0
   68.6666   41.6780   57.6892 C   0  0  0  0  0  0  0  0  0  0  0  0
   69.1033   48.3098   56.4002 C   0  0  0  0  0  0  0  0  0  0  0  0
   69.4492   48.3753   54.9640 C   0  0  0  0  0  0  0  0  0  0  0  0
   70.3914   49.2753   54.5395 N   0  0  0  0  0  0  0  0  0  0  0  0
   70.7734   49.3547   53.2813 N   0  0  0  0  0  0  0  0  0  0  0  0
   70.2691   48.5608   52.3229 C   0  0  0  0  0  0  0  0  0  0  0  0
   70.6826   48.6912   51.1347 O   0  0  0  0  0  0  0  0  0  0  0  0
   69.3149   47.6294   52.6624 C   0  0  0  0  0  0  0  0  0  0  0  0
   68.7959   46.8304   51.6738 C   0  0  0  0  0  0  0  0  0  0  0  0
   67.8331   45.9120   52.0251 C   0  0  0  0  0  0  0  0  0  0  0  0
   67.4217   45.8184   53.3324 C   0  0  0  0  0  0  0  0  0  0  0  0
   67.9578   46.6295   54.3047 C   0  0  0  0  0  0  0  0  0  0  0  0
   68.9231   47.5610   54.0001 C   0  0  0  0  0  0  0  0  0  0  0  0
 11 12  1  0
 12 13  2  0
 12 17  1  0
 13 14  1  0
 14 15  2  0
 15 16  1  0
 16 17  2  0
 17  8  1  0
  8  9  1  0
  9 10  2  0
  9  1  1  0
  1  2  2  0
  1  6  1  0
  2  3  1  0
  3 18  1  0
  3  4  2  0
 18 19  1  0
 19 20  2  0
 19 29  1  0
 20 21  1  0
 21 22  1  0
 22 23  2  0
 22 24  1  0
 24 25  1  0
 24 29  2  0
 25 26  2  0
 26 27  1  0
 27 28  2  0
 28 29  1  0
  4  5  1  0
  5  6  2  0
  6  7  1  0
M  END
>  <minimizedAffinity>  (4) 
-10.58807

$$$$
cs_full_output_folder/data/smiles/5131.pdb
     RDKit          3D

 29 32  0  0  0  0  0  0  0  0999 V2000
   70.4632   45.2312   57.8740 C   0  0  0  0  0  0  0  0  0  0  0  0
   69.7031   46.1016   57.0691 C   0  0  0  0  0  0  0  0  0  0  0  0
   69.8589   47.4432   57.0605 C   0  0  0  0  0  0  0  0  0  0  0  0
   70.8183   48.0267   57.8842 C   0  0  0  0  0  0  0  0  0  0  0  0
   71.5753   47.2149   58.6788 C   0  0  0  0  0  0  0  0  0  0  0  0
   71.3861   45.8247   58.6626 C   0  0  0  0  0  0  0  0  0  0  0  0
   72.1838   45.1095   59.5012 F   0  0  0  0  0  0  0  0  0  0  0  0
   68.9964   43.2060   58.1060 N   0  0  0  0  0  0  0  0  0  0  0  0
   70.2221   43.8155   57.8011 C   0  0  0  0  0  0  0  0  0  0  0  0
   71.1451   43.0059   57.4414 O   0  0  0  0  0  0  0  0  0  0  0  0
   67.3925   42.2846   56.0714 C   0  0  0  0  0  0  0  0  0  0  0  0
   68.0241   41.2904   56.9960 C   0  0  0  0  0  0  0  0  0  0  0  0
   67.8109   39.9548   56.8336 N   0  0  0  0  0  0  0  0  0  0  0  0
   68.3799   39.0580   57.6639 C   0  0  0  0  0  0  0  0  0  0  0  0
   69.1808   39.5368   58.6753 C   0  0  0  0  0  0  0  0  0  0  0  0
   69.4261   40.9008   58.8776 C   0  0  0  0  0  0  0  0  0  0  0  0
   68.8219   41.7724   58.0047 C   0  0  0  0  0  0  0  0  0  0  0  0
   69.0795   48.4162   56.2462 C   0  0  0  0  0  0  0  0  0  0  0  0
   69.4274   48.4206   54.8168 C   0  0  0  0  0  0  0  0  0  0  0  0
   70.3290   49.3388   54.3454 N   0  0  0  0  0  0  0  0  0  0  0  0
   70.6812   49.4576   53.1007 N   0  0  0  0  0  0  0  0  0  0  0  0
   70.1559   48.6483   52.1615 C   0  0  0  0  0  0  0  0  0  0  0  0
   70.4834   48.7481   50.9549 O   0  0  0  0  0  0  0  0  0  0  0  0
   69.2282   47.6730   52.5155 C   0  0  0  0  0  0  0  0  0  0  0  0
   68.7054   46.8432   51.5492 C   0  0  0  0  0  0  0  0  0  0  0  0
   67.7910   45.8618   51.9032 C   0  0  0  0  0  0  0  0  0  0  0  0
   67.4612   45.7851   53.2377 C   0  0  0  0  0  0  0  0  0  0  0  0
   67.9857   46.6180   54.2007 C   0  0  0  0  0  0  0  0  0  0  0  0
   68.8951   47.5964   53.8574 C   0  0  0  0  0  0  0  0  0  0  0  0
 11 12  1  0
 12 13  2  0
 12 17  1  0
 13 14  1  0
 14 15  2  0
 15 16  1  0
 16 17  2  0
 17  8  1  0
  8  9  1  0
  9 10  2  0
  9  1  1  0
  1  2  2  0
  1  6  1  0
  2  3  1  0
  3 18  1  0
  3  4  2  0
 18 19  1  0
 19 20  2  0
 19 29  1  0
 20 21  1  0
 21 22  1  0
 22 23  2  0
 22 24  1  0
 24 25  1  0
 24 29  2  0
 25 26  2  0
 26 27  1  0
 27 28  2  0
 28 29  1  0
  4  5  1  0
  5  6  2  0
  6  7  1  0
M  END
>  <minimizedAffinity>  (5) 
-10.55356

$$$$
cs_full_output_folder/data/smiles/3422.pdb
     RDKit          3D

 28 30  0  0  0  0  0  0  0  0999 V2000
   68.2895   45.8591   54.0312 C   0  0  0  0  0  0  0  0  0  0  0  0
   67.6582   45.3447   52.9193 C   0  0  0  0  0  0  0  0  0  0  0  0
   67.7190   46.0043   51.6994 C   0  0  0  0  0  0  0  0  0  0  0  0
   68.4216   47.1932   51.5944 C   0  0  0  0  0  0  0  0  0  0  0  0
   69.0630   47.7282   52.6939 C   0  0  0  0  0  0  0  0  0  0  0  0
   68.9687   47.0322   53.8759 C   0  0  0  0  0  0  0  0  0  0  0  0
   67.8094   43.8016   55.4328 N   0  0  0  0  0  0  0  0  0  0  0  0
   68.2095   45.1460   55.2983 C   0  0  0  0  0  0  0  0  0  0  0  0
   68.5146   45.7550   56.3537 O   0  0  0  0  0  0  0  0  0  0  0  0
   67.4751   41.1576   55.4981 O   0  0  0  0  0  0  0  0  0  0  0  0
   67.5607   41.7199   56.6276 C   0  0  0  0  0  0  0  0  0  0  0  0
   67.7387   43.1248   56.6694 N   0  0  0  0  0  0  0  0  0  0  0  0
   67.4666   40.8619   57.8072 C   0  0  0  0  0  0  0  0  0  0  0  0
   68.1059   39.6508   57.8478 C   0  0  0  0  0  0  0  0  0  0  0  0
   67.9928   38.8709   58.9783 C   0  0  0  0  0  0  0  0  0  0  0  0
   67.2494   39.2870   60.0660 C   0  0  0  0  0  0  0  0  0  0  0  0
   66.6086   40.5093   60.0162 C   0  0  0  0  0  0  0  0  0  0  0  0
   66.7278   41.2785   58.8849 C   0  0  0  0  0  0  0  0  0  0  0  0
   69.9194   49.2148   52.4826 S   0  0  0  0  0  0  0  0  0  0  0  0
   71.2794   49.0617   53.0980 O   0  0  0  0  0  0  0  0  0  0  0  0
   70.1576   49.3807   50.9881 O   0  0  0  0  0  0  0  0  0  0  0  0
   69.1568   50.5889   53.0668 N   0  0  0  0  0  0  0  0  0  0  0  0
   69.0510   50.9882   54.4285 C   0  0  0  0  0  0  0  0  0  0  0  0
   69.0544   52.3399   54.6784 C   0  0  0  0  0  0  0  0  0  0  0  0
   68.9601   52.8708   55.9477 C   0  0  0  0  0  0  0  0  0  0  0  0
   68.8609   51.9584   56.9762 C   0  0  0  0  0  0  0  0  0  0  0  0
   68.8544   50.5943   56.7623 C   0  0  0  0  0  0  0  0  0  0  0  0
   68.9502   50.1308   55.4817 C   0  0  0  0  0  0  0  0  0  0  0  0
 10 11  2  0
 11 12  1  0
 11 13  1  0
 12  7  1  0
  7  8  1  0
  8  9  2  0
  8  1  1  0
  1  2  2  0
  1  6  1  0
  2  3  1  0
  3  4  2  0
  4  5  1  0
  5 19  1  0
  5  6  2  0
 19 20  2  0
 19 21  2  0
 19 22  1  0
 22 23  1  0
 23 24  2  0
 23 28  1  0
 24 25  1  0
 25 26  2  0
 26 27  1  0
 27 28  2  0
 13 14  2  0
 13 18  1  0
 14 15  1  0
 15 16  2  0
 16 17  1  0
 17 18  2  0
M  END
>  <minimizedAffinity>  (6) 
-10.54740

$$$$
cs_full_output_folder/data/smiles/3816.pdb
     RDKit          3D

 29 32  0  0  0  0  0  0  0  0999 V2000
   70.3960   45.2016   57.8717 C   0  0  0  0  0  0  0  0  0  0  0  0
   69.6835   46.1022   57.0700 C   0  0  0  0  0  0  0  0  0  0  0  0
   69.8450   47.4535   57.0711 C   0  0  0  0  0  0  0  0  0  0  0  0
   70.8098   47.9604   57.9578 C   0  0  0  0  0  0  0  0  0  0  0  0
   71.5417   47.1321   58.7689 C   0  0  0  0  0  0  0  0  0  0  0  0
   71.3229   45.7428   58.7154 C   0  0  0  0  0  0  0  0  0  0  0  0
   72.1052   45.0189   59.5497 F   0  0  0  0  0  0  0  0  0  0  0  0
   68.9348   43.1097   58.0920 N   0  0  0  0  0  0  0  0  0  0  0  0
   70.1375   43.7771   57.8078 C   0  0  0  0  0  0  0  0  0  0  0  0
   71.0957   42.9855   57.4518 O   0  0  0  0  0  0  0  0  0  0  0  0
   67.2495   41.9724   56.0301 C   0  0  0  0  0  0  0  0  0  0  0  0
   67.9890   41.1783   57.0239 C   0  0  0  0  0  0  0  0  0  0  0  0
   67.8501   39.8165   56.9406 N   0  0  0  0  0  0  0  0  0  0  0  0
   68.4699   38.9911   57.7849 C   0  0  0  0  0  0  0  0  0  0  0  0
   69.2743   39.5254   58.7687 C   0  0  0  0  0  0  0  0  0  0  0  0
   69.4081   40.8820   58.8444 N   0  0  0  0  0  0  0  0  0  0  0  0
   68.7872   41.6968   58.0011 C   0  0  0  0  0  0  0  0  0  0  0  0
   69.0997   48.4225   56.2506 C   0  0  0  0  0  0  0  0  0  0  0  0
   69.4383   48.4235   54.8170 C   0  0  0  0  0  0  0  0  0  0  0  0
   70.3370   49.3565   54.3707 N   0  0  0  0  0  0  0  0  0  0  0  0
   70.6751   49.4538   53.1002 N   0  0  0  0  0  0  0  0  0  0  0  0
   70.1757   48.6609   52.1439 C   0  0  0  0  0  0  0  0  0  0  0  0
   70.5063   48.7640   50.9283 O   0  0  0  0  0  0  0  0  0  0  0  0
   69.2647   47.6950   52.5148 C   0  0  0  0  0  0  0  0  0  0  0  0
   68.7061   46.8274   51.6006 C   0  0  0  0  0  0  0  0  0  0  0  0
   67.7972   45.8492   51.9828 C   0  0  0  0  0  0  0  0  0  0  0  0
   67.4568   45.7578   53.3054 C   0  0  0  0  0  0  0  0  0  0  0  0
   68.0312   46.6411   54.2042 C   0  0  0  0  0  0  0  0  0  0  0  0
   68.9215   47.6058   53.8549 C   0  0  0  0  0  0  0  0  0  0  0  0
 11 12  1  0
 12 13  2  0
 12 17  1  0
 13 14  1  0
 14 15  2  0
 15 16  1  0
 16 17  2  0
 17  8  1  0
  8  9  1  0
  9 10  2  0
  9  1  1  0
  1  2  2  0
  1  6  1  0
  2  3  1  0
  3 18  1  0
  3  4  2  0
 18 19  1  0
 19 20  2  0
 19 29  1  0
 20 21  1  0
 21 22  1  0
 22 23  2  0
 22 24  1  0
 24 25  1  0
 24 29  2  0
 25 26  2  0
 26 27  1  0
 27 28  2  0
 28 29  1  0
  4  5  1  0
  5  6  2  0
  6  7  1  0
M  END
>  <minimizedAffinity>  (7) 
-10.52484

$$$$
cs_full_output_folder/data/smiles/6856.pdb
     RDKit          3D

 29 32  0  0  0  0  0  0  0  0999 V2000
   70.4209   45.1865   57.8203 C   0  0  0  0  0  0  0  0  0  0  0  0
   69.6584   46.0605   57.0543 C   0  0  0  0  0  0  0  0  0  0  0  0
   69.8109   47.4163   57.0365 C   0  0  0  0  0  0  0  0  0  0  0  0
   70.8246   47.9388   57.8642 C   0  0  0  0  0  0  0  0  0  0  0  0
   71.5953   47.1153   58.6289 C   0  0  0  0  0  0  0  0  0  0  0  0
   71.3966   45.7364   58.6104 C   0  0  0  0  0  0  0  0  0  0  0  0
   72.2088   44.9865   59.3937 F   0  0  0  0  0  0  0  0  0  0  0  0
   68.9254   43.1275   58.0858 N   0  0  0  0  0  0  0  0  0  0  0  0
   70.1455   43.7636   57.7751 C   0  0  0  0  0  0  0  0  0  0  0  0
   71.0895   42.9743   57.4155 O   0  0  0  0  0  0  0  0  0  0  0  0
   67.2393   42.0104   56.0406 C   0  0  0  0  0  0  0  0  0  0  0  0
   67.9706   41.1868   56.9986 C   0  0  0  0  0  0  0  0  0  0  0  0
   67.8542   39.8510   56.9236 N   0  0  0  0  0  0  0  0  0  0  0  0
   68.4891   39.0176   57.7570 C   0  0  0  0  0  0  0  0  0  0  0  0
   69.2980   39.5378   58.7357 C   0  0  0  0  0  0  0  0  0  0  0  0
   69.4273   40.8639   58.8273 N   0  0  0  0  0  0  0  0  0  0  0  0
   68.7889   41.6876   57.9906 C   0  0  0  0  0  0  0  0  0  0  0  0
   68.9991   48.3807   56.2373 C   0  0  0  0  0  0  0  0  0  0  0  0
   69.4248   48.4054   54.8226 C   0  0  0  0  0  0  0  0  0  0  0  0
   70.3406   49.3235   54.3993 N   0  0  0  0  0  0  0  0  0  0  0  0
   70.6929   49.4300   53.1394 N   0  0  0  0  0  0  0  0  0  0  0  0
   70.1904   48.6547   52.1682 C   0  0  0  0  0  0  0  0  0  0  0  0
   70.5085   48.7352   50.9547 O   0  0  0  0  0  0  0  0  0  0  0  0
   69.2535   47.6958   52.5380 C   0  0  0  0  0  0  0  0  0  0  0  0
   68.7430   46.8817   51.5649 C   0  0  0  0  0  0  0  0  0  0  0  0
   67.8211   45.8961   51.8823 C   0  0  0  0  0  0  0  0  0  0  0  0
   67.4602   45.7878   53.1983 C   0  0  0  0  0  0  0  0  0  0  0  0
   67.9741   46.6131   54.1950 C   0  0  0  0  0  0  0  0  0  0  0  0
   68.8760   47.5802   53.8821 C   0  0  0  0  0  0  0  0  0  0  0  0
 11 12  1  0
 12 13  2  0
 12 17  1  0
 13 14  1  0
 14 15  2  0
 15 16  1  0
 16 17  2  0
 17  8  1  0
  8  9  1  0
  9 10  2  0
  9  1  1  0
  1  2  2  0
  1  6  1  0
  2  3  1  0
  3 18  1  0
  3  4  2  0
 18 19  1  0
 19 20  2  0
 19 29  1  0
 20 21  1  0
 21 22  1  0
 22 23  2  0
 22 24  1  0
 24 25  1  0
 24 29  2  0
 25 26  2  0
 26 27  1  0
 27 28  2  0
 28 29  1  0
  4  5  1  0
  5  6  2  0
  6  7  1  0
M  END
>  <minimizedAffinity>  (8) 
-10.50934

$$$$
cs_full_output_folder/data/smiles/937.pdb
     RDKit          3D

 29 32  0  0  0  0  0  0  0  0999 V2000
   70.6252   45.8825   58.2392 C   0  0  0  0  0  0  0  0  0  0  0  0
   71.7306   46.4441   58.8877 C   0  0  0  0  0  0  0  0  0  0  0  0
   72.0959   47.7480   58.6848 C   0  0  0  0  0  0  0  0  0  0  0  0
   71.3409   48.4909   57.8246 C   0  0  0  0  0  0  0  0  0  0  0  0
   70.2456   47.9965   57.1600 C   0  0  0  0  0  0  0  0  0  0  0  0
   69.9082   46.6680   57.3925 C   0  0  0  0  0  0  0  0  0  0  0  0
   70.5381   43.4235   57.6135 N   0  0  0  0  0  0  0  0  0  0  0  0
   70.2944   44.4677   58.5092 C   0  0  0  0  0  0  0  0  0  0  0  0
   69.7563   44.1637   59.6120 O   0  0  0  0  0  0  0  0  0  0  0  0
   68.1350   42.4011   56.6127 C   0  0  0  0  0  0  0  0  0  0  0  0
   69.0783   41.5347   57.3428 C   0  0  0  0  0  0  0  0  0  0  0  0
   68.7410   40.2042   57.5201 C   0  0  0  0  0  0  0  0  0  0  0  0
   67.5628   39.6512   57.0440 O   0  0  0  0  0  0  0  0  0  0  0  0
   69.6116   39.3821   58.1997 C   0  0  0  0  0  0  0  0  0  0  0  0
   70.8034   39.8895   58.6953 C   0  0  0  0  0  0  0  0  0  0  0  0
   71.1054   41.2375   58.4955 C   0  0  0  0  0  0  0  0  0  0  0  0
   70.2461   42.0725   57.8182 C   0  0  0  0  0  0  0  0  0  0  0  0
   69.4305   48.8298   56.2361 C   0  0  0  0  0  0  0  0  0  0  0  0
   69.6536   48.6055   54.8128 C   0  0  0  0  0  0  0  0  0  0  0  0
   70.6352   49.3440   54.1842 N   0  0  0  0  0  0  0  0  0  0  0  0
   70.9247   49.1916   52.9073 N   0  0  0  0  0  0  0  0  0  0  0  0
   70.3001   48.3157   52.1176 C   0  0  0  0  0  0  0  0  0  0  0  0
   70.6023   48.1983   50.9079 O   0  0  0  0  0  0  0  0  0  0  0  0
   69.3094   47.5394   52.6592 C   0  0  0  0  0  0  0  0  0  0  0  0
   68.9947   47.7015   54.0282 C   0  0  0  0  0  0  0  0  0  0  0  0
   67.9100   46.8878   54.5917 C   0  0  0  0  0  0  0  0  0  0  0  0
   67.9918   45.5237   53.8806 C   0  0  0  0  0  0  0  0  0  0  0  0
   67.5620   45.7779   52.4713 C   0  0  0  0  0  0  0  0  0  0  0  0
   68.6280   46.5821   51.7809 C   0  0  0  0  0  0  0  0  0  0  0  0
 10 11  1  0
 11 12  2  0
 11 17  1  0
 12 13  1  0
 12 14  1  0
 14 15  2  0
 15 16  1  0
 16 17  2  0
 17  7  1  0
  7  8  1  0
  8  9  2  0
  8  1  1  0
  1  2  2  0
  1  6  1  0
  2  3  1  0
  3  4  2  0
  4  5  1  0
  5 18  1  0
  5  6  2  0
 18 19  1  0
 19 20  2  0
 19 25  1  0
 20 21  1  0
 21 22  1  0
 22 23  2  0
 22 24  1  0
 24 25  2  0
 24 29  1  0
 25 26  1  0
 26 27  1  0
 27 28  1  0
 28 29  1  0
M  END
>  <minimizedAffinity>  (9) 
-10.50806

$$$$
cs_full_output_folder/data/smiles/5438.pdb
     RDKit          3D

 29 32  0  0  0  0  0  0  0  0999 V2000
   70.6194   46.3381   58.3362 C   0  0  0  0  0  0  0  0  0  0  0  0
   69.9150   47.1599   57.4436 C   0  0  0  0  0  0  0  0  0  0  0  0
   70.1680   48.5092   57.3005 C   0  0  0  0  0  0  0  0  0  0  0  0
   71.1584   49.0453   58.0798 C   0  0  0  0  0  0  0  0  0  0  0  0
   71.8574   48.2601   58.9559 C   0  0  0  0  0  0  0  0  0  0  0  0
   71.5973   46.8966   59.0965 C   0  0  0  0  0  0  0  0  0  0  0  0
   72.3210   46.1621   59.9727 F   0  0  0  0  0  0  0  0  0  0  0  0
   70.4258   43.9845   57.3584 N   0  0  0  0  0  0  0  0  0  0  0  0
   70.2232   44.9378   58.3810 C   0  0  0  0  0  0  0  0  0  0  0  0
   69.6392   44.5114   59.4275 O   0  0  0  0  0  0  0  0  0  0  0  0
   69.9801   42.6084   57.5166 C   0  0  0  0  0  0  0  0  0  0  0  0
   68.3523   39.9067   57.5349 C   0  0  0  0  0  0  0  0  0  0  0  0
   67.9653   41.1878   56.9464 C   0  0  0  0  0  0  0  0  0  0  0  0
   66.7754   41.4254   56.2783 C   0  0  0  0  0  0  0  0  0  0  0  0
   66.7942   42.6834   55.9046 O   0  0  0  0  0  0  0  0  0  0  0  0
   67.8933   43.2524   56.2808 N   0  0  0  0  0  0  0  0  0  0  0  0
   68.6605   42.3729   56.9334 C   0  0  0  0  0  0  0  0  0  0  0  0
   69.3251   49.2676   56.3423 C   0  0  0  0  0  0  0  0  0  0  0  0
   69.6242   49.0297   54.9309 C   0  0  0  0  0  0  0  0  0  0  0  0
   70.4504   49.8824   54.2889 N   0  0  0  0  0  0  0  0  0  0  0  0
   70.7455   49.7504   52.9874 N   0  0  0  0  0  0  0  0  0  0  0  0
   70.2174   48.7492   52.2770 C   0  0  0  0  0  0  0  0  0  0  0  0
   70.5353   48.6750   51.0397 O   0  0  0  0  0  0  0  0  0  0  0  0
   69.3701   47.8398   52.8543 C   0  0  0  0  0  0  0  0  0  0  0  0
   68.8593   46.8246   52.1010 C   0  0  0  0  0  0  0  0  0  0  0  0
   68.0092   45.9042   52.7104 C   0  0  0  0  0  0  0  0  0  0  0  0
   67.6864   46.0083   54.0443 C   0  0  0  0  0  0  0  0  0  0  0  0
   68.2380   47.0672   54.7697 C   0  0  0  0  0  0  0  0  0  0  0  0
   69.0808   48.0033   54.2137 C   0  0  0  0  0  0  0  0  0  0  0  0
 12 13  1  0
 13 14  2  0
 13 17  1  0
 14 15  1  0
 15 16  1  0
 16 17  2  0
 17 11  1  0
 11  8  1  0
  8  9  1  0
  9 10  2  0
  9  1  1  0
  1  2  2  0
  1  6  1  0
  2  3  1  0
  3 18  1  0
  3  4  2  0
 18 19  1  0
 19 20  2  0
 19 29  1  0
 20 21  1  0
 21 22  1  0
 22 23  2  0
 22 24  1  0
 24 25  1  0
 24 29  2  0
 25 26  2  0
 26 27  1  0
 27 28  2  0
 28 29  1  0
  4  5  1  0
  5  6  2  0
  6  7  1  0
M  END
>  <minimizedAffinity>  (10) 
-10.49542

$$$$
cs_full_output_folder/data/smiles/7025.pdb
     RDKit          3D

 28 31  0  0  0  0  0  0  0  0999 V2000
   70.6959   45.5321   58.1605 C   0  0  0  0  0  0  0  0  0  0  0  0
   71.7093   46.2086   58.8092 C   0  0  0  0  0  0  0  0  0  0  0  0
   71.8837   47.5653   58.6471 C   0  0  0  0  0  0  0  0  0  0  0  0
   71.0496   48.2927   57.8312 C   0  0  0  0  0  0  0  0  0  0  0  0
   69.9987   47.6484   57.1460 C   0  0  0  0  0  0  0  0  0  0  0  0
   69.8707   46.2991   57.3423 C   0  0  0  0  0  0  0  0  0  0  0  0
   69.2918   43.4477   58.6381 N   0  0  0  0  0  0  0  0  0  0  0  0
   70.5010   44.1024   58.3422 C   0  0  0  0  0  0  0  0  0  0  0  0
   71.5293   43.3630   58.2213 O   0  0  0  0  0  0  0  0  0  0  0  0
   69.1681   42.0206   58.8145 C   0  0  0  0  0  0  0  0  0  0  0  0
   68.7900   38.9947   58.2102 C   0  0  0  0  0  0  0  0  0  0  0  0
   68.3599   40.0925   57.3102 C   0  0  0  0  0  0  0  0  0  0  0  0
   67.7502   40.0330   56.1080 N   0  0  0  0  0  0  0  0  0  0  0  0
   67.5368   41.2257   55.6387 O   0  0  0  0  0  0  0  0  0  0  0  0
   67.9970   42.0966   56.5118 C   0  0  0  0  0  0  0  0  0  0  0  0
   68.5378   41.4416   57.6060 C   0  0  0  0  0  0  0  0  0  0  0  0
   69.1092   48.4854   56.2811 C   0  0  0  0  0  0  0  0  0  0  0  0
   69.4653   48.4605   54.8596 C   0  0  0  0  0  0  0  0  0  0  0  0
   70.3476   49.3833   54.3634 N   0  0  0  0  0  0  0  0  0  0  0  0
   70.6546   49.4631   53.0825 N   0  0  0  0  0  0  0  0  0  0  0  0
   70.1449   48.6569   52.1240 C   0  0  0  0  0  0  0  0  0  0  0  0
   70.4965   48.8089   50.9265 O   0  0  0  0  0  0  0  0  0  0  0  0
   69.2524   47.7059   52.5596 C   0  0  0  0  0  0  0  0  0  0  0  0
   68.7175   46.8390   51.6257 C   0  0  0  0  0  0  0  0  0  0  0  0
   67.8326   45.8500   52.0406 C   0  0  0  0  0  0  0  0  0  0  0  0
   67.5085   45.7609   53.3906 C   0  0  0  0  0  0  0  0  0  0  0  0
   68.0488   46.6321   54.3016 C   0  0  0  0  0  0  0  0  0  0  0  0
   68.9291   47.6228   53.9099 C   0  0  0  0  0  0  0  0  0  0  0  0
 11 12  1  0
 12 13  2  0
 12 16  1  0
 13 14  1  0
 14 15  1  0
 15 16  2  0
 16 10  1  0
 10  7  1  0
  7  8  1  0
  8  9  2  0
  8  1  1  0
  1  2  2  0
  1  6  1  0
  2  3  1  0
  3  4  2  0
  4  5  1  0
  5 17  1  0
  5  6  2  0
 17 18  1  0
 18 19  2  0
 18 28  1  0
 19 20  1  0
 20 21  1  0
 21 22  2  0
 21 23  1  0
 23 24  1  0
 23 28  2  0
 24 25  2  0
 25 26  1  0
 26 27  2  0
 27 28  1  0
M  END
>  <minimizedAffinity>  (11) 
-10.48187

$$$$
cs_full_output_folder/data/smiles/4225.pdb
     RDKit          3D

 29 32  0  0  0  0  0  0  0  0999 V2000
   68.7628   42.1312   57.0955 C   0  0  0  0  0  0  0  0  0  0  0  0
   69.8325   41.5906   57.8088 C   0  0  0  0  0  0  0  0  0  0  0  0
   69.9359   40.2976   58.1980 C   0  0  0  0  0  0  0  0  0  0  0  0
   68.8783   39.4350   57.8512 C   0  0  0  0  0  0  0  0  0  0  0  0
   67.8000   39.9120   57.1492 C   0  0  0  0  0  0  0  0  0  0  0  0
   67.7535   41.2575   56.7791 C   0  0  0  0  0  0  0  0  0  0  0  0
   66.6677   41.6788   56.0953 F   0  0  0  0  0  0  0  0  0  0  0  0
   69.6710   44.3075   57.3137 O   0  0  0  0  0  0  0  0  0  0  0  0
   68.8066   43.5394   56.7552 C   0  0  0  0  0  0  0  0  0  0  0  0
   67.9628   44.1885   55.8338 N   0  0  0  0  0  0  0  0  0  0  0  0
   68.0902   45.5651   55.5863 O   0  0  0  0  0  0  0  0  0  0  0  0
   68.2755   46.0781   54.3134 C   0  0  0  0  0  0  0  0  0  0  0  0
   69.0201   47.2473   54.1171 C   0  0  0  0  0  0  0  0  0  0  0  0
   69.2310   47.7951   52.8704 C   0  0  0  0  0  0  0  0  0  0  0  0
   68.6938   47.1798   51.7606 C   0  0  0  0  0  0  0  0  0  0  0  0
   67.9495   46.0194   51.9076 C   0  0  0  0  0  0  0  0  0  0  0  0
   67.7613   45.5034   53.1701 C   0  0  0  0  0  0  0  0  0  0  0  0
   71.0623   39.7200   58.9689 C   0  0  0  0  0  0  0  0  0  0  0  0
   70.8367   38.3305   59.4232 C   0  0  0  0  0  0  0  0  0  0  0  0
   70.0504   38.1164   60.5246 N   0  0  0  0  0  0  0  0  0  0  0  0
   69.8165   36.9413   61.0450 N   0  0  0  0  0  0  0  0  0  0  0  0
   70.3573   35.8608   60.4993 C   0  0  0  0  0  0  0  0  0  0  0  0
   70.1411   34.7191   60.9907 O   0  0  0  0  0  0  0  0  0  0  0  0
   71.1618   35.9521   59.3909 C   0  0  0  0  0  0  0  0  0  0  0  0
   71.7066   34.8190   58.8244 C   0  0  0  0  0  0  0  0  0  0  0  0
   72.4964   34.9383   57.7046 C   0  0  0  0  0  0  0  0  0  0  0  0
   72.7194   36.2101   57.1780 C   0  0  0  0  0  0  0  0  0  0  0  0
   72.1787   37.3383   57.7423 C   0  0  0  0  0  0  0  0  0  0  0  0
   71.3977   37.2203   58.8521 C   0  0  0  0  0  0  0  0  0  0  0  0
  8  9  2  0
  9 10  1  0
  9  1  1  0
 10 11  1  0
 11 12  1  0
 12 13  2  0
 12 17  1  0
 13 14  1  0
 14 15  2  0
 15 16  1  0
 16 17  2  0
  1  2  2  0
  1  6  1  0
  2  3  1  0
  3 18  1  0
  3  4  2  0
 18 19  1  0
 19 20  2  0
 19 29  1  0
 20 21  1  0
 21 22  1  0
 22 23  2  0
 22 24  1  0
 24 25  1  0
 24 29  2  0
 25 26  2  0
 26 27  1  0
 27 28  2  0
 28 29  1  0
  4  5  1  0
  5  6  2  0
  6  7  1  0
M  END
>  <minimizedAffinity>  (12) 
-10.45680

$$$$
cs_full_output_folder/data/smiles/3660.pdb
     RDKit          3D

 29 32  0  0  0  0  0  0  0  0999 V2000
   70.6616   45.5291   58.0199 C   0  0  0  0  0  0  0  0  0  0  0  0
   69.7932   46.2845   57.2166 C   0  0  0  0  0  0  0  0  0  0  0  0
   69.9119   47.6228   57.0629 C   0  0  0  0  0  0  0  0  0  0  0  0
   70.9382   48.3162   57.7211 C   0  0  0  0  0  0  0  0  0  0  0  0
   71.8005   47.6044   58.5112 C   0  0  0  0  0  0  0  0  0  0  0  0
   71.6523   46.2079   58.6540 C   0  0  0  0  0  0  0  0  0  0  0  0
   72.5585   45.6032   59.4431 F   0  0  0  0  0  0  0  0  0  0  0  0
   69.3063   43.4652   58.6164 N   0  0  0  0  0  0  0  0  0  0  0  0
   70.4711   44.1063   58.1526 C   0  0  0  0  0  0  0  0  0  0  0  0
   71.4461   43.3167   57.8190 O   0  0  0  0  0  0  0  0  0  0  0  0
   69.2294   42.0024   58.7137 C   0  0  0  0  0  0  0  0  0  0  0  0
   68.5886   38.9393   58.0602 C   0  0  0  0  0  0  0  0  0  0  0  0
   68.2792   40.1442   57.2614 C   0  0  0  0  0  0  0  0  0  0  0  0
   67.6452   40.1301   56.0719 N   0  0  0  0  0  0  0  0  0  0  0  0
   67.5218   41.3439   55.6216 O   0  0  0  0  0  0  0  0  0  0  0  0
   68.0574   42.1870   56.4790 C   0  0  0  0  0  0  0  0  0  0  0  0
   68.5490   41.4653   57.5334 C   0  0  0  0  0  0  0  0  0  0  0  0
   69.0029   48.4600   56.2295 C   0  0  0  0  0  0  0  0  0  0  0  0
   69.3529   48.4392   54.8227 C   0  0  0  0  0  0  0  0  0  0  0  0
   70.2349   49.3828   54.3683 N   0  0  0  0  0  0  0  0  0  0  0  0
   70.5919   49.4763   53.1075 N   0  0  0  0  0  0  0  0  0  0  0  0
   70.1271   48.6584   52.1525 C   0  0  0  0  0  0  0  0  0  0  0  0
   70.4895   48.7746   50.9500 O   0  0  0  0  0  0  0  0  0  0  0  0
   69.2415   47.6874   52.5268 C   0  0  0  0  0  0  0  0  0  0  0  0
   68.7548   46.8282   51.5675 C   0  0  0  0  0  0  0  0  0  0  0  0
   67.8714   45.8499   51.9631 C   0  0  0  0  0  0  0  0  0  0  0  0
   67.4874   45.7343   53.2776 C   0  0  0  0  0  0  0  0  0  0  0  0
   67.9977   46.6136   54.2008 C   0  0  0  0  0  0  0  0  0  0  0  0
   68.8692   47.5928   53.8564 C   0  0  0  0  0  0  0  0  0  0  0  0
 12 13  1  0
 13 14  2  0
 13 17  1  0
 14 15  1  0
 15 16  1  0
 16 17  2  0
 17 11  1  0
 11  8  1  0
  8  9  1  0
  9 10  2  0
  9  1  1  0
  1  2  2  0
  1  6  1  0
  2  3  1  0
  3 18  1  0
  3  4  2  0
 18 19  1  0
 19 20  2  0
 19 29  1  0
 20 21  1  0
 21 22  1  0
 22 23  2  0
 22 24  1  0
 24 25  1  0
 24 29  2  0
 25 26  2  0
 26 27  1  0
 27 28  2  0
 28 29  1  0
  4  5  1  0
  5  6  2  0
  6  7  1  0
M  END
>  <minimizedAffinity>  (13) 
-10.45076

$$$$
cs_full_output_folder/data/smiles/5281.pdb
     RDKit          3D

 29 32  0  0  0  0  0  0  0  0999 V2000
   70.5107   45.7293   58.1832 C   0  0  0  0  0  0  0  0  0  0  0  0
   69.8172   46.5813   57.3210 C   0  0  0  0  0  0  0  0  0  0  0  0
   70.1175   47.8856   57.0875 C   0  0  0  0  0  0  0  0  0  0  0  0
   71.2267   48.4025   57.7841 C   0  0  0  0  0  0  0  0  0  0  0  0
   71.9521   47.6218   58.6462 C   0  0  0  0  0  0  0  0  0  0  0  0
   71.5829   46.2780   58.8389 C   0  0  0  0  0  0  0  0  0  0  0  0
   72.3089   45.5308   59.7057 F   0  0  0  0  0  0  0  0  0  0  0  0
   69.5964   44.0013   59.4525 O   0  0  0  0  0  0  0  0  0  0  0  0
   70.0995   44.3446   58.3264 C   0  0  0  0  0  0  0  0  0  0  0  0
   70.1847   43.3263   57.3689 N   0  0  0  0  0  0  0  0  0  0  0  0
   69.7518   41.9778   57.6074 C   0  0  0  0  0  0  0  0  0  0  0  0
   70.5631   41.0906   58.2750 C   0  0  0  0  0  0  0  0  0  0  0  0
   70.1259   39.7798   58.5032 C   0  0  0  0  0  0  0  0  0  0  0  0
   68.8949   39.3453   58.0734 C   0  0  0  0  0  0  0  0  0  0  0  0
   68.0850   40.2367   57.4053 C   0  0  0  0  0  0  0  0  0  0  0  0
   68.5183   41.5321   57.1806 C   0  0  0  0  0  0  0  0  0  0  0  0
   67.6820   42.4055   56.5056 O   0  0  0  0  0  0  0  0  0  0  0  0
   69.3625   48.7984   56.1717 C   0  0  0  0  0  0  0  0  0  0  0  0
   69.6982   48.6199   54.7524 C   0  0  0  0  0  0  0  0  0  0  0  0
   70.6761   49.4120   54.1983 N   0  0  0  0  0  0  0  0  0  0  0  0
   70.9985   49.3367   52.9238 N   0  0  0  0  0  0  0  0  0  0  0  0
   70.3995   48.4871   52.0778 C   0  0  0  0  0  0  0  0  0  0  0  0
   70.6920   48.3994   50.8542 O   0  0  0  0  0  0  0  0  0  0  0  0
   69.4047   47.6521   52.5550 C   0  0  0  0  0  0  0  0  0  0  0  0
   68.7783   46.7599   51.7143 C   0  0  0  0  0  0  0  0  0  0  0  0
   67.7982   45.9312   52.2209 C   0  0  0  0  0  0  0  0  0  0  0  0
   67.4701   46.0148   53.5568 C   0  0  0  0  0  0  0  0  0  0  0  0
   68.0871   46.9023   54.4093 C   0  0  0  0  0  0  0  0  0  0  0  0
   69.0722   47.7416   53.9104 C   0  0  0  0  0  0  0  0  0  0  0  0
  8  9  2  0
  9 10  1  0
  9  1  1  0
 10 11  1  0
 11 12  2  0
 11 16  1  0
 12 13  1  0
 13 14  2  0
 14 15  1  0
 15 16  2  0
 16 17  1  0
  1  2  2  0
  1  6  1  0
  2  3  1  0
  3 18  1  0
  3  4  2  0
 18 19  1  0
 19 20  2  0
 19 29  1  0
 20 21  1  0
 21 22  1  0
 22 23  2  0
 22 24  1  0
 24 25  1  0
 24 29  2  0
 25 26  2  0
 26 27  1  0
 27 28  2  0
 28 29  1  0
  4  5  1  0
  5  6  2  0
  6  7  1  0
M  END
>  <minimizedAffinity>  (14) 
-10.42990

$$$$
cs_full_output_folder/data/smiles/3695.pdb
     RDKit          3D

 29 32  0  0  0  0  0  0  0  0999 V2000
   70.7167   45.5911   57.9770 C   0  0  0  0  0  0  0  0  0  0  0  0
   69.8048   46.3638   57.2403 C   0  0  0  0  0  0  0  0  0  0  0  0
   69.9209   47.7276   57.0587 C   0  0  0  0  0  0  0  0  0  0  0  0
   70.9943   48.3310   57.6401 C   0  0  0  0  0  0  0  0  0  0  0  0
   71.9349   47.6319   58.3827 C   0  0  0  0  0  0  0  0  0  0  0  0
   71.7694   46.2668   58.5325 C   0  0  0  0  0  0  0  0  0  0  0  0
   72.7274   45.5870   59.2651 F   0  0  0  0  0  0  0  0  0  0  0  0
   69.3656   43.5366   58.6301 N   0  0  0  0  0  0  0  0  0  0  0  0
   70.4984   44.1647   58.1219 C   0  0  0  0  0  0  0  0  0  0  0  0
   71.4424   43.3770   57.7453 O   0  0  0  0  0  0  0  0  0  0  0  0
   69.2271   42.0877   58.7478 C   0  0  0  0  0  0  0  0  0  0  0  0
   68.6627   39.0132   58.2563 C   0  0  0  0  0  0  0  0  0  0  0  0
   68.2841   40.1631   57.3867 C   0  0  0  0  0  0  0  0  0  0  0  0
   67.6403   40.0869   56.2504 O   0  0  0  0  0  0  0  0  0  0  0  0
   67.4523   41.2498   55.7198 N   0  0  0  0  0  0  0  0  0  0  0  0
   67.9928   42.1717   56.5311 C   0  0  0  0  0  0  0  0  0  0  0  0
   68.5288   41.5037   57.5991 C   0  0  0  0  0  0  0  0  0  0  0  0
   68.9237   48.4753   56.2408 C   0  0  0  0  0  0  0  0  0  0  0  0
   69.2928   48.5266   54.7903 C   0  0  0  0  0  0  0  0  0  0  0  0
   70.1624   49.4918   54.3976 N   0  0  0  0  0  0  0  0  0  0  0  0
   70.5600   49.5515   53.1616 N   0  0  0  0  0  0  0  0  0  0  0  0
   70.1525   48.6860   52.2077 C   0  0  0  0  0  0  0  0  0  0  0  0
   70.5547   48.7684   51.0228 O   0  0  0  0  0  0  0  0  0  0  0  0
   69.2742   47.6986   52.5662 C   0  0  0  0  0  0  0  0  0  0  0  0
   68.8065   46.7902   51.6591 C   0  0  0  0  0  0  0  0  0  0  0  0
   67.9084   45.8019   52.0324 C   0  0  0  0  0  0  0  0  0  0  0  0
   67.4615   45.7104   53.3332 C   0  0  0  0  0  0  0  0  0  0  0  0
   67.9329   46.6270   54.2559 C   0  0  0  0  0  0  0  0  0  0  0  0
   68.8398   47.6227   53.8817 C   0  0  0  0  0  0  0  0  0  0  0  0
 12 13  1  0
 13 14  1  0
 13 17  2  0
 14 15  1  0
 15 16  2  0
 16 17  1  0
 17 11  1  0
 11  8  1  0
  8  9  1  0
  9 10  2  0
  9  1  1  0
  1  2  2  0
  1  6  1  0
  2  3  1  0
  3 18  1  0
  3  4  2  0
 18 19  1  0
 19 20  2  0
 19 29  1  0
 20 21  1  0
 21 22  1  0
 22 23  2  0
 22 24  1  0
 24 25  1  0
 24 29  2  0
 25 26  2  0
 26 27  1  0
 27 28  2  0
 28 29  1  0
  4  5  1  0
  5  6  2  0
  6  7  1  0
M  END
>  <minimizedAffinity>  (15) 
-10.38984

$$$$
cs_full_output_folder/data/smiles/6710.pdb
     RDKit          3D

 28 31  0  0  0  0  0  0  0  0999 V2000
   70.6164   45.5748   57.9612 C   0  0  0  0  0  0  0  0  0  0  0  0
   69.7448   46.3255   57.1503 C   0  0  0  0  0  0  0  0  0  0  0  0
   69.8093   47.6889   57.0513 C   0  0  0  0  0  0  0  0  0  0  0  0
   70.7895   48.3457   57.7950 C   0  0  0  0  0  0  0  0  0  0  0  0
   71.6666   47.6719   58.6015 C   0  0  0  0  0  0  0  0  0  0  0  0
   71.5489   46.2863   58.6583 C   0  0  0  0  0  0  0  0  0  0  0  0
   72.4235   45.6117   59.4544 F   0  0  0  0  0  0  0  0  0  0  0  0
   71.4298   43.3620   57.7088 O   0  0  0  0  0  0  0  0  0  0  0  0
   70.4374   44.1275   57.9907 C   0  0  0  0  0  0  0  0  0  0  0  0
   69.2508   43.4448   58.3050 N   0  0  0  0  0  0  0  0  0  0  0  0
   69.1336   41.9798   58.3224 C   0  0  0  0  0  0  0  0  0  0  0  0
   68.3483   41.6028   57.1238 C   0  0  0  0  0  0  0  0  0  0  0  0
   68.2665   40.3124   56.6412 C   0  0  0  0  0  0  0  0  0  0  0  0
   67.4681   40.3731   55.5612 N   0  0  0  0  0  0  0  0  0  0  0  0
   67.0650   41.5703   55.3482 O   0  0  0  0  0  0  0  0  0  0  0  0
   67.5741   42.3649   56.2767 C   0  0  0  0  0  0  0  0  0  0  0  0
   68.9146   48.5350   56.2321 C   0  0  0  0  0  0  0  0  0  0  0  0
   69.3361   48.5031   54.8269 C   0  0  0  0  0  0  0  0  0  0  0  0
   70.2329   49.4283   54.4104 N   0  0  0  0  0  0  0  0  0  0  0  0
   70.6389   49.5105   53.1485 N   0  0  0  0  0  0  0  0  0  0  0  0
   70.1634   48.6601   52.2225 C   0  0  0  0  0  0  0  0  0  0  0  0
   70.5555   48.7460   51.0203 O   0  0  0  0  0  0  0  0  0  0  0  0
   69.2542   47.6939   52.5576 C   0  0  0  0  0  0  0  0  0  0  0  0
   68.7690   46.8110   51.6330 C   0  0  0  0  0  0  0  0  0  0  0  0
   67.8506   45.8176   51.9920 C   0  0  0  0  0  0  0  0  0  0  0  0
   67.4500   45.7501   53.2963 C   0  0  0  0  0  0  0  0  0  0  0  0
   67.9419   46.6464   54.2356 C   0  0  0  0  0  0  0  0  0  0  0  0
   68.8465   47.6327   53.8968 C   0  0  0  0  0  0  0  0  0  0  0  0
  8  9  2  0
  9 10  1  0
  9  1  1  0
 10 11  1  0
 11 12  1  0
 12 13  1  0
 12 16  2  0
 13 14  2  0
 14 15  1  0
 15 16  1  0
  1  2  2  0
  1  6  1  0
  2  3  1  0
  3 17  1  0
  3  4  2  0
 17 18  1  0
 18 19  2  0
 18 28  1  0
 19 20  1  0
 20 21  1  0
 21 22  2  0
 21 23  1  0
 23 24  1  0
 23 28  2  0
 24 25  2  0
 25 26  1  0
 26 27  2  0
 27 28  1  0
  4  5  1  0
  5  6  2  0
  6  7  1  0
M  END
>  <minimizedAffinity>  (16) 
-10.38721

$$$$
cs_full_output_folder/data/smiles/4681.pdb
     RDKit          3D

 29 32  0  0  0  0  0  0  0  0999 V2000
   70.5465   45.7227   58.1347 C   0  0  0  0  0  0  0  0  0  0  0  0
   69.7581   46.5928   57.3720 C   0  0  0  0  0  0  0  0  0  0  0  0
   70.0552   47.8956   57.1154 C   0  0  0  0  0  0  0  0  0  0  0  0
   71.2224   48.3835   57.6497 C   0  0  0  0  0  0  0  0  0  0  0  0
   72.0512   47.5637   58.4203 C   0  0  0  0  0  0  0  0  0  0  0  0
   71.7068   46.2329   58.6602 C   0  0  0  0  0  0  0  0  0  0  0  0
   72.5375   45.4927   59.4243 F   0  0  0  0  0  0  0  0  0  0  0  0
   70.2051   43.3733   57.2945 N   0  0  0  0  0  0  0  0  0  0  0  0
   70.1031   44.3477   58.3054 C   0  0  0  0  0  0  0  0  0  0  0  0
   69.5874   44.0080   59.4470 O   0  0  0  0  0  0  0  0  0  0  0  0
   67.6446   42.4909   56.2458 C   0  0  0  0  0  0  0  0  0  0  0  0
   68.5355   41.6337   57.0515 C   0  0  0  0  0  0  0  0  0  0  0  0
   68.1089   40.3413   57.3138 C   0  0  0  0  0  0  0  0  0  0  0  0
   68.8714   39.4609   58.0621 C   0  0  0  0  0  0  0  0  0  0  0  0
   70.0525   39.9224   58.5257 N   0  0  0  0  0  0  0  0  0  0  0  0
   70.5013   41.1707   58.2929 C   0  0  0  0  0  0  0  0  0  0  0  0
   69.7438   42.0276   57.5560 C   0  0  0  0  0  0  0  0  0  0  0  0
   69.1126   48.6886   56.2503 C   0  0  0  0  0  0  0  0  0  0  0  0
   69.4015   48.6230   54.8339 C   0  0  0  0  0  0  0  0  0  0  0  0
   70.2743   49.5408   54.3122 N   0  0  0  0  0  0  0  0  0  0  0  0
   70.6314   49.5533   53.0515 N   0  0  0  0  0  0  0  0  0  0  0  0
   70.1794   48.6711   52.1512 C   0  0  0  0  0  0  0  0  0  0  0  0
   70.5383   48.7065   50.9540 O   0  0  0  0  0  0  0  0  0  0  0  0
   69.2907   47.7065   52.5879 C   0  0  0  0  0  0  0  0  0  0  0  0
   68.7832   46.7785   51.7020 C   0  0  0  0  0  0  0  0  0  0  0  0
   67.8981   45.8436   52.1584 C   0  0  0  0  0  0  0  0  0  0  0  0
   67.5312   45.8498   53.5019 C   0  0  0  0  0  0  0  0  0  0  0  0
   68.0419   46.7764   54.3751 C   0  0  0  0  0  0  0  0  0  0  0  0
   68.9211   47.7079   53.9332 C   0  0  0  0  0  0  0  0  0  0  0  0
 11 12  1  0
 12 13  2  0
 12 17  1  0
 13 14  1  0
 14 15  2  0
 15 16  1  0
 16 17  2  0
 17  8  1  0
  8  9  1  0
  9 10  2  0
  9  1  1  0
  1  2  2  0
  1  6  1  0
  2  3  1  0
  3 18  1  0
  3  4  2  0
 18 19  1  0
 19 20  2  0
 19 29  1  0
 20 21  1  0
 21 22  1  0
 22 23  2  0
 22 24  1  0
 24 25  1  0
 24 29  2  0
 25 26  2  0
 26 27  1  0
 27 28  2  0
 28 29  1  0
  4  5  1  0
  5  6  2  0
  6  7  1  0
M  END
>  <minimizedAffinity>  (17) 
-10.38506

$$$$
cs_full_output_folder/data/smiles/3829.pdb
     RDKit          3D

 29 32  0  0  0  0  0  0  0  0999 V2000
   70.4086   45.1975   57.8710 C   0  0  0  0  0  0  0  0  0  0  0  0
   69.6871   46.0853   57.0714 C   0  0  0  0  0  0  0  0  0  0  0  0
   69.8528   47.4323   57.0579 C   0  0  0  0  0  0  0  0  0  0  0  0
   70.8387   47.9376   57.9282 C   0  0  0  0  0  0  0  0  0  0  0  0
   71.5824   47.1251   58.7369 C   0  0  0  0  0  0  0  0  0  0  0  0
   71.3599   45.7368   58.7048 C   0  0  0  0  0  0  0  0  0  0  0  0
   72.1195   45.0006   59.5221 F   0  0  0  0  0  0  0  0  0  0  0  0
   71.0712   43.0138   57.4337 O   0  0  0  0  0  0  0  0  0  0  0  0
   70.1291   43.7778   57.7937 C   0  0  0  0  0  0  0  0  0  0  0  0
   68.9124   43.1386   58.0760 N   0  0  0  0  0  0  0  0  0  0  0  0
   68.6904   41.7364   57.9779 C   0  0  0  0  0  0  0  0  0  0  0  0
   69.0578   40.8701   58.9892 C   0  0  0  0  0  0  0  0  0  0  0  0
   68.8313   39.5009   58.8923 C   0  0  0  0  0  0  0  0  0  0  0  0
   68.2231   39.0453   57.7389 C   0  0  0  0  0  0  0  0  0  0  0  0
   67.8609   39.9019   56.7412 N   0  0  0  0  0  0  0  0  0  0  0  0
   68.0849   41.2269   56.8446 C   0  0  0  0  0  0  0  0  0  0  0  0
   67.7639   42.0450   55.9433 O   0  0  0  0  0  0  0  0  0  0  0  0
   69.0908   48.4038   56.2192 C   0  0  0  0  0  0  0  0  0  0  0  0
   69.4591   48.4256   54.8103 C   0  0  0  0  0  0  0  0  0  0  0  0
   70.3547   49.3425   54.3674 N   0  0  0  0  0  0  0  0  0  0  0  0
   70.6913   49.4545   53.0937 N   0  0  0  0  0  0  0  0  0  0  0  0
   70.1809   48.6768   52.1330 C   0  0  0  0  0  0  0  0  0  0  0  0
   70.5000   48.7846   50.9277 O   0  0  0  0  0  0  0  0  0  0  0  0
   69.2584   47.7121   52.5042 C   0  0  0  0  0  0  0  0  0  0  0  0
   68.7159   46.8764   51.5694 C   0  0  0  0  0  0  0  0  0  0  0  0
   67.8119   45.8934   51.8906 C   0  0  0  0  0  0  0  0  0  0  0  0
   67.4772   45.7940   53.2293 C   0  0  0  0  0  0  0  0  0  0  0  0
   68.0051   46.6165   54.1801 C   0  0  0  0  0  0  0  0  0  0  0  0
   68.9054   47.5976   53.8538 C   0  0  0  0  0  0  0  0  0  0  0  0
  8  9  2  0
  9 10  1  0
  9  1  1  0
 10 11  1  0
 11 12  2  0
 11 16  1  0
 12 13  1  0
 13 14  2  0
 14 15  1  0
 15 16  1  0
 16 17  2  0
  1  2  2  0
  1  6  1  0
  2  3  1  0
  3 18  1  0
  3  4  2  0
 18 19  1  0
 19 20  2  0
 19 29  1  0
 20 21  1  0
 21 22  1  0
 22 23  2  0
 22 24  1  0
 24 25  1  0
 24 29  2  0
 25 26  2  0
 26 27  1  0
 27 28  2  0
 28 29  1  0
  4  5  1  0
  5  6  2  0
  6  7  1  0
M  END
>  <minimizedAffinity>  (18) 
-10.36863

$$$$
cs_full_output_folder/data/smiles/4950.pdb
     RDKit          3D

 29 32  0  0  0  0  0  0  0  0999 V2000
   70.5265   45.7009   58.1574 C   0  0  0  0  0  0  0  0  0  0  0  0
   69.7223   46.5485   57.3783 C   0  0  0  0  0  0  0  0  0  0  0  0
   69.9894   47.8516   57.1030 C   0  0  0  0  0  0  0  0  0  0  0  0
   71.1749   48.3720   57.6554 C   0  0  0  0  0  0  0  0  0  0  0  0
   71.9877   47.5788   58.4232 C   0  0  0  0  0  0  0  0  0  0  0  0
   71.6720   46.2449   58.6786 C   0  0  0  0  0  0  0  0  0  0  0  0
   72.5106   45.5414   59.4417 F   0  0  0  0  0  0  0  0  0  0  0  0
   70.1538   43.3406   57.3439 N   0  0  0  0  0  0  0  0  0  0  0  0
   70.1022   44.3173   58.3486 C   0  0  0  0  0  0  0  0  0  0  0  0
   69.6503   43.9242   59.4702 O   0  0  0  0  0  0  0  0  0  0  0  0
   67.7421   42.5377   56.2548 C   0  0  0  0  0  0  0  0  0  0  0  0
   68.5251   41.5834   57.0634 C   0  0  0  0  0  0  0  0  0  0  0  0
   68.0471   40.2816   57.2741 C   0  0  0  0  0  0  0  0  0  0  0  0
   68.7899   39.4029   58.0286 C   0  0  0  0  0  0  0  0  0  0  0  0
   69.9849   39.8542   58.5467 C   0  0  0  0  0  0  0  0  0  0  0  0
   70.4371   41.1268   58.3314 N   0  0  0  0  0  0  0  0  0  0  0  0
   69.7219   41.9928   57.5983 C   0  0  0  0  0  0  0  0  0  0  0  0
   69.1344   48.7339   56.2624 C   0  0  0  0  0  0  0  0  0  0  0  0
   69.4423   48.6868   54.8294 C   0  0  0  0  0  0  0  0  0  0  0  0
   70.3171   49.5958   54.2925 N   0  0  0  0  0  0  0  0  0  0  0  0
   70.6730   49.5997   53.0352 N   0  0  0  0  0  0  0  0  0  0  0  0
   70.2123   48.7077   52.1468 C   0  0  0  0  0  0  0  0  0  0  0  0
   70.5246   48.6727   50.9365 O   0  0  0  0  0  0  0  0  0  0  0  0
   69.3172   47.7496   52.6101 C   0  0  0  0  0  0  0  0  0  0  0  0
   68.8114   46.8206   51.7207 C   0  0  0  0  0  0  0  0  0  0  0  0
   67.9151   45.8629   52.1334 C   0  0  0  0  0  0  0  0  0  0  0  0
   67.5507   45.8786   53.4670 C   0  0  0  0  0  0  0  0  0  0  0  0
   68.0460   46.7965   54.3622 C   0  0  0  0  0  0  0  0  0  0  0  0
   68.9455   47.7530   53.9421 C   0  0  0  0  0  0  0  0  0  0  0  0
 11 12  1  0
 12 13  2  0
 12 17  1  0
 13 14  1  0
 14 15  2  0
 15 16  1  0
 16 17  2  0
 17  8  1  0
  8  9  1  0
  9 10  2  0
  9  1  1  0
  1  2  2  0
  1  6  1  0
  2  3  1  0
  3 18  1  0
  3  4  2  0
 18 19  1  0
 19 20  2  0
 19 29  1  0
 20 21  1  0
 21 22  1  0
 22 23  2  0
 22 24  1  0
 24 25  1  0
 24 29  2  0
 25 26  2  0
 26 27  1  0
 27 28  2  0
 28 29  1  0
  4  5  1  0
  5  6  2  0
  6  7  1  0
M  END
>  <minimizedAffinity>  (19) 
-10.35329

$$$$
cs_full_output_folder/data/smiles/5128.pdb
     RDKit          3D

 29 32  0  0  0  0  0  0  0  0999 V2000
   70.7364   45.6893   57.9925 C   0  0  0  0  0  0  0  0  0  0  0  0
   69.8279   46.4443   57.2594 C   0  0  0  0  0  0  0  0  0  0  0  0
   69.9192   47.8121   57.0800 C   0  0  0  0  0  0  0  0  0  0  0  0
   70.9744   48.4553   57.6658 C   0  0  0  0  0  0  0  0  0  0  0  0
   71.9279   47.7704   58.4158 C   0  0  0  0  0  0  0  0  0  0  0  0
   71.7707   46.3898   58.5535 C   0  0  0  0  0  0  0  0  0  0  0  0
   72.7222   45.7578   59.2874 F   0  0  0  0  0  0  0  0  0  0  0  0
   69.4145   43.6048   58.6585 N   0  0  0  0  0  0  0  0  0  0  0  0
   70.5453   44.2575   58.1278 C   0  0  0  0  0  0  0  0  0  0  0  0
   71.4760   43.4946   57.7359 O   0  0  0  0  0  0  0  0  0  0  0  0
   69.3343   42.1399   58.7477 C   0  0  0  0  0  0  0  0  0  0  0  0
   68.6908   39.1524   58.1460 C   0  0  0  0  0  0  0  0  0  0  0  0
   68.2829   40.3070   57.3099 C   0  0  0  0  0  0  0  0  0  0  0  0
   67.5712   40.2675   56.1587 N   0  0  0  0  0  0  0  0  0  0  0  0
   67.3996   41.4912   55.6970 N   0  0  0  0  0  0  0  0  0  0  0  0
   68.0001   42.3394   56.5473 C   0  0  0  0  0  0  0  0  0  0  0  0
   68.5746   41.6218   57.5893 C   0  0  0  0  0  0  0  0  0  0  0  0
   68.9241   48.5396   56.2506 C   0  0  0  0  0  0  0  0  0  0  0  0
   69.2963   48.5566   54.8134 C   0  0  0  0  0  0  0  0  0  0  0  0
   70.1833   49.5123   54.4014 N   0  0  0  0  0  0  0  0  0  0  0  0
   70.5850   49.5491   53.1564 N   0  0  0  0  0  0  0  0  0  0  0  0
   70.1725   48.6836   52.2276 C   0  0  0  0  0  0  0  0  0  0  0  0
   70.5571   48.7146   51.0277 O   0  0  0  0  0  0  0  0  0  0  0  0
   69.2725   47.6985   52.6032 C   0  0  0  0  0  0  0  0  0  0  0  0
   68.8048   46.7876   51.6769 C   0  0  0  0  0  0  0  0  0  0  0  0
   67.9040   45.8176   52.0342 C   0  0  0  0  0  0  0  0  0  0  0  0
   67.4794   45.7793   53.3427 C   0  0  0  0  0  0  0  0  0  0  0  0
   67.9139   46.6611   54.2988 C   0  0  0  0  0  0  0  0  0  0  0  0
   68.8354   47.6458   53.9213 C   0  0  0  0  0  0  0  0  0  0  0  0
 12 13  1  0
 13 14  2  0
 13 17  1  0
 14 15  1  0
 15 16  1  0
 16 17  2  0
 17 11  1  0
 11  8  1  0
  8  9  1  0
  9 10  2  0
  9  1  1  0
  1  2  2  0
  1  6  1  0
  2  3  1  0
  3 18  1  0
  3  4  2  0
 18 19  1  0
 19 20  2  0
 19 29  1  0
 20 21  1  0
 21 22  1  0
 22 23  2  0
 22 24  1  0
 24 25  1  0
 24 29  2  0
 25 26  2  0
 26 27  1  0
 27 28  2  0
 28 29  1  0
  4  5  1  0
  5  6  2  0
  6  7  1  0
M  END
>  <minimizedAffinity>  (20) 
-10.34493

$$$$
cs_full_output_folder/data/smiles/4330.pdb
     RDKit          3D

 29 32  0  0  0  0  0  0  0  0999 V2000
   70.4789   45.7951   58.1279 C   0  0  0  0  0  0  0  0  0  0  0  0
   69.7405   46.6470   57.3047 C   0  0  0  0  0  0  0  0  0  0  0  0
   70.0341   47.9833   57.1299 C   0  0  0  0  0  0  0  0  0  0  0  0
   71.1042   48.5432   57.7841 C   0  0  0  0  0  0  0  0  0  0  0  0
   71.8508   47.7324   58.5997 C   0  0  0  0  0  0  0  0  0  0  0  0
   71.5439   46.3850   58.7684 C   0  0  0  0  0  0  0  0  0  0  0  0
   72.3185   45.6121   59.5850 F   0  0  0  0  0  0  0  0  0  0  0  0
   69.6035   44.0443   59.4010 O   0  0  0  0  0  0  0  0  0  0  0  0
   70.0902   44.4022   58.2664 C   0  0  0  0  0  0  0  0  0  0  0  0
   70.1776   43.3816   57.3181 N   0  0  0  0  0  0  0  0  0  0  0  0
   69.7527   42.0297   57.5808 C   0  0  0  0  0  0  0  0  0  0  0  0
   70.4809   41.1665   58.2749 N   0  0  0  0  0  0  0  0  0  0  0  0
   70.0521   39.8866   58.5072 C   0  0  0  0  0  0  0  0  0  0  0  0
   68.8407   39.4317   58.0302 C   0  0  0  0  0  0  0  0  0  0  0  0
   68.0723   40.3142   57.3070 C   0  0  0  0  0  0  0  0  0  0  0  0
   68.5386   41.6116   57.0887 C   0  0  0  0  0  0  0  0  0  0  0  0
   67.7762   42.5070   56.3651 O   0  0  0  0  0  0  0  0  0  0  0  0
   69.1497   48.8181   56.2442 C   0  0  0  0  0  0  0  0  0  0  0  0
   69.5138   48.7057   54.8114 C   0  0  0  0  0  0  0  0  0  0  0  0
   70.4103   49.5851   54.2591 N   0  0  0  0  0  0  0  0  0  0  0  0
   70.7462   49.5665   52.9850 N   0  0  0  0  0  0  0  0  0  0  0  0
   70.2367   48.6794   52.1130 C   0  0  0  0  0  0  0  0  0  0  0  0
   70.5623   48.6722   50.9080 O   0  0  0  0  0  0  0  0  0  0  0  0
   69.3330   47.7646   52.5879 C   0  0  0  0  0  0  0  0  0  0  0  0
   68.8084   46.8397   51.7125 C   0  0  0  0  0  0  0  0  0  0  0  0
   67.9054   45.8971   52.1635 C   0  0  0  0  0  0  0  0  0  0  0  0
   67.5591   45.9153   53.4869 C   0  0  0  0  0  0  0  0  0  0  0  0
   68.0869   46.8441   54.3610 C   0  0  0  0  0  0  0  0  0  0  0  0
   68.9840   47.7926   53.9403 C   0  0  0  0  0  0  0  0  0  0  0  0
  8  9  2  0
  9 10  1  0
  9  1  1  0
 10 11  1  0
 11 12  2  0
 11 16  1  0
 12 13  1  0
 13 14  2  0
 14 15  1  0
 15 16  2  0
 16 17  1  0
  1  2  2  0
  1  6  1  0
  2  3  1  0
  3 18  1  0
  3  4  2  0
 18 19  1  0
 19 20  2  0
 19 29  1  0
 20 21  1  0
 21 22  1  0
 22 23  2  0
 22 24  1  0
 24 25  1  0
 24 29  2  0
 25 26  2  0
 26 27  1  0
 27 28  2  0
 28 29  1  0
  4  5  1  0
  5  6  2  0
  6  7  1  0
M  END
>  <minimizedAffinity>  (21) 
-10.32027

$$$$
cs_full_output_folder/data/smiles/8346.pdb
     RDKit          3D

 28 31  0  0  0  0  0  0  0  0999 V2000
   70.4087   45.2922   57.8297 C   0  0  0  0  0  0  0  0  0  0  0  0
   71.3459   45.8558   58.6742 C   0  0  0  0  0  0  0  0  0  0  0  0
   71.5521   47.2168   58.7487 C   0  0  0  0  0  0  0  0  0  0  0  0
   70.7975   48.0451   57.9535 C   0  0  0  0  0  0  0  0  0  0  0  0
   69.8289   47.5391   57.0730 C   0  0  0  0  0  0  0  0  0  0  0  0
   69.6852   46.1691   57.0595 C   0  0  0  0  0  0  0  0  0  0  0  0
   71.2709   43.1290   57.5894 O   0  0  0  0  0  0  0  0  0  0  0  0
   70.2551   43.8269   57.8148 C   0  0  0  0  0  0  0  0  0  0  0  0
   69.0479   43.1510   58.0354 N   0  0  0  0  0  0  0  0  0  0  0  0
   68.8004   41.7585   58.0418 C   0  0  0  0  0  0  0  0  0  0  0  0
   69.1084   40.8839   59.0396 C   0  0  0  0  0  0  0  0  0  0  0  0
   68.7869   39.5463   58.8650 C   0  0  0  0  0  0  0  0  0  0  0  0
   68.1718   39.0903   57.7203 C   0  0  0  0  0  0  0  0  0  0  0  0
   67.8675   39.9494   56.7361 N   0  0  0  0  0  0  0  0  0  0  0  0
   68.1749   41.2249   56.9043 C   0  0  0  0  0  0  0  0  0  0  0  0
   67.8468   42.0644   55.8753 F   0  0  0  0  0  0  0  0  0  0  0  0
   69.0664   48.4907   56.2237 C   0  0  0  0  0  0  0  0  0  0  0  0
   69.4319   48.4857   54.8021 C   0  0  0  0  0  0  0  0  0  0  0  0
   70.3360   49.4101   54.3478 N   0  0  0  0  0  0  0  0  0  0  0  0
   70.6795   49.4860   53.0761 N   0  0  0  0  0  0  0  0  0  0  0  0
   70.1753   48.6723   52.1350 C   0  0  0  0  0  0  0  0  0  0  0  0
   70.5083   48.7512   50.9233 O   0  0  0  0  0  0  0  0  0  0  0  0
   69.2654   47.7202   52.5145 C   0  0  0  0  0  0  0  0  0  0  0  0
   68.7537   46.8768   51.5569 C   0  0  0  0  0  0  0  0  0  0  0  0
   67.8424   45.9068   51.9445 C   0  0  0  0  0  0  0  0  0  0  0  0
   67.4786   45.8197   53.2825 C   0  0  0  0  0  0  0  0  0  0  0  0
   67.9946   46.6694   54.2373 C   0  0  0  0  0  0  0  0  0  0  0  0
   68.9053   47.6453   53.8641 C   0  0  0  0  0  0  0  0  0  0  0  0
  7  8  2  0
  8  9  1  0
  8  1  1  0
  9 10  1  0
 10 11  2  0
 10 15  1  0
 11 12  1  0
 12 13  2  0
 13 14  1  0
 14 15  2  0
 15 16  1  0
  1  2  2  0
  1  6  1  0
  2  3  1  0
  3  4  2  0
  4  5  1  0
  5 17  1  0
  5  6  2  0
 17 18  1  0
 18 19  2  0
 18 28  1  0
 19 20  1  0
 20 21  1  0
 21 22  2  0
 21 23  1  0
 23 24  1  0
 23 28  2  0
 24 25  2  0
 25 26  1  0
 26 27  2  0
 27 28  1  0
M  END
>  <minimizedAffinity>  (22) 
-10.31508

$$$$
cs_full_output_folder/data/smiles/2491.pdb
     RDKit          3D

 29 32  0  0  0  0  0  0  0  0999 V2000
   70.7321   46.1318   58.1083 C   0  0  0  0  0  0  0  0  0  0  0  0
   71.8655   46.7813   58.5816 C   0  0  0  0  0  0  0  0  0  0  0  0
   72.1191   48.1044   58.2838 C   0  0  0  0  0  0  0  0  0  0  0  0
   71.2175   48.7927   57.4943 C   0  0  0  0  0  0  0  0  0  0  0  0
   70.0687   48.1874   56.9967 C   0  0  0  0  0  0  0  0  0  0  0  0
   69.8735   46.8554   57.3328 C   0  0  0  0  0  0  0  0  0  0  0  0
   70.9425   43.6264   57.6902 N   0  0  0  0  0  0  0  0  0  0  0  0
   70.4987   44.7142   58.4546 C   0  0  0  0  0  0  0  0  0  0  0  0
   69.8570   44.4324   59.5089 O   0  0  0  0  0  0  0  0  0  0  0  0
   70.5801   37.9996   58.8083 C   0  0  0  0  0  0  0  0  0  0  0  0
   70.6600   39.4641   58.5141 C   0  0  0  0  0  0  0  0  0  0  0  0
   69.5222   40.1696   58.2061 C   0  0  0  0  0  0  0  0  0  0  0  0
   69.6054   41.5431   57.9320 C   0  0  0  0  0  0  0  0  0  0  0  0
   70.7605   42.2470   57.9503 C   0  0  0  0  0  0  0  0  0  0  0  0
   71.9059   41.5023   58.2671 C   0  0  0  0  0  0  0  0  0  0  0  0
   71.8510   40.1513   58.5406 C   0  0  0  0  0  0  0  0  0  0  0  0
   72.9640   39.4305   58.8475 F   0  0  0  0  0  0  0  0  0  0  0  0
   69.1194   48.9344   56.1383 C   0  0  0  0  0  0  0  0  0  0  0  0
   69.4506   48.7172   54.7163 C   0  0  0  0  0  0  0  0  0  0  0  0
   70.3803   49.5508   54.1813 N   0  0  0  0  0  0  0  0  0  0  0  0
   70.7652   49.4828   52.9365 N   0  0  0  0  0  0  0  0  0  0  0  0
   70.2185   48.5487   52.1513 C   0  0  0  0  0  0  0  0  0  0  0  0
   70.5950   48.4832   50.9330 O   0  0  0  0  0  0  0  0  0  0  0  0
   69.2611   47.6539   52.6122 C   0  0  0  0  0  0  0  0  0  0  0  0
   68.8754   47.7548   53.9423 C   0  0  0  0  0  0  0  0  0  0  0  0
   67.8705   46.8087   54.4515 C   0  0  0  0  0  0  0  0  0  0  0  0
   67.8948   45.5093   53.6424 C   0  0  0  0  0  0  0  0  0  0  0  0
   67.6609   45.7860   52.1830 C   0  0  0  0  0  0  0  0  0  0  0  0
   68.7360   46.6748   51.6589 C   0  0  0  0  0  0  0  0  0  0  0  0
 10 11  1  0
 11 12  2  0
 11 16  1  0
 12 13  1  0
 13 14  2  0
 14  7  1  0
 14 15  1  0
  7  8  1  0
  8  9  2  0
  8  1  1  0
  1  2  2  0
  1  6  1  0
  2  3  1  0
  3  4  2  0
  4  5  1  0
  5 18  1  0
  5  6  2  0
 18 19  1  0
 19 20  2  0
 19 25  1  0
 20 21  1  0
 21 22  1  0
 22 23  2  0
 22 24  1  0
 24 25  2  0
 24 29  1  0
 25 26  1  0
 26 27  1  0
 27 28  1  0
 28 29  1  0
 15 16  2  0
 16 17  1  0
M  END
>  <minimizedAffinity>  (23) 
-10.30247

$$$$
cs_full_output_folder/data/smiles/3978.pdb
     RDKit          3D

 29 32  0  0  0  0  0  0  0  0999 V2000
   70.6648   45.7746   58.1528 C   0  0  0  0  0  0  0  0  0  0  0  0
   69.8327   46.5106   57.2990 C   0  0  0  0  0  0  0  0  0  0  0  0
   69.8568   47.8590   57.1393 C   0  0  0  0  0  0  0  0  0  0  0  0
   70.7979   48.5797   57.8967 C   0  0  0  0  0  0  0  0  0  0  0  0
   71.6435   47.9201   58.7530 C   0  0  0  0  0  0  0  0  0  0  0  0
   71.5637   46.5263   58.8695 C   0  0  0  0  0  0  0  0  0  0  0  0
   72.4200   45.9713   59.7402 F   0  0  0  0  0  0  0  0  0  0  0  0
   69.4467   43.6496   58.7554 N   0  0  0  0  0  0  0  0  0  0  0  0
   70.5470   44.3309   58.2202 C   0  0  0  0  0  0  0  0  0  0  0  0
   71.5252   43.6390   57.7574 O   0  0  0  0  0  0  0  0  0  0  0  0
   69.4163   42.1608   58.7770 C   0  0  0  0  0  0  0  0  0  0  0  0
   68.5583   39.1593   58.1067 C   0  0  0  0  0  0  0  0  0  0  0  0
   68.2523   40.3611   57.3108 C   0  0  0  0  0  0  0  0  0  0  0  0
   67.5480   40.3716   56.1535 N   0  0  0  0  0  0  0  0  0  0  0  0
   67.4838   41.6361   55.7395 N   0  0  0  0  0  0  0  0  0  0  0  0
   68.1172   42.3958   56.5943 N   0  0  0  0  0  0  0  0  0  0  0  0
   68.6294   41.6473   57.6165 C   0  0  0  0  0  0  0  0  0  0  0  0
   68.9490   48.6393   56.2282 C   0  0  0  0  0  0  0  0  0  0  0  0
   69.3601   48.5849   54.8116 C   0  0  0  0  0  0  0  0  0  0  0  0
   70.2671   49.5144   54.3460 N   0  0  0  0  0  0  0  0  0  0  0  0
   70.6311   49.5218   53.0855 N   0  0  0  0  0  0  0  0  0  0  0  0
   70.1637   48.6526   52.1816 C   0  0  0  0  0  0  0  0  0  0  0  0
   70.5555   48.7143   50.9786 O   0  0  0  0  0  0  0  0  0  0  0  0
   69.2524   47.6862   52.5565 C   0  0  0  0  0  0  0  0  0  0  0  0
   68.7721   46.7818   51.6352 C   0  0  0  0  0  0  0  0  0  0  0  0
   67.8746   45.8271   52.0476 C   0  0  0  0  0  0  0  0  0  0  0  0
   67.4902   45.8089   53.3651 C   0  0  0  0  0  0  0  0  0  0  0  0
   67.9735   46.7155   54.2770 C   0  0  0  0  0  0  0  0  0  0  0  0
   68.8665   47.6827   53.9062 C   0  0  0  0  0  0  0  0  0  0  0  0
 12 13  1  0
 13 14  1  0
 13 17  2  0
 14 15  1  0
 15 16  2  0
 16 17  1  0
 17 11  1  0
 11  8  1  0
  8  9  1  0
  9 10  2  0
  9  1  1  0
  1  2  2  0
  1  6  1  0
  2  3  1  0
  3 18  1  0
  3  4  2  0
 18 19  1  0
 19 20  2  0
 19 29  1  0
 20 21  1  0
 21 22  1  0
 22 23  2  0
 22 24  1  0
 24 25  1  0
 24 29  2  0
 25 26  2  0
 26 27  1  0
 27 28  2  0
 28 29  1  0
  4  5  1  0
  5  6  2  0
  6  7  1  0
M  END
>  <minimizedAffinity>  (24) 
-10.29790

$$$$
cs_full_output_folder/data/smiles/1221.pdb
     RDKit          3D

 29 32  0  0  0  0  0  0  0  0999 V2000
   70.5667   45.5683   58.0649 C   0  0  0  0  0  0  0  0  0  0  0  0
   71.4284   46.3546   58.8439 C   0  0  0  0  0  0  0  0  0  0  0  0
   71.4470   47.7142   58.7930 C   0  0  0  0  0  0  0  0  0  0  0  0
   70.6001   48.3691   57.9561 C   0  0  0  0  0  0  0  0  0  0  0  0
   69.7072   47.6351   57.1479 C   0  0  0  0  0  0  0  0  0  0  0  0
   69.7405   46.2831   57.2447 C   0  0  0  0  0  0  0  0  0  0  0  0
   68.8439   43.6014   56.9476 O   0  0  0  0  0  0  0  0  0  0  0  0
   69.7842   43.2445   57.6764 C   0  0  0  0  0  0  0  0  0  0  0  0
   70.6380   44.1940   58.2325 N   0  0  0  0  0  0  0  0  0  0  0  0
   69.9382   41.7857   57.9153 C   0  0  0  0  0  0  0  0  0  0  0  0
   68.9032   40.9065   57.8629 C   0  0  0  0  0  0  0  0  0  0  0  0
   69.0724   39.5436   58.0945 C   0  0  0  0  0  0  0  0  0  0  0  0
   68.0395   38.6636   58.0417 F   0  0  0  0  0  0  0  0  0  0  0  0
   70.3430   39.0453   58.3951 C   0  0  0  0  0  0  0  0  0  0  0  0
   71.3846   39.9436   58.4460 C   0  0  0  0  0  0  0  0  0  0  0  0
   72.6187   39.4694   58.7353 F   0  0  0  0  0  0  0  0  0  0  0  0
   71.1850   41.3154   58.2057 C   0  0  0  0  0  0  0  0  0  0  0  0
   68.8206   48.4634   56.2845 C   0  0  0  0  0  0  0  0  0  0  0  0
   69.3621   48.4577   54.9014 C   0  0  0  0  0  0  0  0  0  0  0  0
   70.1988   49.4619   54.4967 N   0  0  0  0  0  0  0  0  0  0  0  0
   70.6259   49.5966   53.2572 N   0  0  0  0  0  0  0  0  0  0  0  0
   70.2234   48.7081   52.3343 C   0  0  0  0  0  0  0  0  0  0  0  0
   70.6186   48.8143   51.1277 O   0  0  0  0  0  0  0  0  0  0  0  0
   69.3732   47.6429   52.6318 C   0  0  0  0  0  0  0  0  0  0  0  0
   68.9517   47.5372   53.9478 C   0  0  0  0  0  0  0  0  0  0  0  0
   68.1553   46.3964   54.4566 C   0  0  0  0  0  0  0  0  0  0  0  0
   67.7529   45.4812   53.3391 C   0  0  0  0  0  0  0  0  0  0  0  0
   67.5647   46.2041   52.0297 C   0  0  0  0  0  0  0  0  0  0  0  0
   68.9472   46.7004   51.5570 C   0  0  0  0  0  0  0  0  0  0  0  0
  7  8  2  0
  8  9  1  0
  8 10  1  0
  9  1  1  0
  1  2  2  0
  1  6  1  0
  2  3  1  0
  3  4  2  0
  4  5  1  0
  5 18  1  0
  5  6  2  0
 18 19  1  0
 19 20  2  0
 19 25  1  0
 20 21  1  0
 21 22  1  0
 22 23  2  0
 22 24  1  0
 24 25  2  0
 24 29  1  0
 25 26  1  0
 26 27  1  0
 27 28  1  0
 28 29  1  0
 10 11  2  0
 10 17  1  0
 11 12  1  0
 12 13  1  0
 12 14  2  0
 14 15  1  0
 15 16  1  0
 15 17  2  0
M  END
>  <minimizedAffinity>  (25) 
-10.29588

$$$$
cs_full_output_folder/data/smiles/5404.pdb
     RDKit          3D

 29 32  0  0  0  0  0  0  0  0999 V2000
   70.4933   45.7923   58.1007 C   0  0  0  0  0  0  0  0  0  0  0  0
   69.6562   46.6163   57.3370 C   0  0  0  0  0  0  0  0  0  0  0  0
   69.9001   47.9178   57.0173 C   0  0  0  0  0  0  0  0  0  0  0  0
   71.0728   48.4706   57.4873 C   0  0  0  0  0  0  0  0  0  0  0  0
   71.9540   47.7356   58.2445 C   0  0  0  0  0  0  0  0  0  0  0  0
   71.6405   46.3963   58.5388 C   0  0  0  0  0  0  0  0  0  0  0  0
   72.5409   45.7191   59.3057 F   0  0  0  0  0  0  0  0  0  0  0  0
   70.1436   43.3636   57.4274 N   0  0  0  0  0  0  0  0  0  0  0  0
   70.1173   44.4174   58.3475 C   0  0  0  0  0  0  0  0  0  0  0  0
   69.7242   44.1540   59.5156 O   0  0  0  0  0  0  0  0  0  0  0  0
   67.7060   42.5039   56.2845 C   0  0  0  0  0  0  0  0  0  0  0  0
   68.5776   41.5872   57.0606 C   0  0  0  0  0  0  0  0  0  0  0  0
   68.1605   40.2822   57.2131 C   0  0  0  0  0  0  0  0  0  0  0  0
   68.8956   39.3881   57.9053 N   0  0  0  0  0  0  0  0  0  0  0  0
   70.0466   39.7508   58.4588 C   0  0  0  0  0  0  0  0  0  0  0  0
   70.4832   41.0758   58.3115 C   0  0  0  0  0  0  0  0  0  0  0  0
   69.7875   42.0071   57.6310 C   0  0  0  0  0  0  0  0  0  0  0  0
   68.9622   48.7394   56.1959 C   0  0  0  0  0  0  0  0  0  0  0  0
   69.3831   48.6978   54.7970 C   0  0  0  0  0  0  0  0  0  0  0  0
   70.2630   49.5907   54.3227 N   0  0  0  0  0  0  0  0  0  0  0  0
   70.6730   49.5940   53.0683 N   0  0  0  0  0  0  0  0  0  0  0  0
   70.2238   48.6895   52.1863 C   0  0  0  0  0  0  0  0  0  0  0  0
   70.5854   48.6537   50.9858 O   0  0  0  0  0  0  0  0  0  0  0  0
   69.3139   47.7337   52.6009 C   0  0  0  0  0  0  0  0  0  0  0  0
   68.8207   46.7765   51.7249 C   0  0  0  0  0  0  0  0  0  0  0  0
   67.9137   45.8456   52.1887 C   0  0  0  0  0  0  0  0  0  0  0  0
   67.5127   45.8806   53.5096 C   0  0  0  0  0  0  0  0  0  0  0  0
   68.0060   46.8336   54.3768 C   0  0  0  0  0  0  0  0  0  0  0  0
   68.9019   47.7494   53.9080 C   0  0  0  0  0  0  0  0  0  0  0  0
 11 12  1  0
 12 13  2  0
 12 17  1  0
 13 14  1  0
 14 15  2  0
 15 16  1  0
 16 17  2  0
 17  8  1  0
  8  9  1  0
  9 10  2  0
  9  1  1  0
  1  2  2  0
  1  6  1  0
  2  3  1  0
  3 18  1  0
  3  4  2  0
 18 19  1  0
 19 20  2  0
 19 29  1  0
 20 21  1  0
 21 22  1  0
 22 23  2  0
 22 24  1  0
 24 25  1  0
 24 29  2  0
 25 26  2  0
 26 27  1  0
 27 28  2  0
 28 29  1  0
  4  5  1  0
  5  6  2  0
  6  7  1  0
M  END
>  <minimizedAffinity>  (26) 
-10.29045

$$$$
cs_full_output_folder/data/smiles/4953.pdb
     RDKit          3D

 29 32  0  0  0  0  0  0  0  0999 V2000
   70.8081   46.3090   58.3835 C   0  0  0  0  0  0  0  0  0  0  0  0
   69.9592   46.9669   57.4851 C   0  0  0  0  0  0  0  0  0  0  0  0
   69.9492   48.3330   57.2899 C   0  0  0  0  0  0  0  0  0  0  0  0
   70.8151   49.1205   58.0092 C   0  0  0  0  0  0  0  0  0  0  0  0
   71.6616   48.5024   58.8994 C   0  0  0  0  0  0  0  0  0  0  0  0
   71.6605   47.1096   59.0873 C   0  0  0  0  0  0  0  0  0  0  0  0
   72.5389   46.5769   59.9820 F   0  0  0  0  0  0  0  0  0  0  0  0
   71.6653   44.1294   58.0441 O   0  0  0  0  0  0  0  0  0  0  0  0
   70.7253   44.8660   58.5227 C   0  0  0  0  0  0  0  0  0  0  0  0
   69.6873   44.1642   59.1483 N   0  0  0  0  0  0  0  0  0  0  0  0
   69.7242   42.6832   59.2279 C   0  0  0  0  0  0  0  0  0  0  0  0
   68.9516   42.1421   58.0725 C   0  0  0  0  0  0  0  0  0  0  0  0
   68.8452   40.7893   57.8725 C   0  0  0  0  0  0  0  0  0  0  0  0
   68.1146   40.3487   56.7829 C   0  0  0  0  0  0  0  0  0  0  0  0
   67.5233   41.2178   55.9389 N   0  0  0  0  0  0  0  0  0  0  0  0
   67.6382   42.5409   56.1510 C   0  0  0  0  0  0  0  0  0  0  0  0
   68.3403   42.9586   57.1977 N   0  0  0  0  0  0  0  0  0  0  0  0
   68.9617   48.9218   56.3107 C   0  0  0  0  0  0  0  0  0  0  0  0
   69.3505   48.7591   54.9128 C   0  0  0  0  0  0  0  0  0  0  0  0
   70.2334   49.6608   54.3676 N   0  0  0  0  0  0  0  0  0  0  0  0
   70.6229   49.6281   53.1180 N   0  0  0  0  0  0  0  0  0  0  0  0
   70.1863   48.6993   52.2488 C   0  0  0  0  0  0  0  0  0  0  0  0
   70.5741   48.6903   51.0531 O   0  0  0  0  0  0  0  0  0  0  0  0
   69.2960   47.7428   52.6926 C   0  0  0  0  0  0  0  0  0  0  0  0
   68.8372   46.7697   51.8290 C   0  0  0  0  0  0  0  0  0  0  0  0
   67.9584   45.8174   52.2962 C   0  0  0  0  0  0  0  0  0  0  0  0
   67.5774   45.8884   53.6194 C   0  0  0  0  0  0  0  0  0  0  0  0
   68.0295   46.8585   54.4921 C   0  0  0  0  0  0  0  0  0  0  0  0
   68.8988   47.8035   54.0332 C   0  0  0  0  0  0  0  0  0  0  0  0
  8  9  2  0
  9 10  1  0
  9  1  1  0
 10 11  1  0
 11 12  1  0
 12 13  2  0
 12 17  1  0
 13 14  1  0
 14 15  2  0
 15 16  1  0
 16 17  2  0
  1  2  2  0
  1  6  1  0
  2  3  1  0
  3 18  1  0
  3  4  2  0
 18 19  1  0
 19 20  2  0
 19 29  1  0
 20 21  1  0
 21 22  1  0
 22 23  2  0
 22 24  1  0
 24 25  1  0
 24 29  2  0
 25 26  2  0
 26 27  1  0
 27 28  2  0
 28 29  1  0
  4  5  1  0
  5  6  2  0
  6  7  1  0
M  END
>  <minimizedAffinity>  (27) 
-10.28414

$$$$
cs_full_output_folder/data/smiles/4168.pdb
     RDKit          3D

 29 32  0  0  0  0  0  0  0  0999 V2000
   70.4720   45.7766   58.0165 C   0  0  0  0  0  0  0  0  0  0  0  0
   69.6705   46.6278   57.2721 C   0  0  0  0  0  0  0  0  0  0  0  0
   70.0261   47.9542   57.0400 C   0  0  0  0  0  0  0  0  0  0  0  0
   71.1909   48.4443   57.5518 C   0  0  0  0  0  0  0  0  0  0  0  0
   71.9930   47.6144   58.2890 C   0  0  0  0  0  0  0  0  0  0  0  0
   71.6324   46.2820   58.5205 C   0  0  0  0  0  0  0  0  0  0  0  0
   72.5306   45.5824   59.2534 F   0  0  0  0  0  0  0  0  0  0  0  0
   70.0469   43.3494   57.3418 N   0  0  0  0  0  0  0  0  0  0  0  0
   70.0686   44.4080   58.2618 C   0  0  0  0  0  0  0  0  0  0  0  0
   69.6921   44.1359   59.4583 O   0  0  0  0  0  0  0  0  0  0  0  0
   67.6532   42.5298   56.1897 C   0  0  0  0  0  0  0  0  0  0  0  0
   68.4498   41.5814   56.9946 C   0  0  0  0  0  0  0  0  0  0  0  0
   68.0232   40.3219   57.1687 N   0  0  0  0  0  0  0  0  0  0  0  0
   68.6860   39.4022   57.8809 C   0  0  0  0  0  0  0  0  0  0  0  0
   69.8368   39.7974   58.4382 N   0  0  0  0  0  0  0  0  0  0  0  0
   70.3263   41.0695   58.2976 C   0  0  0  0  0  0  0  0  0  0  0  0
   69.6527   42.0169   57.5693 C   0  0  0  0  0  0  0  0  0  0  0  0
   69.0307   48.7183   56.2439 C   0  0  0  0  0  0  0  0  0  0  0  0
   69.3928   48.6006   54.8338 C   0  0  0  0  0  0  0  0  0  0  0  0
   70.2855   49.5100   54.3369 N   0  0  0  0  0  0  0  0  0  0  0  0
   70.6644   49.5453   53.0788 N   0  0  0  0  0  0  0  0  0  0  0  0
   70.1857   48.6682   52.1852 C   0  0  0  0  0  0  0  0  0  0  0  0
   70.5542   48.7077   50.9765 O   0  0  0  0  0  0  0  0  0  0  0  0
   69.2878   47.7208   52.5956 C   0  0  0  0  0  0  0  0  0  0  0  0
   68.7978   46.8049   51.6894 C   0  0  0  0  0  0  0  0  0  0  0  0
   67.9060   45.8537   52.1266 C   0  0  0  0  0  0  0  0  0  0  0  0
   67.5233   45.8353   53.4562 C   0  0  0  0  0  0  0  0  0  0  0  0
   68.0034   46.7400   54.3688 C   0  0  0  0  0  0  0  0  0  0  0  0
   68.8974   47.6977   53.9337 C   0  0  0  0  0  0  0  0  0  0  0  0
 11 12  1  0
 12 13  2  0
 12 17  1  0
 13 14  1  0
 14 15  2  0
 15 16  1  0
 16 17  2  0
 17  8  1  0
  8  9  1  0
  9 10  2  0
  9  1  1  0
  1  2  2  0
  1  6  1  0
  2  3  1  0
  3 18  1  0
  3  4  2  0
 18 19  1  0
 19 20  2  0
 19 29  1  0
 20 21  1  0
 21 22  1  0
 22 23  2  0
 22 24  1  0
 24 25  1  0
 24 29  2  0
 25 26  2  0
 26 27  1  0
 27 28  2  0
 28 29  1  0
  4  5  1  0
  5  6  2  0
  6  7  1  0
M  END
>  <minimizedAffinity>  (28) 
-10.27703

$$$$
cs_full_output_folder/data/smiles/6483.pdb
     RDKit          3D

 29 32  0  0  0  0  0  0  0  0999 V2000
   70.4556   45.1988   57.8229 C   0  0  0  0  0  0  0  0  0  0  0  0
   69.7175   46.1179   57.0872 C   0  0  0  0  0  0  0  0  0  0  0  0
   69.9464   47.4845   57.0873 C   0  0  0  0  0  0  0  0  0  0  0  0
   70.9650   47.9718   57.8599 C   0  0  0  0  0  0  0  0  0  0  0  0
   71.7200   47.0990   58.6026 C   0  0  0  0  0  0  0  0  0  0  0  0
   71.4696   45.7110   58.5878 C   0  0  0  0  0  0  0  0  0  0  0  0
   72.2605   44.9033   59.3398 F   0  0  0  0  0  0  0  0  0  0  0  0
   71.0796   42.9974   57.4130 O   0  0  0  0  0  0  0  0  0  0  0  0
   70.1352   43.7900   57.7678 C   0  0  0  0  0  0  0  0  0  0  0  0
   68.9102   43.1691   58.0537 N   0  0  0  0  0  0  0  0  0  0  0  0
   68.7136   41.7511   57.9662 C   0  0  0  0  0  0  0  0  0  0  0  0
   69.0852   40.8981   58.9430 N   0  0  0  0  0  0  0  0  0  0  0  0
   68.8740   39.5552   58.8099 C   0  0  0  0  0  0  0  0  0  0  0  0
   68.2786   39.0395   57.6801 C   0  0  0  0  0  0  0  0  0  0  0  0
   67.9072   39.8860   56.7037 N   0  0  0  0  0  0  0  0  0  0  0  0
   68.1236   41.2153   56.8506 C   0  0  0  0  0  0  0  0  0  0  0  0
   67.7360   42.0550   55.8412 F   0  0  0  0  0  0  0  0  0  0  0  0
   69.0598   48.3840   56.2737 C   0  0  0  0  0  0  0  0  0  0  0  0
   69.4249   48.4079   54.8596 C   0  0  0  0  0  0  0  0  0  0  0  0
   70.3238   49.3370   54.3998 N   0  0  0  0  0  0  0  0  0  0  0  0
   70.6808   49.4617   53.1574 N   0  0  0  0  0  0  0  0  0  0  0  0
   70.1692   48.6563   52.2166 C   0  0  0  0  0  0  0  0  0  0  0  0
   70.5086   48.7705   51.0166 O   0  0  0  0  0  0  0  0  0  0  0  0
   69.2523   47.6765   52.5578 C   0  0  0  0  0  0  0  0  0  0  0  0
   68.7170   46.8262   51.6156 C   0  0  0  0  0  0  0  0  0  0  0  0
   67.8165   45.8524   51.9781 C   0  0  0  0  0  0  0  0  0  0  0  0
   67.4517   45.7315   53.2955 C   0  0  0  0  0  0  0  0  0  0  0  0
   67.9991   46.5949   54.2297 C   0  0  0  0  0  0  0  0  0  0  0  0
   68.8991   47.5797   53.9035 C   0  0  0  0  0  0  0  0  0  0  0  0
  8  9  2  0
  9 10  1  0
  9  1  1  0
 10 11  1  0
 11 12  2  0
 11 16  1  0
 12 13  1  0
 13 14  2  0
 14 15  1  0
 15 16  2  0
 16 17  1  0
  1  2  2  0
  1  6  1  0
  2  3  1  0
  3 18  1  0
  3  4  2  0
 18 19  1  0
 19 20  2  0
 19 29  1  0
 20 21  1  0
 21 22  1  0
 22 23  2  0
 22 24  1  0
 24 25  1  0
 24 29  2  0
 25 26  2  0
 26 27  1  0
 27 28  2  0
 28 29  1  0
  4  5  1  0
  5  6  2  0
  6  7  1  0
M  END
>  <minimizedAffinity>  (29) 
-10.26315

$$$$
cs_full_output_folder/data/smiles/4138.pdb
     RDKit          3D

 29 32  0  0  0  0  0  0  0  0999 V2000
   70.8338   46.0888   58.3115 C   0  0  0  0  0  0  0  0  0  0  0  0
   69.9028   46.6401   57.4061 C   0  0  0  0  0  0  0  0  0  0  0  0
   69.8370   47.9752   57.1350 C   0  0  0  0  0  0  0  0  0  0  0  0
   70.7101   48.8758   57.7577 C   0  0  0  0  0  0  0  0  0  0  0  0
   71.6162   48.3522   58.6362 C   0  0  0  0  0  0  0  0  0  0  0  0
   71.6760   46.9784   58.9084 C   0  0  0  0  0  0  0  0  0  0  0  0
   72.6158   46.5143   59.7738 F   0  0  0  0  0  0  0  0  0  0  0  0
   71.8162   43.9439   58.1950 O   0  0  0  0  0  0  0  0  0  0  0  0
   70.7920   44.6454   58.5356 C   0  0  0  0  0  0  0  0  0  0  0  0
   69.6661   44.0309   59.1060 N   0  0  0  0  0  0  0  0  0  0  0  0
   69.6046   42.5986   59.3431 C   0  0  0  0  0  0  0  0  0  0  0  0
   68.9480   41.8335   58.2663 C   0  0  0  0  0  0  0  0  0  0  0  0
   68.4372   42.4672   57.1649 C   0  0  0  0  0  0  0  0  0  0  0  0
   67.8170   41.7063   56.1944 C   0  0  0  0  0  0  0  0  0  0  0  0
   67.7249   40.3542   56.3429 N   0  0  0  0  0  0  0  0  0  0  0  0
   68.2217   39.7113   57.4197 C   0  0  0  0  0  0  0  0  0  0  0  0
   68.8476   40.4390   58.4108 C   0  0  0  0  0  0  0  0  0  0  0  0
   68.8572   48.6166   56.2010 C   0  0  0  0  0  0  0  0  0  0  0  0
   69.3213   48.5772   54.7889 C   0  0  0  0  0  0  0  0  0  0  0  0
   70.2141   49.5232   54.3543 N   0  0  0  0  0  0  0  0  0  0  0  0
   70.6221   49.5688   53.1052 N   0  0  0  0  0  0  0  0  0  0  0  0
   70.1820   48.6886   52.1913 C   0  0  0  0  0  0  0  0  0  0  0  0
   70.5650   48.7209   50.9880 O   0  0  0  0  0  0  0  0  0  0  0  0
   69.2834   47.7217   52.5927 C   0  0  0  0  0  0  0  0  0  0  0  0
   68.7914   46.7721   51.7188 C   0  0  0  0  0  0  0  0  0  0  0  0
   67.9050   45.7893   52.0900 C   0  0  0  0  0  0  0  0  0  0  0  0
   67.4732   45.7265   53.3870 C   0  0  0  0  0  0  0  0  0  0  0  0
   67.9472   46.6640   54.2869 C   0  0  0  0  0  0  0  0  0  0  0  0
   68.8311   47.6469   53.9164 C   0  0  0  0  0  0  0  0  0  0  0  0
  8  9  2  0
  9 10  1  0
  9  1  1  0
 10 11  1  0
 11 12  1  0
 12 13  2  0
 12 17  1  0
 13 14  1  0
 14 15  2  0
 15 16  1  0
 16 17  2  0
  1  2  2  0
  1  6  1  0
  2  3  1  0
  3 18  1  0
  3  4  2  0
 18 19  1  0
 19 20  2  0
 19 29  1  0
 20 21  1  0
 21 22  1  0
 22 23  2  0
 22 24  1  0
 24 25  1  0
 24 29  2  0
 25 26  2  0
 26 27  1  0
 27 28  2  0
 28 29  1  0
  4  5  1  0
  5  6  2  0
  6  7  1  0
M  END
>  <minimizedAffinity>  (30) 
-10.25574

$$$$
cs_full_output_folder/data/smiles/7097.pdb
     RDKit          3D

 29 32  0  0  0  0  0  0  0  0999 V2000
   70.3959   45.1510   57.7790 C   0  0  0  0  0  0  0  0  0  0  0  0
   69.6270   46.0769   57.0576 C   0  0  0  0  0  0  0  0  0  0  0  0
   69.8257   47.4104   57.0253 C   0  0  0  0  0  0  0  0  0  0  0  0
   70.9012   47.9148   57.7856 C   0  0  0  0  0  0  0  0  0  0  0  0
   71.6846   47.0572   58.5091 C   0  0  0  0  0  0  0  0  0  0  0  0
   71.4325   45.6757   58.5065 C   0  0  0  0  0  0  0  0  0  0  0  0
   72.2381   44.8949   59.2266 F   0  0  0  0  0  0  0  0  0  0  0  0
   71.0152   42.9390   57.3805 O   0  0  0  0  0  0  0  0  0  0  0  0
   70.0738   43.7352   57.7363 C   0  0  0  0  0  0  0  0  0  0  0  0
   68.8595   43.1225   58.0346 N   0  0  0  0  0  0  0  0  0  0  0  0
   68.6302   41.7174   57.9717 C   0  0  0  0  0  0  0  0  0  0  0  0
   68.9680   40.9382   59.0545 C   0  0  0  0  0  0  0  0  0  0  0  0
   68.7681   39.5605   59.0487 C   0  0  0  0  0  0  0  0  0  0  0  0
   68.2145   38.9347   57.9313 C   0  0  0  0  0  0  0  0  0  0  0  0
   67.8953   39.7177   56.8918 N   0  0  0  0  0  0  0  0  0  0  0  0
   68.0863   41.0707   56.8842 C   0  0  0  0  0  0  0  0  0  0  0  0
   67.7522   41.8394   55.8093 F   0  0  0  0  0  0  0  0  0  0  0  0
   69.0421   48.4199   56.2672 C   0  0  0  0  0  0  0  0  0  0  0  0
   69.3698   48.4857   54.8353 C   0  0  0  0  0  0  0  0  0  0  0  0
   70.2699   49.4146   54.3643 N   0  0  0  0  0  0  0  0  0  0  0  0
   70.6385   49.4763   53.1066 N   0  0  0  0  0  0  0  0  0  0  0  0
   70.2042   48.6653   52.1381 C   0  0  0  0  0  0  0  0  0  0  0  0
   70.5594   48.7285   50.9450 O   0  0  0  0  0  0  0  0  0  0  0  0
   69.2804   47.6965   52.5618 C   0  0  0  0  0  0  0  0  0  0  0  0
   68.7530   46.8185   51.6398 C   0  0  0  0  0  0  0  0  0  0  0  0
   67.8273   45.8528   51.9865 C   0  0  0  0  0  0  0  0  0  0  0  0
   67.4341   45.7871   53.3048 C   0  0  0  0  0  0  0  0  0  0  0  0
   67.9578   46.6608   54.2304 C   0  0  0  0  0  0  0  0  0  0  0  0
   68.8878   47.6272   53.8805 C   0  0  0  0  0  0  0  0  0  0  0  0
  8  9  2  0
  9 10  1  0
  9  1  1  0
 10 11  1  0
 11 12  2  0
 11 16  1  0
 12 13  1  0
 13 14  2  0
 14 15  1  0
 15 16  2  0
 16 17  1  0
  1  2  2  0
  1  6  1  0
  2  3  1  0
  3 18  1  0
  3  4  2  0
 18 19  1  0
 19 20  2  0
 19 29  1  0
 20 21  1  0
 21 22  1  0
 22 23  2  0
 22 24  1  0
 24 25  1  0
 24 29  2  0
 25 26  2  0
 26 27  1  0
 27 28  2  0
 28 29  1  0
  4  5  1  0
  5  6  2  0
  6  7  1  0
M  END
>  <minimizedAffinity>  (31) 
-10.25295

$$$$
cs_full_output_folder/data/smiles/4749.pdb
     RDKit          3D

 29 32  0  0  0  0  0  0  0  0999 V2000
   70.4780   45.7207   58.1462 C   0  0  0  0  0  0  0  0  0  0  0  0
   69.7349   46.5496   57.3190 C   0  0  0  0  0  0  0  0  0  0  0  0
   70.0073   47.8959   57.1312 C   0  0  0  0  0  0  0  0  0  0  0  0
   71.0718   48.4021   57.8144 C   0  0  0  0  0  0  0  0  0  0  0  0
   71.8548   47.6097   58.6612 C   0  0  0  0  0  0  0  0  0  0  0  0
   71.5376   46.2582   58.8152 C   0  0  0  0  0  0  0  0  0  0  0  0
   72.3446   45.5759   59.6420 F   0  0  0  0  0  0  0  0  0  0  0  0
   70.1979   43.3420   57.2650 N   0  0  0  0  0  0  0  0  0  0  0  0
   70.0970   44.3250   58.2768 C   0  0  0  0  0  0  0  0  0  0  0  0
   69.6298   43.9116   59.3776 O   0  0  0  0  0  0  0  0  0  0  0  0
   67.7068   42.4728   56.2805 C   0  0  0  0  0  0  0  0  0  0  0  0
   68.5700   41.5525   57.0741 C   0  0  0  0  0  0  0  0  0  0  0  0
   68.1103   40.2735   57.3078 C   0  0  0  0  0  0  0  0  0  0  0  0
   68.9215   39.4603   58.0345 N   0  0  0  0  0  0  0  0  0  0  0  0
   70.0847   39.8978   58.4808 N   0  0  0  0  0  0  0  0  0  0  0  0
   70.5607   41.1218   58.2745 C   0  0  0  0  0  0  0  0  0  0  0  0
   69.7833   42.0052   57.5405 C   0  0  0  0  0  0  0  0  0  0  0  0
   69.0934   48.6326   56.2254 C   0  0  0  0  0  0  0  0  0  0  0  0
   69.4766   48.5820   54.8082 C   0  0  0  0  0  0  0  0  0  0  0  0
   70.3661   49.4887   54.3055 N   0  0  0  0  0  0  0  0  0  0  0  0
   70.7062   49.5319   53.0426 N   0  0  0  0  0  0  0  0  0  0  0  0
   70.1804   48.6551   52.1463 C   0  0  0  0  0  0  0  0  0  0  0  0
   70.5329   48.7239   50.9197 O   0  0  0  0  0  0  0  0  0  0  0  0
   69.2789   47.7082   52.5658 C   0  0  0  0  0  0  0  0  0  0  0  0
   68.7732   46.8261   51.6516 C   0  0  0  0  0  0  0  0  0  0  0  0
   67.8851   45.8759   52.1005 C   0  0  0  0  0  0  0  0  0  0  0  0
   67.5224   45.8247   53.4438 C   0  0  0  0  0  0  0  0  0  0  0  0
   68.0464   46.7216   54.3345 C   0  0  0  0  0  0  0  0  0  0  0  0
   68.9377   47.6910   53.9266 C   0  0  0  0  0  0  0  0  0  0  0  0
 11 12  1  0
 12 13  2  0
 12 17  1  0
 13 14  1  0
 14 15  2  0
 15 16  1  0
 16 17  2  0
 17  8  1  0
  8  9  1  0
  9 10  2  0
  9  1  1  0
  1  2  2  0
  1  6  1  0
  2  3  1  0
  3 18  1  0
  3  4  2  0
 18 19  1  0
 19 20  2  0
 19 29  1  0
 20 21  1  0
 21 22  1  0
 22 23  2  0
 22 24  1  0
 24 25  1  0
 24 29  2  0
 25 26  2  0
 26 27  1  0
 27 28  2  0
 28 29  1  0
  4  5  1  0
  5  6  2  0
  6  7  1  0
M  END
>  <minimizedAffinity>  (32) 
-10.24848

$$$$
cs_full_output_folder/data/smiles/5470.pdb
     RDKit          3D

 29 32  0  0  0  0  0  0  0  0999 V2000
   70.4861   45.7942   58.0481 C   0  0  0  0  0  0  0  0  0  0  0  0
   69.7030   46.6537   57.2565 C   0  0  0  0  0  0  0  0  0  0  0  0
   70.0086   47.9665   57.0564 C   0  0  0  0  0  0  0  0  0  0  0  0
   71.1444   48.5149   57.6475 C   0  0  0  0  0  0  0  0  0  0  0  0
   71.9274   47.7099   58.4205 C   0  0  0  0  0  0  0  0  0  0  0  0
   71.5932   46.3653   58.6129 C   0  0  0  0  0  0  0  0  0  0  0  0
   72.4100   45.6402   59.3816 F   0  0  0  0  0  0  0  0  0  0  0  0
   69.6175   44.0300   59.3487 O   0  0  0  0  0  0  0  0  0  0  0  0
   70.0827   44.4160   58.2081 C   0  0  0  0  0  0  0  0  0  0  0  0
   70.1372   43.3947   57.2305 N   0  0  0  0  0  0  0  0  0  0  0  0
   69.7047   42.0629   57.5115 C   0  0  0  0  0  0  0  0  0  0  0  0
   70.5093   41.2474   58.1969 N   0  0  0  0  0  0  0  0  0  0  0  0
   70.1900   39.9824   58.5091 C   0  0  0  0  0  0  0  0  0  0  0  0
   68.9862   39.4371   58.1322 C   0  0  0  0  0  0  0  0  0  0  0  0
   68.1141   40.2532   57.4145 C   0  0  0  0  0  0  0  0  0  0  0  0
   68.4957   41.5397   57.1240 C   0  0  0  0  0  0  0  0  0  0  0  0
   67.6506   42.3285   56.4274 F   0  0  0  0  0  0  0  0  0  0  0  0
   69.1204   48.8238   56.2138 C   0  0  0  0  0  0  0  0  0  0  0  0
   69.4470   48.6533   54.8253 C   0  0  0  0  0  0  0  0  0  0  0  0
   70.3469   49.5398   54.2930 N   0  0  0  0  0  0  0  0  0  0  0  0
   70.7032   49.5438   53.0267 N   0  0  0  0  0  0  0  0  0  0  0  0
   70.2129   48.6709   52.1316 C   0  0  0  0  0  0  0  0  0  0  0  0
   70.5542   48.6779   50.9156 O   0  0  0  0  0  0  0  0  0  0  0  0
   69.2937   47.7358   52.5846 C   0  0  0  0  0  0  0  0  0  0  0  0
   68.7988   46.8289   51.6739 C   0  0  0  0  0  0  0  0  0  0  0  0
   67.9006   45.8987   52.1537 C   0  0  0  0  0  0  0  0  0  0  0  0
   67.5321   45.8954   53.4847 C   0  0  0  0  0  0  0  0  0  0  0  0
   68.0486   46.8256   54.3841 C   0  0  0  0  0  0  0  0  0  0  0  0
   68.9397   47.7557   53.9232 C   0  0  0  0  0  0  0  0  0  0  0  0
  8  9  2  0
  9 10  1  0
  9  1  1  0
 10 11  1  0
 11 12  2  0
 11 16  1  0
 12 13  1  0
 13 14  2  0
 14 15  1  0
 15 16  2  0
 16 17  1  0
  1  2  2  0
  1  6  1  0
  2  3  1  0
  3 18  1  0
  3  4  2  0
 18 19  1  0
 19 20  2  0
 19 29  1  0
 20 21  1  0
 21 22  1  0
 22 23  2  0
 22 24  1  0
 24 25  1  0
 24 29  2  0
 25 26  2  0
 26 27  1  0
 27 28  2  0
 28 29  1  0
  4  5  1  0
  5  6  2  0
  6  7  1  0
M  END
>  <minimizedAffinity>  (33) 
-10.22927

$$$$
cs_full_output_folder/data/smiles/5432.pdb
     RDKit          3D

 29 32  0  0  0  0  0  0  0  0999 V2000
   70.7054   46.0646   58.1782 C   0  0  0  0  0  0  0  0  0  0  0  0
   69.9104   46.9145   57.4027 C   0  0  0  0  0  0  0  0  0  0  0  0
   70.1968   48.2184   57.1323 C   0  0  0  0  0  0  0  0  0  0  0  0
   71.3672   48.7521   57.6671 C   0  0  0  0  0  0  0  0  0  0  0  0
   72.1942   47.9714   58.4396 C   0  0  0  0  0  0  0  0  0  0  0  0
   71.8444   46.6420   58.6794 C   0  0  0  0  0  0  0  0  0  0  0  0
   72.7018   45.9368   59.4392 F   0  0  0  0  0  0  0  0  0  0  0  0
   69.7397   44.4202   59.5090 O   0  0  0  0  0  0  0  0  0  0  0  0
   70.2997   44.6916   58.3920 C   0  0  0  0  0  0  0  0  0  0  0  0
   70.4475   43.6150   57.5134 N   0  0  0  0  0  0  0  0  0  0  0  0
   70.0250   42.2419   57.7383 C   0  0  0  0  0  0  0  0  0  0  0  0
   68.8145   41.9645   56.9063 C   0  0  0  0  0  0  0  0  0  0  0  0
   68.3588   40.6710   56.7060 C   0  0  0  0  0  0  0  0  0  0  0  0
   67.2353   40.5084   55.9508 N   0  0  0  0  0  0  0  0  0  0  0  0
   66.5581   41.5155   55.4011 C   0  0  0  0  0  0  0  0  0  0  0  0
   66.9718   42.7630   55.5767 N   0  0  0  0  0  0  0  0  0  0  0  0
   68.0885   42.9762   56.3225 C   0  0  0  0  0  0  0  0  0  0  0  0
   69.3813   49.1395   56.2993 C   0  0  0  0  0  0  0  0  0  0  0  0
   69.5944   48.9624   54.8669 C   0  0  0  0  0  0  0  0  0  0  0  0
   70.4364   49.8300   54.2262 N   0  0  0  0  0  0  0  0  0  0  0  0
   70.7237   49.6991   52.9372 N   0  0  0  0  0  0  0  0  0  0  0  0
   70.2242   48.7195   52.1611 C   0  0  0  0  0  0  0  0  0  0  0  0
   70.5418   48.6518   50.9372 O   0  0  0  0  0  0  0  0  0  0  0  0
   69.3718   47.8139   52.7404 C   0  0  0  0  0  0  0  0  0  0  0  0
   68.8393   46.8145   51.9584 C   0  0  0  0  0  0  0  0  0  0  0  0
   67.9700   45.9159   52.5425 C   0  0  0  0  0  0  0  0  0  0  0  0
   67.6683   46.0525   53.8809 C   0  0  0  0  0  0  0  0  0  0  0  0
   68.2098   47.0599   54.6522 C   0  0  0  0  0  0  0  0  0  0  0  0
   69.0781   47.9636   54.0880 C   0  0  0  0  0  0  0  0  0  0  0  0
  8  9  2  0
  9 10  1  0
  9  1  1  0
 10 11  1  0
 11 12  1  0
 12 13  2  0
 12 17  1  0
 13 14  1  0
 14 15  2  0
 15 16  1  0
 16 17  2  0
  1  2  2  0
  1  6  1  0
  2  3  1  0
  3 18  1  0
  3  4  2  0
 18 19  1  0
 19 20  2  0
 19 29  1  0
 20 21  1  0
 21 22  1  0
 22 23  2  0
 22 24  1  0
 24 25  1  0
 24 29  2  0
 25 26  2  0
 26 27  1  0
 27 28  2  0
 28 29  1  0
  4  5  1  0
  5  6  2  0
  6  7  1  0
M  END
>  <minimizedAffinity>  (34) 
-10.22422

$$$$
cs_full_output_folder/data/smiles/4379.pdb
     RDKit          3D

 29 32  0  0  0  0  0  0  0  0999 V2000
   70.5104   46.0665   58.0084 C   0  0  0  0  0  0  0  0  0  0  0  0
   69.6859   46.9294   57.2961 C   0  0  0  0  0  0  0  0  0  0  0  0
   70.0313   48.2593   57.0185 C   0  0  0  0  0  0  0  0  0  0  0  0
   71.2324   48.7306   57.4670 C   0  0  0  0  0  0  0  0  0  0  0  0
   72.0567   47.8916   58.1734 C   0  0  0  0  0  0  0  0  0  0  0  0
   71.7079   46.5608   58.4499 C   0  0  0  0  0  0  0  0  0  0  0  0
   72.5619   45.7902   59.1635 F   0  0  0  0  0  0  0  0  0  0  0  0
   69.9942   43.6594   57.3028 N   0  0  0  0  0  0  0  0  0  0  0  0
   70.0755   44.6992   58.2296 C   0  0  0  0  0  0  0  0  0  0  0  0
   69.7230   44.4210   59.4219 O   0  0  0  0  0  0  0  0  0  0  0  0
   67.4812   42.9454   56.3547 N   0  0  0  0  0  0  0  0  0  0  0  0
   68.3147   41.9667   57.0217 C   0  0  0  0  0  0  0  0  0  0  0  0
   67.8395   40.7358   57.1601 N   0  0  0  0  0  0  0  0  0  0  0  0
   68.5318   39.7549   57.7614 C   0  0  0  0  0  0  0  0  0  0  0  0
   69.7800   40.0699   58.2447 C   0  0  0  0  0  0  0  0  0  0  0  0
   70.3240   41.3542   58.1222 C   0  0  0  0  0  0  0  0  0  0  0  0
   69.5781   42.3213   57.4994 C   0  0  0  0  0  0  0  0  0  0  0  0
   69.0475   49.0564   56.2153 C   0  0  0  0  0  0  0  0  0  0  0  0
   69.3973   48.9182   54.7956 C   0  0  0  0  0  0  0  0  0  0  0  0
   70.2716   49.8132   54.2375 N   0  0  0  0  0  0  0  0  0  0  0  0
   70.6709   49.7362   52.9965 N   0  0  0  0  0  0  0  0  0  0  0  0
   70.2303   48.7490   52.1859 C   0  0  0  0  0  0  0  0  0  0  0  0
   70.6033   48.6559   50.9890 O   0  0  0  0  0  0  0  0  0  0  0  0
   69.3480   47.8027   52.6580 C   0  0  0  0  0  0  0  0  0  0  0  0
   68.8763   46.7980   51.8495 C   0  0  0  0  0  0  0  0  0  0  0  0
   67.9822   45.8660   52.3318 C   0  0  0  0  0  0  0  0  0  0  0  0
   67.5574   45.9479   53.6399 C   0  0  0  0  0  0  0  0  0  0  0  0
   68.0501   46.9752   54.4375 C   0  0  0  0  0  0  0  0  0  0  0  0
   68.9465   47.9242   53.9941 C   0  0  0  0  0  0  0  0  0  0  0  0
 11 12  1  0
 12 13  2  0
 12 17  1  0
 13 14  1  0
 14 15  2  0
 15 16  1  0
 16 17  2  0
 17  8  1  0
  8  9  1  0
  9 10  2  0
  9  1  1  0
  1  2  2  0
  1  6  1  0
  2  3  1  0
  3 18  1  0
  3  4  2  0
 18 19  1  0
 19 20  2  0
 19 29  1  0
 20 21  1  0
 21 22  1  0
 22 23  2  0
 22 24  1  0
 24 25  1  0
 24 29  2  0
 25 26  2  0
 26 27  1  0
 27 28  2  0
 28 29  1  0
  4  5  1  0
  5  6  2  0
  6  7  1  0
M  END
>  <minimizedAffinity>  (35) 
-10.21166

$$$$
cs_full_output_folder/data/smiles/5258.pdb
     RDKit          3D

 29 32  0  0  0  0  0  0  0  0999 V2000
   70.5033   45.8592   58.0229 C   0  0  0  0  0  0  0  0  0  0  0  0
   69.6893   46.7047   57.2555 C   0  0  0  0  0  0  0  0  0  0  0  0
   69.9737   48.0322   57.0185 C   0  0  0  0  0  0  0  0  0  0  0  0
   71.1238   48.5159   57.5808 C   0  0  0  0  0  0  0  0  0  0  0  0
   71.9684   47.7426   58.3440 C   0  0  0  0  0  0  0  0  0  0  0  0
   71.6389   46.4139   58.5534 C   0  0  0  0  0  0  0  0  0  0  0  0
   72.4694   45.6704   59.3000 F   0  0  0  0  0  0  0  0  0  0  0  0
   69.6184   44.1465   59.3469 O   0  0  0  0  0  0  0  0  0  0  0  0
   70.1124   44.4708   58.2056 C   0  0  0  0  0  0  0  0  0  0  0  0
   70.2049   43.4268   57.2892 N   0  0  0  0  0  0  0  0  0  0  0  0
   69.7949   42.0860   57.5534 C   0  0  0  0  0  0  0  0  0  0  0  0
   70.6324   41.2036   58.2290 C   0  0  0  0  0  0  0  0  0  0  0  0
   70.2094   39.9510   58.4607 N   0  0  0  0  0  0  0  0  0  0  0  0
   68.9913   39.5381   58.0514 C   0  0  0  0  0  0  0  0  0  0  0  0
   68.1314   40.4015   57.3724 C   0  0  0  0  0  0  0  0  0  0  0  0
   68.5516   41.6859   57.1288 C   0  0  0  0  0  0  0  0  0  0  0  0
   67.7704   42.5693   56.4783 F   0  0  0  0  0  0  0  0  0  0  0  0
   69.0090   48.8552   56.2022 C   0  0  0  0  0  0  0  0  0  0  0  0
   69.4301   48.7361   54.7925 C   0  0  0  0  0  0  0  0  0  0  0  0
   70.3302   49.6397   54.2952 N   0  0  0  0  0  0  0  0  0  0  0  0
   70.6874   49.5977   53.0432 N   0  0  0  0  0  0  0  0  0  0  0  0
   70.2316   48.7073   52.1561 C   0  0  0  0  0  0  0  0  0  0  0  0
   70.5756   48.6669   50.9475 O   0  0  0  0  0  0  0  0  0  0  0  0
   69.3123   47.7557   52.5921 C   0  0  0  0  0  0  0  0  0  0  0  0
   68.8225   46.8086   51.7236 C   0  0  0  0  0  0  0  0  0  0  0  0
   67.9237   45.8790   52.2169 C   0  0  0  0  0  0  0  0  0  0  0  0
   67.5341   45.9032   53.5365 C   0  0  0  0  0  0  0  0  0  0  0  0
   68.0258   46.8553   54.4111 C   0  0  0  0  0  0  0  0  0  0  0  0
   68.9245   47.7968   53.9405 C   0  0  0  0  0  0  0  0  0  0  0  0
  8  9  2  0
  9 10  1  0
  9  1  1  0
 10 11  1  0
 11 12  2  0
 11 16  1  0
 12 13  1  0
 13 14  2  0
 14 15  1  0
 15 16  2  0
 16 17  1  0
  1  2  2  0
  1  6  1  0
  2  3  1  0
  3 18  1  0
  3  4  2  0
 18 19  1  0
 19 20  2  0
 19 29  1  0
 20 21  1  0
 21 22  1  0
 22 23  2  0
 22 24  1  0
 24 25  1  0
 24 29  2  0
 25 26  2  0
 26 27  1  0
 27 28  2  0
 28 29  1  0
  4  5  1  0
  5  6  2  0
  6  7  1  0
M  END
>  <minimizedAffinity>  (36) 
-10.20999

$$$$
cs_full_output_folder/data/smiles/3824.pdb
     RDKit          3D

 29 32  0  0  0  0  0  0  0  0999 V2000
   70.4598   45.7404   58.1558 C   0  0  0  0  0  0  0  0  0  0  0  0
   69.7273   46.5797   57.3163 C   0  0  0  0  0  0  0  0  0  0  0  0
   70.0043   47.8931   57.1082 C   0  0  0  0  0  0  0  0  0  0  0  0
   71.1126   48.3950   57.8074 C   0  0  0  0  0  0  0  0  0  0  0  0
   71.8545   47.6103   58.6366 C   0  0  0  0  0  0  0  0  0  0  0  0
   71.5323   46.2600   58.8221 C   0  0  0  0  0  0  0  0  0  0  0  0
   72.3026   45.5285   59.6729 F   0  0  0  0  0  0  0  0  0  0  0  0
   69.5740   43.9883   59.4174 O   0  0  0  0  0  0  0  0  0  0  0  0
   70.0952   44.3448   58.3005 C   0  0  0  0  0  0  0  0  0  0  0  0
   70.2363   43.3171   57.3654 N   0  0  0  0  0  0  0  0  0  0  0  0
   69.8423   41.9589   57.6216 C   0  0  0  0  0  0  0  0  0  0  0  0
   70.7262   41.1300   58.2749 C   0  0  0  0  0  0  0  0  0  0  0  0
   70.2913   39.8237   58.4933 C   0  0  0  0  0  0  0  0  0  0  0  0
   69.0907   39.3712   58.1056 N   0  0  0  0  0  0  0  0  0  0  0  0
   68.2136   40.1778   57.4630 C   0  0  0  0  0  0  0  0  0  0  0  0
   68.6096   41.4986   57.2215 C   0  0  0  0  0  0  0  0  0  0  0  0
   67.7953   42.3660   56.5878 F   0  0  0  0  0  0  0  0  0  0  0  0
   69.2095   48.7637   56.2213 C   0  0  0  0  0  0  0  0  0  0  0  0
   69.5098   48.6228   54.7895 C   0  0  0  0  0  0  0  0  0  0  0  0
   70.4011   49.5142   54.2537 N   0  0  0  0  0  0  0  0  0  0  0  0
   70.7504   49.5590   53.0059 N   0  0  0  0  0  0  0  0  0  0  0  0
   70.2452   48.7025   52.1101 C   0  0  0  0  0  0  0  0  0  0  0  0
   70.5535   48.7139   50.9059 O   0  0  0  0  0  0  0  0  0  0  0  0
   69.3329   47.7694   52.5947 C   0  0  0  0  0  0  0  0  0  0  0  0
   68.7860   46.8550   51.7287 C   0  0  0  0  0  0  0  0  0  0  0  0
   67.8860   45.8975   52.1452 C   0  0  0  0  0  0  0  0  0  0  0  0
   67.5468   45.8943   53.5053 C   0  0  0  0  0  0  0  0  0  0  0  0
   68.0903   46.8073   54.3776 C   0  0  0  0  0  0  0  0  0  0  0  0
   68.9682   47.7284   53.9186 C   0  0  0  0  0  0  0  0  0  0  0  0
  8  9  2  0
  9 10  1  0
  9  1  1  0
 10 11  1  0
 11 12  2  0
 11 16  1  0
 12 13  1  0
 13 14  2  0
 14 15  1  0
 15 16  2  0
 16 17  1  0
  1  2  2  0
  1  6  1  0
  2  3  1  0
  3 18  1  0
  3  4  2  0
 18 19  1  0
 19 20  2  0
 19 29  1  0
 20 21  1  0
 21 22  1  0
 22 23  2  0
 22 24  1  0
 24 25  1  0
 24 29  2  0
 25 26  2  0
 26 27  1  0
 27 28  2  0
 28 29  1  0
  4  5  1  0
  5  6  2  0
  6  7  1  0
M  END
>  <minimizedAffinity>  (37) 
-10.20971

$$$$
cs_full_output_folder/data/smiles/5452.pdb
     RDKit          3D

 29 32  0  0  0  0  0  0  0  0999 V2000
   70.7442   45.9279   58.1706 C   0  0  0  0  0  0  0  0  0  0  0  0
   69.8793   46.6526   57.3361 C   0  0  0  0  0  0  0  0  0  0  0  0
   69.8748   48.0062   57.1990 C   0  0  0  0  0  0  0  0  0  0  0  0
   70.7740   48.7249   57.9229 C   0  0  0  0  0  0  0  0  0  0  0  0
   71.6689   48.0663   58.7759 C   0  0  0  0  0  0  0  0  0  0  0  0
   71.6368   46.6730   58.8840 C   0  0  0  0  0  0  0  0  0  0  0  0
   72.5232   46.0746   59.7415 F   0  0  0  0  0  0  0  0  0  0  0  0
   69.5062   43.7562   58.5616 N   0  0  0  0  0  0  0  0  0  0  0  0
   70.6463   44.4729   58.2059 C   0  0  0  0  0  0  0  0  0  0  0  0
   71.6594   43.7631   57.8957 O   0  0  0  0  0  0  0  0  0  0  0  0
   69.4188   42.3100   58.5888 C   0  0  0  0  0  0  0  0  0  0  0  0
   68.8231   39.2739   58.1563 C   0  0  0  0  0  0  0  0  0  0  0  0
   68.3622   40.4065   57.3591 N   0  0  0  0  0  0  0  0  0  0  0  0
   67.5790   40.2586   56.2955 N   0  0  0  0  0  0  0  0  0  0  0  0
   67.3070   41.4728   55.7526 C   0  0  0  0  0  0  0  0  0  0  0  0
   67.9655   42.3928   56.5388 C   0  0  0  0  0  0  0  0  0  0  0  0
   68.6152   41.7093   57.5309 C   0  0  0  0  0  0  0  0  0  0  0  0
   68.8552   48.5959   56.2598 C   0  0  0  0  0  0  0  0  0  0  0  0
   69.3126   48.5713   54.8494 C   0  0  0  0  0  0  0  0  0  0  0  0
   70.1990   49.5124   54.4080 N   0  0  0  0  0  0  0  0  0  0  0  0
   70.5948   49.5669   53.1552 N   0  0  0  0  0  0  0  0  0  0  0  0
   70.1551   48.7017   52.2287 C   0  0  0  0  0  0  0  0  0  0  0  0
   70.5320   48.7487   51.0191 O   0  0  0  0  0  0  0  0  0  0  0  0
   69.2565   47.7288   52.6270 C   0  0  0  0  0  0  0  0  0  0  0  0
   68.8083   46.8141   51.6663 C   0  0  0  0  0  0  0  0  0  0  0  0
   67.9288   45.8269   52.0382 C   0  0  0  0  0  0  0  0  0  0  0  0
   67.5038   45.7553   53.3588 C   0  0  0  0  0  0  0  0  0  0  0  0
   67.9553   46.6615   54.2868 C   0  0  0  0  0  0  0  0  0  0  0  0
   68.8358   47.6614   53.9367 C   0  0  0  0  0  0  0  0  0  0  0  0
 12 13  1  0
 13 14  1  0
 13 17  1  0
 14 15  2  0
 15 16  1  0
 16 17  2  0
 17 11  1  0
 11  8  1  0
  8  9  1  0
  9 10  2  0
  9  1  1  0
  1  2  2  0
  1  6  1  0
  2  3  1  0
  3 18  1  0
  3  4  2  0
 18 19  1  0
 19 20  2  0
 19 29  1  0
 20 21  1  0
 21 22  1  0
 22 23  2  0
 22 24  1  0
 24 25  1  0
 24 29  2  0
 25 26  2  0
 26 27  1  0
 27 28  2  0
 28 29  1  0
  4  5  1  0
  5  6  2  0
  6  7  1  0
M  END
>  <minimizedAffinity>  (38) 
-10.20581

$$$$
cs_full_output_folder/data/smiles/9514.pdb
     RDKit          3D

 28 31  0  0  0  0  0  0  0  0999 V2000
   70.4410   46.3712   58.4249 C   0  0  0  0  0  0  0  0  0  0  0  0
   71.5206   46.9864   59.0814 C   0  0  0  0  0  0  0  0  0  0  0  0
   71.9504   48.2572   58.7930 C   0  0  0  0  0  0  0  0  0  0  0  0
   71.2701   48.9235   57.8157 C   0  0  0  0  0  0  0  0  0  0  0  0
   70.2081   48.3648   57.1450 C   0  0  0  0  0  0  0  0  0  0  0  0
   69.8121   47.0995   57.4609 C   0  0  0  0  0  0  0  0  0  0  0  0
   71.7542   43.9783   57.6099 O   0  0  0  0  0  0  0  0  0  0  0  0
   70.8157   43.9162   58.4209 C   0  0  0  0  0  0  0  0  0  0  0  0
   70.1448   45.0757   58.8457 N   0  0  0  0  0  0  0  0  0  0  0  0
   70.4082   42.5511   58.9476 C   0  0  0  0  0  0  0  0  0  0  0  0
   69.4202   41.9413   58.0230 C   0  0  0  0  0  0  0  0  0  0  0  0
   68.7608   42.6924   57.1016 C   0  0  0  0  0  0  0  0  0  0  0  0
   67.8349   42.1366   56.2319 C   0  0  0  0  0  0  0  0  0  0  0  0
   67.5566   40.7835   56.2842 C   0  0  0  0  0  0  0  0  0  0  0  0
   68.2302   40.0384   57.2209 C   0  0  0  0  0  0  0  0  0  0  0  0
   69.1546   40.5850   58.0904 C   0  0  0  0  0  0  0  0  0  0  0  0
   69.5906   49.2226   56.1114 C   0  0  0  0  0  0  0  0  0  0  0  0
   69.7788   48.8313   54.7332 C   0  0  0  0  0  0  0  0  0  0  0  0
   70.7296   49.4548   54.0208 N   0  0  0  0  0  0  0  0  0  0  0  0
   71.0104   49.2241   52.7679 N   0  0  0  0  0  0  0  0  0  0  0  0
   70.2977   48.2849   52.1189 C   0  0  0  0  0  0  0  0  0  0  0  0
   70.5936   48.0814   50.8996 O   0  0  0  0  0  0  0  0  0  0  0  0
   69.2950   47.5802   52.7553 C   0  0  0  0  0  0  0  0  0  0  0  0
   69.0428   47.8728   54.0946 C   0  0  0  0  0  0  0  0  0  0  0  0
   67.9914   47.1224   54.7740 C   0  0  0  0  0  0  0  0  0  0  0  0
   67.8514   45.7120   54.2093 C   0  0  0  0  0  0  0  0  0  0  0  0
   67.6934   45.6596   52.7360 C   0  0  0  0  0  0  0  0  0  0  0  0
   68.5688   46.5830   51.9710 C   0  0  0  0  0  0  0  0  0  0  0  0
  7  8  2  0
  8 10  1  0
  8  9  1  0
 10 11  1  0
 11 12  2  0
 11 16  1  0
 12 13  1  0
 13 14  2  0
 14 15  1  0
 15 16  2  0
  9  1  1  0
  1  2  2  0
  1  6  1  0
  2  3  1  0
  3  4  2  0
  4  5  1  0
  5 17  1  0
  5  6  2  0
 17 18  1  0
 18 19  2  0
 18 24  1  0
 19 20  1  0
 20 21  1  0
 21 22  2  0
 21 23  1  0
 23 24  2  0
 23 28  1  0
 24 25  1  0
 25 26  1  0
 26 27  1  0
 27 28  1  0
M  END
>  <minimizedAffinity>  (39) 
-10.19399

$$$$
cs_full_output_folder/data/smiles/429.pdb
     RDKit          3D

 29 32  0  0  0  0  0  0  0  0999 V2000
   70.7500   46.0896   58.3203 C   0  0  0  0  0  0  0  0  0  0  0  0
   71.7459   46.8174   58.9335 C   0  0  0  0  0  0  0  0  0  0  0  0
   71.8906   48.1872   58.6843 C   0  0  0  0  0  0  0  0  0  0  0  0
   71.0418   48.8375   57.8212 C   0  0  0  0  0  0  0  0  0  0  0  0
   70.0217   48.1264   57.1826 C   0  0  0  0  0  0  0  0  0  0  0  0
   69.9098   46.7828   57.4517 C   0  0  0  0  0  0  0  0  0  0  0  0
   71.1614   43.6478   57.7789 N   0  0  0  0  0  0  0  0  0  0  0  0
   70.5645   44.6566   58.5519 C   0  0  0  0  0  0  0  0  0  0  0  0
   69.8262   44.2935   59.5021 O   0  0  0  0  0  0  0  0  0  0  0  0
   70.4808   38.0310   58.7729 C   0  0  0  0  0  0  0  0  0  0  0  0
   70.6323   39.4936   58.5059 C   0  0  0  0  0  0  0  0  0  0  0  0
   71.8452   40.1188   58.7098 C   0  0  0  0  0  0  0  0  0  0  0  0
   72.0253   41.4730   58.4753 C   0  0  0  0  0  0  0  0  0  0  0  0
   70.9716   42.2503   58.0194 C   0  0  0  0  0  0  0  0  0  0  0  0
   69.7668   41.6164   57.8201 C   0  0  0  0  0  0  0  0  0  0  0  0
   69.5819   40.2651   58.0536 C   0  0  0  0  0  0  0  0  0  0  0  0
   68.3331   39.6965   57.8280 O   0  0  0  0  0  0  0  0  0  0  0  0
   69.0875   48.8421   56.2591 C   0  0  0  0  0  0  0  0  0  0  0  0
   69.4642   48.7201   54.8466 C   0  0  0  0  0  0  0  0  0  0  0  0
   70.3999   49.5296   54.3372 N   0  0  0  0  0  0  0  0  0  0  0  0
   70.7698   49.4898   53.0800 N   0  0  0  0  0  0  0  0  0  0  0  0
   70.2011   48.6107   52.2476 C   0  0  0  0  0  0  0  0  0  0  0  0
   70.5704   48.5890   51.0399 O   0  0  0  0  0  0  0  0  0  0  0  0
   69.2312   47.7424   52.6869 C   0  0  0  0  0  0  0  0  0  0  0  0
   68.8616   47.8064   54.0194 C   0  0  0  0  0  0  0  0  0  0  0  0
   67.8274   46.8441   54.4829 C   0  0  0  0  0  0  0  0  0  0  0  0
   68.0726   45.5468   53.7144 C   0  0  0  0  0  0  0  0  0  0  0  0
   67.7446   45.7766   52.2736 C   0  0  0  0  0  0  0  0  0  0  0  0
   68.6576   46.8100   51.7110 C   0  0  0  0  0  0  0  0  0  0  0  0
 10 11  1  0
 11 12  2  0
 11 16  1  0
 12 13  1  0
 13 14  2  0
 14  7  1  0
 14 15  1  0
  7  8  1  0
  8  9  2  0
  8  1  1  0
  1  2  2  0
  1  6  1  0
  2  3  1  0
  3  4  2  0
  4  5  1  0
  5 18  1  0
  5  6  2  0
 18 19  1  0
 19 20  2  0
 19 25  1  0
 20 21  1  0
 21 22  1  0
 22 23  2  0
 22 24  1  0
 24 25  2  0
 24 29  1  0
 25 26  1  0
 26 27  1  0
 27 28  1  0
 28 29  1  0
 15 16  2  0
 16 17  1  0
M  END
>  <minimizedAffinity>  (40) 
-10.16772

$$$$
cs_full_output_folder/data/smiles/8068.pdb
     RDKit          3D

 28 30  0  0  0  0  0  0  0  0999 V2000
   68.9152   43.9218   56.6007 N   0  0  0  0  0  0  0  0  0  0  0  0
   68.2111   42.6911   56.6704 C   0  0  0  0  0  0  0  0  0  0  0  0
   67.0831   42.6855   56.1069 O   0  0  0  0  0  0  0  0  0  0  0  0
   68.7415   41.5089   57.3419 C   0  0  0  0  0  0  0  0  0  0  0  0
   68.1042   40.2975   57.4077 C   0  0  0  0  0  0  0  0  0  0  0  0
   68.6572   39.2046   58.0579 C   0  0  0  0  0  0  0  0  0  0  0  0
   69.8836   39.2746   58.6781 C   0  0  0  0  0  0  0  0  0  0  0  0
   70.5396   40.5064   58.6145 C   0  0  0  0  0  0  0  0  0  0  0  0
   69.9804   41.5936   57.9631 C   0  0  0  0  0  0  0  0  0  0  0  0
   70.4830   38.1485   59.3961 C   0  0  0  0  0  0  0  0  0  0  0  0
   70.3407   38.1183   60.6453 O   0  0  0  0  0  0  0  0  0  0  0  0
   71.2237   37.0783   58.7516 C   0  0  0  0  0  0  0  0  0  0  0  0
   71.9809   37.2799   57.6124 C   0  0  0  0  0  0  0  0  0  0  0  0
   72.6899   36.2253   57.0468 C   0  0  0  0  0  0  0  0  0  0  0  0
   72.6491   34.9730   57.6078 C   0  0  0  0  0  0  0  0  0  0  0  0
   71.8821   34.7834   58.7575 C   0  0  0  0  0  0  0  0  0  0  0  0
   71.1760   35.8201   59.3262 C   0  0  0  0  0  0  0  0  0  0  0  0
   69.6036   46.3673   57.4176 O   0  0  0  0  0  0  0  0  0  0  0  0
   68.8151   46.3307   56.4348 C   0  0  0  0  0  0  0  0  0  0  0  0
   68.4157   45.0559   55.9589 N   0  0  0  0  0  0  0  0  0  0  0  0
   68.3192   47.5961   55.7964 C   0  0  0  0  0  0  0  0  0  0  0  0
   68.9390   47.8441   54.4771 C   0  0  0  0  0  0  0  0  0  0  0  0
   69.7930   48.9153   54.3120 C   0  0  0  0  0  0  0  0  0  0  0  0
   70.3504   49.1254   53.0652 C   0  0  0  0  0  0  0  0  0  0  0  0
   70.0825   48.3057   51.9901 C   0  0  0  0  0  0  0  0  0  0  0  0
   70.6396   48.5285   50.7661 F   0  0  0  0  0  0  0  0  0  0  0  0
   69.2176   47.2172   52.1483 C   0  0  0  0  0  0  0  0  0  0  0  0
   68.6580   47.0089   53.4052 C   0  0  0  0  0  0  0  0  0  0  0  0
 18 19  2  0
 19 21  1  0
 19 20  1  0
 21 22  1  0
 22 23  2  0
 22 28  1  0
 23 24  1  0
 24 25  2  0
 25 26  1  0
 25 27  1  0
 27 28  2  0
 20  1  1  0
  1  2  1  0
  2  3  2  0
  2  4  1  0
  4  5  2  0
  4  9  1  0
  5  6  1  0
  6  7  2  0
  7 10  1  0
  7  8  1  0
 10 11  2  0
 10 12  1  0
 12 13  2  0
 12 17  1  0
 13 14  1  0
 14 15  2  0
 15 16  1  0
 16 17  2  0
  8  9  2  0
M  END
>  <minimizedAffinity>  (41) 
-10.16194

$$$$
cs_full_output_folder/data/smiles/3915.pdb
     RDKit          3D

 29 32  0  0  0  0  0  0  0  0999 V2000
   70.7100   46.1867   58.2047 C   0  0  0  0  0  0  0  0  0  0  0  0
   69.8454   46.9170   57.3704 C   0  0  0  0  0  0  0  0  0  0  0  0
   69.9628   48.2320   57.0667 C   0  0  0  0  0  0  0  0  0  0  0  0
   71.0533   48.8998   57.6523 C   0  0  0  0  0  0  0  0  0  0  0  0
   71.9418   48.2690   58.4756 C   0  0  0  0  0  0  0  0  0  0  0  0
   71.7505   46.9004   58.7405 C   0  0  0  0  0  0  0  0  0  0  0  0
   72.6422   46.2749   59.5413 F   0  0  0  0  0  0  0  0  0  0  0  0
   70.9773   43.7324   57.6974 N   0  0  0  0  0  0  0  0  0  0  0  0
   70.4529   44.7882   58.4565 C   0  0  0  0  0  0  0  0  0  0  0  0
   69.6943   44.4965   59.4438 O   0  0  0  0  0  0  0  0  0  0  0  0
   70.6655   42.3316   58.0060 C   0  0  0  0  0  0  0  0  0  0  0  0
   69.2758   39.5130   58.3936 C   0  0  0  0  0  0  0  0  0  0  0  0
   68.7918   40.6714   57.5649 C   0  0  0  0  0  0  0  0  0  0  0  0
   67.6298   40.6937   56.8149 C   0  0  0  0  0  0  0  0  0  0  0  0
   67.6064   41.9579   56.2263 C   0  0  0  0  0  0  0  0  0  0  0  0
   68.6587   42.6466   56.5837 O   0  0  0  0  0  0  0  0  0  0  0  0
   69.3947   41.8876   57.3969 C   0  0  0  0  0  0  0  0  0  0  0  0
   69.0452   49.0141   56.1688 C   0  0  0  0  0  0  0  0  0  0  0  0
   69.3708   48.8943   54.7447 C   0  0  0  0  0  0  0  0  0  0  0  0
   70.2278   49.8028   54.1853 N   0  0  0  0  0  0  0  0  0  0  0  0
   70.6108   49.7138   52.9260 N   0  0  0  0  0  0  0  0  0  0  0  0
   70.1833   48.7264   52.1183 C   0  0  0  0  0  0  0  0  0  0  0  0
   70.5716   48.6659   50.9076 O   0  0  0  0  0  0  0  0  0  0  0  0
   69.3186   47.7707   52.5987 C   0  0  0  0  0  0  0  0  0  0  0  0
   68.8622   46.7626   51.7593 C   0  0  0  0  0  0  0  0  0  0  0  0
   67.9831   45.8529   52.3074 C   0  0  0  0  0  0  0  0  0  0  0  0
   67.5800   45.9465   53.6212 C   0  0  0  0  0  0  0  0  0  0  0  0
   68.0367   46.9433   54.4339 C   0  0  0  0  0  0  0  0  0  0  0  0
   68.9187   47.8778   53.9387 C   0  0  0  0  0  0  0  0  0  0  0  0
 12 13  1  0
 13 14  1  0
 13 17  2  0
 14 15  2  0
 15 16  1  0
 16 17  1  0
 17 11  1  0
 11  8  1  0
  8  9  1  0
  9 10  2  0
  9  1  1  0
  1  2  2  0
  1  6  1  0
  2  3  1  0
  3 18  1  0
  3  4  2  0
 18 19  1  0
 19 20  2  0
 19 29  1  0
 20 21  1  0
 21 22  1  0
 22 23  2  0
 22 24  1  0
 24 25  1  0
 24 29  2  0
 25 26  2  0
 26 27  1  0
 27 28  2  0
 28 29  1  0
  4  5  1  0
  5  6  2  0
  6  7  1  0
M  END
>  <minimizedAffinity>  (42) 
-10.16033

$$$$
cs_full_output_folder/data/smiles/7694.pdb
     RDKit          3D

 28 31  0  0  0  0  0  0  0  0999 V2000
   70.5442   45.4125   57.8028 C   0  0  0  0  0  0  0  0  0  0  0  0
   69.8391   46.3886   57.1257 C   0  0  0  0  0  0  0  0  0  0  0  0
   70.1314   47.7215   57.1418 C   0  0  0  0  0  0  0  0  0  0  0  0
   71.2394   48.0966   57.9170 C   0  0  0  0  0  0  0  0  0  0  0  0
   71.9810   47.1756   58.6146 C   0  0  0  0  0  0  0  0  0  0  0  0
   71.6227   45.8345   58.5502 C   0  0  0  0  0  0  0  0  0  0  0  0
   72.3610   44.9599   59.2366 F   0  0  0  0  0  0  0  0  0  0  0  0
   68.7672   42.1954   56.9746 C   0  0  0  0  0  0  0  0  0  0  0  0
   69.5162   41.2591   57.6560 C   0  0  0  0  0  0  0  0  0  0  0  0
   70.5973   41.6956   58.3808 C   0  0  0  0  0  0  0  0  0  0  0  0
   70.9324   43.0447   58.4301 C   0  0  0  0  0  0  0  0  0  0  0  0
   70.1963   43.9979   57.7548 C   0  0  0  0  0  0  0  0  0  0  0  0
   69.1142   43.5399   57.0325 C   0  0  0  0  0  0  0  0  0  0  0  0
   67.5351   40.4845   55.5999 N   0  0  0  0  0  0  0  0  0  0  0  0
   67.6193   41.7646   56.1993 C   0  0  0  0  0  0  0  0  0  0  0  0
   66.6518   42.5451   56.0420 O   0  0  0  0  0  0  0  0  0  0  0  0
   69.3970   48.7880   56.4099 C   0  0  0  0  0  0  0  0  0  0  0  0
   69.6300   48.6190   54.9634 C   0  0  0  0  0  0  0  0  0  0  0  0
   70.6896   49.3207   54.4579 N   0  0  0  0  0  0  0  0  0  0  0  0
   71.0085   49.2165   53.2055 N   0  0  0  0  0  0  0  0  0  0  0  0
   70.3415   48.4325   52.3263 C   0  0  0  0  0  0  0  0  0  0  0  0
   70.7180   48.3873   51.1209 O   0  0  0  0  0  0  0  0  0  0  0  0
   69.2715   47.7116   52.7881 C   0  0  0  0  0  0  0  0  0  0  0  0
   68.9371   47.8285   54.1241 C   0  0  0  0  0  0  0  0  0  0  0  0
   67.7484   47.0529   54.5462 C   0  0  0  0  0  0  0  0  0  0  0  0
   67.9251   45.6534   54.0010 C   0  0  0  0  0  0  0  0  0  0  0  0
   67.8918   45.6540   52.5073 C   0  0  0  0  0  0  0  0  0  0  0  0
   68.5281   46.8419   51.8554 C   0  0  0  0  0  0  0  0  0  0  0  0
 14 15  1  0
 15 16  2  0
 15  8  1  0
  8  9  2  0
  8 13  1  0
  9 10  1  0
 10 11  2  0
 11 12  1  0
 12  1  1  0
 12 13  2  0
  1  2  2  0
  1  6  1  0
  2  3  1  0
  3 17  1  0
  3  4  2  0
 17 18  1  0
 18 19  2  0
 18 24  1  0
 19 20  1  0
 20 21  1  0
 21 22  2  0
 21 23  1  0
 23 24  2  0
 23 28  1  0
 24 25  1  0
 25 26  1  0
 26 27  1  0
 27 28  1  0
  4  5  1  0
  5  6  2  0
  6  7  1  0
M  END
>  <minimizedAffinity>  (43) 
-10.14603

$$$$
cs_full_output_folder/data/smiles/4362.pdb
     RDKit          3D

 29 32  0  0  0  0  0  0  0  0999 V2000
   70.5235   45.3809   57.7618 C   0  0  0  0  0  0  0  0  0  0  0  0
   69.6241   46.2206   57.0787 C   0  0  0  0  0  0  0  0  0  0  0  0
   69.7374   47.5706   57.0567 C   0  0  0  0  0  0  0  0  0  0  0  0
   70.8121   48.1547   57.7550 C   0  0  0  0  0  0  0  0  0  0  0  0
   71.6962   47.3531   58.4242 C   0  0  0  0  0  0  0  0  0  0  0  0
   71.5462   45.9692   58.4236 C   0  0  0  0  0  0  0  0  0  0  0  0
   72.4396   45.2351   59.1097 F   0  0  0  0  0  0  0  0  0  0  0  0
   71.2354   43.1400   57.4667 O   0  0  0  0  0  0  0  0  0  0  0  0
   70.2715   43.9297   57.7142 C   0  0  0  0  0  0  0  0  0  0  0  0
   69.0202   43.3206   57.9234 N   0  0  0  0  0  0  0  0  0  0  0  0
   68.7734   41.9150   57.8544 C   0  0  0  0  0  0  0  0  0  0  0  0
   69.1594   41.0280   58.8295 C   0  0  0  0  0  0  0  0  0  0  0  0
   68.8918   39.6531   58.7273 C   0  0  0  0  0  0  0  0  0  0  0  0
   68.2257   39.1746   57.6226 C   0  0  0  0  0  0  0  0  0  0  0  0
   67.8492   40.0451   56.6712 N   0  0  0  0  0  0  0  0  0  0  0  0
   68.0976   41.3623   56.7562 C   0  0  0  0  0  0  0  0  0  0  0  0
   67.7143   42.2453   55.7920 F   0  0  0  0  0  0  0  0  0  0  0  0
   68.8034   48.5030   56.3224 C   0  0  0  0  0  0  0  0  0  0  0  0
   69.2400   48.5241   54.8990 C   0  0  0  0  0  0  0  0  0  0  0  0
   70.1594   49.4633   54.5068 N   0  0  0  0  0  0  0  0  0  0  0  0
   70.6303   49.5297   53.2874 N   0  0  0  0  0  0  0  0  0  0  0  0
   70.2224   48.6579   52.3431 C   0  0  0  0  0  0  0  0  0  0  0  0
   70.6594   48.7000   51.1574 O   0  0  0  0  0  0  0  0  0  0  0  0
   69.3022   47.6841   52.6568 C   0  0  0  0  0  0  0  0  0  0  0  0
   68.8725   46.8121   51.6798 C   0  0  0  0  0  0  0  0  0  0  0  0
   67.9334   45.8641   52.0033 C   0  0  0  0  0  0  0  0  0  0  0  0
   67.4465   45.8039   53.2850 C   0  0  0  0  0  0  0  0  0  0  0  0
   67.8594   46.6612   54.2782 C   0  0  0  0  0  0  0  0  0  0  0  0
   68.8113   47.6280   53.9626 C   0  0  0  0  0  0  0  0  0  0  0  0
  8  9  2  0
  9 10  1  0
  9  1  1  0
 10 11  1  0
 11 12  2  0
 11 16  1  0
 12 13  1  0
 13 14  2  0
 14 15  1  0
 15 16  2  0
 16 17  1  0
  1  2  2  0
  1  6  1  0
  2  3  1  0
  3 18  1  0
  3  4  2  0
 18 19  1  0
 19 20  2  0
 19 29  1  0
 20 21  1  0
 21 22  1  0
 22 23  2  0
 22 24  1  0
 24 25  1  0
 24 29  2  0
 25 26  2  0
 26 27  1  0
 27 28  2  0
 28 29  1  0
  4  5  1  0
  5  6  2  0
  6  7  1  0
M  END
>  <minimizedAffinity>  (44) 
-10.14362

$$$$
cs_full_output_folder/data/smiles/9016.pdb
     RDKit          3D

 27 29  0  0  0  0  0  0  0  0999 V2000
   70.6775   46.4755   58.3263 C   0  0  0  0  0  0  0  0  0  0  0  0
   69.8583   47.0853   57.3643 C   0  0  0  0  0  0  0  0  0  0  0  0
   69.8660   48.4190   57.0874 C   0  0  0  0  0  0  0  0  0  0  0  0
   70.7485   49.2021   57.8172 C   0  0  0  0  0  0  0  0  0  0  0  0
   71.5770   48.6617   58.7768 C   0  0  0  0  0  0  0  0  0  0  0  0
   71.5289   47.2966   59.0190 C   0  0  0  0  0  0  0  0  0  0  0  0
   72.3442   46.7775   59.9477 F   0  0  0  0  0  0  0  0  0  0  0  0
   71.2464   44.0721   57.8130 N   0  0  0  0  0  0  0  0  0  0  0  0
   70.5323   45.0501   58.5092 C   0  0  0  0  0  0  0  0  0  0  0  0
   69.6904   44.6162   59.3738 O   0  0  0  0  0  0  0  0  0  0  0  0
   71.0463   42.6423   58.0362 C   0  0  0  0  0  0  0  0  0  0  0  0
   68.7312   41.7678   56.9753 C   0  0  0  0  0  0  0  0  0  0  0  0
   69.7904   42.1764   57.4620 C   0  0  0  0  0  0  0  0  0  0  0  0
   67.5417   40.3619   55.4781 N   0  0  0  0  0  0  0  0  0  0  0  0
   67.5097   41.2796   56.4021 C   0  0  0  0  0  0  0  0  0  0  0  0
   69.0007   49.0872   56.0962 C   0  0  0  0  0  0  0  0  0  0  0  0
   69.4051   48.8477   54.6913 C   0  0  0  0  0  0  0  0  0  0  0  0
   70.3168   49.6973   54.1203 N   0  0  0  0  0  0  0  0  0  0  0  0
   70.7015   49.5506   52.8718 N   0  0  0  0  0  0  0  0  0  0  0  0
   70.2389   48.5663   52.0588 C   0  0  0  0  0  0  0  0  0  0  0  0
   70.6417   48.4812   50.8897 O   0  0  0  0  0  0  0  0  0  0  0  0
   69.3125   47.6713   52.5761 C   0  0  0  0  0  0  0  0  0  0  0  0
   68.8239   46.6581   51.7630 C   0  0  0  0  0  0  0  0  0  0  0  0
   67.9093   45.7670   52.2581 C   0  0  0  0  0  0  0  0  0  0  0  0
   67.5064   45.9261   53.5848 C   0  0  0  0  0  0  0  0  0  0  0  0
   68.0048   46.9386   54.3712 C   0  0  0  0  0  0  0  0  0  0  0  0
   68.9265   47.8480   53.8879 C   0  0  0  0  0  0  0  0  0  0  0  0
 14 15  2  0
 15 12  1  0
 12 13  3  0
 13 11  1  0
 11  8  1  0
  8  9  1  0
  9 10  2  0
  9  1  1  0
  1  2  2  0
  1  6  1  0
  2  3  1  0
  3 16  1  0
  3  4  2  0
 16 17  1  0
 17 18  2  0
 17 27  1  0
 18 19  1  0
 19 20  1  0
 20 21  2  0
 20 22  1  0
 22 23  1  0
 22 27  2  0
 23 24  2  0
 24 25  1  0
 25 26  2  0
 26 27  1  0
  4  5  1  0
  5  6  2  0
  6  7  1  0
M  END
>  <minimizedAffinity>  (45) 
-10.14183

$$$$
cs_full_output_folder/data/smiles/6749.pdb
     RDKit          3D

 28 31  0  0  0  0  0  0  0  0999 V2000
   70.4354   45.1626   57.8232 C   0  0  0  0  0  0  0  0  0  0  0  0
   71.4821   45.5282   58.6320 C   0  0  0  0  0  0  0  0  0  0  0  0
   71.8446   46.8547   58.6676 C   0  0  0  0  0  0  0  0  0  0  0  0
   71.1731   47.8075   57.9065 C   0  0  0  0  0  0  0  0  0  0  0  0
   70.1310   47.4559   57.0995 C   0  0  0  0  0  0  0  0  0  0  0  0
   69.7851   46.1097   57.0817 C   0  0  0  0  0  0  0  0  0  0  0  0
   68.5924   42.0239   56.8667 C   0  0  0  0  0  0  0  0  0  0  0  0
   69.2650   41.0924   57.6669 C   0  0  0  0  0  0  0  0  0  0  0  0
   70.2938   41.4826   58.4958 C   0  0  0  0  0  0  0  0  0  0  0  0
   70.6832   42.8025   58.5552 C   0  0  0  0  0  0  0  0  0  0  0  0
   70.0491   43.7629   57.7831 C   0  0  0  0  0  0  0  0  0  0  0  0
   69.0129   43.3248   56.9585 C   0  0  0  0  0  0  0  0  0  0  0  0
   67.5932   40.4389   55.4799 O   0  0  0  0  0  0  0  0  0  0  0  0
   67.5218   41.5611   56.0164 C   0  0  0  0  0  0  0  0  0  0  0  0
   66.3923   42.3709   55.7857 N   0  0  0  0  0  0  0  0  0  0  0  0
   65.3919   41.9047   54.9731 F   0  0  0  0  0  0  0  0  0  0  0  0
   69.3958   48.4580   56.2967 C   0  0  0  0  0  0  0  0  0  0  0  0
   69.5993   48.3775   54.8728 C   0  0  0  0  0  0  0  0  0  0  0  0
   70.6688   49.0529   54.3498 N   0  0  0  0  0  0  0  0  0  0  0  0
   70.9823   49.0281   53.0688 N   0  0  0  0  0  0  0  0  0  0  0  0
   70.2427   48.3125   52.1784 C   0  0  0  0  0  0  0  0  0  0  0  0
   70.5236   48.2732   50.9532 O   0  0  0  0  0  0  0  0  0  0  0  0
   69.1578   47.6132   52.6384 C   0  0  0  0  0  0  0  0  0  0  0  0
   68.8573   47.6676   54.0105 C   0  0  0  0  0  0  0  0  0  0  0  0
   67.6663   46.9273   54.4147 C   0  0  0  0  0  0  0  0  0  0  0  0
   67.8850   45.4821   53.9435 C   0  0  0  0  0  0  0  0  0  0  0  0
   68.0661   45.4267   52.4478 C   0  0  0  0  0  0  0  0  0  0  0  0
   68.2633   46.7833   51.8094 C   0  0  0  0  0  0  0  0  0  0  0  0
 13 14  2  0
 14 15  1  0
 14  7  1  0
 15 16  1  0
  7  8  2  0
  7 12  1  0
  8  9  1  0
  9 10  2  0
 10 11  1  0
 11  1  1  0
 11 12  2  0
  1  2  2  0
  1  6  1  0
  2  3  1  0
  3  4  2  0
  4  5  1  0
  5 17  1  0
  5  6  2  0
 17 18  1  0
 18 19  2  0
 18 24  1  0
 19 20  1  0
 20 21  1  0
 21 22  2  0
 21 23  1  0
 23 24  2  0
 23 28  1  0
 24 25  1  0
 25 26  1  0
 26 27  1  0
 27 28  1  0
M  END
>  <minimizedAffinity>  (46) 
-10.10955

$$$$
cs_full_output_folder/data/smiles/5285.pdb
     RDKit          3D

 29 32  0  0  0  0  0  0  0  0999 V2000
   70.8256   46.0934   58.1779 C   0  0  0  0  0  0  0  0  0  0  0  0
   69.8715   46.7351   57.3598 C   0  0  0  0  0  0  0  0  0  0  0  0
   69.9268   48.0671   57.1328 C   0  0  0  0  0  0  0  0  0  0  0  0
   70.9526   48.8055   57.7288 C   0  0  0  0  0  0  0  0  0  0  0  0
   71.8875   48.2364   58.5195 C   0  0  0  0  0  0  0  0  0  0  0  0
   71.8142   46.8580   58.7421 C   0  0  0  0  0  0  0  0  0  0  0  0
   72.7663   46.3292   59.5494 F   0  0  0  0  0  0  0  0  0  0  0  0
   71.6273   43.9017   57.8866 O   0  0  0  0  0  0  0  0  0  0  0  0
   70.7090   44.6606   58.3450 C   0  0  0  0  0  0  0  0  0  0  0  0
   69.6414   44.0163   58.9900 N   0  0  0  0  0  0  0  0  0  0  0  0
   69.5932   42.5550   59.1273 C   0  0  0  0  0  0  0  0  0  0  0  0
   68.8263   42.0110   58.0033 C   0  0  0  0  0  0  0  0  0  0  0  0
   68.6986   40.6500   57.8032 C   0  0  0  0  0  0  0  0  0  0  0  0
   67.9866   40.1798   56.7561 N   0  0  0  0  0  0  0  0  0  0  0  0
   67.3884   40.9956   55.8901 C   0  0  0  0  0  0  0  0  0  0  0  0
   67.5103   42.3555   56.0844 C   0  0  0  0  0  0  0  0  0  0  0  0
   68.2211   42.8399   57.1288 N   0  0  0  0  0  0  0  0  0  0  0  0
   68.9511   48.8047   56.2558 C   0  0  0  0  0  0  0  0  0  0  0  0
   69.2992   48.7549   54.8381 C   0  0  0  0  0  0  0  0  0  0  0  0
   70.1621   49.6997   54.3314 N   0  0  0  0  0  0  0  0  0  0  0  0
   70.5792   49.6741   53.0929 N   0  0  0  0  0  0  0  0  0  0  0  0
   70.2094   48.7347   52.2065 C   0  0  0  0  0  0  0  0  0  0  0  0
   70.5964   48.6902   51.0200 O   0  0  0  0  0  0  0  0  0  0  0  0
   69.3437   47.7581   52.6424 C   0  0  0  0  0  0  0  0  0  0  0  0
   68.8780   46.7588   51.8297 C   0  0  0  0  0  0  0  0  0  0  0  0
   67.9850   45.7899   52.2822 C   0  0  0  0  0  0  0  0  0  0  0  0
   67.5450   45.8173   53.5794 C   0  0  0  0  0  0  0  0  0  0  0  0
   68.0087   46.8183   54.4036 C   0  0  0  0  0  0  0  0  0  0  0  0
   68.8920   47.7788   53.9666 C   0  0  0  0  0  0  0  0  0  0  0  0
  8  9  2  0
  9 10  1  0
  9  1  1  0
 10 11  1  0
 11 12  1  0
 12 13  2  0
 12 17  1  0
 13 14  1  0
 14 15  2  0
 15 16  1  0
 16 17  2  0
  1  2  2  0
  1  6  1  0
  2  3  1  0
  3 18  1  0
  3  4  2  0
 18 19  1  0
 19 20  2  0
 19 29  1  0
 20 21  1  0
 21 22  1  0
 22 23  2  0
 22 24  1  0
 24 25  1  0
 24 29  2  0
 25 26  2  0
 26 27  1  0
 27 28  2  0
 28 29  1  0
  4  5  1  0
  5  6  2  0
  6  7  1  0
M  END
>  <minimizedAffinity>  (47) 
-10.10619

$$$$
cs_full_output_folder/data/smiles/3760.pdb
     RDKit          3D

 29 32  0  0  0  0  0  0  0  0999 V2000
   70.9288   46.3942   58.2411 C   0  0  0  0  0  0  0  0  0  0  0  0
   69.9215   46.9705   57.4450 C   0  0  0  0  0  0  0  0  0  0  0  0
   69.8753   48.2705   57.0826 C   0  0  0  0  0  0  0  0  0  0  0  0
   70.9189   49.0813   57.5497 C   0  0  0  0  0  0  0  0  0  0  0  0
   71.9242   48.5643   58.3306 C   0  0  0  0  0  0  0  0  0  0  0  0
   71.9326   47.2068   58.6824 C   0  0  0  0  0  0  0  0  0  0  0  0
   72.9438   46.7592   59.4634 F   0  0  0  0  0  0  0  0  0  0  0  0
   71.8793   44.2302   58.2970 O   0  0  0  0  0  0  0  0  0  0  0  0
   70.8543   44.9570   58.5326 C   0  0  0  0  0  0  0  0  0  0  0  0
   69.7404   44.2855   59.0595 N   0  0  0  0  0  0  0  0  0  0  0  0
   69.6937   42.8459   59.3445 C   0  0  0  0  0  0  0  0  0  0  0  0
   68.9816   42.1911   58.2296 C   0  0  0  0  0  0  0  0  0  0  0  0
   68.8073   40.8400   58.0844 C   0  0  0  0  0  0  0  0  0  0  0  0
   68.1034   40.2822   57.0117 C   0  0  0  0  0  0  0  0  0  0  0  0
   67.5536   41.1081   56.0482 C   0  0  0  0  0  0  0  0  0  0  0  0
   67.7466   42.4618   56.2215 C   0  0  0  0  0  0  0  0  0  0  0  0
   68.4260   42.9740   57.2605 N   0  0  0  0  0  0  0  0  0  0  0  0
   68.8739   48.9444   56.2424 C   0  0  0  0  0  0  0  0  0  0  0  0
   69.2280   48.8061   54.8367 C   0  0  0  0  0  0  0  0  0  0  0  0
   70.0677   49.7417   54.2967 N   0  0  0  0  0  0  0  0  0  0  0  0
   70.4933   49.7122   53.0585 N   0  0  0  0  0  0  0  0  0  0  0  0
   70.1373   48.7462   52.1970 C   0  0  0  0  0  0  0  0  0  0  0  0
   70.5416   48.7076   51.0005 O   0  0  0  0  0  0  0  0  0  0  0  0
   69.2905   47.7608   52.6573 C   0  0  0  0  0  0  0  0  0  0  0  0
   68.9096   46.7784   51.7921 C   0  0  0  0  0  0  0  0  0  0  0  0
   68.0520   45.7984   52.2534 C   0  0  0  0  0  0  0  0  0  0  0  0
   67.6077   45.8402   53.5637 C   0  0  0  0  0  0  0  0  0  0  0  0
   67.9956   46.8362   54.4323 C   0  0  0  0  0  0  0  0  0  0  0  0
   68.8457   47.8065   53.9815 C   0  0  0  0  0  0  0  0  0  0  0  0
  8  9  2  0
  9 10  1  0
  9  1  1  0
 10 11  1  0
 11 12  1  0
 12 13  2  0
 12 17  1  0
 13 14  1  0
 14 15  2  0
 15 16  1  0
 16 17  2  0
  1  2  2  0
  1  6  1  0
  2  3  1  0
  3 18  1  0
  3  4  2  0
 18 19  1  0
 19 20  2  0
 19 29  1  0
 20 21  1  0
 21 22  1  0
 22 23  2  0
 22 24  1  0
 24 25  1  0
 24 29  2  0
 25 26  2  0
 26 27  1  0
 27 28  2  0
 28 29  1  0
  4  5  1  0
  5  6  2  0
  6  7  1  0
M  END
>  <minimizedAffinity>  (48) 
-10.10487

$$$$
cs_full_output_folder/data/smiles/5426.pdb
     RDKit          3D

 29 32  0  0  0  0  0  0  0  0999 V2000
   70.7554   46.0481   58.2578 C   0  0  0  0  0  0  0  0  0  0  0  0
   69.8722   46.7127   57.4121 C   0  0  0  0  0  0  0  0  0  0  0  0
   69.9634   48.0234   57.0571 C   0  0  0  0  0  0  0  0  0  0  0  0
   71.0390   48.7461   57.5921 C   0  0  0  0  0  0  0  0  0  0  0  0
   71.9461   48.1491   58.4314 C   0  0  0  0  0  0  0  0  0  0  0  0
   71.7849   46.8006   58.7508 C   0  0  0  0  0  0  0  0  0  0  0  0
   72.7057   46.2531   59.5708 F   0  0  0  0  0  0  0  0  0  0  0  0
   71.0361   43.5661   57.8190 N   0  0  0  0  0  0  0  0  0  0  0  0
   70.4975   44.6499   58.5481 C   0  0  0  0  0  0  0  0  0  0  0  0
   69.7236   44.3739   59.5423 O   0  0  0  0  0  0  0  0  0  0  0  0
   70.7855   42.1758   58.0994 C   0  0  0  0  0  0  0  0  0  0  0  0
   69.6601   39.3946   58.5186 C   0  0  0  0  0  0  0  0  0  0  0  0
   69.0094   40.4155   57.7144 N   0  0  0  0  0  0  0  0  0  0  0  0
   67.8592   40.3634   57.0254 C   0  0  0  0  0  0  0  0  0  0  0  0
   67.6077   41.5516   56.4011 C   0  0  0  0  0  0  0  0  0  0  0  0
   68.6713   42.3698   56.7351 C   0  0  0  0  0  0  0  0  0  0  0  0
   69.5207   41.6539   57.5416 C   0  0  0  0  0  0  0  0  0  0  0  0
   69.0585   48.7843   56.1905 C   0  0  0  0  0  0  0  0  0  0  0  0
   69.4352   48.6810   54.7964 C   0  0  0  0  0  0  0  0  0  0  0  0
   70.3203   49.5938   54.2938 N   0  0  0  0  0  0  0  0  0  0  0  0
   70.6691   49.5844   53.0214 N   0  0  0  0  0  0  0  0  0  0  0  0
   70.2000   48.7023   52.1342 C   0  0  0  0  0  0  0  0  0  0  0  0
   70.5395   48.7017   50.9175 O   0  0  0  0  0  0  0  0  0  0  0  0
   69.3018   47.7488   52.5735 C   0  0  0  0  0  0  0  0  0  0  0  0
   68.7978   46.8161   51.7247 C   0  0  0  0  0  0  0  0  0  0  0  0
   67.9103   45.8454   52.1413 C   0  0  0  0  0  0  0  0  0  0  0  0
   67.5463   45.8522   53.4698 C   0  0  0  0  0  0  0  0  0  0  0  0
   68.0590   46.8089   54.3565 C   0  0  0  0  0  0  0  0  0  0  0  0
   68.9381   47.7682   53.9272 C   0  0  0  0  0  0  0  0  0  0  0  0
 12 13  1  0
 13 14  1  0
 13 17  1  0
 14 15  2  0
 15 16  1  0
 16 17  2  0
 17 11  1  0
 11  8  1  0
  8  9  1  0
  9 10  2  0
  9  1  1  0
  1  2  2  0
  1  6  1  0
  2  3  1  0
  3 18  1  0
  3  4  2  0
 18 19  1  0
 19 20  2  0
 19 29  1  0
 20 21  1  0
 21 22  1  0
 22 23  2  0
 22 24  1  0
 24 25  1  0
 24 29  2  0
 25 26  2  0
 26 27  1  0
 27 28  2  0
 28 29  1  0
  4  5  1  0
  5  6  2  0
  6  7  1  0
M  END
>  <minimizedAffinity>  (49) 
-10.10444

$$$$
cs_full_output_folder/data/smiles/4444.pdb
     RDKit          3D

 29 32  0  0  0  0  0  0  0  0999 V2000
   70.7672   46.1912   58.1235 C   0  0  0  0  0  0  0  0  0  0  0  0
   69.8698   46.9542   57.3824 C   0  0  0  0  0  0  0  0  0  0  0  0
   70.0779   48.2906   57.0482 C   0  0  0  0  0  0  0  0  0  0  0  0
   71.2377   48.8637   57.4841 C   0  0  0  0  0  0  0  0  0  0  0  0
   72.1650   48.1604   58.2214 C   0  0  0  0  0  0  0  0  0  0  0  0
   71.8890   46.8292   58.5175 C   0  0  0  0  0  0  0  0  0  0  0  0
   72.8088   46.1872   59.2286 F   0  0  0  0  0  0  0  0  0  0  0  0
   70.7300   43.6932   57.6003 N   0  0  0  0  0  0  0  0  0  0  0  0
   70.3979   44.8133   58.3881 C   0  0  0  0  0  0  0  0  0  0  0  0
   69.6980   44.5236   59.4308 O   0  0  0  0  0  0  0  0  0  0  0  0
   70.2913   42.3336   57.9793 C   0  0  0  0  0  0  0  0  0  0  0  0
   68.6491   39.7124   57.9126 C   0  0  0  0  0  0  0  0  0  0  0  0
   68.3190   40.9366   57.1916 N   0  0  0  0  0  0  0  0  0  0  0  0
   67.2799   41.1674   56.3850 C   0  0  0  0  0  0  0  0  0  0  0  0
   67.3374   42.4708   55.8972 C   0  0  0  0  0  0  0  0  0  0  0  0
   68.4476   42.9984   56.4451 N   0  0  0  0  0  0  0  0  0  0  0  0
   69.0407   42.0746   57.2253 C   0  0  0  0  0  0  0  0  0  0  0  0
   69.0587   49.0176   56.2228 C   0  0  0  0  0  0  0  0  0  0  0  0
   69.3603   48.8561   54.8341 C   0  0  0  0  0  0  0  0  0  0  0  0
   70.2237   49.7634   54.2776 N   0  0  0  0  0  0  0  0  0  0  0  0
   70.6202   49.7118   53.0398 N   0  0  0  0  0  0  0  0  0  0  0  0
   70.2012   48.7511   52.2113 C   0  0  0  0  0  0  0  0  0  0  0  0
   70.5727   48.6811   51.0089 O   0  0  0  0  0  0  0  0  0  0  0  0
   69.3238   47.7825   52.6726 C   0  0  0  0  0  0  0  0  0  0  0  0
   68.8657   46.7930   51.8480 C   0  0  0  0  0  0  0  0  0  0  0  0
   67.9831   45.8444   52.3126 C   0  0  0  0  0  0  0  0  0  0  0  0
   67.5832   45.9333   53.6290 C   0  0  0  0  0  0  0  0  0  0  0  0
   68.0449   46.9389   54.4809 C   0  0  0  0  0  0  0  0  0  0  0  0
   68.9192   47.8669   54.0012 C   0  0  0  0  0  0  0  0  0  0  0  0
 12 13  1  0
 13 14  1  0
 13 17  1  0
 14 15  2  0
 15 16  1  0
 16 17  2  0
 17 11  1  0
 11  8  1  0
  8  9  1  0
  9 10  2  0
  9  1  1  0
  1  2  2  0
  1  6  1  0
  2  3  1  0
  3 18  1  0
  3  4  2  0
 18 19  1  0
 19 20  2  0
 19 29  1  0
 20 21  1  0
 21 22  1  0
 22 23  2  0
 22 24  1  0
 24 25  1  0
 24 29  2  0
 25 26  2  0
 26 27  1  0
 27 28  2  0
 28 29  1  0
  4  5  1  0
  5  6  2  0
  6  7  1  0
M  END
>  <minimizedAffinity>  (50) 
-10.10132

$$$$
cs_full_output_folder/data/smiles/7907.pdb
     RDKit          3D

 27 30  0  0  0  0  0  0  0  0999 V2000
   70.2854   44.9558   57.6439 C   0  0  0  0  0  0  0  0  0  0  0  0
   69.5598   45.9495   56.9812 C   0  0  0  0  0  0  0  0  0  0  0  0
   69.8874   47.3046   57.1230 C   0  0  0  0  0  0  0  0  0  0  0  0
   70.9196   47.7176   57.9062 C   0  0  0  0  0  0  0  0  0  0  0  0
   71.6485   46.7523   58.5702 C   0  0  0  0  0  0  0  0  0  0  0  0
   71.3176   45.3931   58.4252 C   0  0  0  0  0  0  0  0  0  0  0  0
   72.0749   44.5037   59.1066 F   0  0  0  0  0  0  0  0  0  0  0  0
   70.8902   42.7368   57.2686 O   0  0  0  0  0  0  0  0  0  0  0  0
   69.9242   43.5603   57.4581 C   0  0  0  0  0  0  0  0  0  0  0  0
   68.6403   43.0255   57.4655 N   0  0  0  0  0  0  0  0  0  0  0  0
   68.4024   41.6265   57.2765 C   0  0  0  0  0  0  0  0  0  0  0  0
   68.7110   40.5967   58.1040 C   0  0  0  0  0  0  0  0  0  0  0  0
   68.2878   39.4483   57.4846 N   0  0  0  0  0  0  0  0  0  0  0  0
   67.7499   39.7779   56.3361 O   0  0  0  0  0  0  0  0  0  0  0  0
   67.7947   41.0764   56.1639 C   0  0  0  0  0  0  0  0  0  0  0  0
   69.0626   48.2675   56.3460 C   0  0  0  0  0  0  0  0  0  0  0  0
   69.4235   48.3590   54.9184 C   0  0  0  0  0  0  0  0  0  0  0  0
   70.3772   49.2561   54.5203 N   0  0  0  0  0  0  0  0  0  0  0  0
   70.8076   49.3780   53.2892 N   0  0  0  0  0  0  0  0  0  0  0  0
   70.3043   48.5902   52.3322 C   0  0  0  0  0  0  0  0  0  0  0  0
   70.6941   48.6741   51.1225 O   0  0  0  0  0  0  0  0  0  0  0  0
   69.3273   47.6529   52.6601 C   0  0  0  0  0  0  0  0  0  0  0  0
   68.7888   46.8449   51.6655 C   0  0  0  0  0  0  0  0  0  0  0  0
   67.8109   45.9199   51.9408 C   0  0  0  0  0  0  0  0  0  0  0  0
   67.3914   45.8341   53.2581 C   0  0  0  0  0  0  0  0  0  0  0  0
   67.8945   46.6115   54.2712 C   0  0  0  0  0  0  0  0  0  0  0  0
   68.8854   47.5412   53.9740 C   0  0  0  0  0  0  0  0  0  0  0  0
  8  9  2  0
  9 10  1  0
  9  1  1  0
 10 11  1  0
 11 12  1  0
 11 15  2  0
 12 13  2  0
 13 14  1  0
 14 15  1  0
  1  2  2  0
  1  6  1  0
  2  3  1  0
  3 16  1  0
  3  4  2  0
 16 17  1  0
 17 18  2  0
 17 27  1  0
 18 19  1  0
 19 20  1  0
 20 21  2  0
 20 22  1  0
 22 23  1  0
 22 27  2  0
 23 24  2  0
 24 25  1  0
 25 26  2  0
 26 27  1  0
  4  5  1  0
  5  6  2  0
  6  7  1  0
M  END
>  <minimizedAffinity>  (51) 
-10.10051

$$$$
cs_full_output_folder/data/smiles/6615.pdb
     RDKit          3D

 30 34  0  0  0  0  0  0  0  0999 V2000
   66.8838   41.2808   55.2068 O   0  0  0  0  0  0  0  0  0  0  0  0
   67.6635   41.0004   56.1375 C   0  0  0  0  0  0  0  0  0  0  0  0
   67.8007   39.7676   56.6602 N   0  0  0  0  0  0  0  0  0  0  0  0
   68.6309   39.4931   57.6457 N   0  0  0  0  0  0  0  0  0  0  0  0
   69.4290   40.4476   58.2205 C   0  0  0  0  0  0  0  0  0  0  0  0
   69.2916   41.6976   57.6891 C   0  0  0  0  0  0  0  0  0  0  0  0
   70.0688   42.7008   58.1997 C   0  0  0  0  0  0  0  0  0  0  0  0
   69.9622   43.9934   57.6706 C   0  0  0  0  0  0  0  0  0  0  0  0
   70.7684   44.9782   58.1964 C   0  0  0  0  0  0  0  0  0  0  0  0
   71.5550   44.6857   59.1346 O   0  0  0  0  0  0  0  0  0  0  0  0
   70.6647   46.2085   57.6699 N   0  0  0  0  0  0  0  0  0  0  0  0
   69.8422   46.5125   56.6927 N   0  0  0  0  0  0  0  0  0  0  0  0
   69.0096   45.5808   56.1219 C   0  0  0  0  0  0  0  0  0  0  0  0
   69.0983   44.3110   56.6422 C   0  0  0  0  0  0  0  0  0  0  0  0
   68.3205   43.2963   56.1292 C   0  0  0  0  0  0  0  0  0  0  0  0
   68.4357   42.0272   56.6612 C   0  0  0  0  0  0  0  0  0  0  0  0
   70.2485   40.0134   59.3217 C   0  0  0  0  0  0  0  0  0  0  0  0
   70.7325   38.6122   59.0498 C   0  0  0  0  0  0  0  0  0  0  0  0
   71.6718   38.4012   58.0590 C   0  0  0  0  0  0  0  0  0  0  0  0
   72.1379   37.1326   57.8177 C   0  0  0  0  0  0  0  0  0  0  0  0
   71.7070   36.0292   58.5313 C   0  0  0  0  0  0  0  0  0  0  0  0
   70.7663   36.2914   59.5128 C   0  0  0  0  0  0  0  0  0  0  0  0
   70.2847   37.5513   59.7737 C   0  0  0  0  0  0  0  0  0  0  0  0
   68.0671   46.0065   55.0555 C   0  0  0  0  0  0  0  0  0  0  0  0
   68.6899   46.8269   53.9971 C   0  0  0  0  0  0  0  0  0  0  0  0
   68.7925   46.3613   52.7181 C   0  0  0  0  0  0  0  0  0  0  0  0
   69.3648   47.1192   51.7014 C   0  0  0  0  0  0  0  0  0  0  0  0
   69.8502   48.3720   51.9550 C   0  0  0  0  0  0  0  0  0  0  0  0
   69.7463   48.8402   53.2468 C   0  0  0  0  0  0  0  0  0  0  0  0
   69.1822   48.0965   54.2526 C   0  0  0  0  0  0  0  0  0  0  0  0
  1  2  2  0
  2  3  1  0
  2 16  1  0
  3  4  1  0
  4  5  2  0
  5 17  1  0
  5  6  1  0
 17 18  1  0
 18 19  2  0
 18 23  1  0
 19 20  1  0
 20 21  2  0
 21 22  1  0
 22 23  2  0
  6  7  1  0
  6 16  2  0
  7  8  2  0
  8  9  1  0
  8 14  1  0
  9 10  2  0
  9 11  1  0
 11 12  1  0
 12 13  2  0
 13 24  1  0
 13 14  1  0
 24 25  1  0
 25 26  2  0
 25 30  1  0
 26 27  1  0
 27 28  2  0
 28 29  1  0
 29 30  2  0
 14 15  2  0
 15 16  1  0
M  END
>  <minimizedAffinity>  (52) 
-10.09426

$$$$
cs_full_output_folder/data/smiles/9581.pdb
     RDKit          3D

 30 33  0  0  0  0  0  0  0  0999 V2000
   70.6407   45.3073   57.9335 C   0  0  0  0  0  0  0  0  0  0  0  0
   71.5390   45.9852   58.7102 C   0  0  0  0  0  0  0  0  0  0  0  0
   71.6179   47.3939   58.7114 C   0  0  0  0  0  0  0  0  0  0  0  0
   70.7667   48.0925   57.9067 C   0  0  0  0  0  0  0  0  0  0  0  0
   69.8235   47.4491   57.0852 C   0  0  0  0  0  0  0  0  0  0  0  0
   69.8034   46.0957   57.1359 C   0  0  0  0  0  0  0  0  0  0  0  0
   69.8072   43.0701   58.7836 C   0  0  0  0  0  0  0  0  0  0  0  0
   69.2575   43.6018   59.7786 O   0  0  0  0  0  0  0  0  0  0  0  0
   70.4871   43.9146   57.8830 N   0  0  0  0  0  0  0  0  0  0  0  0
   68.6586   41.1125   57.8859 C   0  0  0  0  0  0  0  0  0  0  0  0
   68.5259   39.7393   57.7026 C   0  0  0  0  0  0  0  0  0  0  0  0
   69.4439   38.8690   58.2433 C   0  0  0  0  0  0  0  0  0  0  0  0
   70.5012   39.3666   58.9719 C   0  0  0  0  0  0  0  0  0  0  0  0
   70.6167   40.7548   59.1448 C   0  0  0  0  0  0  0  0  0  0  0  0
   69.7155   41.6249   58.6153 C   0  0  0  0  0  0  0  0  0  0  0  0
   66.5669   42.1479   57.8755 O   0  0  0  0  0  0  0  0  0  0  0  0
   67.6566   41.9739   57.2840 C   0  0  0  0  0  0  0  0  0  0  0  0
   67.8922   42.6155   56.0478 O   0  0  0  0  0  0  0  0  0  0  0  0
   68.9043   48.2802   56.2553 C   0  0  0  0  0  0  0  0  0  0  0  0
   69.2582   48.3505   54.8428 C   0  0  0  0  0  0  0  0  0  0  0  0
   70.1611   49.3092   54.4467 N   0  0  0  0  0  0  0  0  0  0  0  0
   70.5740   49.4477   53.2162 N   0  0  0  0  0  0  0  0  0  0  0  0
   70.1494   48.6613   52.2294 C   0  0  0  0  0  0  0  0  0  0  0  0
   70.5336   48.7829   51.0576 O   0  0  0  0  0  0  0  0  0  0  0  0
   69.2282   47.6550   52.5243 C   0  0  0  0  0  0  0  0  0  0  0  0
   68.7474   46.8179   51.5515 C   0  0  0  0  0  0  0  0  0  0  0  0
   67.8300   45.8273   51.8339 C   0  0  0  0  0  0  0  0  0  0  0  0
   67.4223   45.7229   53.1533 C   0  0  0  0  0  0  0  0  0  0  0  0
   67.9070   46.5704   54.1499 C   0  0  0  0  0  0  0  0  0  0  0  0
   68.8107   47.5325   53.8312 C   0  0  0  0  0  0  0  0  0  0  0  0
 16 17  2  0
 17 18  1  0
 17 10  1  0
 10 11  2  0
 10 15  1  0
 11 12  1  0
 12 13  2  0
 13 14  1  0
 14 15  2  0
 15  7  1  0
  7  8  2  0
  7  9  1  0
  9  1  1  0
  1  2  2  0
  1  6  1  0
  2  3  1  0
  3  4  2  0
  4  5  1  0
  5 19  1  0
  5  6  2  0
 19 20  1  0
 20 21  2  0
 20 30  1  0
 21 22  1  0
 22 23  1  0
 23 24  2  0
 23 25  1  0
 25 26  1  0
 25 30  2  0
 26 27  2  0
 27 28  1  0
 28 29  2  0
 29 30  1  0
M  END
>  <minimizedAffinity>  (53) 
-10.08375

$$$$
cs_full_output_folder/data/smiles/3455.pdb
     RDKit          3D

 29 32  0  0  0  0  0  0  0  0999 V2000
   70.3722   43.4150   57.7003 C   0  0  0  0  0  0  0  0  0  0  0  0
   69.6333   42.2497   57.7554 C   0  0  0  0  0  0  0  0  0  0  0  0
   70.1899   41.0297   58.0864 C   0  0  0  0  0  0  0  0  0  0  0  0
   71.5277   40.9199   58.3805 C   0  0  0  0  0  0  0  0  0  0  0  0
   72.3332   39.8459   58.7367 C   0  0  0  0  0  0  0  0  0  0  0  0
   73.5713   40.3916   58.8937 N   0  0  0  0  0  0  0  0  0  0  0  0
   73.5337   41.6893   58.6554 N   0  0  0  0  0  0  0  0  0  0  0  0
   72.2851   42.0718   58.3319 C   0  0  0  0  0  0  0  0  0  0  0  0
   71.7106   43.3000   57.9958 C   0  0  0  0  0  0  0  0  0  0  0  0
   71.9494   38.4483   58.9059 C   0  0  0  0  0  0  0  0  0  0  0  0
   72.4909   37.5036   58.0588 C   0  0  0  0  0  0  0  0  0  0  0  0
   72.1624   36.1654   58.1749 C   0  0  0  0  0  0  0  0  0  0  0  0
   71.2736   35.7334   59.1544 C   0  0  0  0  0  0  0  0  0  0  0  0
   70.9327   34.4242   59.2938 F   0  0  0  0  0  0  0  0  0  0  0  0
   70.7278   36.6927   60.0101 C   0  0  0  0  0  0  0  0  0  0  0  0
   71.0690   38.0234   59.8772 C   0  0  0  0  0  0  0  0  0  0  0  0
   68.9840   44.8888   56.1473 N   0  0  0  0  0  0  0  0  0  0  0  0
   69.7095   44.6641   57.3437 C   0  0  0  0  0  0  0  0  0  0  0  0
   69.7758   45.6282   58.1481 O   0  0  0  0  0  0  0  0  0  0  0  0
   68.3178   46.0868   55.7529 C   0  0  0  0  0  0  0  0  0  0  0  0
   69.3355   47.7145   52.4972 C   0  0  0  0  0  0  0  0  0  0  0  0
   68.6240   46.9267   51.6198 C   0  0  0  0  0  0  0  0  0  0  0  0
   67.8231   45.8836   52.0721 C   0  0  0  0  0  0  0  0  0  0  0  0
   67.7085   45.5969   53.4124 C   0  0  0  0  0  0  0  0  0  0  0  0
   68.4181   46.3801   54.3074 C   0  0  0  0  0  0  0  0  0  0  0  0
   69.2102   47.4119   53.8516 C   0  0  0  0  0  0  0  0  0  0  0  0
   69.7679   49.6860   51.0075 N   0  0  0  0  0  0  0  0  0  0  0  0
   70.1779   48.8136   52.0430 C   0  0  0  0  0  0  0  0  0  0  0  0
   71.3010   49.0075   52.5709 O   0  0  0  0  0  0  0  0  0  0  0  0
 27 28  1  0
 28 29  2  0
 28 21  1  0
 21 22  2  0
 21 26  1  0
 22 23  1  0
 23 24  2  0
 24 25  1  0
 25 20  1  0
 25 26  2  0
 20 17  1  0
 17 18  1  0
 18 19  2  0
 18  1  1  0
  1  2  2  0
  1  9  1  0
  2  3  1  0
  3  4  2  0
  4  5  1  0
  4  8  1  0
  5 10  1  0
  5  6  2  0
 10 11  2  0
 10 16  1  0
 11 12  1  0
 12 13  2  0
 13 14  1  0
 13 15  1  0
 15 16  2  0
  6  7  1  0
  7  8  1  0
  8  9  2  0
M  END
>  <minimizedAffinity>  (54) 
-10.06640

$$$$
cs_full_output_folder/data/smiles/4703.pdb
     RDKit          3D

 29 31  0  0  0  0  0  0  0  0999 V2000
   67.2614   42.1006   56.6702 C   0  0  0  0  0  0  0  0  0  0  0  0
   66.9840   41.6235   55.5290 O   0  0  0  0  0  0  0  0  0  0  0  0
   67.8234   43.4560   56.5676 N   0  0  0  0  0  0  0  0  0  0  0  0
   67.9716   44.0161   55.2966 N   0  0  0  0  0  0  0  0  0  0  0  0
   68.1789   45.4039   55.1415 C   0  0  0  0  0  0  0  0  0  0  0  0
   68.2212   46.0900   56.2085 O   0  0  0  0  0  0  0  0  0  0  0  0
   68.3396   46.0397   53.8302 C   0  0  0  0  0  0  0  0  0  0  0  0
   67.6866   45.5918   52.7072 C   0  0  0  0  0  0  0  0  0  0  0  0
   67.8527   46.2122   51.4600 C   0  0  0  0  0  0  0  0  0  0  0  0
   68.6744   47.2899   51.3223 C   0  0  0  0  0  0  0  0  0  0  0  0
   69.3315   47.7439   52.4444 C   0  0  0  0  0  0  0  0  0  0  0  0
   69.1751   47.1407   53.6719 C   0  0  0  0  0  0  0  0  0  0  0  0
   70.2033   48.8847   52.3051 N   0  0  0  0  0  0  0  0  0  0  0  0
   71.2772   48.9433   52.8881 O   0  0  0  0  0  0  0  0  0  0  0  0
   69.8375   49.9403   51.5026 O   0  0  0  0  0  0  0  0  0  0  0  0
   67.7542   40.6797   58.6563 C   0  0  0  0  0  0  0  0  0  0  0  0
   67.0826   41.4691   57.9177 C   0  0  0  0  0  0  0  0  0  0  0  0
   73.1792   37.0284   58.8503 C   0  0  0  0  0  0  0  0  0  0  0  0
   72.0592   36.2372   58.9989 C   0  0  0  0  0  0  0  0  0  0  0  0
   70.7832   36.7873   58.9718 C   0  0  0  0  0  0  0  0  0  0  0  0
   70.5832   38.1412   58.7973 C   0  0  0  0  0  0  0  0  0  0  0  0
   69.3054   38.6986   58.7718 C   0  0  0  0  0  0  0  0  0  0  0  0
   69.0416   40.0334   58.6047 C   0  0  0  0  0  0  0  0  0  0  0  0
   70.2119   40.8171   58.4544 C   0  0  0  0  0  0  0  0  0  0  0  0
   71.4693   40.2729   58.4785 C   0  0  0  0  0  0  0  0  0  0  0  0
   71.6894   38.9303   58.6504 C   0  0  0  0  0  0  0  0  0  0  0  0
   72.9579   38.3786   58.6771 C   0  0  0  0  0  0  0  0  0  0  0  0
   75.4017   36.7469   59.8666 C   0  0  0  0  0  0  0  0  0  0  0  0
   74.4643   36.4874   58.8758 O   0  0  0  0  0  0  0  0  0  0  0  0
 28 29  1  0
 29 18  1  0
 18 19  2  0
 18 27  1  0
 19 20  1  0
 20 21  2  0
 21 22  1  0
 21 26  1  0
 22 23  2  0
 23 16  1  0
 23 24  1  0
 16 17  2  0
 17  1  1  0
  1  2  2  0
  1  3  1  0
  3  4  1  0
  4  5  1  0
  5  6  2  0
  5  7  1  0
  7  8  2  0
  7 12  1  0
  8  9  1  0
  9 10  2  0
 10 11  1  0
 11 13  1  0
 11 12  2  0
 13 14  2  0
 13 15  1  0
 24 25  2  0
 25 26  1  0
 26 27  2  0
M  CHG  2  13   1  15  -1
M  END
>  <minimizedAffinity>  (55) 
-10.06604

$$$$
cs_full_output_folder/data/smiles/3901.pdb
     RDKit          3D

 29 32  0  0  0  0  0  0  0  0999 V2000
   70.8288   46.5834   58.5303 C   0  0  0  0  0  0  0  0  0  0  0  0
   69.9291   46.9901   57.5707 C   0  0  0  0  0  0  0  0  0  0  0  0
   69.7645   48.3366   57.2121 C   0  0  0  0  0  0  0  0  0  0  0  0
   70.5496   49.2342   57.8668 C   0  0  0  0  0  0  0  0  0  0  0  0
   71.4605   48.8528   58.8327 C   0  0  0  0  0  0  0  0  0  0  0  0
   71.6057   47.5082   59.1724 C   0  0  0  0  0  0  0  0  0  0  0  0
   72.5136   47.1957   60.1249 F   0  0  0  0  0  0  0  0  0  0  0  0
   71.0520   44.7558   60.0380 O   0  0  0  0  0  0  0  0  0  0  0  0
   70.9478   45.1779   58.8536 C   0  0  0  0  0  0  0  0  0  0  0  0
   70.9538   44.2113   57.8455 O   0  0  0  0  0  0  0  0  0  0  0  0
   70.5567   42.8928   58.1762 C   0  0  0  0  0  0  0  0  0  0  0  0
   69.3745   42.5229   57.3901 C   0  0  0  0  0  0  0  0  0  0  0  0
   68.8448   41.2736   57.4011 C   0  0  0  0  0  0  0  0  0  0  0  0
   67.7255   41.0303   56.6229 C   0  0  0  0  0  0  0  0  0  0  0  0
   67.1742   42.0362   55.8630 C   0  0  0  0  0  0  0  0  0  0  0  0
   67.7346   43.2789   55.8780 C   0  0  0  0  0  0  0  0  0  0  0  0
   68.8110   43.4913   56.6326 N   0  0  0  0  0  0  0  0  0  0  0  0
   68.7653   48.6852   56.1977 C   0  0  0  0  0  0  0  0  0  0  0  0
   69.2267   48.6091   54.8078 C   0  0  0  0  0  0  0  0  0  0  0  0
   70.1080   49.5517   54.3789 N   0  0  0  0  0  0  0  0  0  0  0  0
   70.5575   49.5954   53.1475 N   0  0  0  0  0  0  0  0  0  0  0  0
   70.1912   48.7229   52.2158 C   0  0  0  0  0  0  0  0  0  0  0  0
   70.5967   48.7312   51.0295 O   0  0  0  0  0  0  0  0  0  0  0  0
   69.2929   47.7247   52.5718 C   0  0  0  0  0  0  0  0  0  0  0  0
   68.8790   46.7818   51.6543 C   0  0  0  0  0  0  0  0  0  0  0  0
   67.9994   45.8091   52.0565 C   0  0  0  0  0  0  0  0  0  0  0  0
   67.5181   45.7485   53.3504 C   0  0  0  0  0  0  0  0  0  0  0  0
   67.9592   46.7149   54.2381 C   0  0  0  0  0  0  0  0  0  0  0  0
   68.8300   47.6961   53.8753 C   0  0  0  0  0  0  0  0  0  0  0  0
  8  9  2  0
  9 10  1  0
  9  1  1  0
 10 11  1  0
 11 12  1  0
 12 13  2  0
 12 17  1  0
 13 14  1  0
 14 15  2  0
 15 16  1  0
 16 17  2  0
  1  2  2  0
  1  6  1  0
  2  3  1  0
  3 18  1  0
  3  4  2  0
 18 19  1  0
 19 20  2  0
 19 29  1  0
 20 21  1  0
 21 22  1  0
 22 23  2  0
 22 24  1  0
 24 25  1  0
 24 29  2  0
 25 26  2  0
 26 27  1  0
 27 28  2  0
 28 29  1  0
  4  5  1  0
  5  6  2  0
  6  7  1  0
M  END
>  <minimizedAffinity>  (56) 
-10.06305

$$$$
cs_full_output_folder/data/smiles/1790.pdb
     RDKit          3D

 29 32  0  0  0  0  0  0  0  0999 V2000
   70.7088   45.9506   58.1686 C   0  0  0  0  0  0  0  0  0  0  0  0
   71.8793   46.3631   58.7333 C   0  0  0  0  0  0  0  0  0  0  0  0
   72.3809   47.6580   58.5072 C   0  0  0  0  0  0  0  0  0  0  0  0
   71.6673   48.5122   57.7022 C   0  0  0  0  0  0  0  0  0  0  0  0
   70.4609   48.1204   57.1078 C   0  0  0  0  0  0  0  0  0  0  0  0
   70.0351   46.8625   57.3648 C   0  0  0  0  0  0  0  0  0  0  0  0
   70.1410   43.5911   57.4266 N   0  0  0  0  0  0  0  0  0  0  0  0
   70.1600   44.6077   58.3925 C   0  0  0  0  0  0  0  0  0  0  0  0
   69.6685   44.3420   59.5381 O   0  0  0  0  0  0  0  0  0  0  0  0
   70.3254   38.8369   58.9738 C   0  0  0  0  0  0  0  0  0  0  0  0
   69.6346   39.9568   58.2649 C   0  0  0  0  0  0  0  0  0  0  0  0
   70.2039   41.2190   58.1820 C   0  0  0  0  0  0  0  0  0  0  0  0
   69.6331   42.2816   57.5530 C   0  0  0  0  0  0  0  0  0  0  0  0
   68.3882   42.0204   56.9694 C   0  0  0  0  0  0  0  0  0  0  0  0
   67.7803   40.7849   57.0233 C   0  0  0  0  0  0  0  0  0  0  0  0
   68.4257   39.7416   57.6863 C   0  0  0  0  0  0  0  0  0  0  0  0
   67.8431   38.5005   57.7607 F   0  0  0  0  0  0  0  0  0  0  0  0
   69.7578   49.1325   56.2596 C   0  0  0  0  0  0  0  0  0  0  0  0
   69.8545   48.8308   54.8434 C   0  0  0  0  0  0  0  0  0  0  0  0
   70.9103   49.4139   54.1781 N   0  0  0  0  0  0  0  0  0  0  0  0
   71.1261   49.1803   52.8989 N   0  0  0  0  0  0  0  0  0  0  0  0
   70.3297   48.3563   52.1556 C   0  0  0  0  0  0  0  0  0  0  0  0
   70.5356   48.1365   50.9422 O   0  0  0  0  0  0  0  0  0  0  0  0
   69.2627   47.7473   52.7595 C   0  0  0  0  0  0  0  0  0  0  0  0
   69.0617   48.0184   54.1221 C   0  0  0  0  0  0  0  0  0  0  0  0
   67.8823   47.3760   54.7051 C   0  0  0  0  0  0  0  0  0  0  0  0
   67.9957   45.8827   54.4523 C   0  0  0  0  0  0  0  0  0  0  0  0
   68.3256   45.5698   53.0328 C   0  0  0  0  0  0  0  0  0  0  0  0
   68.3117   46.8122   52.1209 C   0  0  0  0  0  0  0  0  0  0  0  0
 10 11  1  0
 11 12  2  0
 11 16  1  0
 12 13  1  0
 13  7  1  0
 13 14  2  0
  7  8  1  0
  8  9  2  0
  8  1  1  0
  1  2  2  0
  1  6  1  0
  2  3  1  0
  3  4  2  0
  4  5  1  0
  5 18  1  0
  5  6  2  0
 18 19  1  0
 19 20  2  0
 19 25  1  0
 20 21  1  0
 21 22  1  0
 22 23  2  0
 22 24  1  0
 24 25  2  0
 24 29  1  0
 25 26  1  0
 26 27  1  0
 27 28  1  0
 28 29  1  0
 14 15  1  0
 15 16  2  0
 16 17  1  0
M  END
>  <minimizedAffinity>  (57) 
-10.05868

$$$$
cs_full_output_folder/data/smiles/4586.pdb
     RDKit          3D

 29 32  0  0  0  0  0  0  0  0999 V2000
   70.6266   46.1579   58.3190 C   0  0  0  0  0  0  0  0  0  0  0  0
   69.8018   46.8195   57.4093 C   0  0  0  0  0  0  0  0  0  0  0  0
   69.8860   48.1460   57.1040 C   0  0  0  0  0  0  0  0  0  0  0  0
   70.8919   48.8645   57.7799 C   0  0  0  0  0  0  0  0  0  0  0  0
   71.7272   48.2617   58.6835 C   0  0  0  0  0  0  0  0  0  0  0  0
   71.5905   46.9042   58.9509 C   0  0  0  0  0  0  0  0  0  0  0  0
   72.4330   46.3705   59.8541 F   0  0  0  0  0  0  0  0  0  0  0  0
   71.0136   43.6779   57.8111 N   0  0  0  0  0  0  0  0  0  0  0  0
   70.4559   44.7341   58.5429 C   0  0  0  0  0  0  0  0  0  0  0  0
   69.7075   44.3758   59.5208 O   0  0  0  0  0  0  0  0  0  0  0  0
   70.7420   42.2710   58.1731 C   0  0  0  0  0  0  0  0  0  0  0  0
   69.5743   39.4660   58.5645 C   0  0  0  0  0  0  0  0  0  0  0  0
   68.9818   40.5104   57.7131 C   0  0  0  0  0  0  0  0  0  0  0  0
   67.8280   40.4048   56.9659 C   0  0  0  0  0  0  0  0  0  0  0  0
   67.6886   41.5942   56.3625 N   0  0  0  0  0  0  0  0  0  0  0  0
   68.6976   42.4056   56.7096 N   0  0  0  0  0  0  0  0  0  0  0  0
   69.5182   41.7658   57.5456 C   0  0  0  0  0  0  0  0  0  0  0  0
   69.0295   48.8438   56.1151 C   0  0  0  0  0  0  0  0  0  0  0  0
   69.4708   48.7609   54.7310 C   0  0  0  0  0  0  0  0  0  0  0  0
   70.3709   49.6138   54.2153 N   0  0  0  0  0  0  0  0  0  0  0  0
   70.7594   49.5598   52.9376 N   0  0  0  0  0  0  0  0  0  0  0  0
   70.2712   48.6435   52.0807 C   0  0  0  0  0  0  0  0  0  0  0  0
   70.6318   48.5872   50.8751 O   0  0  0  0  0  0  0  0  0  0  0  0
   69.3402   47.7300   52.5424 C   0  0  0  0  0  0  0  0  0  0  0  0
   68.8309   46.7661   51.6969 C   0  0  0  0  0  0  0  0  0  0  0  0
   67.9179   45.8660   52.2067 C   0  0  0  0  0  0  0  0  0  0  0  0
   67.5323   45.9386   53.5288 C   0  0  0  0  0  0  0  0  0  0  0  0
   68.0526   46.9091   54.3524 C   0  0  0  0  0  0  0  0  0  0  0  0
   68.9512   47.8050   53.8751 C   0  0  0  0  0  0  0  0  0  0  0  0
 12 13  1  0
 13 14  1  0
 13 17  2  0
 14 15  2  0
 15 16  1  0
 16 17  1  0
 17 11  1  0
 11  8  1  0
  8  9  1  0
  9 10  2  0
  9  1  1  0
  1  2  2  0
  1  6  1  0
  2  3  1  0
  3 18  1  0
  3  4  2  0
 18 19  1  0
 19 20  2  0
 19 29  1  0
 20 21  1  0
 21 22  1  0
 22 23  2  0
 22 24  1  0
 24 25  1  0
 24 29  2  0
 25 26  2  0
 26 27  1  0
 27 28  2  0
 28 29  1  0
  4  5  1  0
  5  6  2  0
  6  7  1  0
M  END
>  <minimizedAffinity>  (58) 
-10.04062

$$$$
cs_full_output_folder/data/smiles/3765.pdb
     RDKit          3D

 29 32  0  0  0  0  0  0  0  0999 V2000
   70.5127   45.7753   58.0393 C   0  0  0  0  0  0  0  0  0  0  0  0
   69.7199   46.6408   57.2951 C   0  0  0  0  0  0  0  0  0  0  0  0
   70.0443   47.9802   57.0992 C   0  0  0  0  0  0  0  0  0  0  0  0
   71.1953   48.4505   57.6698 C   0  0  0  0  0  0  0  0  0  0  0  0
   71.9894   47.6136   58.4076 C   0  0  0  0  0  0  0  0  0  0  0  0
   71.6493   46.2730   58.5939 C   0  0  0  0  0  0  0  0  0  0  0  0
   72.5184   45.5523   59.3565 F   0  0  0  0  0  0  0  0  0  0  0  0
   69.5714   44.0245   59.3054 O   0  0  0  0  0  0  0  0  0  0  0  0
   70.1371   44.3843   58.1977 C   0  0  0  0  0  0  0  0  0  0  0  0
   70.3163   43.3481   57.2617 N   0  0  0  0  0  0  0  0  0  0  0  0
   69.8818   42.0049   57.5875 C   0  0  0  0  0  0  0  0  0  0  0  0
   70.8184   41.2202   58.2309 C   0  0  0  0  0  0  0  0  0  0  0  0
   70.4226   39.9607   58.5403 N   0  0  0  0  0  0  0  0  0  0  0  0
   69.1996   39.4910   58.2459 C   0  0  0  0  0  0  0  0  0  0  0  0
   68.2454   40.2535   57.6031 C   0  0  0  0  0  0  0  0  0  0  0  0
   68.6186   41.5540   57.2701 C   0  0  0  0  0  0  0  0  0  0  0  0
   67.8026   42.3148   56.6811 O   0  0  0  0  0  0  0  0  0  0  0  0
   69.1464   48.8150   56.2645 C   0  0  0  0  0  0  0  0  0  0  0  0
   69.4555   48.7426   54.8100 C   0  0  0  0  0  0  0  0  0  0  0  0
   70.3366   49.6490   54.2713 N   0  0  0  0  0  0  0  0  0  0  0  0
   70.6813   49.6100   53.0023 N   0  0  0  0  0  0  0  0  0  0  0  0
   70.1956   48.6865   52.1575 C   0  0  0  0  0  0  0  0  0  0  0  0
   70.5816   48.7230   50.9560 O   0  0  0  0  0  0  0  0  0  0  0  0
   69.3023   47.7323   52.6022 C   0  0  0  0  0  0  0  0  0  0  0  0
   68.7898   46.7866   51.7373 C   0  0  0  0  0  0  0  0  0  0  0  0
   67.8888   45.8523   52.2018 C   0  0  0  0  0  0  0  0  0  0  0  0
   67.5407   45.9144   53.5343 C   0  0  0  0  0  0  0  0  0  0  0  0
   68.0527   46.8625   54.4077 C   0  0  0  0  0  0  0  0  0  0  0  0
   68.9515   47.7959   53.9549 C   0  0  0  0  0  0  0  0  0  0  0  0
  8  9  2  0
  9 10  1  0
  9  1  1  0
 10 11  1  0
 11 12  2  0
 11 16  1  0
 12 13  1  0
 13 14  1  0
 14 15  2  0
 15 16  1  0
 16 17  2  0
  1  2  2  0
  1  6  1  0
  2  3  1  0
  3 18  1  0
  3  4  2  0
 18 19  1  0
 19 20  2  0
 19 29  1  0
 20 21  1  0
 21 22  1  0
 22 23  2  0
 22 24  1  0
 24 25  1  0
 24 29  2  0
 25 26  2  0
 26 27  1  0
 27 28  2  0
 28 29  1  0
  4  5  1  0
  5  6  2  0
  6  7  1  0
M  END
>  <minimizedAffinity>  (59) 
-10.03624

$$$$
cs_full_output_folder/data/smiles/5190.pdb
     RDKit          3D

 29 32  0  0  0  0  0  0  0  0999 V2000
   70.5403   46.2782   58.3089 C   0  0  0  0  0  0  0  0  0  0  0  0
   69.7686   46.9115   57.3301 C   0  0  0  0  0  0  0  0  0  0  0  0
   69.7893   48.2588   57.1150 C   0  0  0  0  0  0  0  0  0  0  0  0
   70.6185   49.0674   57.9006 C   0  0  0  0  0  0  0  0  0  0  0  0
   71.3881   48.4742   58.8690 C   0  0  0  0  0  0  0  0  0  0  0  0
   71.3367   47.1009   59.0554 C   0  0  0  0  0  0  0  0  0  0  0  0
   72.1419   46.6260   60.0346 F   0  0  0  0  0  0  0  0  0  0  0  0
   70.9436   43.8381   57.6428 N   0  0  0  0  0  0  0  0  0  0  0  0
   70.4573   44.8556   58.4845 C   0  0  0  0  0  0  0  0  0  0  0  0
   69.8661   44.4327   59.5406 O   0  0  0  0  0  0  0  0  0  0  0  0
   70.8097   42.4096   57.9081 C   0  0  0  0  0  0  0  0  0  0  0  0
   69.7557   39.6372   58.5352 C   0  0  0  0  0  0  0  0  0  0  0  0
   69.0493   40.6088   57.7194 N   0  0  0  0  0  0  0  0  0  0  0  0
   67.8615   40.4083   57.1408 C   0  0  0  0  0  0  0  0  0  0  0  0
   67.5492   41.5368   56.4775 N   0  0  0  0  0  0  0  0  0  0  0  0
   68.5651   42.4339   56.6589 C   0  0  0  0  0  0  0  0  0  0  0  0
   69.5225   41.8437   57.4501 C   0  0  0  0  0  0  0  0  0  0  0  0
   68.9782   48.9669   56.1048 C   0  0  0  0  0  0  0  0  0  0  0  0
   69.3977   48.7657   54.7154 C   0  0  0  0  0  0  0  0  0  0  0  0
   70.3199   49.6082   54.1468 N   0  0  0  0  0  0  0  0  0  0  0  0
   70.7223   49.5283   52.9140 N   0  0  0  0  0  0  0  0  0  0  0  0
   70.2663   48.5949   52.0573 C   0  0  0  0  0  0  0  0  0  0  0  0
   70.6364   48.5009   50.8768 O   0  0  0  0  0  0  0  0  0  0  0  0
   69.3269   47.6925   52.5418 C   0  0  0  0  0  0  0  0  0  0  0  0
   68.8170   46.7029   51.7448 C   0  0  0  0  0  0  0  0  0  0  0  0
   67.8969   45.7909   52.2026 C   0  0  0  0  0  0  0  0  0  0  0  0
   67.4826   45.8851   53.5085 C   0  0  0  0  0  0  0  0  0  0  0  0
   67.9978   46.8851   54.3106 C   0  0  0  0  0  0  0  0  0  0  0  0
   68.9189   47.8022   53.8580 C   0  0  0  0  0  0  0  0  0  0  0  0
 12 13  1  0
 13 14  1  0
 13 17  1  0
 14 15  2  0
 15 16  1  0
 16 17  2  0
 17 11  1  0
 11  8  1  0
  8  9  1  0
  9 10  2  0
  9  1  1  0
  1  2  2  0
  1  6  1  0
  2  3  1  0
  3 18  1  0
  3  4  2  0
 18 19  1  0
 19 20  2  0
 19 29  1  0
 20 21  1  0
 21 22  1  0
 22 23  2  0
 22 24  1  0
 24 25  1  0
 24 29  2  0
 25 26  2  0
 26 27  1  0
 27 28  2  0
 28 29  1  0
  4  5  1  0
  5  6  2  0
  6  7  1  0
M  END
>  <minimizedAffinity>  (60) 
-10.02555

$$$$
cs_full_output_folder/data/smiles/105.pdb
     RDKit          3D

 27 28  0  0  0  0  0  0  0  0999 V2000
   67.8138   41.6810   58.4247 N   0  0  0  0  0  0  0  0  0  0  0  0
   67.8391   42.1726   57.0939 C   0  0  0  0  0  0  0  0  0  0  0  0
   67.5761   41.4254   56.1387 O   0  0  0  0  0  0  0  0  0  0  0  0
   68.1593   43.5259   56.7795 N   0  0  0  0  0  0  0  0  0  0  0  0
   68.1906   44.0304   55.4756 N   0  0  0  0  0  0  0  0  0  0  0  0
   68.2607   45.4146   55.1630 C   0  0  0  0  0  0  0  0  0  0  0  0
   68.2943   46.1931   56.1426 O   0  0  0  0  0  0  0  0  0  0  0  0
   68.2928   45.9430   53.8118 C   0  0  0  0  0  0  0  0  0  0  0  0
   67.5251   45.4454   52.7860 C   0  0  0  0  0  0  0  0  0  0  0  0
   67.6269   46.0244   51.5164 C   0  0  0  0  0  0  0  0  0  0  0  0
   68.4849   47.0808   51.2869 C   0  0  0  0  0  0  0  0  0  0  0  0
   69.2613   47.5915   52.3057 C   0  0  0  0  0  0  0  0  0  0  0  0
   69.1364   46.9978   53.5429 C   0  0  0  0  0  0  0  0  0  0  0  0
   70.1482   48.6725   52.1003 N   0  0  0  0  0  0  0  0  0  0  0  0
   71.1215   48.8552   52.8404 O   0  0  0  0  0  0  0  0  0  0  0  0
   69.9186   49.5287   51.0629 O   0  0  0  0  0  0  0  0  0  0  0  0
   67.4939   40.3148   58.7692 C   0  0  0  0  0  0  0  0  0  0  0  0
   70.8572   37.6319   58.8740 C   0  0  0  0  0  0  0  0  0  0  0  0
   70.9352   38.8097   58.1666 C   0  0  0  0  0  0  0  0  0  0  0  0
   69.8605   39.6677   58.1305 C   0  0  0  0  0  0  0  0  0  0  0  0
   68.6741   39.4191   58.7762 C   0  0  0  0  0  0  0  0  0  0  0  0
   68.6061   38.2226   59.4899 C   0  0  0  0  0  0  0  0  0  0  0  0
   69.6770   37.3557   59.5320 C   0  0  0  0  0  0  0  0  0  0  0  0
   73.0735   37.2095   59.8555 C   0  0  0  0  0  0  0  0  0  0  0  0
   71.9864   36.6607   58.9509 C   0  0  0  0  0  0  0  0  0  0  0  0
   72.5681   36.3647   57.5899 C   0  0  0  0  0  0  0  0  0  0  0  0
   71.5030   35.3572   59.5867 C   0  0  0  0  0  0  0  0  0  0  0  0
 24 25  1  0
 25 26  1  0
 25 27  1  0
 25 18  1  0
 18 19  2  0
 18 23  1  0
 19 20  1  0
 20 21  2  0
 21 17  1  0
 21 22  1  0
 17  1  1  0
  1  2  1  0
  2  3  2  0
  2  4  1  0
  4  5  1  0
  5  6  1  0
  6  7  2  0
  6  8  1  0
  8  9  2  0
  8 13  1  0
  9 10  1  0
 10 11  2  0
 11 12  1  0
 12 14  1  0
 12 13  2  0
 14 15  2  0
 14 16  1  0
 22 23  2  0
M  CHG  2  14   1  16  -1
M  END
>  <minimizedAffinity>  (61) 
-10.02319

$$$$
cs_full_output_folder/data/smiles/5319.pdb
     RDKit          3D

 28 31  0  0  0  0  0  0  0  0999 V2000
   70.4470   45.6129   58.1370 C   0  0  0  0  0  0  0  0  0  0  0  0
   71.4734   46.2342   58.8584 C   0  0  0  0  0  0  0  0  0  0  0  0
   71.7899   47.5598   58.7683 C   0  0  0  0  0  0  0  0  0  0  0  0
   71.0586   48.3651   57.9107 C   0  0  0  0  0  0  0  0  0  0  0  0
   70.0363   47.8066   57.1752 C   0  0  0  0  0  0  0  0  0  0  0  0
   69.7506   46.4421   57.3028 C   0  0  0  0  0  0  0  0  0  0  0  0
   69.1453   43.7944   56.3909 O   0  0  0  0  0  0  0  0  0  0  0  0
   69.5915   43.3124   57.4910 C   0  0  0  0  0  0  0  0  0  0  0  0
   70.2306   44.2273   58.3319 N   0  0  0  0  0  0  0  0  0  0  0  0
   69.3643   41.8984   57.6867 C   0  0  0  0  0  0  0  0  0  0  0  0
   70.3578   41.0983   58.2643 C   0  0  0  0  0  0  0  0  0  0  0  0
   70.1747   39.7557   58.4771 C   0  0  0  0  0  0  0  0  0  0  0  0
   68.9868   39.1567   58.1204 C   0  0  0  0  0  0  0  0  0  0  0  0
   68.0007   39.9046   57.5563 C   0  0  0  0  0  0  0  0  0  0  0  0
   68.2083   41.2530   57.3512 C   0  0  0  0  0  0  0  0  0  0  0  0
   67.1809   41.9341   56.7727 F   0  0  0  0  0  0  0  0  0  0  0  0
   69.2736   48.7050   56.2890 C   0  0  0  0  0  0  0  0  0  0  0  0
   69.6020   48.5427   54.8459 C   0  0  0  0  0  0  0  0  0  0  0  0
   70.5989   49.3208   54.3396 N   0  0  0  0  0  0  0  0  0  0  0  0
   70.9432   49.2612   53.0761 N   0  0  0  0  0  0  0  0  0  0  0  0
   70.3512   48.4420   52.1982 C   0  0  0  0  0  0  0  0  0  0  0  0
   70.7245   48.4237   50.9796 O   0  0  0  0  0  0  0  0  0  0  0  0
   69.3371   47.6316   52.6512 C   0  0  0  0  0  0  0  0  0  0  0  0
   68.9563   47.6812   53.9928 C   0  0  0  0  0  0  0  0  0  0  0  0
   67.8791   46.8065   54.5081 C   0  0  0  0  0  0  0  0  0  0  0  0
   67.9067   45.5160   53.6949 C   0  0  0  0  0  0  0  0  0  0  0  0
   67.5730   45.9349   52.2611 C   0  0  0  0  0  0  0  0  0  0  0  0
   68.6889   46.7349   51.6632 C   0  0  0  0  0  0  0  0  0  0  0  0
  7  8  2  0
  8  9  1  0
  8 10  1  0
  9  1  1  0
  1  2  2  0
  1  6  1  0
  2  3  1  0
  3  4  2  0
  4  5  1  0
  5 17  1  0
  5  6  2  0
 17 18  1  0
 18 19  2  0
 18 24  1  0
 19 20  1  0
 20 21  1  0
 21 22  2  0
 21 23  1  0
 23 24  2  0
 23 28  1  0
 24 25  1  0
 25 26  1  0
 26 27  1  0
 27 28  1  0
 10 11  2  0
 10 15  1  0
 11 12  1  0
 12 13  2  0
 13 14  1  0
 14 15  2  0
 15 16  1  0
M  END
>  <minimizedAffinity>  (62) 
-10.01080

$$$$
cs_full_output_folder/data/smiles/9107.pdb
     RDKit          3D

 28 31  0  0  0  0  0  0  0  0999 V2000
   70.0293   44.7487   57.5029 C   0  0  0  0  0  0  0  0  0  0  0  0
   69.4165   45.8462   56.9431 C   0  0  0  0  0  0  0  0  0  0  0  0
   69.8815   47.1523   57.0553 C   0  0  0  0  0  0  0  0  0  0  0  0
   71.0268   47.3595   57.7698 C   0  0  0  0  0  0  0  0  0  0  0  0
   71.6791   46.2770   58.3539 C   0  0  0  0  0  0  0  0  0  0  0  0
   71.1812   45.0008   58.2168 C   0  0  0  0  0  0  0  0  0  0  0  0
   71.8668   43.9965   58.8100 F   0  0  0  0  0  0  0  0  0  0  0  0
   70.0000   40.0420   58.7361 N   0  0  0  0  0  0  0  0  0  0  0  0
   69.4567   41.0825   57.9469 C   0  0  0  0  0  0  0  0  0  0  0  0
   69.9792   42.3598   58.0930 C   0  0  0  0  0  0  0  0  0  0  0  0
   69.4795   43.4099   57.3434 C   0  0  0  0  0  0  0  0  0  0  0  0
   68.4586   43.1197   56.4631 C   0  0  0  0  0  0  0  0  0  0  0  0
   67.9419   41.8485   56.3211 C   0  0  0  0  0  0  0  0  0  0  0  0
   66.9256   41.5957   55.4363 F   0  0  0  0  0  0  0  0  0  0  0  0
   68.4359   40.7857   57.0690 C   0  0  0  0  0  0  0  0  0  0  0  0
   67.9026   39.4819   56.9203 N   0  0  0  0  0  0  0  0  0  0  0  0
   69.1111   48.2495   56.3650 C   0  0  0  0  0  0  0  0  0  0  0  0
   69.4574   48.3308   54.9175 C   0  0  0  0  0  0  0  0  0  0  0  0
   70.4130   49.2271   54.5101 N   0  0  0  0  0  0  0  0  0  0  0  0
   70.7986   49.3200   53.2607 N   0  0  0  0  0  0  0  0  0  0  0  0
   70.3023   48.5599   52.2745 C   0  0  0  0  0  0  0  0  0  0  0  0
   70.6653   48.6403   51.0764 O   0  0  0  0  0  0  0  0  0  0  0  0
   69.3290   47.6248   52.5976 C   0  0  0  0  0  0  0  0  0  0  0  0
   68.7799   46.8283   51.6136 C   0  0  0  0  0  0  0  0  0  0  0  0
   67.8049   45.9100   51.9261 C   0  0  0  0  0  0  0  0  0  0  0  0
   67.4169   45.8338   53.2411 C   0  0  0  0  0  0  0  0  0  0  0  0
   67.9575   46.6266   54.2444 C   0  0  0  0  0  0  0  0  0  0  0  0
   68.9289   47.5393   53.9320 C   0  0  0  0  0  0  0  0  0  0  0  0
  8  9  1  0
  9 10  2  0
  9 15  1  0
 10 11  1  0
 11  1  1  0
 11 12  2  0
  1  2  2  0
  1  6  1  0
  2  3  1  0
  3 17  1  0
  3  4  2  0
 17 18  1  0
 18 19  2  0
 18 28  1  0
 19 20  1  0
 20 21  1  0
 21 22  2  0
 21 23  1  0
 23 24  1  0
 23 28  2  0
 24 25  2  0
 25 26  1  0
 26 27  2  0
 27 28  1  0
  4  5  1  0
  5  6  2  0
  6  7  1  0
 12 13  1  0
 13 14  1  0
 13 15  2  0
 15 16  1  0
M  END
>  <minimizedAffinity>  (63) 
-10.00867

$$$$
cs_full_output_folder/data/smiles/5126.pdb
     RDKit          3D

 29 32  0  0  0  0  0  0  0  0999 V2000
   70.8439   45.9897   58.0151 C   0  0  0  0  0  0  0  0  0  0  0  0
   69.8528   46.6456   57.2696 C   0  0  0  0  0  0  0  0  0  0  0  0
   69.8102   48.0015   57.0959 C   0  0  0  0  0  0  0  0  0  0  0  0
   70.8109   48.7561   57.6956 C   0  0  0  0  0  0  0  0  0  0  0  0
   71.7931   48.1367   58.4302 C   0  0  0  0  0  0  0  0  0  0  0  0
   71.8092   46.7378   58.5913 C   0  0  0  0  0  0  0  0  0  0  0  0
   72.7777   46.1661   59.3376 F   0  0  0  0  0  0  0  0  0  0  0  0
   69.5587   43.8630   58.4594 N   0  0  0  0  0  0  0  0  0  0  0  0
   70.7450   44.5169   58.0976 C   0  0  0  0  0  0  0  0  0  0  0  0
   71.7684   43.8370   57.8308 O   0  0  0  0  0  0  0  0  0  0  0  0
   69.2992   42.4571   58.5609 C   0  0  0  0  0  0  0  0  0  0  0  0
   68.6403   39.2944   58.0285 C   0  0  0  0  0  0  0  0  0  0  0  0
   68.2020   40.5170   57.2926 C   0  0  0  0  0  0  0  0  0  0  0  0
   67.4264   40.4020   56.1977 N   0  0  0  0  0  0  0  0  0  0  0  0
   67.2502   41.6441   55.7347 C   0  0  0  0  0  0  0  0  0  0  0  0
   67.8789   42.4919   56.4955 O   0  0  0  0  0  0  0  0  0  0  0  0
   68.4927   41.8368   57.4916 C   0  0  0  0  0  0  0  0  0  0  0  0
   68.7435   48.6546   56.2611 C   0  0  0  0  0  0  0  0  0  0  0  0
   69.2143   48.6136   54.8571 C   0  0  0  0  0  0  0  0  0  0  0  0
   70.1108   49.5534   54.4268 N   0  0  0  0  0  0  0  0  0  0  0  0
   70.5851   49.6130   53.2117 N   0  0  0  0  0  0  0  0  0  0  0  0
   70.1747   48.7050   52.3288 C   0  0  0  0  0  0  0  0  0  0  0  0
   70.6067   48.7171   51.1274 O   0  0  0  0  0  0  0  0  0  0  0  0
   69.2748   47.7214   52.6668 C   0  0  0  0  0  0  0  0  0  0  0  0
   68.8702   46.7829   51.7269 C   0  0  0  0  0  0  0  0  0  0  0  0
   67.9731   45.8055   52.1038 C   0  0  0  0  0  0  0  0  0  0  0  0
   67.5057   45.7835   53.3853 C   0  0  0  0  0  0  0  0  0  0  0  0
   67.8905   46.7018   54.3383 C   0  0  0  0  0  0  0  0  0  0  0  0
   68.7961   47.6882   53.9575 C   0  0  0  0  0  0  0  0  0  0  0  0
 12 13  1  0
 13 14  1  0
 13 17  2  0
 14 15  2  0
 15 16  1  0
 16 17  1  0
 17 11  1  0
 11  8  1  0
  8  9  1  0
  9 10  2  0
  9  1  1  0
  1  2  2  0
  1  6  1  0
  2  3  1  0
  3 18  1  0
  3  4  2  0
 18 19  1  0
 19 20  2  0
 19 29  1  0
 20 21  1  0
 21 22  1  0
 22 23  2  0
 22 24  1  0
 24 25  1  0
 24 29  2  0
 25 26  2  0
 26 27  1  0
 27 28  2  0
 28 29  1  0
  4  5  1  0
  5  6  2  0
  6  7  1  0
M  END
>  <minimizedAffinity>  (64) 
-9.99577

$$$$
cs_full_output_folder/data/smiles/2899.pdb
     RDKit          3D

 29 32  0  0  0  0  0  0  0  0999 V2000
   70.7543   45.4020   57.8533 C   0  0  0  0  0  0  0  0  0  0  0  0
   71.6238   46.1021   58.6564 C   0  0  0  0  0  0  0  0  0  0  0  0
   71.5780   47.4898   58.7252 C   0  0  0  0  0  0  0  0  0  0  0  0
   70.6487   48.2006   57.9815 C   0  0  0  0  0  0  0  0  0  0  0  0
   69.7727   47.5147   57.1740 C   0  0  0  0  0  0  0  0  0  0  0  0
   69.8439   46.1202   57.1268 C   0  0  0  0  0  0  0  0  0  0  0  0
   70.0331   43.1619   58.6646 C   0  0  0  0  0  0  0  0  0  0  0  0
   69.3531   43.8253   59.5422 O   0  0  0  0  0  0  0  0  0  0  0  0
   70.7677   43.9709   57.7717 N   0  0  0  0  0  0  0  0  0  0  0  0
   67.8725   41.7768   57.3698 C   0  0  0  0  0  0  0  0  0  0  0  0
   68.9607   41.0173   58.0321 C   0  0  0  0  0  0  0  0  0  0  0  0
   68.9164   39.6350   57.9932 C   0  0  0  0  0  0  0  0  0  0  0  0
   67.9002   38.9725   57.3658 F   0  0  0  0  0  0  0  0  0  0  0  0
   69.9033   38.8785   58.5877 C   0  0  0  0  0  0  0  0  0  0  0  0
   70.9279   39.5395   59.2155 C   0  0  0  0  0  0  0  0  0  0  0  0
   70.9759   40.9366   59.2576 C   0  0  0  0  0  0  0  0  0  0  0  0
   69.9913   41.7090   58.6649 C   0  0  0  0  0  0  0  0  0  0  0  0
   68.7434   48.2296   56.3340 C   0  0  0  0  0  0  0  0  0  0  0  0
   69.2762   48.3702   54.9611 C   0  0  0  0  0  0  0  0  0  0  0  0
   70.0692   49.4188   54.6125 N   0  0  0  0  0  0  0  0  0  0  0  0
   70.4897   49.5915   53.3709 N   0  0  0  0  0  0  0  0  0  0  0  0
   70.1515   48.7328   52.3852 C   0  0  0  0  0  0  0  0  0  0  0  0
   70.5841   48.9531   51.2168 O   0  0  0  0  0  0  0  0  0  0  0  0
   69.3534   47.6474   52.6600 C   0  0  0  0  0  0  0  0  0  0  0  0
   68.9215   47.4770   53.9628 C   0  0  0  0  0  0  0  0  0  0  0  0
   68.1137   46.2943   54.3218 C   0  0  0  0  0  0  0  0  0  0  0  0
   67.5999   45.4834   53.1906 C   0  0  0  0  0  0  0  0  0  0  0  0
   67.6104   46.1375   51.8495 C   0  0  0  0  0  0  0  0  0  0  0  0
   68.9809   46.7387   51.5536 C   0  0  0  0  0  0  0  0  0  0  0  0
 10 11  1  0
 11 12  2  0
 11 17  1  0
 12 13  1  0
 12 14  1  0
 14 15  2  0
 15 16  1  0
 16 17  2  0
 17  7  1  0
  7  8  2  0
  7  9  1  0
  9  1  1  0
  1  2  2  0
  1  6  1  0
  2  3  1  0
  3  4  2  0
  4  5  1  0
  5 18  1  0
  5  6  2  0
 18 19  1  0
 19 20  2  0
 19 25  1  0
 20 21  1  0
 21 22  1  0
 22 23  2  0
 22 24  1  0
 24 25  2  0
 24 29  1  0
 25 26  1  0
 26 27  1  0
 27 28  1  0
 28 29  1  0
M  END
>  <minimizedAffinity>  (65) 
-9.98547

$$$$
cs_full_output_folder/data/smiles/9100.pdb
     RDKit          3D

 28 31  0  0  0  0  0  0  0  0999 V2000
   70.2136   48.1137   57.1747 C   0  0  0  0  0  0  0  0  0  0  0  0
   71.4942   48.5861   57.4978 C   0  0  0  0  0  0  0  0  0  0  0  0
   72.2991   47.8476   58.3143 C   0  0  0  0  0  0  0  0  0  0  0  0
   71.8518   46.6317   58.8236 C   0  0  0  0  0  0  0  0  0  0  0  0
   70.6001   46.1451   58.5240 C   0  0  0  0  0  0  0  0  0  0  0  0
   69.8086   46.9283   57.6879 C   0  0  0  0  0  0  0  0  0  0  0  0
   69.3954   48.9861   56.3018 C   0  0  0  0  0  0  0  0  0  0  0  0
   70.7136   48.3418   50.9938 O   0  0  0  0  0  0  0  0  0  0  0  0
   70.3707   48.4487   52.2212 C   0  0  0  0  0  0  0  0  0  0  0  0
   71.0481   49.2778   53.0314 N   0  0  0  0  0  0  0  0  0  0  0  0
   70.7353   49.4232   54.2952 N   0  0  0  0  0  0  0  0  0  0  0  0
   69.7035   48.7433   54.8728 C   0  0  0  0  0  0  0  0  0  0  0  0
   68.9950   47.8895   54.0711 C   0  0  0  0  0  0  0  0  0  0  0  0
   69.3158   47.7287   52.7345 C   0  0  0  0  0  0  0  0  0  0  0  0
   68.5964   46.8306   51.8117 C   0  0  0  0  0  0  0  0  0  0  0  0
   67.8468   45.7264   52.4759 C   0  0  0  0  0  0  0  0  0  0  0  0
   67.9276   45.7208   53.9586 C   0  0  0  0  0  0  0  0  0  0  0  0
   67.8829   47.0894   54.5958 C   0  0  0  0  0  0  0  0  0  0  0  0
   70.1331   44.9271   59.0273 N   0  0  0  0  0  0  0  0  0  0  0  0
   70.5763   43.3784   58.4586 S   0  0  0  0  0  0  0  0  0  0  0  0
   71.8215   43.5650   57.5934 O   0  0  0  0  0  0  0  0  0  0  0  0
   71.0455   42.5555   59.6243 O   0  0  0  0  0  0  0  0  0  0  0  0
   69.3502   42.5890   57.5526 C   0  0  0  0  0  0  0  0  0  0  0  0
   68.5984   43.2892   56.6452 C   0  0  0  0  0  0  0  0  0  0  0  0
   67.5959   42.6852   55.8895 C   0  0  0  0  0  0  0  0  0  0  0  0
   67.3434   41.3350   56.0529 C   0  0  0  0  0  0  0  0  0  0  0  0
   68.0903   40.6182   56.9597 C   0  0  0  0  0  0  0  0  0  0  0  0
   69.0944   41.2454   57.7105 C   0  0  0  0  0  0  0  0  0  0  0  0
  8  9  2  0
  9 10  1  0
  9 14  1  0
 10 11  1  0
 11 12  2  0
 12  7  1  0
 12 13  1  0
  7  1  1  0
  1  2  2  0
  1  6  1  0
  2  3  1  0
  3  4  2  0
  4  5  1  0
  5 19  1  0
  5  6  2  0
 19 20  1  0
 20 21  2  0
 20 22  2  0
 20 23  1  0
 23 24  2  0
 23 28  1  0
 24 25  1  0
 25 26  2  0
 26 27  1  0
 27 28  2  0
 13 14  2  0
 13 18  1  0
 14 15  1  0
 15 16  1  0
 16 17  1  0
 17 18  1  0
M  END
>  <minimizedAffinity>  (66) 
-9.98013

$$$$
cs_full_output_folder/data/smiles/8843.pdb
     RDKit          3D

 27 30  0  0  0  0  0  0  0  0999 V2000
   70.5852   45.7600   58.2169 C   0  0  0  0  0  0  0  0  0  0  0  0
   71.7362   46.3235   58.6982 C   0  0  0  0  0  0  0  0  0  0  0  0
   72.1153   47.6237   58.4055 C   0  0  0  0  0  0  0  0  0  0  0  0
   71.3076   48.3867   57.5971 C   0  0  0  0  0  0  0  0  0  0  0  0
   70.1234   47.8179   57.0977 C   0  0  0  0  0  0  0  0  0  0  0  0
   69.7725   46.5269   57.4049 C   0  0  0  0  0  0  0  0  0  0  0  0
   69.6102   44.1531   59.6032 O   0  0  0  0  0  0  0  0  0  0  0  0
   70.1623   44.3956   58.5063 C   0  0  0  0  0  0  0  0  0  0  0  0
   70.3399   43.3146   57.6165 N   0  0  0  0  0  0  0  0  0  0  0  0
   69.9723   41.9694   57.7910 C   0  0  0  0  0  0  0  0  0  0  0  0
   70.7297   40.9822   58.3336 C   0  0  0  0  0  0  0  0  0  0  0  0
   70.2519   39.6667   58.4538 C   0  0  0  0  0  0  0  0  0  0  0  0
   68.9988   39.3147   58.0283 C   0  0  0  0  0  0  0  0  0  0  0  0
   68.2194   40.3029   57.4761 C   0  0  0  0  0  0  0  0  0  0  0  0
   68.6980   41.5849   57.3651 C   0  0  0  0  0  0  0  0  0  0  0  0
   69.2344   48.6460   56.2336 C   0  0  0  0  0  0  0  0  0  0  0  0
   69.5582   48.6251   54.8150 C   0  0  0  0  0  0  0  0  0  0  0  0
   70.4243   49.5088   54.2688 N   0  0  0  0  0  0  0  0  0  0  0  0
   70.7423   49.5544   52.9965 N   0  0  0  0  0  0  0  0  0  0  0  0
   70.1898   48.6700   52.1193 C   0  0  0  0  0  0  0  0  0  0  0  0
   70.5237   48.7544   50.9186 O   0  0  0  0  0  0  0  0  0  0  0  0
   69.2945   47.7267   52.5730 C   0  0  0  0  0  0  0  0  0  0  0  0
   68.7620   46.8439   51.6668 C   0  0  0  0  0  0  0  0  0  0  0  0
   67.8646   45.8805   52.1325 C   0  0  0  0  0  0  0  0  0  0  0  0
   67.5492   45.8593   53.4933 C   0  0  0  0  0  0  0  0  0  0  0  0
   68.1024   46.7608   54.3693 C   0  0  0  0  0  0  0  0  0  0  0  0
   68.9915   47.7183   53.9170 C   0  0  0  0  0  0  0  0  0  0  0  0
  7  8  2  0
  8  9  1  0
  8  1  1  0
  9 10  1  0
 10 11  2  0
 10 15  1  0
 11 12  1  0
 12 13  2  0
 13 14  1  0
 14 15  2  0
  1  2  2  0
  1  6  1  0
  2  3  1  0
  3  4  2  0
  4  5  1  0
  5 16  1  0
  5  6  2  0
 16 17  1  0
 17 18  2  0
 17 27  1  0
 18 19  1  0
 19 20  1  0
 20 21  2  0
 20 22  1  0
 22 23  1  0
 22 27  2  0
 23 24  2  0
 24 25  1  0
 25 26  2  0
 26 27  1  0
M  END
>  <minimizedAffinity>  (67) 
-9.97931

$$$$
cs_full_output_folder/data/smiles/2499.pdb
     RDKit          3D

 26 27  0  0  0  0  0  0  0  0999 V2000
   70.0798   49.1585   52.5503 S   0  0  0  0  0  0  0  0  0  0  0  0
   71.4894   49.2449   53.0573 O   0  0  0  0  0  0  0  0  0  0  0  0
   70.1647   48.9488   51.0611 O   0  0  0  0  0  0  0  0  0  0  0  0
   69.2816   47.7602   53.2213 C   0  0  0  0  0  0  0  0  0  0  0  0
   69.3089   47.5840   54.5867 C   0  0  0  0  0  0  0  0  0  0  0  0
   69.9202   48.4354   55.4457 F   0  0  0  0  0  0  0  0  0  0  0  0
   68.6733   46.4725   55.0955 C   0  0  0  0  0  0  0  0  0  0  0  0
   68.6925   46.2849   56.4524 F   0  0  0  0  0  0  0  0  0  0  0  0
   68.0367   45.5779   54.2574 C   0  0  0  0  0  0  0  0  0  0  0  0
   67.4169   44.4922   54.7705 F   0  0  0  0  0  0  0  0  0  0  0  0
   68.0055   45.7482   52.8885 C   0  0  0  0  0  0  0  0  0  0  0  0
   67.3789   44.8662   52.0681 F   0  0  0  0  0  0  0  0  0  0  0  0
   68.6453   46.8654   52.3847 C   0  0  0  0  0  0  0  0  0  0  0  0
   68.6097   47.0251   51.0357 F   0  0  0  0  0  0  0  0  0  0  0  0
   69.2685   50.6161   52.9151 N   0  0  0  0  0  0  0  0  0  0  0  0
   71.3917   52.5798   55.3259 C   0  0  0  0  0  0  0  0  0  0  0  0
   70.9609   51.7180   54.3044 C   0  0  0  0  0  0  0  0  0  0  0  0
   69.6484   51.5104   53.9734 C   0  0  0  0  0  0  0  0  0  0  0  0
   68.6734   52.1810   54.6810 C   0  0  0  0  0  0  0  0  0  0  0  0
   69.0499   53.0307   55.6866 C   0  0  0  0  0  0  0  0  0  0  0  0
   70.4035   53.2250   56.0045 C   0  0  0  0  0  0  0  0  0  0  0  0
   70.6903   54.0671   57.0381 F   0  0  0  0  0  0  0  0  0  0  0  0
   75.1865   52.8280   55.0287 N   0  0  0  0  0  0  0  0  0  0  0  0
   73.8126   52.7524   54.6055 C   0  0  0  0  0  0  0  0  0  0  0  0
   73.5458   52.7777   53.3887 O   0  0  0  0  0  0  0  0  0  0  0  0
   72.7869   52.6519   55.5422 N   0  0  0  0  0  0  0  0  0  0  0  0
 23 24  1  0
 24 25  2  0
 24 26  1  0
 26 16  1  0
 16 17  2  0
 16 21  1  0
 17 18  1  0
 18 15  1  0
 18 19  2  0
 15  1  1  0
  1  2  2  0
  1  3  2  0
  1  4  1  0
  4  5  2  0
  4 13  1  0
  5  6  1  0
  5  7  1  0
  7  8  1  0
  7  9  2  0
  9 10  1  0
  9 11  1  0
 11 12  1  0
 11 13  2  0
 13 14  1  0
 19 20  1  0
 20 21  2  0
 21 22  1  0
M  END
>  <minimizedAffinity>  (68) 
-9.97903

$$$$
cs_full_output_folder/data/smiles/6425.pdb
     RDKit          3D

 28 31  0  0  0  0  0  0  0  0999 V2000
   70.9192   45.5557   58.0270 C   0  0  0  0  0  0  0  0  0  0  0  0
   71.6331   46.3038   58.9193 C   0  0  0  0  0  0  0  0  0  0  0  0
   71.4839   47.6741   58.9795 C   0  0  0  0  0  0  0  0  0  0  0  0
   70.6036   48.3170   58.1356 C   0  0  0  0  0  0  0  0  0  0  0  0
   69.8474   47.5874   57.2017 C   0  0  0  0  0  0  0  0  0  0  0  0
   70.0358   46.2244   57.1843 C   0  0  0  0  0  0  0  0  0  0  0  0
   69.3630   43.8492   59.4180 O   0  0  0  0  0  0  0  0  0  0  0  0
   70.1930   43.2414   58.6512 C   0  0  0  0  0  0  0  0  0  0  0  0
   71.0236   44.1323   57.9090 N   0  0  0  0  0  0  0  0  0  0  0  0
   70.2438   41.8013   58.5811 C   0  0  0  0  0  0  0  0  0  0  0  0
   69.0940   41.0724   58.5262 C   0  0  0  0  0  0  0  0  0  0  0  0
   69.1774   39.6754   58.4577 C   0  0  0  0  0  0  0  0  0  0  0  0
   70.3891   39.0210   58.4423 C   0  0  0  0  0  0  0  0  0  0  0  0
   70.5010   37.6750   58.3761 F   0  0  0  0  0  0  0  0  0  0  0  0
   71.5357   39.7864   58.4980 C   0  0  0  0  0  0  0  0  0  0  0  0
   71.4606   41.1794   58.5677 C   0  0  0  0  0  0  0  0  0  0  0  0
   68.8851   48.3089   56.3112 C   0  0  0  0  0  0  0  0  0  0  0  0
   69.2969   48.3901   54.9227 C   0  0  0  0  0  0  0  0  0  0  0  0
   70.1772   49.3317   54.5339 N   0  0  0  0  0  0  0  0  0  0  0  0
   70.5779   49.4788   53.2826 N   0  0  0  0  0  0  0  0  0  0  0  0
   70.1329   48.6900   52.2907 C   0  0  0  0  0  0  0  0  0  0  0  0
   70.5204   48.8351   51.0932 O   0  0  0  0  0  0  0  0  0  0  0  0
   69.2314   47.6974   52.5851 C   0  0  0  0  0  0  0  0  0  0  0  0
   68.7582   46.8576   51.5979 C   0  0  0  0  0  0  0  0  0  0  0  0
   67.8644   45.8630   51.9279 C   0  0  0  0  0  0  0  0  0  0  0  0
   67.4807   45.7513   53.2441 C   0  0  0  0  0  0  0  0  0  0  0  0
   67.9428   46.5823   54.2443 C   0  0  0  0  0  0  0  0  0  0  0  0
   68.8264   47.5629   53.9031 C   0  0  0  0  0  0  0  0  0  0  0  0
  7  8  2  0
  8  9  1  0
  8 10  1  0
  9  1  1  0
  1  2  2  0
  1  6  1  0
  2  3  1  0
  3  4  2  0
  4  5  1  0
  5 17  1  0
  5  6  2  0
 17 18  1  0
 18 19  2  0
 18 28  1  0
 19 20  1  0
 20 21  1  0
 21 22  2  0
 21 23  1  0
 23 24  1  0
 23 28  2  0
 24 25  2  0
 25 26  1  0
 26 27  2  0
 27 28  1  0
 10 11  2  0
 10 16  1  0
 11 12  1  0
 12 13  2  0
 13 14  1  0
 13 15  1  0
 15 16  2  0
M  END
>  <minimizedAffinity>  (69) 
-9.97657

$$$$
cs_full_output_folder/data/smiles/3355.pdb
     RDKit          3D

 29 32  0  0  0  0  0  0  0  0999 V2000
   70.6474   45.7751   58.1808 C   0  0  0  0  0  0  0  0  0  0  0  0
   71.8805   46.1583   58.7178 C   0  0  0  0  0  0  0  0  0  0  0  0
   72.3752   47.4270   58.4670 C   0  0  0  0  0  0  0  0  0  0  0  0
   71.6846   48.3210   57.7007 C   0  0  0  0  0  0  0  0  0  0  0  0
   70.4737   47.9665   57.1636 C   0  0  0  0  0  0  0  0  0  0  0  0
   69.9879   46.7000   57.4197 C   0  0  0  0  0  0  0  0  0  0  0  0
   70.1472   43.3662   57.5304 N   0  0  0  0  0  0  0  0  0  0  0  0
   70.1321   44.4169   58.4653 C   0  0  0  0  0  0  0  0  0  0  0  0
   69.6567   44.1952   59.6029 O   0  0  0  0  0  0  0  0  0  0  0  0
   67.7323   42.6617   56.2149 C   0  0  0  0  0  0  0  0  0  0  0  0
   68.4959   41.6957   57.0456 C   0  0  0  0  0  0  0  0  0  0  0  0
   68.0005   40.4184   57.1673 C   0  0  0  0  0  0  0  0  0  0  0  0
   68.6612   39.4779   57.9199 C   0  0  0  0  0  0  0  0  0  0  0  0
   68.1338   38.2153   58.0163 F   0  0  0  0  0  0  0  0  0  0  0  0
   69.8218   39.7859   58.5624 C   0  0  0  0  0  0  0  0  0  0  0  0
   70.3210   41.0902   58.4331 C   0  0  0  0  0  0  0  0  0  0  0  0
   69.6872   42.0528   57.6912 C   0  0  0  0  0  0  0  0  0  0  0  0
   69.7153   48.9482   56.3091 C   0  0  0  0  0  0  0  0  0  0  0  0
   69.8519   48.7074   54.8736 C   0  0  0  0  0  0  0  0  0  0  0  0
   70.8594   49.3875   54.2444 N   0  0  0  0  0  0  0  0  0  0  0  0
   71.1308   49.3177   52.9793 N   0  0  0  0  0  0  0  0  0  0  0  0
   70.4133   48.5447   52.1762 C   0  0  0  0  0  0  0  0  0  0  0  0
   70.6290   48.4343   50.9314 O   0  0  0  0  0  0  0  0  0  0  0  0
   69.3799   47.8285   52.7454 C   0  0  0  0  0  0  0  0  0  0  0  0
   69.0795   47.8952   54.1013 C   0  0  0  0  0  0  0  0  0  0  0  0
   67.9884   47.1300   54.7189 C   0  0  0  0  0  0  0  0  0  0  0  0
   67.6211   45.8687   53.9883 C   0  0  0  0  0  0  0  0  0  0  0  0
   68.3361   45.6640   52.6972 C   0  0  0  0  0  0  0  0  0  0  0  0
   68.5232   46.9358   51.9119 C   0  0  0  0  0  0  0  0  0  0  0  0
 10 11  1  0
 11 12  2  0
 11 17  1  0
 12 13  1  0
 13 14  1  0
 13 15  2  0
 15 16  1  0
 16 17  2  0
 17  7  1  0
  7  8  1  0
  8  9  2  0
  8  1  1  0
  1  2  2  0
  1  6  1  0
  2  3  1  0
  3  4  2  0
  4  5  1  0
  5 18  1  0
  5  6  2  0
 18 19  1  0
 19 20  2  0
 19 25  1  0
 20 21  1  0
 21 22  1  0
 22 23  2  0
 22 24  1  0
 24 25  2  0
 24 29  1  0
 25 26  1  0
 26 27  1  0
 27 28  1  0
 28 29  1  0
M  END
>  <minimizedAffinity>  (70) 
-9.96460

$$$$
cs_full_output_folder/data/smiles/4366.pdb
     RDKit          3D

 27 29  0  0  0  0  0  0  0  0999 V2000
   70.3137   41.8686   58.7612 C   0  0  0  0  0  0  0  0  0  0  0  0
   69.2888   41.4537   57.7914 C   0  0  0  0  0  0  0  0  0  0  0  0
   68.6563   42.2827   56.9005 C   0  0  0  0  0  0  0  0  0  0  0  0
   67.7925   41.4708   56.2086 C   0  0  0  0  0  0  0  0  0  0  0  0
   67.9070   40.2127   56.6701 N   0  0  0  0  0  0  0  0  0  0  0  0
   68.8191   40.1789   57.6422 N   0  0  0  0  0  0  0  0  0  0  0  0
   69.2489   39.0602   58.3978 C   0  0  0  0  0  0  0  0  0  0  0  0
   68.4828   38.5380   59.4104 C   0  0  0  0  0  0  0  0  0  0  0  0
   68.9101   37.4462   60.1433 C   0  0  0  0  0  0  0  0  0  0  0  0
   70.1369   36.8763   59.8382 C   0  0  0  0  0  0  0  0  0  0  0  0
   70.6347   35.4865   60.8007 Cl  0  0  0  0  0  0  0  0  0  0  0  0
   70.9250   37.3771   58.8309 C   0  0  0  0  0  0  0  0  0  0  0  0
   72.1436   36.7906   58.5470 O   0  0  0  0  0  0  0  0  0  0  0  0
   70.4585   38.4691   58.1258 C   0  0  0  0  0  0  0  0  0  0  0  0
   68.9001   43.7074   56.7719 C   0  0  0  0  0  0  0  0  0  0  0  0
   69.7515   44.2545   57.5136 O   0  0  0  0  0  0  0  0  0  0  0  0
   68.2037   44.5071   55.8286 N   0  0  0  0  0  0  0  0  0  0  0  0
   68.3827   45.9258   55.6375 C   0  0  0  0  0  0  0  0  0  0  0  0
   68.3880   46.2313   54.1843 C   0  0  0  0  0  0  0  0  0  0  0  0
   67.6575   45.5664   53.2491 C   0  0  0  0  0  0  0  0  0  0  0  0
   67.7411   45.9262   51.9068 C   0  0  0  0  0  0  0  0  0  0  0  0
   68.5552   46.9540   51.4913 C   0  0  0  0  0  0  0  0  0  0  0  0
   69.3025   47.6389   52.4287 C   0  0  0  0  0  0  0  0  0  0  0  0
   69.2038   47.2662   53.7437 C   0  0  0  0  0  0  0  0  0  0  0  0
   70.1744   48.7358   52.0051 C   0  0  0  0  0  0  0  0  0  0  0  0
   69.9688   49.3933   50.9731 O   0  0  0  0  0  0  0  0  0  0  0  0
   71.2676   49.0453   52.7911 O   0  0  0  0  0  0  0  0  0  0  0  0
  1  2  1  0
  2  3  2  0
  2  6  1  0
  3 15  1  0
  3  4  1  0
 15 16  2  0
 15 17  1  0
 17 18  1  0
 18 19  1  0
 19 20  2  0
 19 24  1  0
 20 21  1  0
 21 22  2  0
 22 23  1  0
 23 25  1  0
 23 24  2  0
 25 26  2  0
 25 27  1  0
  4  5  2  0
  5  6  1  0
  6  7  1  0
  7  8  2  0
  7 14  1  0
  8  9  1  0
  9 10  2  0
 10 11  1  0
 10 12  1  0
 12 13  1  0
 12 14  2  0
M  END
>  <minimizedAffinity>  (71) 
-9.96332

$$$$
cs_full_output_folder/data/smiles/2382.pdb
     RDKit          3D

 28 31  0  0  0  0  0  0  0  0999 V2000
   71.1485   46.3764   58.0981 C   0  0  0  0  0  0  0  0  0  0  0  0
   71.9360   47.0578   58.9830 C   0  0  0  0  0  0  0  0  0  0  0  0
   71.7842   48.4487   59.0468 C   0  0  0  0  0  0  0  0  0  0  0  0
   70.8913   49.1262   58.2639 C   0  0  0  0  0  0  0  0  0  0  0  0
   70.1123   48.4142   57.3829 C   0  0  0  0  0  0  0  0  0  0  0  0
   70.2703   47.0918   57.3358 N   0  0  0  0  0  0  0  0  0  0  0  0
   69.6055   44.3920   59.4991 O   0  0  0  0  0  0  0  0  0  0  0  0
   70.4130   44.0429   58.6294 C   0  0  0  0  0  0  0  0  0  0  0  0
   71.1856   44.9820   57.9209 N   0  0  0  0  0  0  0  0  0  0  0  0
   70.6207   42.5910   58.2723 C   0  0  0  0  0  0  0  0  0  0  0  0
   69.4651   42.0479   57.5425 C   0  0  0  0  0  0  0  0  0  0  0  0
   68.7389   42.9320   56.7597 C   0  0  0  0  0  0  0  0  0  0  0  0
   67.6381   42.5399   56.0321 C   0  0  0  0  0  0  0  0  0  0  0  0
   67.2387   41.2064   56.0835 C   0  0  0  0  0  0  0  0  0  0  0  0
   67.9582   40.3279   56.8605 C   0  0  0  0  0  0  0  0  0  0  0  0
   69.0548   40.7424   57.5781 C   0  0  0  0  0  0  0  0  0  0  0  0
   69.1079   49.0373   56.4654 C   0  0  0  0  0  0  0  0  0  0  0  0
   69.4689   48.8735   55.0388 C   0  0  0  0  0  0  0  0  0  0  0  0
   70.3958   49.6964   54.4635 N   0  0  0  0  0  0  0  0  0  0  0  0
   70.7561   49.6165   53.2013 N   0  0  0  0  0  0  0  0  0  0  0  0
   70.2325   48.7061   52.3639 C   0  0  0  0  0  0  0  0  0  0  0  0
   70.5998   48.6619   51.1708 O   0  0  0  0  0  0  0  0  0  0  0  0
   69.2781   47.8290   52.8757 C   0  0  0  0  0  0  0  0  0  0  0  0
   68.9181   47.9268   54.1883 C   0  0  0  0  0  0  0  0  0  0  0  0
   67.9150   46.9786   54.7252 C   0  0  0  0  0  0  0  0  0  0  0  0
   67.9924   45.6310   54.0384 C   0  0  0  0  0  0  0  0  0  0  0  0
   67.9093   45.7467   52.5509 C   0  0  0  0  0  0  0  0  0  0  0  0
   68.7077   46.8538   51.9696 C   0  0  0  0  0  0  0  0  0  0  0  0
  7  8  2  0
  8 10  1  0
  8  9  1  0
 10 11  1  0
 11 12  2  0
 11 16  1  0
 12 13  1  0
 13 14  2  0
 14 15  1  0
 15 16  2  0
  9  1  1  0
  1  2  2  0
  1  6  1  0
  2  3  1  0
  3  4  2  0
  4  5  1  0
  5 17  1  0
  5  6  2  0
 17 18  1  0
 18 19  2  0
 18 24  1  0
 19 20  1  0
 20 21  1  0
 21 22  2  0
 21 23  1  0
 23 24  2  0
 23 28  1  0
 24 25  1  0
 25 26  1  0
 26 27  1  0
 27 28  1  0
M  END
>  <minimizedAffinity>  (72) 
-9.95604

$$$$
cs_full_output_folder/data/smiles/6858.pdb
     RDKit          3D

 26 28  0  0  0  0  0  0  0  0999 V2000
   68.2989   44.3960   55.8887 N   0  0  0  0  0  0  0  0  0  0  0  0
   68.9216   43.5941   56.8835 C   0  0  0  0  0  0  0  0  0  0  0  0
   69.7047   44.1327   57.6948 O   0  0  0  0  0  0  0  0  0  0  0  0
   68.6456   42.1551   56.9510 C   0  0  0  0  0  0  0  0  0  0  0  0
   67.7838   41.3728   56.2380 C   0  0  0  0  0  0  0  0  0  0  0  0
   67.8654   40.0907   56.7086 N   0  0  0  0  0  0  0  0  0  0  0  0
   68.7479   40.0223   57.7001 N   0  0  0  0  0  0  0  0  0  0  0  0
   69.2243   41.2790   57.8492 C   0  0  0  0  0  0  0  0  0  0  0  0
   70.1698   41.5956   58.7678 F   0  0  0  0  0  0  0  0  0  0  0  0
   69.1869   38.9106   58.4849 C   0  0  0  0  0  0  0  0  0  0  0  0
   70.4423   38.3714   58.3102 C   0  0  0  0  0  0  0  0  0  0  0  0
   70.9097   37.3318   59.1028 C   0  0  0  0  0  0  0  0  0  0  0  0
   70.1325   36.7872   60.1073 C   0  0  0  0  0  0  0  0  0  0  0  0
   68.8763   37.3345   60.2707 C   0  0  0  0  0  0  0  0  0  0  0  0
   68.3971   38.3767   59.4832 C   0  0  0  0  0  0  0  0  0  0  0  0
   68.4265   45.8065   55.6992 C   0  0  0  0  0  0  0  0  0  0  0  0
   69.2831   47.6418   52.4994 C   0  0  0  0  0  0  0  0  0  0  0  0
   68.5377   46.9445   51.5768 C   0  0  0  0  0  0  0  0  0  0  0  0
   67.7527   45.8752   51.9539 C   0  0  0  0  0  0  0  0  0  0  0  0
   67.7007   45.4772   53.2982 C   0  0  0  0  0  0  0  0  0  0  0  0
   68.4294   46.1521   54.2316 C   0  0  0  0  0  0  0  0  0  0  0  0
   69.2106   47.2301   53.7999 C   0  0  0  0  0  0  0  0  0  0  0  0
   70.1421   48.7860   52.1248 C   0  0  0  0  0  0  0  0  0  0  0  0
   70.4161   48.9377   50.9225 O   0  0  0  0  0  0  0  0  0  0  0  0
   71.7681   49.6556   53.5681 O   0  0  0  0  0  0  0  0  0  0  0  0
   70.6305   49.6749   53.1182 N   0  0  0  0  0  0  0  0  0  0  0  0
 25 26  2  0
 26 23  1  0
 23 24  2  0
 23 17  1  0
 17 18  2  0
 17 22  1  0
 18 19  1  0
 19 20  2  0
 20 21  1  0
 21 16  1  0
 21 22  2  0
 16  1  1  0
  1  2  1  0
  2  3  2  0
  2  4  1  0
  4  5  1  0
  4  8  2  0
  5  6  2  0
  6  7  1  0
  7 10  1  0
  7  8  1  0
 10 11  2  0
 10 15  1  0
 11 12  1  0
 12 13  2  0
 13 14  1  0
 14 15  2  0
  8  9  1  0
M  END
>  <minimizedAffinity>  (73) 
-9.94327

$$$$
cs_full_output_folder/data/smiles/53.pdb
     RDKit          3D

 26 28  0  0  0  0  0  0  0  0999 V2000
   73.7923   52.5869   54.6838 O   0  0  0  0  0  0  0  0  0  0  0  0
   73.1063   51.5384   54.6696 C   0  0  0  0  0  0  0  0  0  0  0  0
   73.8029   50.3107   54.6746 N   0  0  0  0  0  0  0  0  0  0  0  0
   75.1870   50.1848   54.6939 N   0  0  0  0  0  0  0  0  0  0  0  0
   75.9889   50.2581   55.8400 C   0  0  0  0  0  0  0  0  0  0  0  0
   75.3919   50.4532   56.9367 O   0  0  0  0  0  0  0  0  0  0  0  0
   77.4434   50.1252   55.8545 C   0  0  0  0  0  0  0  0  0  0  0  0
   78.2745   51.0462   56.4560 C   0  0  0  0  0  0  0  0  0  0  0  0
   79.6634   50.8750   56.4437 C   0  0  0  0  0  0  0  0  0  0  0  0
   80.2504   49.7871   55.8342 C   0  0  0  0  0  0  0  0  0  0  0  0
   81.6020   49.6280   55.8273 F   0  0  0  0  0  0  0  0  0  0  0  0
   79.4170   48.8677   55.2340 C   0  0  0  0  0  0  0  0  0  0  0  0
   78.0495   49.0444   55.2507 C   0  0  0  0  0  0  0  0  0  0  0  0
   71.6344   51.6654   54.6492 C   0  0  0  0  0  0  0  0  0  0  0  0
   71.0149   50.5035   55.3855 C   0  0  0  0  0  0  0  0  0  0  0  0
   70.4054   49.5421   54.4360 C   0  0  0  0  0  0  0  0  0  0  0  0
   69.5899   48.5477   54.8033 N   0  0  0  0  0  0  0  0  0  0  0  0
   69.0312   47.6697   53.9614 C   0  0  0  0  0  0  0  0  0  0  0  0
   68.1943   46.6564   54.3733 C   0  0  0  0  0  0  0  0  0  0  0  0
   67.6222   45.7560   53.5038 C   0  0  0  0  0  0  0  0  0  0  0  0
   67.8991   45.8744   52.1529 C   0  0  0  0  0  0  0  0  0  0  0  0
   68.7394   46.8913   51.7349 C   0  0  0  0  0  0  0  0  0  0  0  0
   69.3076   47.7888   52.6159 C   0  0  0  0  0  0  0  0  0  0  0  0
   70.1494   48.8077   52.2035 C   0  0  0  0  0  0  0  0  0  0  0  0
   70.3798   48.8884   50.9797 O   0  0  0  0  0  0  0  0  0  0  0  0
   70.6700   49.6483   53.1148 N   0  0  0  0  0  0  0  0  0  0  0  0
  1  2  2  0
  2 14  1  0
  2  3  1  0
 14 15  1  0
 15 16  1  0
 16 17  2  0
 16 26  1  0
 17 18  1  0
 18 19  2  0
 18 23  1  0
 19 20  1  0
 20 21  2  0
 21 22  1  0
 22 23  2  0
 23 24  1  0
 24 25  2  0
 24 26  1  0
  3  4  1  0
  4  5  1  0
  5  6  2  0
  5  7  1  0
  7  8  2  0
  7 13  1  0
  8  9  1  0
  9 10  2  0
 10 11  1  0
 10 12  1  0
 12 13  2  0
M  END
>  <minimizedAffinity>  (74) 
-9.94250

$$$$
cs_full_output_folder/data/smiles/2540.pdb
     RDKit          3D

 29 32  0  0  0  0  0  0  0  0999 V2000
   70.7961   45.5080   57.9473 C   0  0  0  0  0  0  0  0  0  0  0  0
   71.5491   46.1985   58.8436 C   0  0  0  0  0  0  0  0  0  0  0  0
   71.4360   47.5772   58.9248 C   0  0  0  0  0  0  0  0  0  0  0  0
   70.5534   48.2746   58.0895 C   0  0  0  0  0  0  0  0  0  0  0  0
   69.7818   47.5998   57.1730 C   0  0  0  0  0  0  0  0  0  0  0  0
   69.9325   46.2205   57.1344 C   0  0  0  0  0  0  0  0  0  0  0  0
   70.0973   43.1883   58.6237 C   0  0  0  0  0  0  0  0  0  0  0  0
   69.3815   43.7704   59.5029 O   0  0  0  0  0  0  0  0  0  0  0  0
   70.8457   44.0663   57.8029 N   0  0  0  0  0  0  0  0  0  0  0  0
   72.4942   41.6885   59.2065 C   0  0  0  0  0  0  0  0  0  0  0  0
   71.2390   41.0216   58.7948 C   0  0  0  0  0  0  0  0  0  0  0  0
   71.2476   39.6211   58.6959 C   0  0  0  0  0  0  0  0  0  0  0  0
   70.1298   38.9273   58.3181 C   0  0  0  0  0  0  0  0  0  0  0  0
   68.9897   39.6438   58.0360 C   0  0  0  0  0  0  0  0  0  0  0  0
   67.8734   38.9759   57.6603 F   0  0  0  0  0  0  0  0  0  0  0  0
   68.9960   41.0130   58.1383 C   0  0  0  0  0  0  0  0  0  0  0  0
   70.1077   41.7492   58.5165 C   0  0  0  0  0  0  0  0  0  0  0  0
   68.8204   48.2861   56.2682 C   0  0  0  0  0  0  0  0  0  0  0  0
   69.2887   48.3971   54.8960 C   0  0  0  0  0  0  0  0  0  0  0  0
   70.0938   49.3900   54.5236 N   0  0  0  0  0  0  0  0  0  0  0  0
   70.5193   49.5649   53.3076 N   0  0  0  0  0  0  0  0  0  0  0  0
   70.1513   48.7221   52.3394 C   0  0  0  0  0  0  0  0  0  0  0  0
   70.5696   48.9060   51.1718 O   0  0  0  0  0  0  0  0  0  0  0  0
   69.3164   47.6633   52.6476 C   0  0  0  0  0  0  0  0  0  0  0  0
   68.8764   47.4919   53.9377 C   0  0  0  0  0  0  0  0  0  0  0  0
   67.9770   46.3492   54.3141 C   0  0  0  0  0  0  0  0  0  0  0  0
   67.7732   45.4403   53.1500 C   0  0  0  0  0  0  0  0  0  0  0  0
   67.5859   46.1844   51.8475 C   0  0  0  0  0  0  0  0  0  0  0  0
   68.9402   46.7817   51.5143 C   0  0  0  0  0  0  0  0  0  0  0  0
 10 11  1  0
 11 12  2  0
 11 17  1  0
 12 13  1  0
 13 14  2  0
 14 15  1  0
 14 16  1  0
 16 17  2  0
 17  7  1  0
  7  8  2  0
  7  9  1  0
  9  1  1  0
  1  2  2  0
  1  6  1  0
  2  3  1  0
  3  4  2  0
  4  5  1  0
  5 18  1  0
  5  6  2  0
 18 19  1  0
 19 20  2  0
 19 25  1  0
 20 21  1  0
 21 22  1  0
 22 23  2  0
 22 24  1  0
 24 25  2  0
 24 29  1  0
 25 26  1  0
 26 27  1  0
 27 28  1  0
 28 29  1  0
M  END
>  <minimizedAffinity>  (75) 
-9.94249

$$$$
cs_full_output_folder/data/smiles/6497.pdb
     RDKit          3D

 26 28  0  0  0  0  0  0  0  0999 V2000
   70.3762   45.0018   57.7145 C   0  0  0  0  0  0  0  0  0  0  0  0
   69.5927   45.9333   57.0306 C   0  0  0  0  0  0  0  0  0  0  0  0
   69.7998   47.2767   57.0881 C   0  0  0  0  0  0  0  0  0  0  0  0
   70.8319   47.7526   57.8585 C   0  0  0  0  0  0  0  0  0  0  0  0
   71.6360   46.8849   58.5549 C   0  0  0  0  0  0  0  0  0  0  0  0
   71.3934   45.5095   58.4714 C   0  0  0  0  0  0  0  0  0  0  0  0
   72.2076   44.6671   59.1671 F   0  0  0  0  0  0  0  0  0  0  0  0
   68.7822   43.0032   57.7099 N   0  0  0  0  0  0  0  0  0  0  0  0
   70.0572   43.6020   57.5832 C   0  0  0  0  0  0  0  0  0  0  0  0
   70.9986   42.7790   57.3225 O   0  0  0  0  0  0  0  0  0  0  0  0
   68.5822   41.5694   57.5560 C   0  0  0  0  0  0  0  0  0  0  0  0
   66.8518   42.2378   55.7874 C   0  0  0  0  0  0  0  0  0  0  0  0
   67.7645   41.2384   56.3854 C   0  0  0  0  0  0  0  0  0  0  0  0
   67.8361   40.0790   55.8708 N   0  0  0  0  0  0  0  0  0  0  0  0
   68.9748   48.2512   56.3503 C   0  0  0  0  0  0  0  0  0  0  0  0
   69.3218   48.3452   54.9188 C   0  0  0  0  0  0  0  0  0  0  0  0
   70.2297   49.2914   54.5226 N   0  0  0  0  0  0  0  0  0  0  0  0
   70.6356   49.4281   53.2810 N   0  0  0  0  0  0  0  0  0  0  0  0
   70.1795   48.6362   52.3049 C   0  0  0  0  0  0  0  0  0  0  0  0
   70.5687   48.7593   51.0991 O   0  0  0  0  0  0  0  0  0  0  0  0
   69.2632   47.6547   52.6031 C   0  0  0  0  0  0  0  0  0  0  0  0
   68.7920   46.8540   51.5889 C   0  0  0  0  0  0  0  0  0  0  0  0
   67.8652   45.8901   51.9153 C   0  0  0  0  0  0  0  0  0  0  0  0
   67.4373   45.7521   53.2287 C   0  0  0  0  0  0  0  0  0  0  0  0
   67.9325   46.5743   54.2248 C   0  0  0  0  0  0  0  0  0  0  0  0
   68.8479   47.5304   53.9286 C   0  0  0  0  0  0  0  0  0  0  0  0
 12 13  1  0
 13 14  2  0
 13 11  1  0
 11  8  1  0
  8  9  1  0
  9 10  2  0
  9  1  1  0
  1  2  2  0
  1  6  1  0
  2  3  1  0
  3 15  1  0
  3  4  2  0
 15 16  1  0
 16 17  2  0
 16 26  1  0
 17 18  1  0
 18 19  1  0
 19 20  2  0
 19 21  1  0
 21 22  1  0
 21 26  2  0
 22 23  2  0
 23 24  1  0
 24 25  2  0
 25 26  1  0
  4  5  1  0
  5  6  2  0
  6  7  1  0
M  END
>  <minimizedAffinity>  (76) 
-9.93426

$$$$
cs_full_output_folder/data/smiles/4114.pdb
     RDKit          3D

 29 32  0  0  0  0  0  0  0  0999 V2000
   70.9218   46.3252   58.0605 C   0  0  0  0  0  0  0  0  0  0  0  0
   69.9184   46.9664   57.3021 C   0  0  0  0  0  0  0  0  0  0  0  0
   69.9462   48.2667   56.9405 C   0  0  0  0  0  0  0  0  0  0  0  0
   71.0535   49.0172   57.3572 C   0  0  0  0  0  0  0  0  0  0  0  0
   72.0620   48.4573   58.0964 C   0  0  0  0  0  0  0  0  0  0  0  0
   71.9812   47.1089   58.4406 C   0  0  0  0  0  0  0  0  0  0  0  0
   72.9931   46.5911   59.1705 F   0  0  0  0  0  0  0  0  0  0  0  0
   71.6683   44.1175   57.9191 O   0  0  0  0  0  0  0  0  0  0  0  0
   70.7733   44.9111   58.3714 C   0  0  0  0  0  0  0  0  0  0  0  0
   69.7444   44.3173   59.1202 N   0  0  0  0  0  0  0  0  0  0  0  0
   69.6566   42.8892   59.3946 C   0  0  0  0  0  0  0  0  0  0  0  0
   68.9701   42.1462   58.3290 C   0  0  0  0  0  0  0  0  0  0  0  0
   68.3764   42.8589   57.3385 N   0  0  0  0  0  0  0  0  0  0  0  0
   67.7229   42.2668   56.3157 C   0  0  0  0  0  0  0  0  0  0  0  0
   67.6311   40.8959   56.2357 C   0  0  0  0  0  0  0  0  0  0  0  0
   68.2477   40.1662   57.2638 C   0  0  0  0  0  0  0  0  0  0  0  0
   68.8778   40.8279   58.2453 N   0  0  0  0  0  0  0  0  0  0  0  0
   68.9561   49.0168   56.1381 C   0  0  0  0  0  0  0  0  0  0  0  0
   69.3179   48.8465   54.7054 C   0  0  0  0  0  0  0  0  0  0  0  0
   70.2009   49.7073   54.1382 N   0  0  0  0  0  0  0  0  0  0  0  0
   70.6419   49.5989   52.8996 N   0  0  0  0  0  0  0  0  0  0  0  0
   70.2195   48.5955   52.1222 C   0  0  0  0  0  0  0  0  0  0  0  0
   70.6457   48.4987   50.9418 O   0  0  0  0  0  0  0  0  0  0  0  0
   69.3095   47.6720   52.6383 C   0  0  0  0  0  0  0  0  0  0  0  0
   68.8714   46.6608   51.8264 C   0  0  0  0  0  0  0  0  0  0  0  0
   67.9602   45.7577   52.3142 C   0  0  0  0  0  0  0  0  0  0  0  0
   67.5134   45.8919   53.6050 C   0  0  0  0  0  0  0  0  0  0  0  0
   67.9367   46.9040   54.4570 C   0  0  0  0  0  0  0  0  0  0  0  0
   68.8536   47.8055   53.9567 C   0  0  0  0  0  0  0  0  0  0  0  0
  8  9  2  0
  9 10  1  0
  9  1  1  0
 10 11  1  0
 11 12  1  0
 12 13  2  0
 12 17  1  0
 13 14  1  0
 14 15  2  0
 15 16  1  0
 16 17  2  0
  1  2  2  0
  1  6  1  0
  2  3  1  0
  3 18  1  0
  3  4  2  0
 18 19  1  0
 19 20  2  0
 19 29  1  0
 20 21  1  0
 21 22  1  0
 22 23  2  0
 22 24  1  0
 24 25  1  0
 24 29  2  0
 25 26  2  0
 26 27  1  0
 27 28  2  0
 28 29  1  0
  4  5  1  0
  5  6  2  0
  6  7  1  0
M  END
>  <minimizedAffinity>  (77) 
-9.89900

$$$$
cs_full_output_folder/data/smiles/959.pdb
     RDKit          3D

 26 28  0  0  0  0  0  0  0  0999 V2000
   69.9881   39.4767   58.7751 C   0  0  0  0  0  0  0  0  0  0  0  0
   70.5699   40.7665   58.7603 C   0  0  0  0  0  0  0  0  0  0  0  0
   70.0374   41.7828   58.0130 C   0  0  0  0  0  0  0  0  0  0  0  0
   68.9164   41.6340   57.2332 C   0  0  0  0  0  0  0  0  0  0  0  0
   68.3272   40.3964   57.2238 C   0  0  0  0  0  0  0  0  0  0  0  0
   68.8716   39.3537   57.9880 C   0  0  0  0  0  0  0  0  0  0  0  0
   67.1984   40.4695   56.3615 N   0  0  0  0  0  0  0  0  0  0  0  0
   67.0802   41.7803   55.8207 C   0  0  0  0  0  0  0  0  0  0  0  0
   66.2177   42.2330   55.0239 O   0  0  0  0  0  0  0  0  0  0  0  0
   68.1771   42.5488   56.3688 C   0  0  0  0  0  0  0  0  0  0  0  0
   68.4126   43.7879   56.1146 N   0  0  0  0  0  0  0  0  0  0  0  0
   71.4382   37.5470   59.2416 C   0  0  0  0  0  0  0  0  0  0  0  0
   70.6157   38.4517   59.5535 C   0  0  0  0  0  0  0  0  0  0  0  0
   72.2598   35.5341   58.0763 C   0  0  0  0  0  0  0  0  0  0  0  0
   72.1412   37.0734   58.0544 C   0  0  0  0  0  0  0  0  0  0  0  0
   67.6074   44.5415   55.2566 N   0  0  0  0  0  0  0  0  0  0  0  0
   68.1886   45.6941   54.6668 C   0  0  0  0  0  0  0  0  0  0  0  0
   68.7533   46.6953   55.4293 C   0  0  0  0  0  0  0  0  0  0  0  0
   69.3223   47.8249   54.8500 C   0  0  0  0  0  0  0  0  0  0  0  0
   69.3294   47.9627   53.4693 C   0  0  0  0  0  0  0  0  0  0  0  0
   68.7705   46.9749   52.7007 C   0  0  0  0  0  0  0  0  0  0  0  0
   68.2177   45.8746   53.3006 C   0  0  0  0  0  0  0  0  0  0  0  0
   70.0486   49.3919   52.7321 S   0  0  0  0  0  0  0  0  0  0  0  0
   69.2312   50.8044   53.2958 N   0  0  0  0  0  0  0  0  0  0  0  0
   71.4911   49.4359   53.1682 O   0  0  0  0  0  0  0  0  0  0  0  0
   69.9561   49.2611   51.2393 O   0  0  0  0  0  0  0  0  0  0  0  0
 14 15  1  0
 15 12  1  0
 12 13  2  0
 13  1  1  0
  1  2  2  0
  1  6  1  0
  2  3  1  0
  3  4  2  0
  4  5  1  0
  4 10  1  0
  5  6  2  0
  5  7  1  0
  7  8  1  0
  8  9  2  0
  8 10  1  0
 10 11  2  0
 11 16  1  0
 16 17  1  0
 17 18  2  0
 17 22  1  0
 18 19  1  0
 19 20  2  0
 20 23  1  0
 20 21  1  0
 23 24  1  0
 23 25  2  0
 23 26  2  0
 21 22  2  0
M  END
>  <minimizedAffinity>  (78) 
-9.89845

$$$$
cs_full_output_folder/data/smiles/2083.pdb
     RDKit          3D

 26 27  0  0  0  0  0  0  0  0999 V2000
   69.9296   49.2575   52.5870 S   0  0  0  0  0  0  0  0  0  0  0  0
   71.3703   49.2232   53.0543 O   0  0  0  0  0  0  0  0  0  0  0  0
   69.9305   49.2393   51.0539 O   0  0  0  0  0  0  0  0  0  0  0  0
   69.1880   47.8045   53.1774 C   0  0  0  0  0  0  0  0  0  0  0  0
   68.5475   46.8982   52.3475 C   0  0  0  0  0  0  0  0  0  0  0  0
   68.4951   47.1500   51.0197 F   0  0  0  0  0  0  0  0  0  0  0  0
   67.9964   45.7827   52.9166 C   0  0  0  0  0  0  0  0  0  0  0  0
   67.3627   44.8815   52.1047 F   0  0  0  0  0  0  0  0  0  0  0  0
   68.0736   45.5656   54.2721 C   0  0  0  0  0  0  0  0  0  0  0  0
   67.5236   44.4532   54.8396 F   0  0  0  0  0  0  0  0  0  0  0  0
   68.7082   46.4648   55.0974 C   0  0  0  0  0  0  0  0  0  0  0  0
   68.7836   46.2491   56.4407 F   0  0  0  0  0  0  0  0  0  0  0  0
   69.2692   47.5888   54.5574 C   0  0  0  0  0  0  0  0  0  0  0  0
   69.9004   48.4844   55.3731 F   0  0  0  0  0  0  0  0  0  0  0  0
   69.1161   50.6353   53.1722 N   0  0  0  0  0  0  0  0  0  0  0  0
   71.5384   52.6610   55.2076 C   0  0  0  0  0  0  0  0  0  0  0  0
   70.5933   53.2036   56.0443 C   0  0  0  0  0  0  0  0  0  0  0  0
   69.2285   52.9408   55.9582 C   0  0  0  0  0  0  0  0  0  0  0  0
   68.7771   52.0990   54.9941 C   0  0  0  0  0  0  0  0  0  0  0  0
   69.6879   51.5118   54.1094 C   0  0  0  0  0  0  0  0  0  0  0  0
   71.0113   51.7922   54.2243 C   0  0  0  0  0  0  0  0  0  0  0  0
   73.3677   54.2938   55.4526 C   0  0  0  0  0  0  0  0  0  0  0  0
   72.9245   52.8902   55.2551 N   0  0  0  0  0  0  0  0  0  0  0  0
   73.9267   51.9546   55.1395 C   0  0  0  0  0  0  0  0  0  0  0  0
   73.7069   50.5811   54.9400 N   0  0  0  0  0  0  0  0  0  0  0  0
   75.1622   52.3615   55.2199 O   0  0  0  0  0  0  0  0  0  0  0  0
 22 23  1  0
 23 24  1  0
 23 16  1  0
 24 25  1  0
 24 26  2  0
 16 17  2  0
 16 21  1  0
 17 18  1  0
 18 19  2  0
 19 20  1  0
 20 15  1  0
 20 21  2  0
 15  1  1  0
  1  2  2  0
  1  3  2  0
  1  4  1  0
  4  5  2  0
  4 13  1  0
  5  6  1  0
  5  7  1  0
  7  8  1  0
  7  9  2  0
  9 10  1  0
  9 11  1  0
 11 12  1  0
 11 13  2  0
 13 14  1  0
M  END
>  <minimizedAffinity>  (79) 
-9.89820

$$$$
cs_full_output_folder/data/smiles/9026.pdb
     RDKit          3D

 27 31  0  0  0  0  0  0  0  0999 V2000
   70.7943   45.8463   58.0614 C   0  0  0  0  0  0  0  0  0  0  0  0
   71.2340   47.0410   58.6110 C   0  0  0  0  0  0  0  0  0  0  0  0
   71.4931   48.3482   58.9851 C   0  0  0  0  0  0  0  0  0  0  0  0
   70.5250   48.1401   57.9750 C   0  0  0  0  0  0  0  0  0  0  0  0
   69.6852   47.5837   57.0674 C   0  0  0  0  0  0  0  0  0  0  0  0
   69.8655   46.1967   57.1363 C   0  0  0  0  0  0  0  0  0  0  0  0
   69.1606   45.3431   56.3333 F   0  0  0  0  0  0  0  0  0  0  0  0
   73.5839   45.0051   58.1464 N   0  0  0  0  0  0  0  0  0  0  0  0
   72.6263   44.1660   58.1622 C   0  0  0  0  0  0  0  0  0  0  0  0
   72.9350   42.7189   57.8601 C   0  0  0  0  0  0  0  0  0  0  0  0
   71.6534   41.9606   57.7617 C   0  0  0  0  0  0  0  0  0  0  0  0
   70.8360   42.1626   59.0003 C   0  0  0  0  0  0  0  0  0  0  0  0
   70.5106   43.6045   59.1678 C   0  0  0  0  0  0  0  0  0  0  0  0
   69.5855   43.9477   59.9023 O   0  0  0  0  0  0  0  0  0  0  0  0
   71.2969   44.5751   58.4573 N   0  0  0  0  0  0  0  0  0  0  0  0
   68.7275   48.2969   56.1497 C   0  0  0  0  0  0  0  0  0  0  0  0
   69.2522   48.4585   54.7972 C   0  0  0  0  0  0  0  0  0  0  0  0
   70.1530   49.3740   54.4218 N   0  0  0  0  0  0  0  0  0  0  0  0
   70.6182   49.5087   53.1907 N   0  0  0  0  0  0  0  0  0  0  0  0
   70.1870   48.6914   52.2133 C   0  0  0  0  0  0  0  0  0  0  0  0
   70.5819   48.7590   51.0273 O   0  0  0  0  0  0  0  0  0  0  0  0
   69.2441   47.6976   52.5028 C   0  0  0  0  0  0  0  0  0  0  0  0
   68.7927   46.8484   51.4955 C   0  0  0  0  0  0  0  0  0  0  0  0
   67.8626   45.8830   51.8207 C   0  0  0  0  0  0  0  0  0  0  0  0
   67.3974   45.7687   53.1145 C   0  0  0  0  0  0  0  0  0  0  0  0
   67.8544   46.6165   54.0975 C   0  0  0  0  0  0  0  0  0  0  0  0
   68.7882   47.5964   53.7998 C   0  0  0  0  0  0  0  0  0  0  0  0
  8  9  2  0
  9 10  1  0
  9 15  1  0
 10 11  1  0
 11 12  1  0
 12 13  1  0
 13 14  2  0
 13 15  1  0
 15  1  1  0
  1  2  1  0
  1  6  2  0
  2  3  2  0
  2  4  1  0
  3  4  1  0
  4  5  2  0
  5 16  1  0
  5  6  1  0
 16 17  1  0
 17 18  2  0
 17 27  1  0
 18 19  1  0
 19 20  1  0
 20 21  2  0
 20 22  1  0
 22 23  1  0
 22 27  2  0
 23 24  2  0
 24 25  1  0
 25 26  2  0
 26 27  1  0
  6  7  1  0
M  CHG  1   8   1
M  END
>  <minimizedAffinity>  (80) 
-9.89572

$$$$
cs_full_output_folder/data/smiles/1944.pdb
     RDKit          3D

 29 32  0  0  0  0  0  0  0  0999 V2000
   70.8241   45.6567   57.8547 C   0  0  0  0  0  0  0  0  0  0  0  0
   71.5729   46.3814   58.7581 C   0  0  0  0  0  0  0  0  0  0  0  0
   71.4124   47.7657   58.8713 C   0  0  0  0  0  0  0  0  0  0  0  0
   70.5014   48.4176   58.0782 C   0  0  0  0  0  0  0  0  0  0  0  0
   69.7291   47.7017   57.1516 C   0  0  0  0  0  0  0  0  0  0  0  0
   69.9346   46.3480   57.0887 C   0  0  0  0  0  0  0  0  0  0  0  0
   70.3224   43.3130   58.5455 C   0  0  0  0  0  0  0  0  0  0  0  0
   69.4925   43.8953   59.3430 O   0  0  0  0  0  0  0  0  0  0  0  0
   71.0167   44.2431   57.7686 N   0  0  0  0  0  0  0  0  0  0  0  0
   71.0821   37.5773   58.6195 C   0  0  0  0  0  0  0  0  0  0  0  0
   70.8691   39.0587   58.5968 C   0  0  0  0  0  0  0  0  0  0  0  0
   71.8973   39.9515   58.7884 C   0  0  0  0  0  0  0  0  0  0  0  0
   71.6961   41.3177   58.7665 C   0  0  0  0  0  0  0  0  0  0  0  0
   70.4309   41.8750   58.5468 C   0  0  0  0  0  0  0  0  0  0  0  0
   69.4278   40.9660   58.3596 C   0  0  0  0  0  0  0  0  0  0  0  0
   68.1510   41.4310   58.1378 O   0  0  0  0  0  0  0  0  0  0  0  0
   69.6163   39.5835   58.3790 C   0  0  0  0  0  0  0  0  0  0  0  0
   68.7602   48.4366   56.2783 C   0  0  0  0  0  0  0  0  0  0  0  0
   69.1879   48.4076   54.8825 C   0  0  0  0  0  0  0  0  0  0  0  0
   70.0886   49.3650   54.5063 N   0  0  0  0  0  0  0  0  0  0  0  0
   70.5514   49.5228   53.3050 N   0  0  0  0  0  0  0  0  0  0  0  0
   70.1481   48.7118   52.3139 C   0  0  0  0  0  0  0  0  0  0  0  0
   70.5799   48.8475   51.1490 O   0  0  0  0  0  0  0  0  0  0  0  0
   69.2410   47.7199   52.6085 C   0  0  0  0  0  0  0  0  0  0  0  0
   68.7950   46.8411   51.6306 C   0  0  0  0  0  0  0  0  0  0  0  0
   67.9060   45.8468   51.9135 C   0  0  0  0  0  0  0  0  0  0  0  0
   67.4416   45.7177   53.2175 C   0  0  0  0  0  0  0  0  0  0  0  0
   67.8566   46.5641   54.2171 C   0  0  0  0  0  0  0  0  0  0  0  0
   68.7506   47.5561   53.9003 C   0  0  0  0  0  0  0  0  0  0  0  0
 10 11  1  0
 11 12  2  0
 11 17  1  0
 12 13  1  0
 13 14  2  0
 14  7  1  0
 14 15  1  0
  7  8  2  0
  7  9  1  0
  9  1  1  0
  1  2  2  0
  1  6  1  0
  2  3  1  0
  3  4  2  0
  4  5  1  0
  5 18  1  0
  5  6  2  0
 18 19  1  0
 19 20  2  0
 19 29  1  0
 20 21  1  0
 21 22  1  0
 22 23  2  0
 22 24  1  0
 24 25  1  0
 24 29  2  0
 25 26  2  0
 26 27  1  0
 27 28  2  0
 28 29  1  0
 15 16  1  0
 15 17  2  0
M  END
>  <minimizedAffinity>  (81) 
-9.89321

$$$$
cs_full_output_folder/data/smiles/4866.pdb
     RDKit          3D

 26 27  0  0  0  0  0  0  0  0999 V2000
   69.5006   42.3041   57.9749 C   0  0  0  0  0  0  0  0  0  0  0  0
   68.2626   42.4702   58.2281 O   0  0  0  0  0  0  0  0  0  0  0  0
   70.1739   43.4269   57.4449 N   0  0  0  0  0  0  0  0  0  0  0  0
   71.3209   38.5189   58.7340 C   0  0  0  0  0  0  0  0  0  0  0  0
   69.9603   38.6126   58.5356 C   0  0  0  0  0  0  0  0  0  0  0  0
   69.3763   39.8509   58.2888 C   0  0  0  0  0  0  0  0  0  0  0  0
   70.1169   41.0123   58.2329 C   0  0  0  0  0  0  0  0  0  0  0  0
   71.4668   40.8784   58.4347 C   0  0  0  0  0  0  0  0  0  0  0  0
   72.0707   39.6518   58.6830 C   0  0  0  0  0  0  0  0  0  0  0  0
   71.9104   37.1672   58.9832 C   0  0  2  0  0  0  0  0  0  0  0  0
   73.1126   37.2902   59.9113 C   0  0  0  0  0  0  0  0  0  0  0  0
   72.7668   36.0302   56.7008 C   0  0  0  0  0  0  0  0  0  0  0  0
   72.3676   36.5526   57.7477 C   0  0  0  0  0  0  0  0  0  0  0  0
   69.6581   44.6882   57.1624 C   0  0  0  0  0  0  0  0  0  0  0  0
   70.3552   46.0250   57.7855 S   0  0  0  0  0  0  0  0  0  0  0  0
   68.5403   44.8522   56.3186 N   0  0  0  0  0  0  0  0  0  0  0  0
   68.1638   46.0704   55.7591 N   0  0  0  0  0  0  0  0  0  0  0  0
   68.3515   46.3828   54.3921 C   0  0  0  0  0  0  0  0  0  0  0  0
   67.6948   45.6668   53.4129 C   0  0  0  0  0  0  0  0  0  0  0  0
   67.8591   45.9437   52.0568 C   0  0  0  0  0  0  0  0  0  0  0  0
   68.6931   46.9554   51.6663 C   0  0  0  0  0  0  0  0  0  0  0  0
   69.3558   47.6785   52.6364 C   0  0  0  0  0  0  0  0  0  0  0  0
   69.1895   47.3976   53.9900 C   0  0  0  0  0  0  0  0  0  0  0  0
   70.2217   48.7236   52.2079 N   0  0  0  0  0  0  0  0  0  0  0  0
   71.2101   49.0180   52.9361 O   0  0  0  0  0  0  0  0  0  0  0  0
   69.9952   49.3965   51.0381 O   0  0  0  0  0  0  0  0  0  0  0  0
 12 13  3  0
 13 10  1  0
 10 11  1  1
 10  4  1  0
  4  5  2  0
  4  9  1  0
  5  6  1  0
  6  7  2  0
  7  1  1  0
  7  8  1  0
  1  2  2  0
  1  3  1  0
  3 14  1  0
 14 15  2  0
 14 16  1  0
 16 17  1  0
 17 18  1  0
 18 19  2  0
 18 23  1  0
 19 20  1  0
 20 21  2  0
 21 22  1  0
 22 24  1  0
 22 23  2  0
 24 25  2  0
 24 26  1  0
  8  9  2  0
M  CHG  2  24   1  26  -1
M  END
>  <minimizedAffinity>  (82) 
-9.89026

$$$$
cs_full_output_folder/data/smiles/1438.pdb
     RDKit          3D

 26 27  0  0  0  0  0  0  0  0999 V2000
   67.7497   41.2752   55.8154 O   0  0  0  0  0  0  0  0  0  0  0  0
   67.7572   42.0478   56.7757 C   0  0  0  0  0  0  0  0  0  0  0  0
   67.8955   43.4167   56.6313 N   0  0  0  0  0  0  0  0  0  0  0  0
   68.0403   44.1337   55.4811 N   0  0  0  0  0  0  0  0  0  0  0  0
   68.2344   45.4993   55.2503 C   0  0  0  0  0  0  0  0  0  0  0  0
   68.2993   46.2698   56.2197 O   0  0  0  0  0  0  0  0  0  0  0  0
   68.3713   46.0907   53.8917 C   0  0  0  0  0  0  0  0  0  0  0  0
   67.6044   45.5609   52.8689 C   0  0  0  0  0  0  0  0  0  0  0  0
   67.6904   46.0681   51.5932 C   0  0  0  0  0  0  0  0  0  0  0  0
   68.5340   47.1103   51.2847 C   0  0  0  0  0  0  0  0  0  0  0  0
   69.2999   47.6404   52.3024 C   0  0  0  0  0  0  0  0  0  0  0  0
   69.1997   47.1142   53.5889 C   0  0  0  0  0  0  0  0  0  0  0  0
   70.1827   48.7187   52.0188 N   0  0  0  0  0  0  0  0  0  0  0  0
   69.9761   49.4054   51.0073 O   0  0  0  0  0  0  0  0  0  0  0  0
   71.2516   49.0327   52.8141 O   0  0  0  0  0  0  0  0  0  0  0  0
   67.6071   41.4581   58.1636 C   0  0  0  0  0  0  0  0  0  0  0  0
   68.5659   40.3551   58.3710 C   0  0  0  0  0  0  0  0  0  0  0  0
   69.9227   40.5689   58.2568 C   0  0  0  0  0  0  0  0  0  0  0  0
   70.7647   39.4994   58.4621 C   0  0  0  0  0  0  0  0  0  0  0  0
   70.3426   38.2241   58.7738 C   0  0  0  0  0  0  0  0  0  0  0  0
   68.9685   38.0473   58.8801 C   0  0  0  0  0  0  0  0  0  0  0  0
   68.1066   39.0949   58.6817 C   0  0  0  0  0  0  0  0  0  0  0  0
   71.2806   37.0881   58.9887 C   0  0  0  0  0  0  0  0  0  0  0  0
   72.2033   37.5148   59.9424 F   0  0  0  0  0  0  0  0  0  0  0  0
   70.6369   35.9727   59.4558 F   0  0  0  0  0  0  0  0  0  0  0  0
   72.0136   36.8165   57.8465 F   0  0  0  0  0  0  0  0  0  0  0  0
  1  2  2  0
  2 16  1  0
  2  3  1  0
 16 17  1  0
 17 18  2  0
 17 22  1  0
 18 19  1  0
 19 20  2  0
 20 23  1  0
 20 21  1  0
 23 24  1  0
 23 25  1  0
 23 26  1  0
 21 22  2  0
  3  4  1  0
  4  5  1  0
  5  6  2  0
  5  7  1  0
  7  8  2  0
  7 12  1  0
  8  9  1  0
  9 10  2  0
 10 11  1  0
 11 13  1  0
 11 12  2  0
 13 14  2  0
 13 15  1  0
M  CHG  2  13   1  15  -1
M  END
>  <minimizedAffinity>  (83) 
-9.88517

$$$$
cs_full_output_folder/data/smiles/163.pdb
     RDKit          3D

 27 28  0  0  0  0  0  0  0  0999 V2000
   68.7672   42.5175   57.2786 C   0  0  0  0  0  0  0  0  0  0  0  0
   69.7345   42.3618   56.5021 O   0  0  0  0  0  0  0  0  0  0  0  0
   67.7751   43.3998   56.6950 N   0  0  0  0  0  0  0  0  0  0  0  0
   67.9271   43.9709   55.4309 N   0  0  0  0  0  0  0  0  0  0  0  0
   68.1343   45.3500   55.2129 C   0  0  0  0  0  0  0  0  0  0  0  0
   68.1822   46.0889   56.2208 O   0  0  0  0  0  0  0  0  0  0  0  0
   68.2930   45.9444   53.8898 C   0  0  0  0  0  0  0  0  0  0  0  0
   67.5904   45.4455   52.8106 C   0  0  0  0  0  0  0  0  0  0  0  0
   67.7093   45.9767   51.5409 C   0  0  0  0  0  0  0  0  0  0  0  0
   68.5550   47.0461   51.3149 C   0  0  0  0  0  0  0  0  0  0  0  0
   69.2753   47.5729   52.3740 C   0  0  0  0  0  0  0  0  0  0  0  0
   69.1259   47.0096   53.6303 C   0  0  0  0  0  0  0  0  0  0  0  0
   70.1466   48.6755   52.1417 N   0  0  0  0  0  0  0  0  0  0  0  0
   69.9121   49.4726   51.2136 O   0  0  0  0  0  0  0  0  0  0  0  0
   71.2348   48.8775   52.9169 O   0  0  0  0  0  0  0  0  0  0  0  0
   68.9453   40.9502   59.2203 C   0  0  0  0  0  0  0  0  0  0  0  0
   68.5371   41.9754   58.5747 C   0  0  0  0  0  0  0  0  0  0  0  0
   71.4236   37.5168   58.7678 C   0  0  0  0  0  0  0  0  0  0  0  0
   70.1951   37.4318   59.3637 C   0  0  0  0  0  0  0  0  0  0  0  0
   69.4324   38.5550   59.4738 C   0  0  0  0  0  0  0  0  0  0  0  0
   69.8247   39.8336   59.0070 C   0  0  0  0  0  0  0  0  0  0  0  0
   71.0631   39.8731   58.4182 C   0  0  0  0  0  0  0  0  0  0  0  0
   71.8334   38.7452   58.3047 C   0  0  0  0  0  0  0  0  0  0  0  0
   72.7325   36.1849   57.1755 C   0  0  0  0  0  0  0  0  0  0  0  0
   72.3006   36.3173   58.6213 C   0  0  0  0  0  0  0  0  0  0  0  0
   71.5667   35.0516   59.0105 C   0  0  0  0  0  0  0  0  0  0  0  0
   73.5361   36.5001   59.4785 C   0  0  0  0  0  0  0  0  0  0  0  0
 24 25  1  0
 25 26  1  0
 25 27  1  0
 25 18  1  0
 18 19  2  0
 18 23  1  0
 19 20  1  0
 20 21  2  0
 21 16  1  0
 21 22  1  0
 16 17  2  0
 17  1  1  0
  1  2  2  0
  1  3  1  0
  3  4  1  0
  4  5  1  0
  5  6  2  0
  5  7  1  0
  7  8  2  0
  7 12  1  0
  8  9  1  0
  9 10  2  0
 10 11  1  0
 11 13  1  0
 11 12  2  0
 13 14  2  0
 13 15  1  0
 22 23  2  0
M  CHG  2  13   1  15  -1
M  END
>  <minimizedAffinity>  (84) 
-9.87736

$$$$
cs_full_output_folder/data/smiles/2987.pdb
     RDKit          3D

 26 28  0  0  0  0  0  0  0  0999 V2000
   70.3712   41.8319   58.6664 C   0  0  0  0  0  0  0  0  0  0  0  0
   69.3213   41.3536   57.7563 C   0  0  0  0  0  0  0  0  0  0  0  0
   68.6111   42.1354   56.8444 C   0  0  0  0  0  0  0  0  0  0  0  0
   67.7582   41.2597   56.2222 C   0  0  0  0  0  0  0  0  0  0  0  0
   67.9371   40.0118   56.7279 N   0  0  0  0  0  0  0  0  0  0  0  0
   68.8617   40.0712   57.6345 N   0  0  0  0  0  0  0  0  0  0  0  0
   69.3354   38.9649   58.4120 C   0  0  0  0  0  0  0  0  0  0  0  0
   68.5764   38.4613   59.4421 C   0  0  0  0  0  0  0  0  0  0  0  0
   69.0639   37.3908   60.1572 C   0  0  0  0  0  0  0  0  0  0  0  0
   70.2812   36.8282   59.8585 C   0  0  0  0  0  0  0  0  0  0  0  0
   70.9101   35.4580   60.7681 Cl  0  0  0  0  0  0  0  0  0  0  0  0
   71.0128   37.3638   58.8165 C   0  0  0  0  0  0  0  0  0  0  0  0
   70.5198   38.3948   58.1437 N   0  0  0  0  0  0  0  0  0  0  0  0
   68.8122   43.5685   56.6867 C   0  0  0  0  0  0  0  0  0  0  0  0
   69.6625   44.1791   57.4216 O   0  0  0  0  0  0  0  0  0  0  0  0
   68.1127   44.3688   55.7477 N   0  0  0  0  0  0  0  0  0  0  0  0
   68.2877   45.7916   55.5727 C   0  0  0  0  0  0  0  0  0  0  0  0
   68.4302   46.2358   54.1868 C   0  0  0  0  0  0  0  0  0  0  0  0
   67.6930   45.5746   53.1983 C   0  0  0  0  0  0  0  0  0  0  0  0
   67.7559   45.9324   51.8744 C   0  0  0  0  0  0  0  0  0  0  0  0
   68.5695   46.9731   51.5179 C   0  0  0  0  0  0  0  0  0  0  0  0
   69.3098   47.6494   52.4525 C   0  0  0  0  0  0  0  0  0  0  0  0
   69.2233   47.2665   53.7696 C   0  0  0  0  0  0  0  0  0  0  0  0
   70.1896   48.7712   52.0982 C   0  0  0  0  0  0  0  0  0  0  0  0
   71.2405   49.1909   52.9420 N   0  0  0  0  0  0  0  0  0  0  0  0
   69.9622   49.3434   51.0005 O   0  0  0  0  0  0  0  0  0  0  0  0
  1  2  1  0
  2  3  2  0
  2  6  1  0
  3 14  1  0
  3  4  1  0
 14 15  2  0
 14 16  1  0
 16 17  1  0
 17 18  1  0
 18 19  2  0
 18 23  1  0
 19 20  1  0
 20 21  2  0
 21 22  1  0
 22 24  1  0
 22 23  2  0
 24 25  1  0
 24 26  2  0
  4  5  2  0
  5  6  1  0
  6  7  1  0
  7  8  2  0
  7 13  1  0
  8  9  1  0
  9 10  2  0
 10 11  1  0
 10 12  1  0
 12 13  2  0
M  END
>  <minimizedAffinity>  (85) 
-9.87244

$$$$
cs_full_output_folder/data/smiles/5310.pdb
     RDKit          3D

 29 32  0  0  0  0  0  0  0  0999 V2000
   70.4132   45.9204   58.1315 C   0  0  0  0  0  0  0  0  0  0  0  0
   71.5531   46.2575   58.8273 C   0  0  0  0  0  0  0  0  0  0  0  0
   72.1097   47.5309   58.6991 C   0  0  0  0  0  0  0  0  0  0  0  0
   71.4890   48.4566   57.8503 C   0  0  0  0  0  0  0  0  0  0  0  0
   70.3495   48.1566   57.1397 C   0  0  0  0  0  0  0  0  0  0  0  0
   69.8573   46.8753   57.3186 C   0  0  0  0  0  0  0  0  0  0  0  0
   71.5481   43.6015   57.2167 O   0  0  0  0  0  0  0  0  0  0  0  0
   70.4128   43.4530   57.7371 C   0  0  0  0  0  0  0  0  0  0  0  0
   69.7985   44.6410   58.2211 N   0  0  0  0  0  0  0  0  0  0  0  0
   69.7985   42.1346   57.8192 C   0  0  0  0  0  0  0  0  0  0  0  0
   70.3482   41.0667   58.4520 C   0  0  0  0  0  0  0  0  0  0  0  0
   69.6761   39.8556   58.4685 C   0  0  0  0  0  0  0  0  0  0  0  0
   68.4520   39.6867   57.8578 C   0  0  0  0  0  0  0  0  0  0  0  0
   67.7737   38.5106   57.8591 F   0  0  0  0  0  0  0  0  0  0  0  0
   67.8819   40.7692   57.2089 C   0  0  0  0  0  0  0  0  0  0  0  0
   68.5727   41.9603   57.2093 C   0  0  0  0  0  0  0  0  0  0  0  0
   67.9634   43.0325   56.5422 O   0  0  0  0  0  0  0  0  0  0  0  0
   69.6534   49.1148   56.2426 C   0  0  0  0  0  0  0  0  0  0  0  0
   69.8543   48.8386   54.7955 C   0  0  0  0  0  0  0  0  0  0  0  0
   70.8619   49.3623   54.1051 N   0  0  0  0  0  0  0  0  0  0  0  0
   71.1044   49.1320   52.8558 N   0  0  0  0  0  0  0  0  0  0  0  0
   70.2911   48.2955   52.1542 C   0  0  0  0  0  0  0  0  0  0  0  0
   70.5476   48.0870   50.9385 O   0  0  0  0  0  0  0  0  0  0  0  0
   69.2265   47.7128   52.7899 C   0  0  0  0  0  0  0  0  0  0  0  0
   69.0096   47.9915   54.1257 C   0  0  0  0  0  0  0  0  0  0  0  0
   67.8168   47.3282   54.6862 C   0  0  0  0  0  0  0  0  0  0  0  0
   68.0017   45.8466   54.4515 C   0  0  0  0  0  0  0  0  0  0  0  0
   68.2320   45.5397   53.0124 C   0  0  0  0  0  0  0  0  0  0  0  0
   68.2956   46.7871   52.1202 C   0  0  0  0  0  0  0  0  0  0  0  0
  7  8  2  0
  8  9  1  0
  8 10  1  0
  9  1  1  0
  1  2  2  0
  1  6  1  0
  2  3  1  0
  3  4  2  0
  4  5  1  0
  5 18  1  0
  5  6  2  0
 18 19  1  0
 19 20  2  0
 19 25  1  0
 20 21  1  0
 21 22  1  0
 22 23  2  0
 22 24  1  0
 24 25  2  0
 24 29  1  0
 25 26  1  0
 26 27  1  0
 27 28  1  0
 28 29  1  0
 10 11  2  0
 10 16  1  0
 11 12  1  0
 12 13  2  0
 13 14  1  0
 13 15  1  0
 15 16  2  0
 16 17  1  0
M  END
>  <minimizedAffinity>  (86) 
-9.87216

$$$$
cs_full_output_folder/data/smiles/50.pdb
     RDKit          3D

 27 30  0  0  0  0  0  0  0  0999 V2000
   70.0432   48.2428   57.1245 C   0  0  0  0  0  0  0  0  0  0  0  0
   71.2504   48.7582   57.5365 C   0  0  0  0  0  0  0  0  0  0  0  0
   72.0515   48.0384   58.3934 C   0  0  0  0  0  0  0  0  0  0  0  0
   71.6467   46.8001   58.8425 C   0  0  0  0  0  0  0  0  0  0  0  0
   70.4117   46.2276   58.4469 C   0  0  0  0  0  0  0  0  0  0  0  0
   69.6802   47.0008   57.5994 C   0  0  0  0  0  0  0  0  0  0  0  0
   69.1638   49.0111   56.1757 C   0  0  0  0  0  0  0  0  0  0  0  0
   70.5561   48.6707   50.9191 O   0  0  0  0  0  0  0  0  0  0  0  0
   70.2004   48.6960   52.1276 C   0  0  0  0  0  0  0  0  0  0  0  0
   70.6375   49.6667   52.9158 N   0  0  0  0  0  0  0  0  0  0  0  0
   70.2785   49.7046   54.1603 N   0  0  0  0  0  0  0  0  0  0  0  0
   69.4538   48.7985   54.7674 C   0  0  0  0  0  0  0  0  0  0  0  0
   68.9916   47.7858   53.9681 C   0  0  0  0  0  0  0  0  0  0  0  0
   69.3648   47.7266   52.6291 C   0  0  0  0  0  0  0  0  0  0  0  0
   68.9123   46.6631   51.7092 C   0  0  0  0  0  0  0  0  0  0  0  0
   67.6455   46.0655   52.2733 C   0  0  0  0  0  0  0  0  0  0  0  0
   68.0073   45.5313   53.6550 C   0  0  0  0  0  0  0  0  0  0  0  0
   68.0984   46.7690   54.5616 C   0  0  0  0  0  0  0  0  0  0  0  0
   70.1127   44.9633   58.9823 N   0  0  0  0  0  0  0  0  0  0  0  0
   70.3473   43.4228   58.3815 S   0  0  0  0  0  0  0  0  0  0  0  0
   70.5615   42.4304   59.5225 O   0  0  0  0  0  0  0  0  0  0  0  0
   71.6907   43.3854   57.6399 O   0  0  0  0  0  0  0  0  0  0  0  0
   69.1083   42.7192   57.3990 C   0  0  0  0  0  0  0  0  0  0  0  0
   68.7092   41.4202   57.2775 C   0  0  0  0  0  0  0  0  0  0  0  0
   67.6870   41.3753   56.3603 C   0  0  0  0  0  0  0  0  0  0  0  0
   67.5191   42.6775   55.9667 C   0  0  0  0  0  0  0  0  0  0  0  0
   68.3555   43.4360   56.5856 O   0  0  0  0  0  0  0  0  0  0  0  0
  8  9  2  0
  9 10  1  0
  9 14  1  0
 10 11  1  0
 11 12  2  0
 12  7  1  0
 12 13  1  0
  7  1  1  0
  1  2  2  0
  1  6  1  0
  2  3  1  0
  3  4  2  0
  4  5  1  0
  5 19  1  0
  5  6  2  0
 19 20  1  0
 20 21  2  0
 20 22  2  0
 20 23  1  0
 23 24  2  0
 23 27  1  0
 24 25  1  0
 25 26  2  0
 26 27  1  0
 13 14  2  0
 13 18  1  0
 14 15  1  0
 15 16  1  0
 16 17  1  0
 17 18  1  0
M  END
>  <minimizedAffinity>  (87) 
-9.87049

$$$$
cs_full_output_folder/data/smiles/6884.pdb
     RDKit          3D

 29 32  0  0  0  0  0  0  0  0999 V2000
   71.4251   47.0973   58.8572 C   0  0  0  0  0  0  0  0  0  0  0  0
   70.5904   47.8275   58.0497 C   0  0  0  0  0  0  0  0  0  0  0  0
   69.7469   47.2385   57.0890 C   0  0  0  0  0  0  0  0  0  0  0  0
   69.7352   45.8829   56.9318 C   0  0  0  0  0  0  0  0  0  0  0  0
   70.5853   45.1375   57.7549 C   0  0  0  0  0  0  0  0  0  0  0  0
   71.4095   45.7180   58.6924 C   0  0  0  0  0  0  0  0  0  0  0  0
   72.2312   44.9942   59.4890 F   0  0  0  0  0  0  0  0  0  0  0  0
   74.3956   50.7624   58.7661 N   0  0  0  0  0  0  0  0  0  0  0  0
   74.6826   50.4047   60.1240 C   0  0  0  0  0  0  0  0  0  0  0  0
   74.3449   48.9807   60.4409 C   0  0  0  0  0  0  0  0  0  0  0  0
   73.4698   48.3855   59.4437 N   0  0  0  0  0  0  0  0  0  0  0  0
   72.3022   47.6998   59.8604 C   0  0  0  0  0  0  0  0  0  0  0  0
   72.0365   47.6189   61.0953 O   0  0  0  0  0  0  0  0  0  0  0  0
   73.7883   48.4968   58.0453 C   0  0  0  0  0  0  0  0  0  0  0  0
   74.5364   49.7742   57.7298 C   0  0  0  0  0  0  0  0  0  0  0  0
   74.5391   53.0647   58.9033 O   0  0  0  0  0  0  0  0  0  0  0  0
   73.9894   52.0432   58.4582 N   0  0  0  0  0  0  0  0  0  0  0  0
   68.8718   48.1403   56.2963 C   0  0  0  0  0  0  0  0  0  0  0  0
   69.2555   48.2967   54.8920 C   0  0  0  0  0  0  0  0  0  0  0  0
   70.1517   49.2633   54.5300 N   0  0  0  0  0  0  0  0  0  0  0  0
   70.5867   49.4505   53.3215 N   0  0  0  0  0  0  0  0  0  0  0  0
   70.1508   48.6678   52.3454 C   0  0  0  0  0  0  0  0  0  0  0  0
   70.5557   48.8218   51.1474 O   0  0  0  0  0  0  0  0  0  0  0  0
   69.2383   47.6554   52.6047 C   0  0  0  0  0  0  0  0  0  0  0  0
   68.7936   46.8676   51.5649 C   0  0  0  0  0  0  0  0  0  0  0  0
   67.8764   45.8744   51.8189 C   0  0  0  0  0  0  0  0  0  0  0  0
   67.4196   45.6849   53.1036 C   0  0  0  0  0  0  0  0  0  0  0  0
   67.8732   46.4773   54.1253 C   0  0  0  0  0  0  0  0  0  0  0  0
   68.7901   47.4725   53.8864 C   0  0  0  0  0  0  0  0  0  0  0  0
 16 17  2  0
 17  8  1  0
  8  9  1  0
  8 15  1  0
  9 10  1  0
 10 11  1  0
 11 12  1  0
 11 14  1  0
 12 13  2  0
 12  1  1  0
  1  2  2  0
  1  6  1  0
  2  3  1  0
  3 18  1  0
  3  4  2  0
 18 19  1  0
 19 20  2  0
 19 29  1  0
 20 21  1  0
 21 22  1  0
 22 23  2  0
 22 24  1  0
 24 25  1  0
 24 29  2  0
 25 26  2  0
 26 27  1  0
 27 28  2  0
 28 29  1  0
  4  5  1  0
  5  6  2  0
  6  7  1  0
 14 15  1  0
M  END
>  <minimizedAffinity>  (88) 
-9.85157

$$$$
cs_full_output_folder/data/smiles/3408.pdb
     RDKit          3D

 27 29  0  0  0  0  0  0  0  0999 V2000
   69.1921   47.9071   52.9823 C   0  0  0  0  0  0  0  0  0  0  0  0
   68.6426   47.4584   51.8013 C   0  0  0  0  0  0  0  0  0  0  0  0
   67.9688   46.2540   51.7998 C   0  0  0  0  0  0  0  0  0  0  0  0
   67.8585   45.5272   52.9710 C   0  0  0  0  0  0  0  0  0  0  0  0
   68.4000   45.9552   54.1629 C   0  0  0  0  0  0  0  0  0  0  0  0
   69.0649   47.1454   54.1640 C   0  0  0  0  0  0  0  0  0  0  0  0
   70.0366   49.4119   52.9938 S   0  0  0  0  0  0  0  0  0  0  0  0
   71.5258   49.1205   52.8832 O   0  0  0  0  0  0  0  0  0  0  0  0
   69.6939   50.2876   51.8235 O   0  0  0  0  0  0  0  0  0  0  0  0
   68.7849   52.2958   56.6345 C   0  0  0  0  0  0  0  0  0  0  0  0
   69.2322   52.5154   55.2048 C   0  0  1  0  0  0  0  0  0  0  0  0
   70.7289   52.4672   55.0738 C   0  0  0  0  0  0  0  0  0  0  0  0
   71.0572   50.9802   54.9751 C   0  0  0  0  0  0  0  0  0  0  0  0
   69.8025   50.3252   54.4883 C   0  0  1  0  0  0  0  0  0  0  0  0
   68.7639   51.4094   54.3120 C   0  0  0  0  0  0  0  0  0  0  0  0
   68.2554   45.1494   55.3708 C   0  0  0  0  0  0  0  0  0  0  0  0
   68.5271   45.6965   56.4761 O   0  0  0  0  0  0  0  0  0  0  0  0
   67.8389   43.8085   55.4207 N   0  0  0  0  0  0  0  0  0  0  0  0
   67.6646   42.9545   56.4637 N   0  0  0  0  0  0  0  0  0  0  0  0
   67.4903   41.5681   56.5340 C   0  0  0  0  0  0  0  0  0  0  0  0
   67.4788   40.9039   55.4901 O   0  0  0  0  0  0  0  0  0  0  0  0
   67.3162   40.8334   57.7975 C   0  0  0  0  0  0  0  0  0  0  0  0
   67.9535   39.6370   58.0318 C   0  0  0  0  0  0  0  0  0  0  0  0
   67.8007   38.9334   59.2128 C   0  0  0  0  0  0  0  0  0  0  0  0
   66.9708   39.4520   60.2085 C   0  0  0  0  0  0  0  0  0  0  0  0
   66.3493   40.6443   59.9485 C   0  0  0  0  0  0  0  0  0  0  0  0
   66.5238   41.3070   58.7753 N   0  0  0  0  0  0  0  0  0  0  0  0
 11 10  1  1
 11 12  1  0
 11 15  1  0
 12 13  1  0
 13 14  1  0
 14  7  1  6
 14 15  1  0
  7  8  2  0
  7  9  2  0
  7  1  1  0
  1  2  2  0
  1  6  1  0
  2  3  1  0
  3  4  2  0
  4  5  1  0
  5 16  1  0
  5  6  2  0
 16 17  2  0
 16 18  1  0
 18 19  1  0
 19 20  1  0
 20 21  2  0
 20 22  1  0
 22 23  2  0
 22 27  1  0
 23 24  1  0
 24 25  2  0
 25 26  1  0
 26 27  2  0
M  END
>  <minimizedAffinity>  (89) 
-9.84866

$$$$
cs_full_output_folder/data/smiles/192.pdb
     RDKit          3D

 26 28  0  0  0  0  0  0  0  0999 V2000
   70.2470   39.4428   58.9219 C   0  0  0  0  0  0  0  0  0  0  0  0
   70.8424   40.6870   58.9487 C   0  0  0  0  0  0  0  0  0  0  0  0
   70.2939   41.7398   58.2209 C   0  0  0  0  0  0  0  0  0  0  0  0
   69.1548   41.5894   57.4574 C   0  0  0  0  0  0  0  0  0  0  0  0
   68.5636   40.3423   57.4337 C   0  0  0  0  0  0  0  0  0  0  0  0
   69.0980   39.2917   58.1517 C   0  0  0  0  0  0  0  0  0  0  0  0
   67.4192   40.4290   56.5908 N   0  0  0  0  0  0  0  0  0  0  0  0
   67.2959   41.7568   56.0787 C   0  0  0  0  0  0  0  0  0  0  0  0
   66.4185   42.2254   55.3032 O   0  0  0  0  0  0  0  0  0  0  0  0
   68.3963   42.5153   56.6202 C   0  0  0  0  0  0  0  0  0  0  0  0
   68.6360   43.7723   56.3894 N   0  0  0  0  0  0  0  0  0  0  0  0
   70.8279   38.3351   59.6899 C   0  0  0  0  0  0  0  0  0  0  0  0
   71.1600   35.8673   59.7659 C   0  0  0  0  0  0  0  0  0  0  0  0
   71.0023   37.0788   58.8735 C   0  0  0  0  0  0  0  0  0  0  0  0
   72.3053   37.2224   58.1112 C   0  0  0  0  0  0  0  0  0  0  0  0
   67.7861   44.5036   55.5497 N   0  0  0  0  0  0  0  0  0  0  0  0
   68.3043   45.6753   54.9125 C   0  0  0  0  0  0  0  0  0  0  0  0
   68.2543   45.8190   53.5415 C   0  0  0  0  0  0  0  0  0  0  0  0
   68.7589   46.9599   52.9324 C   0  0  0  0  0  0  0  0  0  0  0  0
   69.3254   47.9836   53.6571 C   0  0  0  0  0  0  0  0  0  0  0  0
   69.3769   47.8433   55.0279 C   0  0  0  0  0  0  0  0  0  0  0  0
   68.8712   46.7021   55.6390 C   0  0  0  0  0  0  0  0  0  0  0  0
   69.9621   49.4220   52.8859 S   0  0  0  0  0  0  0  0  0  0  0  0
   69.8866   49.2681   51.1750 N   0  0  0  0  0  0  0  0  0  0  0  0
   71.3900   49.5769   53.3026 O   0  0  0  0  0  0  0  0  0  0  0  0
   69.2069   50.6515   53.2767 O   0  0  0  0  0  0  0  0  0  0  0  0
 13 14  1  0
 14 15  1  0
 14 12  1  0
 12  1  1  0
  1  2  2  0
  1  6  1  0
  2  3  1  0
  3  4  2  0
  4  5  1  0
  4 10  1  0
  5  6  2  0
  5  7  1  0
  7  8  1  0
  8  9  2  0
  8 10  1  0
 10 11  2  0
 11 16  1  0
 16 17  1  0
 17 18  2  0
 17 22  1  0
 18 19  1  0
 19 20  2  0
 20 23  1  0
 20 21  1  0
 23 24  1  0
 23 25  2  0
 23 26  2  0
 21 22  2  0
M  END
>  <minimizedAffinity>  (90) 
-9.84639

$$$$
cs_full_output_folder/data/smiles/2066.pdb
     RDKit          3D

 28 31  0  0  0  0  0  0  0  0999 V2000
   70.2585   45.5438   58.0013 C   0  0  0  0  0  0  0  0  0  0  0  0
   71.3996   45.9937   58.5840 C   0  0  0  0  0  0  0  0  0  0  0  0
   71.8117   47.3393   58.4794 C   0  0  0  0  0  0  0  0  0  0  0  0
   71.0545   48.2435   57.7699 C   0  0  0  0  0  0  0  0  0  0  0  0
   71.4263   49.5588   57.6476 O   0  0  0  0  0  0  0  0  0  0  0  0
   69.8998   47.7559   57.1886 C   0  0  0  0  0  0  0  0  0  0  0  0
   69.5445   46.4860   57.3083 N   0  0  0  0  0  0  0  0  0  0  0  0
   71.5710   43.0980   57.3126 O   0  0  0  0  0  0  0  0  0  0  0  0
   70.3870   43.0294   57.7050 C   0  0  0  0  0  0  0  0  0  0  0  0
   69.7527   44.2307   58.0396 N   0  0  0  0  0  0  0  0  0  0  0  0
   69.7592   41.7123   57.7845 C   0  0  0  0  0  0  0  0  0  0  0  0
   70.2895   40.6471   58.4766 C   0  0  0  0  0  0  0  0  0  0  0  0
   69.6173   39.4157   58.5026 C   0  0  0  0  0  0  0  0  0  0  0  0
   68.4238   39.2183   57.8537 C   0  0  0  0  0  0  0  0  0  0  0  0
   67.9008   40.2888   57.1627 C   0  0  0  0  0  0  0  0  0  0  0  0
   68.5614   41.4991   57.1376 C   0  0  0  0  0  0  0  0  0  0  0  0
   69.0790   48.7471   56.4151 C   0  0  0  0  0  0  0  0  0  0  0  0
   69.4782   48.6534   55.0018 C   0  0  0  0  0  0  0  0  0  0  0  0
   70.4433   49.4771   54.5162 N   0  0  0  0  0  0  0  0  0  0  0  0
   70.8448   49.4465   53.2746 N   0  0  0  0  0  0  0  0  0  0  0  0
   70.3289   48.5927   52.3787 C   0  0  0  0  0  0  0  0  0  0  0  0
   70.7250   48.5705   51.1768 O   0  0  0  0  0  0  0  0  0  0  0  0
   69.3362   47.7125   52.7885 C   0  0  0  0  0  0  0  0  0  0  0  0
   68.9173   47.7610   54.1288 C   0  0  0  0  0  0  0  0  0  0  0  0
   67.8580   46.8462   54.6144 C   0  0  0  0  0  0  0  0  0  0  0  0
   68.0338   45.5610   53.7818 C   0  0  0  0  0  0  0  0  0  0  0  0
   67.6621   45.9809   52.3651 C   0  0  0  0  0  0  0  0  0  0  0  0
   68.7849   46.7866   51.7832 C   0  0  0  0  0  0  0  0  0  0  0  0
  8  9  2  0
  9 10  1  0
  9 11  1  0
 10  1  1  0
  1  2  2  0
  1  7  1  0
  2  3  1  0
  3  4  2  0
  4  5  1  0
  4  6  1  0
  6 17  1  0
  6  7  2  0
 17 18  1  0
 18 19  2  0
 18 24  1  0
 19 20  1  0
 20 21  1  0
 21 22  2  0
 21 23  1  0
 23 24  2  0
 23 28  1  0
 24 25  1  0
 25 26  1  0
 26 27  1  0
 27 28  1  0
 11 12  2  0
 11 16  1  0
 12 13  1  0
 13 14  2  0
 14 15  1  0
 15 16  2  0
M  END
>  <minimizedAffinity>  (91) 
-9.84037

$$$$
cs_full_output_folder/data/smiles/4173.pdb
     RDKit          3D

 29 32  0  0  0  0  0  0  0  0999 V2000
   70.9743   46.7659   58.2824 C   0  0  0  0  0  0  0  0  0  0  0  0
   70.0341   47.3651   57.4224 C   0  0  0  0  0  0  0  0  0  0  0  0
   70.0511   48.7071   57.1227 C   0  0  0  0  0  0  0  0  0  0  0  0
   71.0228   49.4782   57.6858 C   0  0  0  0  0  0  0  0  0  0  0  0
   71.9788   48.9452   58.5435 C   0  0  0  0  0  0  0  0  0  0  0  0
   71.9235   47.5818   58.8190 C   0  0  0  0  0  0  0  0  0  0  0  0
   72.8667   47.1031   59.6548 F   0  0  0  0  0  0  0  0  0  0  0  0
   70.8888   45.0138   59.8127 O   0  0  0  0  0  0  0  0  0  0  0  0
   70.9078   45.3523   58.5609 C   0  0  0  0  0  0  0  0  0  0  0  0
   70.8590   44.2835   57.6545 N   0  0  0  0  0  0  0  0  0  0  0  0
   70.7966   42.8724   58.0211 C   0  0  0  0  0  0  0  0  0  0  0  0
   69.5687   42.2790   57.4386 C   0  0  0  0  0  0  0  0  0  0  0  0
   69.1569   40.9796   57.6248 C   0  0  0  0  0  0  0  0  0  0  0  0
   67.9921   40.4690   57.0359 C   0  0  0  0  0  0  0  0  0  0  0  0
   67.2095   41.2659   56.2397 C   0  0  0  0  0  0  0  0  0  0  0  0
   67.6163   42.5656   56.0502 C   0  0  0  0  0  0  0  0  0  0  0  0
   68.7578   43.0747   56.6230 C   0  0  0  0  0  0  0  0  0  0  0  0
   69.0445   49.2446   56.1910 C   0  0  0  0  0  0  0  0  0  0  0  0
   69.3632   49.0483   54.7696 C   0  0  0  0  0  0  0  0  0  0  0  0
   70.1665   49.9542   54.1449 N   0  0  0  0  0  0  0  0  0  0  0  0
   70.5465   49.8563   52.9051 N   0  0  0  0  0  0  0  0  0  0  0  0
   70.1356   48.7955   52.1570 C   0  0  0  0  0  0  0  0  0  0  0  0
   70.5007   48.6926   50.9559 O   0  0  0  0  0  0  0  0  0  0  0  0
   69.3220   47.8246   52.6926 C   0  0  0  0  0  0  0  0  0  0  0  0
   68.9183   46.7776   51.9083 C   0  0  0  0  0  0  0  0  0  0  0  0
   68.0912   45.8194   52.4552 C   0  0  0  0  0  0  0  0  0  0  0  0
   67.7011   45.9579   53.7826 C   0  0  0  0  0  0  0  0  0  0  0  0
   68.1210   47.0218   54.5534 C   0  0  0  0  0  0  0  0  0  0  0  0
   68.9419   47.9811   54.0329 C   0  0  0  0  0  0  0  0  0  0  0  0
  8  9  2  0
  9 10  1  0
  9  1  1  0
 10 11  1  0
 11 12  1  0
 12 13  2  0
 12 17  1  0
 13 14  1  0
 14 15  2  0
 15 16  1  0
 16 17  2  0
  1  2  2  0
  1  6  1  0
  2  3  1  0
  3 18  1  0
  3  4  2  0
 18 19  1  0
 19 20  2  0
 19 29  1  0
 20 21  1  0
 21 22  1  0
 22 23  2  0
 22 24  1  0
 24 25  1  0
 24 29  2  0
 25 26  2  0
 26 27  1  0
 27 28  2  0
 28 29  1  0
  4  5  1  0
  5  6  2  0
  6  7  1  0
M  END
>  <minimizedAffinity>  (92) 
-9.80167

$$$$
cs_full_output_folder/data/smiles/4745.pdb
     RDKit          3D

 29 31  0  0  0  0  0  0  0  0999 V2000
   68.0910   42.1668   57.0938 C   0  0  0  0  0  0  0  0  0  0  0  0
   68.1072   41.3565   56.1075 O   0  0  0  0  0  0  0  0  0  0  0  0
   68.1277   43.5512   56.7604 N   0  0  0  0  0  0  0  0  0  0  0  0
   68.1779   43.9813   55.4359 N   0  0  0  0  0  0  0  0  0  0  0  0
   68.2535   45.3741   55.1812 C   0  0  0  0  0  0  0  0  0  0  0  0
   68.2710   46.1579   56.1793 O   0  0  0  0  0  0  0  0  0  0  0  0
   68.3109   45.9367   53.8393 C   0  0  0  0  0  0  0  0  0  0  0  0
   67.5538   45.4548   52.8134 C   0  0  0  0  0  0  0  0  0  0  0  0
   67.6492   46.0303   51.5533 C   0  0  0  0  0  0  0  0  0  0  0  0
   68.4891   47.0752   51.3122 C   0  0  0  0  0  0  0  0  0  0  0  0
   69.2549   47.5630   52.3463 C   0  0  0  0  0  0  0  0  0  0  0  0
   69.1627   47.0002   53.5858 C   0  0  0  0  0  0  0  0  0  0  0  0
   70.1245   48.6527   52.0784 N   0  0  0  0  0  0  0  0  0  0  0  0
   71.1130   48.8906   52.8263 O   0  0  0  0  0  0  0  0  0  0  0  0
   69.9371   49.4850   51.0110 O   0  0  0  0  0  0  0  0  0  0  0  0
   68.0377   41.7060   58.4986 C   0  0  1  0  0  0  0  0  0  0  0  0
   66.5835   41.4293   58.8389 C   0  0  0  0  0  0  0  0  0  0  0  0
   72.2769   36.8056   58.9548 C   0  0  0  0  0  0  0  0  0  0  0  0
   72.9296   38.0034   58.7549 C   0  0  0  0  0  0  0  0  0  0  0  0
   72.2145   39.1986   58.6265 C   0  0  0  0  0  0  0  0  0  0  0  0
   70.8490   39.2163   58.6959 C   0  0  0  0  0  0  0  0  0  0  0  0
   70.1328   40.4085   58.5682 C   0  0  0  0  0  0  0  0  0  0  0  0
   68.7647   40.4008   58.6416 C   0  0  0  0  0  0  0  0  0  0  0  0
   68.0984   39.2171   58.8408 C   0  0  0  0  0  0  0  0  0  0  0  0
   68.8206   38.0452   58.9647 C   0  0  0  0  0  0  0  0  0  0  0  0
   70.1870   38.0198   58.8963 C   0  0  0  0  0  0  0  0  0  0  0  0
   70.9048   36.8379   59.0223 C   0  0  0  0  0  0  0  0  0  0  0  0
   72.5757   34.3561   58.8955 C   0  0  0  0  0  0  0  0  0  0  0  0
   73.0106   35.6628   59.0751 O   0  0  0  0  0  0  0  0  0  0  0  0
 28 29  1  0
 29 18  1  0
 18 19  2  0
 18 27  1  0
 19 20  1  0
 20 21  2  0
 21 22  1  0
 21 26  1  0
 22 23  2  0
 23 16  1  0
 23 24  1  0
 16 17  1  6
 16  1  1  0
  1  2  2  0
  1  3  1  0
  3  4  1  0
  4  5  1  0
  5  6  2  0
  5  7  1  0
  7  8  2  0
  7 12  1  0
  8  9  1  0
  9 10  2  0
 10 11  1  0
 11 13  1  0
 11 12  2  0
 13 14  2  0
 13 15  1  0
 24 25  2  0
 25 26  1  0
 26 27  2  0
M  CHG  2  13   1  15  -1
M  END
>  <minimizedAffinity>  (93) 
-9.79001

$$$$
cs_full_output_folder/data/smiles/2911.pdb
     RDKit          3D

 27 30  0  0  0  0  0  0  0  0999 V2000
   70.2732   45.5329   58.1300 C   0  0  0  0  0  0  0  0  0  0  0  0
   71.1973   46.1944   58.9061 C   0  0  0  0  0  0  0  0  0  0  0  0
   71.3685   47.5406   58.7849 C   0  0  0  0  0  0  0  0  0  0  0  0
   70.5944   48.2128   57.8689 C   0  0  0  0  0  0  0  0  0  0  0  0
   69.6530   47.5475   57.0773 C   0  0  0  0  0  0  0  0  0  0  0  0
   69.5461   46.2316   57.2554 N   0  0  0  0  0  0  0  0  0  0  0  0
   68.8289   43.7532   56.4942 O   0  0  0  0  0  0  0  0  0  0  0  0
   69.4202   43.2498   57.4812 C   0  0  0  0  0  0  0  0  0  0  0  0
   70.1452   44.1385   58.3038 N   0  0  0  0  0  0  0  0  0  0  0  0
   69.3208   41.8105   57.7098 C   0  0  0  0  0  0  0  0  0  0  0  0
   68.2361   41.0389   57.3700 C   0  0  0  0  0  0  0  0  0  0  0  0
   68.1742   39.6801   57.6009 C   0  0  0  0  0  0  0  0  0  0  0  0
   69.2351   39.0394   58.1990 C   0  0  0  0  0  0  0  0  0  0  0  0
   70.3443   39.7786   58.5558 C   0  0  0  0  0  0  0  0  0  0  0  0
   70.3708   41.1384   58.3084 C   0  0  0  0  0  0  0  0  0  0  0  0
   68.9430   48.3305   56.2013 O   0  0  0  0  0  0  0  0  0  0  0  0
   69.3436   48.4673   54.8853 C   0  0  0  0  0  0  0  0  0  0  0  0
   70.1235   49.4684   54.4650 N   0  0  0  0  0  0  0  0  0  0  0  0
   70.5225   49.6264   53.2137 N   0  0  0  0  0  0  0  0  0  0  0  0
   70.1613   48.7627   52.2490 C   0  0  0  0  0  0  0  0  0  0  0  0
   70.5127   48.8671   51.0496 O   0  0  0  0  0  0  0  0  0  0  0  0
   69.3522   47.7030   52.6276 C   0  0  0  0  0  0  0  0  0  0  0  0
   68.9459   47.5465   53.9097 C   0  0  0  0  0  0  0  0  0  0  0  0
   68.0888   46.4352   54.3412 C   0  0  0  0  0  0  0  0  0  0  0  0
   67.7343   45.4444   53.2835 C   0  0  0  0  0  0  0  0  0  0  0  0
   67.6037   46.1815   51.9455 C   0  0  0  0  0  0  0  0  0  0  0  0
   68.9539   46.7527   51.5690 C   0  0  0  0  0  0  0  0  0  0  0  0
  7  8  2  0
  8  9  1  0
  8 10  1  0
  9  1  1  0
  1  2  2  0
  1  6  1  0
  2  3  1  0
  3  4  2  0
  4  5  1  0
  5 16  1  0
  5  6  2  0
 16 17  1  0
 17 18  2  0
 17 23  1  0
 18 19  1  0
 19 20  1  0
 20 21  2  0
 20 22  1  0
 22 23  2  0
 22 27  1  0
 23 24  1  0
 24 25  1  0
 25 26  1  0
 26 27  1  0
 10 11  2  0
 10 15  1  0
 11 12  1  0
 12 13  2  0
 13 14  1  0
 14 15  2  0
M  END
>  <minimizedAffinity>  (94) 
-9.78157

$$$$
cs_full_output_folder/data/smiles/3676.pdb
     RDKit          3D

 27 28  0  0  0  0  0  0  0  0999 V2000
   70.2932   45.5311   57.7897 C   0  0  0  0  0  0  0  0  0  0  0  0
   71.0438   46.7984   58.4631 S   0  0  0  0  0  0  0  0  0  0  0  0
   69.9365   43.0665   57.7734 C   0  0  0  0  0  0  0  0  0  0  0  0
   68.8400   43.2997   57.2144 O   0  0  0  0  0  0  0  0  0  0  0  0
   70.7253   44.2167   58.0905 N   0  0  0  0  0  0  0  0  0  0  0  0
   71.2531   39.0738   58.6200 C   0  0  0  0  0  0  0  0  0  0  0  0
   72.1318   40.1247   58.4625 C   0  0  0  0  0  0  0  0  0  0  0  0
   71.6799   41.3989   58.1909 C   0  0  0  0  0  0  0  0  0  0  0  0
   70.3342   41.6948   58.0612 C   0  0  0  0  0  0  0  0  0  0  0  0
   69.4555   40.6475   58.2181 C   0  0  0  0  0  0  0  0  0  0  0  0
   69.9105   39.3513   58.4944 C   0  0  0  0  0  0  0  0  0  0  0  0
   70.6509   36.8555   59.5725 C   0  0  0  0  0  0  0  0  0  0  0  0
   71.7176   37.6905   58.9146 C   0  0  0  0  0  0  0  0  0  0  0  0
   72.9013   37.7344   59.8647 C   0  0  0  0  0  0  0  0  0  0  0  0
   72.1954   37.0354   57.6409 C   0  0  0  0  0  0  0  0  0  0  0  0
   69.2187   45.7257   56.9083 N   0  0  0  0  0  0  0  0  0  0  0  0
   68.8263   46.9800   56.3208 C   0  0  2  0  0  0  0  0  0  0  0  0
   67.5854   47.4482   56.8514 N   0  0  0  0  0  0  0  0  0  0  0  0
   68.7708   46.9461   54.8305 C   0  0  0  0  0  0  0  0  0  0  0  0
   68.0666   45.9312   54.1714 C   0  0  0  0  0  0  0  0  0  0  0  0
   68.0055   45.8847   52.7964 C   0  0  0  0  0  0  0  0  0  0  0  0
   68.6554   46.8636   52.0774 C   0  0  0  0  0  0  0  0  0  0  0  0
   69.3640   47.8882   52.6777 C   0  0  0  0  0  0  0  0  0  0  0  0
   69.3955   47.8901   54.0514 C   0  0  0  0  0  0  0  0  0  0  0  0
   70.0129   48.8690   51.8857 N   0  0  0  0  0  0  0  0  0  0  0  0
   69.9124   50.0608   52.2104 O   0  0  0  0  0  0  0  0  0  0  0  0
   70.7417   48.5466   50.7823 O   0  0  0  0  0  0  0  0  0  0  0  0
 12 13  1  0
 13 14  1  0
 13 15  1  0
 13  6  1  0
  6  7  2  0
  6 11  1  0
  7  8  1  0
  8  9  2  0
  9  3  1  0
  9 10  1  0
  3  4  2  0
  3  5  1  0
  5  1  1  0
  1  2  2  0
  1 16  1  0
 16 17  1  0
 17 18  1  1
 17 19  1  0
 19 20  2  0
 19 24  1  0
 20 21  1  0
 21 22  2  0
 22 23  1  0
 23 25  1  0
 23 24  2  0
 25 26  2  0
 25 27  1  0
 10 11  2  0
M  CHG  3  18   1  25   1  27  -1
M  END
>  <minimizedAffinity>  (95) 
-9.77857

$$$$
cs_full_output_folder/data/smiles/1847.pdb
     RDKit          3D

 28 31  0  0  0  0  0  0  0  0999 V2000
   71.2579   47.0569   58.8624 C   0  0  0  0  0  0  0  0  0  0  0  0
   70.4705   47.9008   58.0975 C   0  0  0  0  0  0  0  0  0  0  0  0
   69.6762   47.4112   57.1036 C   0  0  0  0  0  0  0  0  0  0  0  0
   69.7060   46.0228   56.9081 C   0  0  0  0  0  0  0  0  0  0  0  0
   70.4757   45.1644   57.6490 C   0  0  0  0  0  0  0  0  0  0  0  0
   71.2688   45.6977   58.6484 C   0  0  0  0  0  0  0  0  0  0  0  0
   72.0680   44.9103   59.4334 F   0  0  0  0  0  0  0  0  0  0  0  0
   76.1109   50.7161   58.6540 O   0  0  0  0  0  0  0  0  0  0  0  0
   75.0048   50.4277   59.0283 C   0  0  0  0  0  0  0  0  0  0  0  0
   74.6681   50.2976   60.4609 C   0  0  0  0  0  0  0  0  0  0  0  0
   73.9717   48.9855   60.7529 C   0  0  0  0  0  0  0  0  0  0  0  0
   73.1948   48.4908   59.6459 N   0  0  0  0  0  0  0  0  0  0  0  0
   72.0990   47.6019   59.9332 C   0  0  0  0  0  0  0  0  0  0  0  0
   71.8894   47.3086   61.1250 O   0  0  0  0  0  0  0  0  0  0  0  0
   73.4113   48.7903   58.2620 C   0  0  0  0  0  0  0  0  0  0  0  0
   73.9304   50.1897   58.0419 C   0  0  0  0  0  0  0  0  0  0  0  0
   68.7940   48.2034   56.2136 C   0  0  0  0  0  0  0  0  0  0  0  0
   69.2497   48.2671   54.8102 C   0  0  0  0  0  0  0  0  0  0  0  0
   70.1644   49.2060   54.4628 N   0  0  0  0  0  0  0  0  0  0  0  0
   70.6237   49.4173   53.2609 N   0  0  0  0  0  0  0  0  0  0  0  0
   70.1699   48.6571   52.2645 C   0  0  0  0  0  0  0  0  0  0  0  0
   70.5770   48.8178   51.0924 O   0  0  0  0  0  0  0  0  0  0  0  0
   69.2413   47.6826   52.5339 C   0  0  0  0  0  0  0  0  0  0  0  0
   68.7501   46.8590   51.5387 C   0  0  0  0  0  0  0  0  0  0  0  0
   67.8386   45.8722   51.7767 C   0  0  0  0  0  0  0  0  0  0  0  0
   67.3842   45.6822   53.0591 C   0  0  0  0  0  0  0  0  0  0  0  0
   67.8300   46.4647   54.0916 C   0  0  0  0  0  0  0  0  0  0  0  0
   68.7510   47.4577   53.8282 C   0  0  0  0  0  0  0  0  0  0  0  0
  8  9  2  0
  9 10  1  0
  9 16  1  0
 10 11  1  0
 11 12  1  0
 12 13  1  0
 12 15  1  0
 13 14  2  0
 13  1  1  0
  1  2  2  0
  1  6  1  0
  2  3  1  0
  3 17  1  0
  3  4  2  0
 17 18  1  0
 18 19  2  0
 18 28  1  0
 19 20  1  0
 20 21  1  0
 21 22  2  0
 21 23  1  0
 23 24  1  0
 23 28  2  0
 24 25  2  0
 25 26  1  0
 26 27  2  0
 27 28  1  0
  4  5  1  0
  5  6  2  0
  6  7  1  0
 15 16  1  0
M  END
>  <minimizedAffinity>  (96) 
-9.77787

$$$$
cs_full_output_folder/data/smiles/355.pdb
     RDKit          3D

 27 30  0  0  0  0  0  0  0  0999 V2000
   69.9216   47.5051   57.1416 C   0  0  0  0  0  0  0  0  0  0  0  0
   70.9978   48.0634   57.8576 C   0  0  0  0  0  0  0  0  0  0  0  0
   71.9134   47.3100   58.5418 C   0  0  0  0  0  0  0  0  0  0  0  0
   71.8044   45.9413   58.5495 C   0  0  0  0  0  0  0  0  0  0  0  0
   70.7865   45.3608   57.8758 C   0  0  0  0  0  0  0  0  0  0  0  0
   69.8483   46.1447   57.1740 C   0  0  0  0  0  0  0  0  0  0  0  0
   69.0266   48.4546   56.4477 C   0  0  0  0  0  0  0  0  0  0  0  0
   70.7517   48.6298   51.2483 O   0  0  0  0  0  0  0  0  0  0  0  0
   70.2955   48.5677   52.4434 C   0  0  0  0  0  0  0  0  0  0  0  0
   70.7803   49.3842   53.3917 N   0  0  0  0  0  0  0  0  0  0  0  0
   70.3342   49.3513   54.6468 N   0  0  0  0  0  0  0  0  0  0  0  0
   69.3616   48.4882   55.0381 C   0  0  0  0  0  0  0  0  0  0  0  0
   68.8476   47.6552   54.1129 C   0  0  0  0  0  0  0  0  0  0  0  0
   69.3080   47.6762   52.7906 C   0  0  0  0  0  0  0  0  0  0  0  0
   68.8235   46.7814   51.7246 C   0  0  0  0  0  0  0  0  0  0  0  0
   67.6948   45.8842   52.0994 C   0  0  0  0  0  0  0  0  0  0  0  0
   67.8757   45.5120   53.5613 C   0  0  0  0  0  0  0  0  0  0  0  0
   67.7269   46.7723   54.4158 C   0  0  0  0  0  0  0  0  0  0  0  0
   70.5846   43.9268   57.7834 N   0  0  0  0  0  0  0  0  0  0  0  0
   69.7855   42.9029   58.7032 S   0  0  0  0  0  0  0  0  0  0  0  0
   71.1754   41.9317   58.5312 O   0  0  0  0  0  0  0  0  0  0  0  0
   69.3688   43.8211   59.7549 O   0  0  0  0  0  0  0  0  0  0  0  0
   68.6213   42.5194   57.3585 C   0  0  0  0  0  0  0  0  0  0  0  0
   68.3785   41.2266   57.0714 C   0  0  0  0  0  0  0  0  0  0  0  0
   67.4585   41.2478   56.0112 C   0  0  0  0  0  0  0  0  0  0  0  0
   67.2400   42.5782   55.7666 C   0  0  0  0  0  0  0  0  0  0  0  0
   67.9714   43.3130   56.6117 O   0  0  0  0  0  0  0  0  0  0  0  0
  8  9  2  0
  9 10  1  0
  9 14  1  0
 10 11  1  0
 11 12  2  0
 12  7  1  0
 12 13  1  0
  7  1  1  0
  1  2  2  0
  1  6  1  0
  2  3  1  0
  3  4  2  0
  4  5  1  0
  5 19  1  0
  5  6  2  0
 19 20  1  0
 20 21  2  0
 20 22  1  0
 20 23  1  0
 23 24  2  0
 23 27  1  0
 24 25  1  0
 25 26  2  0
 26 27  1  0
 13 14  2  0
 13 18  1  0
 14 15  1  0
 15 16  1  0
 16 17  1  0
 17 18  1  0
M  END
>  <minimizedAffinity>  (97) 
-9.77756

$$$$
cs_full_output_folder/data/smiles/5446.pdb
     RDKit          3D

 28 31  0  0  0  0  0  0  0  0999 V2000
   70.6445   45.4480   57.8052 C   0  0  0  0  0  0  0  0  0  0  0  0
   71.3681   46.1436   58.7864 C   0  0  0  0  0  0  0  0  0  0  0  0
   71.3246   47.5108   58.9012 C   0  0  0  0  0  0  0  0  0  0  0  0
   70.5571   48.2706   58.0424 C   0  0  0  0  0  0  0  0  0  0  0  0
   69.8408   47.6213   57.0758 C   0  0  0  0  0  0  0  0  0  0  0  0
   69.9019   46.2267   56.9805 C   0  0  0  0  0  0  0  0  0  0  0  0
   70.1587   43.1269   58.6677 C   0  0  0  0  0  0  0  0  0  0  0  0
   69.3916   43.6229   59.5657 O   0  0  0  0  0  0  0  0  0  0  0  0
   70.7791   44.0394   57.7994 N   0  0  0  0  0  0  0  0  0  0  0  0
   71.2174   37.4448   58.5305 C   0  0  0  0  0  0  0  0  0  0  0  0
   70.8933   38.8981   58.5620 C   0  0  0  0  0  0  0  0  0  0  0  0
   71.8935   39.8077   58.7947 C   0  0  0  0  0  0  0  0  0  0  0  0
   71.6095   41.1470   58.8260 C   0  0  0  0  0  0  0  0  0  0  0  0
   70.3207   41.6644   58.6283 C   0  0  0  0  0  0  0  0  0  0  0  0
   69.3428   40.7597   58.3995 C   0  0  0  0  0  0  0  0  0  0  0  0
   68.0616   41.1383   58.2104 F   0  0  0  0  0  0  0  0  0  0  0  0
   69.6343   39.3843   58.3683 C   0  0  0  0  0  0  0  0  0  0  0  0
   69.0155   48.3675   56.1311 C   0  0  0  0  0  0  0  0  0  0  0  0
   69.4462   48.3673   54.7399 C   0  0  0  0  0  0  0  0  0  0  0  0
   70.4662   49.1393   54.3082 N   0  0  0  0  0  0  0  0  0  0  0  0
   70.8574   49.1419   53.0427 N   0  0  0  0  0  0  0  0  0  0  0  0
   70.2626   48.3751   52.1080 C   0  0  0  0  0  0  0  0  0  0  0  0
   70.6841   48.4203   50.9023 O   0  0  0  0  0  0  0  0  0  0  0  0
   69.2256   47.5733   52.4836 C   0  0  0  0  0  0  0  0  0  0  0  0
   68.8188   47.5741   53.8135 C   0  0  0  0  0  0  0  0  0  0  0  0
   67.7060   46.6339   53.9250 C   0  0  0  0  0  0  0  0  0  0  0  0
   67.8709   45.6948   52.7523 C   0  0  0  0  0  0  0  0  0  0  0  0
   68.3952   46.6342   51.6843 C   0  0  0  0  0  0  0  0  0  0  0  0
 10 11  1  0
 11 12  2  0
 11 17  1  0
 12 13  1  0
 13 14  2  0
 14  7  1  0
 14 15  1  0
  7  8  2  0
  7  9  1  0
  9  1  1  0
  1  2  2  0
  1  6  1  0
  2  3  1  0
  3  4  2  0
  4  5  1  0
  5 18  1  0
  5  6  2  0
 18 19  1  0
 19 20  2  0
 19 25  1  0
 20 21  1  0
 21 22  1  0
 22 23  2  0
 22 24  1  0
 24 25  2  0
 24 28  1  0
 25 26  1  0
 26 27  1  0
 27 28  1  0
 15 16  1  0
 15 17  2  0
M  END
>  <minimizedAffinity>  (98) 
-9.77002

$$$$
cs_full_output_folder/data/smiles/7473.pdb
     RDKit          3D

 29 32  0  0  0  0  0  0  0  0999 V2000
   70.5401   45.7072   58.2134 C   0  0  0  0  0  0  0  0  0  0  0  0
   69.8970   46.6102   57.3574 C   0  0  0  0  0  0  0  0  0  0  0  0
   70.2391   47.9105   57.1853 C   0  0  0  0  0  0  0  0  0  0  0  0
   71.3300   48.3771   57.9328 C   0  0  0  0  0  0  0  0  0  0  0  0
   72.0071   47.5511   58.7896 C   0  0  0  0  0  0  0  0  0  0  0  0
   71.5935   46.2154   58.9149 C   0  0  0  0  0  0  0  0  0  0  0  0
   72.3206   45.4689   59.7880 F   0  0  0  0  0  0  0  0  0  0  0  0
   70.1183   43.3667   57.3125 N   0  0  0  0  0  0  0  0  0  0  0  0
   70.0863   44.3389   58.3152 C   0  0  0  0  0  0  0  0  0  0  0  0
   69.5996   43.9618   59.4408 O   0  0  0  0  0  0  0  0  0  0  0  0
   67.6376   42.5807   56.1415 C   0  0  0  0  0  0  0  0  0  0  0  0
   68.4330   41.6480   56.9862 C   0  0  0  0  0  0  0  0  0  0  0  0
   67.9445   40.3876   57.1917 N   0  0  0  0  0  0  0  0  0  0  0  0
   68.6096   39.4929   57.9430 C   0  0  0  0  0  0  0  0  0  0  0  0
   69.8167   39.8732   58.5146 C   0  0  0  0  0  0  0  0  0  0  0  0
   70.2882   41.1302   58.2987 N   0  0  0  0  0  0  0  0  0  0  0  0
   69.6266   42.0197   57.5520 C   0  0  0  0  0  0  0  0  0  0  0  0
   69.5478   48.8660   56.2777 C   0  0  0  0  0  0  0  0  0  0  0  0
   69.7958   48.6922   54.8667 C   0  0  0  0  0  0  0  0  0  0  0  0
   70.8169   49.3705   54.2632 N   0  0  0  0  0  0  0  0  0  0  0  0
   71.0891   49.2724   52.9761 N   0  0  0  0  0  0  0  0  0  0  0  0
   70.3717   48.4850   52.1467 C   0  0  0  0  0  0  0  0  0  0  0  0
   70.6809   48.4349   50.9307 O   0  0  0  0  0  0  0  0  0  0  0  0
   69.3346   47.7783   52.6909 C   0  0  0  0  0  0  0  0  0  0  0  0
   69.0428   47.8808   54.0597 C   0  0  0  0  0  0  0  0  0  0  0  0
   67.9341   47.1087   54.6075 C   0  0  0  0  0  0  0  0  0  0  0  0
   67.5002   45.9130   53.8509 C   0  0  0  0  0  0  0  0  0  0  0  0
   68.2936   45.6131   52.6313 C   0  0  0  0  0  0  0  0  0  0  0  0
   68.5273   46.8836   51.8168 C   0  0  0  0  0  0  0  0  0  0  0  0
 11 12  1  0
 12 13  2  0
 12 17  1  0
 13 14  1  0
 14 15  2  0
 15 16  1  0
 16 17  2  0
 17  8  1  0
  8  9  1  0
  9 10  2  0
  9  1  1  0
  1  2  2  0
  1  6  1  0
  2  3  1  0
  3 18  1  0
  3  4  2  0
 18 19  1  0
 19 20  2  0
 19 25  1  0
 20 21  1  0
 21 22  1  0
 22 23  2  0
 22 24  1  0
 24 25  2  0
 24 29  1  0
 25 26  1  0
 26 27  1  0
 27 28  1  0
 28 29  1  0
  4  5  1  0
  5  6  2  0
  6  7  1  0
M  END
>  <minimizedAffinity>  (99) 
-9.76823

$$$$
cs_full_output_folder/data/smiles/2287.pdb
     RDKit          3D

 29 32  0  0  0  0  0  0  0  0999 V2000
   70.9264   46.5012   58.2560 C   0  0  0  0  0  0  0  0  0  0  0  0
   70.0014   47.0856   57.4075 C   0  0  0  0  0  0  0  0  0  0  0  0
   69.9934   48.4204   57.0521 C   0  0  0  0  0  0  0  0  0  0  0  0
   70.9635   49.2299   57.5703 C   0  0  0  0  0  0  0  0  0  0  0  0
   71.9125   48.6980   58.4218 C   0  0  0  0  0  0  0  0  0  0  0  0
   71.8873   47.3402   58.7576 C   0  0  0  0  0  0  0  0  0  0  0  0
   72.8574   46.8977   59.5919 F   0  0  0  0  0  0  0  0  0  0  0  0
   70.7912   44.8035   59.8381 O   0  0  0  0  0  0  0  0  0  0  0  0
   70.8498   45.0924   58.5905 C   0  0  0  0  0  0  0  0  0  0  0  0
   70.8339   44.0027   57.7210 N   0  0  0  0  0  0  0  0  0  0  0  0
   70.7492   42.6135   58.1980 C   0  0  0  0  0  0  0  0  0  0  0  0
   69.6285   41.9519   57.4821 C   0  0  2  0  0  0  0  0  0  0  0  0
   68.7508   42.8719   56.6770 C   0  0  0  0  0  0  0  0  0  0  0  0
   67.5127   42.0191   56.4336 C   0  0  0  0  0  0  0  0  0  0  0  0
   67.5535   40.8854   57.4135 C   0  0  1  0  0  0  0  0  0  0  0  0
   68.0846   39.7302   56.8367 F   0  0  0  0  0  0  0  0  0  0  0  0
   68.5970   41.3598   58.4335 C   0  0  0  0  0  0  0  0  0  0  0  0
   68.9375   48.9746   56.1647 C   0  0  0  0  0  0  0  0  0  0  0  0
   69.3301   48.7800   54.7872 C   0  0  0  0  0  0  0  0  0  0  0  0
   70.1955   49.7257   54.2759 N   0  0  0  0  0  0  0  0  0  0  0  0
   70.6042   49.7106   53.0251 N   0  0  0  0  0  0  0  0  0  0  0  0
   70.1621   48.7318   52.2013 C   0  0  0  0  0  0  0  0  0  0  0  0
   70.5432   48.7090   51.0115 O   0  0  0  0  0  0  0  0  0  0  0  0
   69.2931   47.7550   52.6621 C   0  0  0  0  0  0  0  0  0  0  0  0
   68.8641   46.7577   51.8133 C   0  0  0  0  0  0  0  0  0  0  0  0
   68.0074   45.7970   52.3286 C   0  0  0  0  0  0  0  0  0  0  0  0
   67.5859   45.8174   53.6390 C   0  0  0  0  0  0  0  0  0  0  0  0
   68.0208   46.8290   54.4976 C   0  0  0  0  0  0  0  0  0  0  0  0
   68.8651   47.7796   53.9942 C   0  0  0  0  0  0  0  0  0  0  0  0
  8  9  2  0
  9 10  1  0
  9  1  1  0
 10 11  1  0
 12 11  1  1
 12 13  1  0
 12 17  1  0
 13 14  1  0
 14 15  1  0
 15 16  1  6
 15 17  1  0
  1  2  2  0
  1  6  1  0
  2  3  1  0
  3 18  1  0
  3  4  2  0
 18 19  1  0
 19 20  2  0
 19 29  1  0
 20 21  1  0
 21 22  1  0
 22 23  2  0
 22 24  1  0
 24 25  1  0
 24 29  2  0
 25 26  2  0
 26 27  1  0
 27 28  2  0
 28 29  1  0
  4  5  1  0
  5  6  2  0
  6  7  1  0
M  END
>  <minimizedAffinity>  (100) 
-9.76636

$$$$
cs_full_output_folder/data/smiles/3473.pdb
     RDKit          3D

 28 30  0  0  0  0  0  0  0  0999 V2000
   67.5543   44.2992   54.7843 N   0  0  0  0  0  0  0  0  0  0  0  0
   67.9581   43.5262   55.8953 C   0  0  0  0  0  0  0  0  0  0  0  0
   68.8997   44.0179   56.5921 O   0  0  0  0  0  0  0  0  0  0  0  0
   67.4307   42.2896   56.2934 N   0  0  0  0  0  0  0  0  0  0  0  0
   69.2251   47.9104   53.4329 C   0  0  0  0  0  0  0  0  0  0  0  0
   68.8171   46.9466   52.5295 C   0  0  0  0  0  0  0  0  0  0  0  0
   68.2706   45.7717   53.0273 C   0  0  0  0  0  0  0  0  0  0  0  0
   68.1227   45.5359   54.3967 C   0  0  0  0  0  0  0  0  0  0  0  0
   68.5418   46.5229   55.2513 C   0  0  0  0  0  0  0  0  0  0  0  0
   69.0959   47.7175   54.7868 C   0  0  0  0  0  0  0  0  0  0  0  0
   69.8220   49.4718   51.1049 N   0  0  0  0  0  0  0  0  0  0  0  0
   69.9192   49.3873   52.8288 S   0  0  0  0  0  0  0  0  0  0  0  0
   69.2349   50.5853   53.4508 O   0  0  0  0  0  0  0  0  0  0  0  0
   71.3682   49.4225   53.2831 O   0  0  0  0  0  0  0  0  0  0  0  0
   67.8378   41.5325   57.4014 C   0  0  0  0  0  0  0  0  0  0  0  0
   67.0031   41.2983   58.4488 C   0  0  0  0  0  0  0  0  0  0  0  0
   67.4334   40.5415   59.5501 C   0  0  0  0  0  0  0  0  0  0  0  0
   68.7270   40.0391   59.5486 C   0  0  0  0  0  0  0  0  0  0  0  0
   69.5798   40.2702   58.4979 C   0  0  0  0  0  0  0  0  0  0  0  0
   69.1108   41.0191   57.4373 C   0  0  0  0  0  0  0  0  0  0  0  0
   70.9158   39.7089   58.5477 C   0  0  0  0  0  0  0  0  0  0  0  0
   71.9129   40.4696   58.4832 O   0  0  0  0  0  0  0  0  0  0  0  0
   71.1117   38.2540   58.6714 C   0  0  0  0  0  0  0  0  0  0  0  0
   70.5046   37.5081   59.6510 C   0  0  0  0  0  0  0  0  0  0  0  0
   70.6843   36.1485   59.8126 C   0  0  0  0  0  0  0  0  0  0  0  0
   71.5404   35.5016   58.9173 C   0  0  0  0  0  0  0  0  0  0  0  0
   72.1604   36.2270   57.9245 C   0  0  0  0  0  0  0  0  0  0  0  0
   71.9440   37.6081   57.8039 C   0  0  0  0  0  0  0  0  0  0  0  0
 11 12  1  0
 12 13  2  0
 12 14  2  0
 12  5  1  0
  5  6  2  0
  5 10  1  0
  6  7  1  0
  7  8  2  0
  8  1  1  0
  8  9  1  0
  1  2  1  0
  2  3  2  0
  2  4  1  0
  4 15  1  0
 15 16  2  0
 15 20  1  0
 16 17  1  0
 17 18  2  0
 18 19  1  0
 19 21  1  0
 19 20  2  0
 21 22  2  0
 21 23  1  0
 23 24  2  0
 23 28  1  0
 24 25  1  0
 25 26  2  0
 26 27  1  0
 27 28  2  0
  9 10  2  0
M  END
>  <minimizedAffinity>  (101) 
-9.76130

$$$$
cs_full_output_folder/data/smiles/5247.pdb
     RDKit          3D

 28 31  0  0  0  0  0  0  0  0999 V2000
   69.8056   48.0940   57.2158 C   0  0  0  0  0  0  0  0  0  0  0  0
   70.6397   48.9077   57.9459 C   0  0  0  0  0  0  0  0  0  0  0  0
   71.4874   48.3174   58.8850 C   0  0  0  0  0  0  0  0  0  0  0  0
   71.4930   46.9571   59.0809 C   0  0  0  0  0  0  0  0  0  0  0  0
   72.3388   46.4254   60.0170 F   0  0  0  0  0  0  0  0  0  0  0  0
   70.6383   46.1432   58.3323 C   0  0  0  0  0  0  0  0  0  0  0  0
   69.8195   46.7104   57.4269 C   0  0  0  0  0  0  0  0  0  0  0  0
   68.8704   48.6941   56.2404 C   0  0  0  0  0  0  0  0  0  0  0  0
   70.5963   48.6902   51.0292 O   0  0  0  0  0  0  0  0  0  0  0  0
   70.2102   48.6940   52.2251 C   0  0  0  0  0  0  0  0  0  0  0  0
   70.6345   49.6005   53.1394 N   0  0  0  0  0  0  0  0  0  0  0  0
   70.2168   49.5868   54.3816 N   0  0  0  0  0  0  0  0  0  0  0  0
   69.3284   48.6663   54.8467 C   0  0  0  0  0  0  0  0  0  0  0  0
   68.8775   47.7308   53.9444 C   0  0  0  0  0  0  0  0  0  0  0  0
   67.9697   46.7448   54.3076 C   0  0  0  0  0  0  0  0  0  0  0  0
   67.4931   45.7884   53.4370 C   0  0  0  0  0  0  0  0  0  0  0  0
   67.9469   45.8238   52.1462 C   0  0  0  0  0  0  0  0  0  0  0  0
   68.8538   46.7784   51.7042 C   0  0  0  0  0  0  0  0  0  0  0  0
   69.3100   47.7230   52.6099 C   0  0  0  0  0  0  0  0  0  0  0  0
   70.7237   44.6866   58.6113 C   0  0  0  0  0  0  0  0  0  0  0  0
   69.7218   44.1469   59.3401 O   0  0  0  0  0  0  0  0  0  0  0  0
   69.0154   43.1560   58.8635 N   0  0  0  0  0  0  0  0  0  0  0  0
   69.5342   42.5624   57.6749 C   0  0  0  0  0  0  0  0  0  0  0  0
   68.5768   41.5479   57.0775 C   0  0  0  0  0  0  0  0  0  0  0  0
   67.2198   41.6586   57.6144 C   0  0  0  0  0  0  0  0  0  0  0  0
   66.7497   41.6714   58.8126 N   0  0  0  0  0  0  0  0  0  0  0  0
   67.5179   41.5637   60.0243 C   0  0  0  0  0  0  0  0  0  0  0  0
   68.9107   42.1005   59.8577 C   0  0  0  0  0  0  0  0  0  0  0  0
  9 10  2  0
 10 11  1  0
 10 19  1  0
 11 12  1  0
 12 13  2  0
 13  8  1  0
 13 14  1  0
  8  1  1  0
  1  2  2  0
  1  7  1  0
  2  3  1  0
  3  4  2  0
  4  5  1  0
  4  6  1  0
  6 20  1  0
  6  7  2  0
 20 21  1  0
 21 22  1  0
 22 23  1  0
 22 28  1  0
 23 24  1  0
 24 25  1  0
 25 26  2  0
 26 27  1  0
 27 28  1  0
 14 15  1  0
 14 19  2  0
 15 16  2  0
 16 17  1  0
 17 18  2  0
 18 19  1  0
M  END
>  <minimizedAffinity>  (102) 
-9.74911

$$$$
cs_full_output_folder/data/smiles/423.pdb
     RDKit          3D

 27 29  0  0  0  0  0  0  0  0999 V2000
   70.3058   39.0824   58.8181 C   0  0  0  0  0  0  0  0  0  0  0  0
   70.9004   40.3200   58.9088 C   0  0  0  0  0  0  0  0  0  0  0  0
   70.3500   41.4253   58.2464 C   0  0  0  0  0  0  0  0  0  0  0  0
   69.2054   41.3245   57.4868 C   0  0  0  0  0  0  0  0  0  0  0  0
   68.6094   40.0846   57.3977 C   0  0  0  0  0  0  0  0  0  0  0  0
   69.1590   39.0012   58.0535 C   0  0  0  0  0  0  0  0  0  0  0  0
   67.4664   40.2640   56.5681 N   0  0  0  0  0  0  0  0  0  0  0  0
   67.3448   41.6035   56.1396 C   0  0  0  0  0  0  0  0  0  0  0  0
   66.4824   42.1466   55.4083 O   0  0  0  0  0  0  0  0  0  0  0  0
   68.4685   42.3218   56.7252 C   0  0  0  0  0  0  0  0  0  0  0  0
   68.7088   43.5802   56.5653 N   0  0  0  0  0  0  0  0  0  0  0  0
   70.8582   37.8525   59.4943 C   0  0  0  0  0  0  0  0  0  0  0  0
   71.8525   38.3059   60.5682 C   0  0  0  0  0  0  0  0  0  0  0  0
   69.7899   37.0660   60.2084 C   0  0  0  0  0  0  0  0  0  0  0  0
   71.5870   35.5382   59.1313 C   0  0  0  0  0  0  0  0  0  0  0  0
   71.5338   36.9237   58.5119 C   0  0  0  0  0  0  0  0  0  0  0  0
   67.8863   44.3936   55.7925 N   0  0  0  0  0  0  0  0  0  0  0  0
   68.3321   45.5700   55.1199 C   0  0  0  0  0  0  0  0  0  0  0  0
   68.9015   46.6264   55.7962 C   0  0  0  0  0  0  0  0  0  0  0  0
   69.3246   47.7517   55.1261 C   0  0  0  0  0  0  0  0  0  0  0  0
   69.2046   47.8860   53.7586 C   0  0  0  0  0  0  0  0  0  0  0  0
   68.6334   46.8216   53.0947 C   0  0  0  0  0  0  0  0  0  0  0  0
   68.2030   45.6859   53.7419 C   0  0  0  0  0  0  0  0  0  0  0  0
   69.7453   49.3215   52.9114 S   0  0  0  0  0  0  0  0  0  0  0  0
   71.4118   49.5939   53.3477 N   0  0  0  0  0  0  0  0  0  0  0  0
   68.9744   50.5333   53.2891 O   0  0  0  0  0  0  0  0  0  0  0  0
   69.6303   49.1236   51.4308 O   0  0  0  0  0  0  0  0  0  0  0  0
 15 16  1  0
 16 12  1  0
 12 13  1  0
 12 14  1  0
 12  1  1  0
  1  2  2  0
  1  6  1  0
  2  3  1  0
  3  4  2  0
  4  5  1  0
  4 10  1  0
  5  6  2  0
  5  7  1  0
  7  8  1  0
  8  9  2  0
  8 10  1  0
 10 11  2  0
 11 17  1  0
 17 18  1  0
 18 19  2  0
 18 23  1  0
 19 20  1  0
 20 21  2  0
 21 24  1  0
 21 22  1  0
 24 25  1  0
 24 26  2  0
 24 27  2  0
 22 23  2  0
M  END
>  <minimizedAffinity>  (103) 
-9.74791

$$$$
cs_full_output_folder/data/smiles/6827.pdb
     RDKit          3D

 27 30  0  0  0  0  0  0  0  0999 V2000
   70.6873   45.3632   57.8939 C   0  0  0  0  0  0  0  0  0  0  0  0
   71.5337   46.0259   58.7579 C   0  0  0  0  0  0  0  0  0  0  0  0
   71.5261   47.4154   58.8540 C   0  0  0  0  0  0  0  0  0  0  0  0
   70.6532   48.1405   58.0644 C   0  0  0  0  0  0  0  0  0  0  0  0
   69.7979   47.5375   57.1955 C   0  0  0  0  0  0  0  0  0  0  0  0
   69.8412   46.1344   57.1343 C   0  0  0  0  0  0  0  0  0  0  0  0
   69.2447   43.6669   59.5152 O   0  0  0  0  0  0  0  0  0  0  0  0
   69.9297   43.0947   58.6282 C   0  0  0  0  0  0  0  0  0  0  0  0
   70.6814   43.9445   57.7810 N   0  0  0  0  0  0  0  0  0  0  0  0
   69.9055   41.6410   58.5350 C   0  0  0  0  0  0  0  0  0  0  0  0
   68.7566   40.9067   58.3708 C   0  0  0  0  0  0  0  0  0  0  0  0
   68.7952   39.5121   58.2872 C   0  0  0  0  0  0  0  0  0  0  0  0
   69.9832   38.8183   58.3660 C   0  0  0  0  0  0  0  0  0  0  0  0
   71.1380   39.5603   58.5315 C   0  0  0  0  0  0  0  0  0  0  0  0
   71.0877   40.9347   58.6130 C   0  0  0  0  0  0  0  0  0  0  0  0
   68.8481   48.2780   56.3157 C   0  0  0  0  0  0  0  0  0  0  0  0
   69.2837   48.3318   54.8959 C   0  0  0  0  0  0  0  0  0  0  0  0
   70.1911   49.2803   54.5038 N   0  0  0  0  0  0  0  0  0  0  0  0
   70.6072   49.4457   53.2796 N   0  0  0  0  0  0  0  0  0  0  0  0
   70.1628   48.6735   52.2747 C   0  0  0  0  0  0  0  0  0  0  0  0
   70.5536   48.8216   51.0908 O   0  0  0  0  0  0  0  0  0  0  0  0
   69.2431   47.6894   52.5871 C   0  0  0  0  0  0  0  0  0  0  0  0
   68.7579   46.8527   51.5941 C   0  0  0  0  0  0  0  0  0  0  0  0
   67.8528   45.8583   51.8865 C   0  0  0  0  0  0  0  0  0  0  0  0
   67.4393   45.7123   53.1861 C   0  0  0  0  0  0  0  0  0  0  0  0
   67.9040   46.5287   54.1903 C   0  0  0  0  0  0  0  0  0  0  0  0
   68.7994   47.5146   53.9054 C   0  0  0  0  0  0  0  0  0  0  0  0
  7  8  2  0
  8  9  1  0
  8 10  1  0
  9  1  1  0
  1  2  2  0
  1  6  1  0
  2  3  1  0
  3  4  2  0
  4  5  1  0
  5 16  1  0
  5  6  2  0
 16 17  1  0
 17 18  2  0
 17 27  1  0
 18 19  1  0
 19 20  1  0
 20 21  2  0
 20 22  1  0
 22 23  1  0
 22 27  2  0
 23 24  2  0
 24 25  1  0
 25 26  2  0
 26 27  1  0
 10 11  2  0
 10 15  1  0
 11 12  1  0
 12 13  2  0
 13 14  1  0
 14 15  2  0
M  END
>  <minimizedAffinity>  (104) 
-9.72985

$$$$
cs_full_output_folder/data/smiles/8082.pdb
     RDKit          3D

 29 32  0  0  0  0  0  0  0  0999 V2000
   70.4828   45.1550   57.8731 C   0  0  0  0  0  0  0  0  0  0  0  0
   69.7303   46.0081   57.0477 C   0  0  0  0  0  0  0  0  0  0  0  0
   69.7346   47.3635   57.1132 C   0  0  0  0  0  0  0  0  0  0  0  0
   70.5573   47.9597   58.0807 C   0  0  0  0  0  0  0  0  0  0  0  0
   71.3175   47.1786   58.9158 C   0  0  0  0  0  0  0  0  0  0  0  0
   71.2737   45.7759   58.8030 C   0  0  0  0  0  0  0  0  0  0  0  0
   72.0462   45.0591   59.6376 F   0  0  0  0  0  0  0  0  0  0  0  0
   69.2042   42.9764   57.7222 N   0  0  0  0  0  0  0  0  0  0  0  0
   70.3772   43.7147   57.7182 C   0  0  0  0  0  0  0  0  0  0  0  0
   71.4604   43.0412   57.5586 O   0  0  0  0  0  0  0  0  0  0  0  0
   66.1680   42.2877   59.5149 O   0  0  0  0  0  0  0  0  0  0  0  0
   66.7712   41.6080   58.7281 C   0  0  0  0  0  0  0  0  0  0  0  0
   66.7453   41.8690   57.2665 C   0  0  0  0  0  0  0  0  0  0  0  0
   67.9770   41.2207   56.6782 C   0  0  0  0  0  0  0  0  0  0  0  0
   69.1687   41.5107   57.5633 C   0  0  0  0  0  0  0  0  0  0  0  0
   69.0404   40.7870   58.8541 C   0  0  0  0  0  0  0  0  0  0  0  0
   67.5829   40.4592   59.1985 C   0  0  0  0  0  0  0  0  0  0  0  0
   68.9185   48.2777   56.2430 C   0  0  0  0  0  0  0  0  0  0  0  0
   69.3726   48.3193   54.8476 C   0  0  0  0  0  0  0  0  0  0  0  0
   70.3198   49.2109   54.5134 N   0  0  0  0  0  0  0  0  0  0  0  0
   70.7413   49.3252   53.2658 N   0  0  0  0  0  0  0  0  0  0  0  0
   70.2588   48.5732   52.2703 C   0  0  0  0  0  0  0  0  0  0  0  0
   70.6646   48.6893   51.0842 O   0  0  0  0  0  0  0  0  0  0  0  0
   69.2946   47.6459   52.5438 C   0  0  0  0  0  0  0  0  0  0  0  0
   68.7919   46.8505   51.5372 C   0  0  0  0  0  0  0  0  0  0  0  0
   67.8332   45.9064   51.8068 C   0  0  0  0  0  0  0  0  0  0  0  0
   67.3935   45.7793   53.0922 C   0  0  0  0  0  0  0  0  0  0  0  0
   67.8953   46.5735   54.0917 C   0  0  0  0  0  0  0  0  0  0  0  0
   68.8512   47.5274   53.8679 C   0  0  0  0  0  0  0  0  0  0  0  0
 11 12  2  0
 12 13  1  0
 12 17  1  0
 13 14  1  0
 14 15  1  0
 15  8  1  0
 15 16  1  0
  8  9  1  0
  9 10  2  0
  9  1  1  0
  1  2  2  0
  1  6  1  0
  2  3  1  0
  3 18  1  0
  3  4  2  0
 18 19  1  0
 19 20  2  0
 19 29  1  0
 20 21  1  0
 21 22  1  0
 22 23  2  0
 22 24  1  0
 24 25  1  0
 24 29  2  0
 25 26  2  0
 26 27  1  0
 27 28  2  0
 28 29  1  0
  4  5  1  0
  5  6  2  0
  6  7  1  0
 16 17  1  0
M  END
>  <minimizedAffinity>  (105) 
-9.72763

$$$$
cs_full_output_folder/data/smiles/6580.pdb
     RDKit          3D

 27 30  0  0  0  0  0  0  0  0999 V2000
   70.4815   44.5945   57.7480 C   0  0  0  0  0  0  0  0  0  0  0  0
   69.6470   45.4925   57.0576 C   0  0  0  0  0  0  0  0  0  0  0  0
   69.7206   46.8396   57.1730 C   0  0  0  0  0  0  0  0  0  0  0  0
   70.6818   47.3983   58.0313 C   0  0  0  0  0  0  0  0  0  0  0  0
   71.5134   46.5576   58.7221 C   0  0  0  0  0  0  0  0  0  0  0  0
   71.4090   45.1660   58.5776 C   0  0  0  0  0  0  0  0  0  0  0  0
   72.3015   44.4604   59.3045 F   0  0  0  0  0  0  0  0  0  0  0  0
   71.3956   42.5469   57.2660 O   0  0  0  0  0  0  0  0  0  0  0  0
   70.3210   43.1841   57.5822 C   0  0  0  0  0  0  0  0  0  0  0  0
   69.1269   42.3407   57.7128 C   0  0  0  0  0  0  0  0  0  0  0  0
   69.4504   40.9541   58.1886 C   0  0  0  0  0  0  0  0  0  0  0  0
   68.3672   39.9442   57.9402 C   0  0  0  0  0  0  0  0  0  0  0  0
   67.8409   39.9744   56.6307 N   0  0  0  0  0  0  0  0  0  0  0  0
   67.5014   41.2294   56.0772 C   0  0  0  0  0  0  0  0  0  0  0  0
   68.1658   42.4411   56.5993 C   0  0  0  0  0  0  0  0  0  0  0  0
   68.8213   47.7430   56.4017 C   0  0  0  0  0  0  0  0  0  0  0  0
   69.2413   48.0043   55.0289 C   0  0  0  0  0  0  0  0  0  0  0  0
   70.1838   48.9664   54.7863 N   0  0  0  0  0  0  0  0  0  0  0  0
   70.6518   49.2286   53.5809 N   0  0  0  0  0  0  0  0  0  0  0  0
   70.2239   48.5580   52.5052 C   0  0  0  0  0  0  0  0  0  0  0  0
   70.6467   48.7836   51.3669 O   0  0  0  0  0  0  0  0  0  0  0  0
   69.2605   47.5652   52.7049 C   0  0  0  0  0  0  0  0  0  0  0  0
   68.7932   46.8614   51.5882 C   0  0  0  0  0  0  0  0  0  0  0  0
   67.8334   45.8834   51.7371 C   0  0  0  0  0  0  0  0  0  0  0  0
   67.3618   45.6321   53.0062 C   0  0  0  0  0  0  0  0  0  0  0  0
   67.7991   46.3040   54.1189 C   0  0  0  0  0  0  0  0  0  0  0  0
   68.7718   47.2914   53.9631 C   0  0  0  0  0  0  0  0  0  0  0  0
  8  9  2  0
  9  1  1  0
  9 10  1  0
  1  2  2  0
  1  6  1  0
  2  3  1  0
  3 16  1  0
  3  4  2  0
 16 17  1  0
 17 18  2  0
 17 27  1  0
 18 19  1  0
 19 20  1  0
 20 21  2  0
 20 22  1  0
 22 23  1  0
 22 27  2  0
 23 24  2  0
 24 25  1  0
 25 26  2  0
 26 27  1  0
  4  5  1  0
  5  6  2  0
  6  7  1  0
 10 11  1  0
 10 15  1  0
 11 12  1  0
 12 13  1  0
 13 14  1  0
 14 15  1  0
M  CHG  1  13   1
M  END
>  <minimizedAffinity>  (106) 
-9.72186

$$$$
cs_full_output_folder/data/smiles/4754.pdb
     RDKit          3D

 29 32  0  0  0  0  0  0  0  0999 V2000
   70.7524   46.0433   58.1176 C   0  0  0  0  0  0  0  0  0  0  0  0
   69.8701   46.8302   57.3847 C   0  0  0  0  0  0  0  0  0  0  0  0
   70.0846   48.1271   57.0207 C   0  0  0  0  0  0  0  0  0  0  0  0
   71.3073   48.6879   57.4345 C   0  0  0  0  0  0  0  0  0  0  0  0
   72.2025   47.9442   58.1587 C   0  0  0  0  0  0  0  0  0  0  0  0
   71.9269   46.6100   58.5045 C   0  0  0  0  0  0  0  0  0  0  0  0
   72.8743   45.9818   59.2303 F   0  0  0  0  0  0  0  0  0  0  0  0
   69.8809   44.4069   59.5575 O   0  0  0  0  0  0  0  0  0  0  0  0
   70.3871   44.6372   58.4207 C   0  0  0  0  0  0  0  0  0  0  0  0
   70.5511   43.5586   57.5686 N   0  0  0  0  0  0  0  0  0  0  0  0
   70.2290   42.1861   57.7585 C   0  0  0  0  0  0  0  0  0  0  0  0
   68.9467   41.7833   57.1469 C   0  0  0  0  0  0  0  0  0  0  0  0
   68.2777   42.7423   56.4663 C   0  0  0  0  0  0  0  0  0  0  0  0
   66.9877   42.3655   55.8494 C   0  0  0  0  0  0  0  0  0  0  0  0
   66.9234   40.9786   55.3331 C   0  0  0  0  0  0  0  0  0  0  0  0
   67.7641   40.0909   55.9051 O   0  0  0  0  0  0  0  0  0  0  0  0
   68.3458   40.4412   57.1259 C   0  0  0  0  0  0  0  0  0  0  0  0
   69.1595   48.9786   56.2226 C   0  0  0  0  0  0  0  0  0  0  0  0
   69.4880   48.8131   54.8021 C   0  0  0  0  0  0  0  0  0  0  0  0
   70.3910   49.6606   54.2178 N   0  0  0  0  0  0  0  0  0  0  0  0
   70.7640   49.5301   52.9484 N   0  0  0  0  0  0  0  0  0  0  0  0
   70.2891   48.5696   52.1601 C   0  0  0  0  0  0  0  0  0  0  0  0
   70.6532   48.4681   50.9824 O   0  0  0  0  0  0  0  0  0  0  0  0
   69.3808   47.6875   52.6820 C   0  0  0  0  0  0  0  0  0  0  0  0
   68.8873   46.7118   51.8546 C   0  0  0  0  0  0  0  0  0  0  0  0
   67.9609   45.8318   52.3739 C   0  0  0  0  0  0  0  0  0  0  0  0
   67.5533   45.9458   53.6844 C   0  0  0  0  0  0  0  0  0  0  0  0
   68.0629   46.9427   54.5129 C   0  0  0  0  0  0  0  0  0  0  0  0
   68.9794   47.8195   54.0252 C   0  0  0  0  0  0  0  0  0  0  0  0
  8  9  2  0
  9 10  1  0
  9  1  1  0
 10 11  1  0
 11 12  1  0
 12 13  2  0
 12 17  1  0
 13 14  1  0
 14 15  1  0
 15 16  1  0
 16 17  1  0
  1  2  2  0
  1  6  1  0
  2  3  1  0
  3 18  1  0
  3  4  2  0
 18 19  1  0
 19 20  2  0
 19 29  1  0
 20 21  1  0
 21 22  1  0
 22 23  2  0
 22 24  1  0
 24 25  1  0
 24 29  2  0
 25 26  2  0
 26 27  1  0
 27 28  2  0
 28 29  1  0
  4  5  1  0
  5  6  2  0
  6  7  1  0
M  END
>  <minimizedAffinity>  (107) 
-9.71826

$$$$
cs_full_output_folder/data/smiles/6957.pdb
     RDKit          3D

 28 31  0  0  0  0  0  0  0  0999 V2000
   70.4382   44.4474   57.7381 C   0  0  0  0  0  0  0  0  0  0  0  0
   71.4400   44.9211   58.5498 C   0  0  0  0  0  0  0  0  0  0  0  0
   71.6260   46.2745   58.7786 C   0  0  0  0  0  0  0  0  0  0  0  0
   70.7723   47.1618   58.1677 C   0  0  0  0  0  0  0  0  0  0  0  0
   69.7492   46.6726   57.3390 C   0  0  0  0  0  0  0  0  0  0  0  0
   69.6219   45.3439   57.1583 N   0  0  0  0  0  0  0  0  0  0  0  0
   68.7828   43.0052   59.2289 O   0  0  0  0  0  0  0  0  0  0  0  0
   69.3959   42.2829   58.3368 C   0  0  0  0  0  0  0  0  0  0  0  0
   70.2913   43.0186   57.5292 N   0  0  0  0  0  0  0  0  0  0  0  0
   68.9955   40.5959   58.3157 S   0  0  0  0  0  0  0  0  0  0  0  0
   70.2371   39.4137   58.5608 C   0  0  0  0  0  0  0  0  0  0  0  0
   70.0190   38.0787   58.7098 C   0  0  0  0  0  0  0  0  0  0  0  0
   71.0788   37.1863   58.8646 C   0  0  0  0  0  0  0  0  0  0  0  0
   72.3679   37.6440   58.8701 C   0  0  0  0  0  0  0  0  0  0  0  0
   72.6216   39.0105   58.7214 C   0  0  0  0  0  0  0  0  0  0  0  0
   71.5570   39.8503   58.5720 C   0  0  0  0  0  0  0  0  0  0  0  0
   68.8566   47.6510   56.6487 C   0  0  0  0  0  0  0  0  0  0  0  0
   69.3073   48.0231   55.3032 C   0  0  0  0  0  0  0  0  0  0  0  0
   70.2371   48.9909   55.1214 N   0  0  0  0  0  0  0  0  0  0  0  0
   70.7174   49.3284   53.9442 N   0  0  0  0  0  0  0  0  0  0  0  0
   70.2935   48.7084   52.8368 C   0  0  0  0  0  0  0  0  0  0  0  0
   70.7516   49.0275   51.7070 O   0  0  0  0  0  0  0  0  0  0  0  0
   69.3301   47.6974   52.9619 C   0  0  0  0  0  0  0  0  0  0  0  0
   68.8294   47.3456   54.1835 C   0  0  0  0  0  0  0  0  0  0  0  0
   67.7875   46.3387   54.3008 C   0  0  0  0  0  0  0  0  0  0  0  0
   67.6383   45.4301   53.1427 C   0  0  0  0  0  0  0  0  0  0  0  0
   67.8340   46.0502   51.8033 C   0  0  0  0  0  0  0  0  0  0  0  0
   68.9080   47.0634   51.7229 C   0  0  0  0  0  0  0  0  0  0  0  0
  7  8  2  0
  8  9  1  0
  8 10  1  0
  9  1  1  0
  1  2  2  0
  1  6  1  0
  2  3  1  0
  3  4  2  0
  4  5  1  0
  5 17  1  0
  5  6  2  0
 17 18  1  0
 18 19  2  0
 18 24  1  0
 19 20  1  0
 20 21  1  0
 21 22  2  0
 21 23  1  0
 23 24  2  0
 23 28  1  0
 24 25  1  0
 25 26  1  0
 26 27  1  0
 27 28  1  0
 10 11  1  0
 11 12  2  0
 11 16  1  0
 12 13  1  0
 13 14  2  0
 14 15  1  0
 15 16  2  0
M  END
>  <minimizedAffinity>  (108) 
-9.71599

$$$$
cs_full_output_folder/data/smiles/3240.pdb
     RDKit          3D

 28 31  0  0  0  0  0  0  0  0999 V2000
   71.4167   47.1461   58.9315 C   0  0  0  0  0  0  0  0  0  0  0  0
   70.6098   47.9605   58.1433 C   0  0  0  0  0  0  0  0  0  0  0  0
   69.7662   47.4689   57.1825 C   0  0  0  0  0  0  0  0  0  0  0  0
   69.7783   46.0667   57.0573 C   0  0  0  0  0  0  0  0  0  0  0  0
   70.5522   45.2442   57.8100 C   0  0  0  0  0  0  0  0  0  0  0  0
   71.3851   45.7880   58.7628 C   0  0  0  0  0  0  0  0  0  0  0  0
   72.1728   44.9912   59.5330 F   0  0  0  0  0  0  0  0  0  0  0  0
   72.0458   47.5569   61.1532 O   0  0  0  0  0  0  0  0  0  0  0  0
   72.3070   47.6827   59.9449 C   0  0  0  0  0  0  0  0  0  0  0  0
   73.4891   48.3587   59.5558 N   0  0  0  0  0  0  0  0  0  0  0  0
   74.3328   48.8646   60.6199 C   0  0  0  0  0  0  0  0  0  0  0  0
   74.7370   50.2903   60.3249 C   0  0  0  0  0  0  0  0  0  0  0  0
   75.7707   50.3248   59.2366 C   0  0  0  0  0  0  0  0  0  0  0  0
   75.9503   49.4817   58.2297 C   0  0  0  0  0  0  0  0  0  0  0  0
   75.2233   48.2630   57.8472 C   0  0  0  0  0  0  0  0  0  0  0  0
   73.7541   48.4860   58.1356 C   0  0  0  0  0  0  0  0  0  0  0  0
   68.8864   48.2734   56.2984 C   0  0  0  0  0  0  0  0  0  0  0  0
   69.3107   48.3350   54.8983 C   0  0  0  0  0  0  0  0  0  0  0  0
   70.2262   49.2712   54.4934 N   0  0  0  0  0  0  0  0  0  0  0  0
   70.6115   49.3998   53.2335 N   0  0  0  0  0  0  0  0  0  0  0  0
   70.1454   48.6328   52.2461 C   0  0  0  0  0  0  0  0  0  0  0  0
   70.5623   48.8192   51.0658 O   0  0  0  0  0  0  0  0  0  0  0  0
   69.2299   47.6721   52.5546 C   0  0  0  0  0  0  0  0  0  0  0  0
   68.7576   46.8735   51.5488 C   0  0  0  0  0  0  0  0  0  0  0  0
   67.8536   45.8964   51.8290 C   0  0  0  0  0  0  0  0  0  0  0  0
   67.4389   45.7434   53.1453 C   0  0  0  0  0  0  0  0  0  0  0  0
   67.9180   46.5489   54.1466 C   0  0  0  0  0  0  0  0  0  0  0  0
   68.8291   47.5431   53.8867 C   0  0  0  0  0  0  0  0  0  0  0  0
  8  9  2  0
  9  1  1  0
  9 10  1  0
  1  2  2  0
  1  6  1  0
  2  3  1  0
  3 17  1  0
  3  4  2  0
 17 18  1  0
 18 19  2  0
 18 28  1  0
 19 20  1  0
 20 21  1  0
 21 22  2  0
 21 23  1  0
 23 24  1  0
 23 28  2  0
 24 25  2  0
 25 26  1  0
 26 27  2  0
 27 28  1  0
  4  5  1  0
  5  6  2  0
  6  7  1  0
 10 11  1  0
 10 16  1  0
 11 12  1  0
 12 13  1  0
 13 14  2  0
 14 15  1  0
 15 16  1  0
M  END
>  <minimizedAffinity>  (109) 
-9.71526

$$$$
cs_full_output_folder/data/smiles/396.pdb
     RDKit          3D

 27 28  0  0  0  0  0  0  0  0999 V2000
   67.7845   41.9809   56.8204 C   0  0  0  0  0  0  0  0  0  0  0  0
   67.7852   41.2729   55.7976 O   0  0  0  0  0  0  0  0  0  0  0  0
   67.8956   43.3836   56.6184 N   0  0  0  0  0  0  0  0  0  0  0  0
   67.9992   43.9802   55.3695 N   0  0  0  0  0  0  0  0  0  0  0  0
   68.2431   45.3595   55.1788 C   0  0  0  0  0  0  0  0  0  0  0  0
   68.3683   46.0613   56.2147 O   0  0  0  0  0  0  0  0  0  0  0  0
   68.3547   45.9915   53.8746 C   0  0  0  0  0  0  0  0  0  0  0  0
   67.5660   45.5095   52.8327 C   0  0  0  0  0  0  0  0  0  0  0  0
   67.5850   46.0247   51.5590 C   0  0  0  0  0  0  0  0  0  0  0  0
   68.4407   47.0883   51.2972 C   0  0  0  0  0  0  0  0  0  0  0  0
   69.2409   47.6015   52.2925 C   0  0  0  0  0  0  0  0  0  0  0  0
   69.1875   47.0433   53.5749 C   0  0  0  0  0  0  0  0  0  0  0  0
   70.1208   48.6862   52.0427 N   0  0  0  0  0  0  0  0  0  0  0  0
   70.0113   49.4106   51.0392 O   0  0  0  0  0  0  0  0  0  0  0  0
   71.1374   48.9705   52.9198 O   0  0  0  0  0  0  0  0  0  0  0  0
   67.6769   41.3962   58.1398 C   0  0  0  0  0  0  0  0  0  0  0  0
   66.8467   41.9598   58.9596 O   0  0  0  0  0  0  0  0  0  0  0  0
   69.9179   38.0386   59.5881 C   0  0  0  0  0  0  0  0  0  0  0  0
   70.4975   39.0615   58.8698 C   0  0  0  0  0  0  0  0  0  0  0  0
   69.7719   40.1390   58.4062 C   0  0  0  0  0  0  0  0  0  0  0  0
   68.3967   40.2515   58.6431 C   0  0  0  0  0  0  0  0  0  0  0  0
   67.8348   39.2260   59.3594 C   0  0  0  0  0  0  0  0  0  0  0  0
   68.5852   38.1285   59.8291 C   0  0  0  0  0  0  0  0  0  0  0  0
   69.8168   35.9403   60.7803 C   0  0  0  0  0  0  0  0  0  0  0  0
   70.7406   36.9113   60.0599 C   0  0  0  0  0  0  0  0  0  0  0  0
   71.8375   37.3533   61.0058 C   0  0  0  0  0  0  0  0  0  0  0  0
   71.3991   36.1512   58.9375 C   0  0  0  0  0  0  0  0  0  0  0  0
 24 25  1  0
 25 26  1  0
 25 27  1  0
 25 18  1  0
 18 19  2  0
 18 23  1  0
 19 20  1  0
 20 21  2  0
 21 16  1  0
 21 22  1  0
 16 17  2  0
 16  1  1  0
  1  2  2  0
  1  3  1  0
  3  4  1  0
  4  5  1  0
  5  6  2  0
  5  7  1  0
  7  8  2  0
  7 12  1  0
  8  9  1  0
  9 10  2  0
 10 11  1  0
 11 13  1  0
 11 12  2  0
 13 14  2  0
 13 15  1  0
 22 23  2  0
M  CHG  2  13   1  15  -1
M  END
>  <minimizedAffinity>  (110) 
-9.71118

$$$$
cs_full_output_folder/data/smiles/3740.pdb
     RDKit          3D

 29 33  0  0  0  0  0  0  0  0999 V2000
   70.7526   46.4620   58.4839 C   0  0  0  0  0  0  0  0  0  0  0  0
   69.8738   46.9894   57.5865 C   0  0  0  0  0  0  0  0  0  0  0  0
   69.7908   48.3515   57.2665 C   0  0  0  0  0  0  0  0  0  0  0  0
   70.6536   49.1895   57.9040 C   0  0  0  0  0  0  0  0  0  0  0  0
   71.5698   48.6652   58.8354 C   0  0  0  0  0  0  0  0  0  0  0  0
   71.6115   47.3168   59.1159 C   0  0  0  0  0  0  0  0  0  0  0  0
   72.5218   46.8848   60.0235 F   0  0  0  0  0  0  0  0  0  0  0  0
   69.6886   44.5303   59.1743 O   0  0  0  0  0  0  0  0  0  0  0  0
   70.7726   45.0157   58.7656 C   0  0  0  0  0  0  0  0  0  0  0  0
   71.9484   44.2422   58.5797 N   0  0  0  0  0  0  0  0  0  0  0  0
   72.1870   42.8205   58.7936 C   0  0  0  0  0  0  0  0  0  0  0  0
   73.3516   42.9060   57.8289 C   0  0  2  0  0  0  0  0  0  0  0  0
   74.6045   42.2357   58.2816 C   0  0  0  0  0  0  0  0  0  0  0  0
   75.7926   43.1290   58.2124 C   0  0  0  0  0  0  0  0  0  0  0  0
   75.6462   44.3616   58.6662 C   0  0  0  0  0  0  0  0  0  0  0  0
   74.3213   44.7675   59.2080 C   0  0  0  0  0  0  0  0  0  0  0  0
   73.3068   44.3652   58.1555 C   0  0  2  0  0  0  0  0  0  0  0  0
   68.7760   48.7968   56.2871 C   0  0  0  0  0  0  0  0  0  0  0  0
   69.2514   48.6551   54.9176 C   0  0  0  0  0  0  0  0  0  0  0  0
   70.1677   49.5653   54.4564 N   0  0  0  0  0  0  0  0  0  0  0  0
   70.6148   49.5431   53.2159 N   0  0  0  0  0  0  0  0  0  0  0  0
   70.2304   48.6440   52.2908 C   0  0  0  0  0  0  0  0  0  0  0  0
   70.7070   48.6937   51.1254 O   0  0  0  0  0  0  0  0  0  0  0  0
   69.3104   47.6909   52.6752 C   0  0  0  0  0  0  0  0  0  0  0  0
   68.8887   46.7356   51.7796 C   0  0  0  0  0  0  0  0  0  0  0  0
   67.9877   45.7744   52.1588 C   0  0  0  0  0  0  0  0  0  0  0  0
   67.5329   45.8228   53.4833 C   0  0  0  0  0  0  0  0  0  0  0  0
   67.9550   46.7801   54.3778 C   0  0  0  0  0  0  0  0  0  0  0  0
   68.8483   47.7299   53.9913 C   0  0  0  0  0  0  0  0  0  0  0  0
  8  9  2  0
  9  1  1  0
  9 10  1  0
  1  2  2  0
  1  6  1  0
  2  3  1  0
  3 18  1  0
  3  4  2  0
 18 19  1  0
 19 20  2  0
 19 29  1  0
 20 21  1  0
 21 22  1  0
 22 23  2  0
 22 24  1  0
 24 25  1  0
 24 29  2  0
 25 26  2  0
 26 27  1  0
 27 28  2  0
 28 29  1  0
  4  5  1  0
  5  6  2  0
  6  7  1  0
 10 11  1  0
 10 17  1  0
 12 11  1  1
 12 13  1  0
 12 17  1  0
 13 14  1  0
 14 15  2  0
 15 16  1  0
 17 16  1  1
M  END
>  <minimizedAffinity>  (111) 
-9.70666

$$$$
cs_full_output_folder/data/smiles/6410.pdb
     RDKit          3D

 29 32  0  0  0  0  0  0  0  0999 V2000
   71.5476   46.2548   58.6028 C   0  0  0  0  0  0  0  0  0  0  0  0
   71.9973   44.9313   58.1845 N   0  0  0  0  0  0  0  0  0  0  0  0
   71.1235   43.9710   58.1380 N   0  0  0  0  0  0  0  0  0  0  0  0
   71.4267   42.6831   57.8430 C   0  0  0  0  0  0  0  0  0  0  0  0
   72.7406   42.3577   57.5726 C   0  0  0  0  0  0  0  0  0  0  0  0
   73.6717   43.3905   57.6222 C   0  0  0  0  0  0  0  0  0  0  0  0
   73.2907   44.7020   57.9345 C   0  0  0  0  0  0  0  0  0  0  0  0
   74.1986   45.5580   57.9489 O   0  0  0  0  0  0  0  0  0  0  0  0
   70.3821   41.6776   57.8446 C   0  0  0  0  0  0  0  0  0  0  0  0
   69.1260   41.8642   57.3299 C   0  0  0  0  0  0  0  0  0  0  0  0
   68.1819   40.8326   57.3638 C   0  0  0  0  0  0  0  0  0  0  0  0
   68.4654   39.6039   57.9061 C   0  0  0  0  0  0  0  0  0  0  0  0
   67.5286   38.5980   57.9289 F   0  0  0  0  0  0  0  0  0  0  0  0
   69.7320   39.4047   58.4316 C   0  0  0  0  0  0  0  0  0  0  0  0
   70.6506   40.4239   58.3926 C   0  0  0  0  0  0  0  0  0  0  0  0
   70.1384   46.4793   58.1218 C   0  0  0  0  0  0  0  0  0  0  0  0
   67.8432   47.2352   56.7661 O   0  0  0  0  0  0  0  0  0  0  0  0
   68.7271   46.6997   56.0609 C   0  0  0  0  0  0  0  0  0  0  0  0
   69.9337   46.2840   56.7123 N   0  0  0  0  0  0  0  0  0  0  0  0
   68.5074   46.5251   54.6393 C   0  0  0  0  0  0  0  0  0  0  0  0
   67.8243   45.4448   54.1385 C   0  0  0  0  0  0  0  0  0  0  0  0
   67.6283   45.2794   52.7649 C   0  0  0  0  0  0  0  0  0  0  0  0
   68.1308   46.2180   51.8988 C   0  0  0  0  0  0  0  0  0  0  0  0
   68.8168   47.3026   52.4021 C   0  0  0  0  0  0  0  0  0  0  0  0
   69.3305   48.2494   51.5380 C   0  0  0  0  0  0  0  0  0  0  0  0
   70.0125   49.3172   52.0748 C   0  0  0  0  0  0  0  0  0  0  0  0
   70.2055   49.4791   53.4334 C   0  0  0  0  0  0  0  0  0  0  0  0
   69.6978   48.5404   54.3010 C   0  0  0  0  0  0  0  0  0  0  0  0
   69.0128   47.4706   53.7679 C   0  0  0  0  0  0  0  0  0  0  0  0
 17 18  2  0
 18 19  1  0
 18 20  1  0
 19 16  1  0
 16  1  1  0
  1  2  1  0
  2  3  1  0
  2  7  1  0
  3  4  2  0
  4  9  1  0
  4  5  1  0
  9 10  2  0
  9 15  1  0
 10 11  1  0
 11 12  2  0
 12 13  1  0
 12 14  1  0
 14 15  2  0
  5  6  2  0
  6  7  1  0
  7  8  2  0
 20 21  2  0
 20 29  1  0
 21 22  1  0
 22 23  2  0
 23 24  1  0
 24 25  1  0
 24 29  2  0
 25 26  2  0
 26 27  1  0
 27 28  2  0
 28 29  1  0
M  END
>  <minimizedAffinity>  (112) 
-9.70210

$$$$
cs_full_output_folder/data/smiles/9394.pdb
     RDKit          3D

 28 31  0  0  0  0  0  0  0  0999 V2000
   70.8005   45.3055   58.2718 C   0  0  0  0  0  0  0  0  0  0  0  0
   71.4467   46.0024   59.2455 C   0  0  0  0  0  0  0  0  0  0  0  0
   71.4927   47.4024   59.2974 C   0  0  0  0  0  0  0  0  0  0  0  0
   70.8608   48.1371   58.3254 C   0  0  0  0  0  0  0  0  0  0  0  0
   70.1830   47.4762   57.3010 C   0  0  0  0  0  0  0  0  0  0  0  0
   70.1713   46.1003   57.3023 C   0  0  0  0  0  0  0  0  0  0  0  0
   69.1085   43.5546   59.7221 O   0  0  0  0  0  0  0  0  0  0  0  0
   69.8888   43.0378   58.8638 C   0  0  0  0  0  0  0  0  0  0  0  0
   70.7171   43.8921   58.1552 N   0  0  0  0  0  0  0  0  0  0  0  0
   69.8618   41.5751   58.6797 C   0  0  0  0  0  0  0  0  0  0  0  0
   68.7291   40.8865   58.4119 C   0  0  0  0  0  0  0  0  0  0  0  0
   68.7204   39.4916   58.2405 C   0  0  0  0  0  0  0  0  0  0  0  0
   69.8920   38.7753   58.3440 C   0  0  0  0  0  0  0  0  0  0  0  0
   71.0495   39.4903   58.6198 C   0  0  0  0  0  0  0  0  0  0  0  0
   71.0372   40.8620   58.7846 C   0  0  0  0  0  0  0  0  0  0  0  0
   69.5235   48.2684   56.2922 C   0  0  0  0  0  0  0  0  0  0  0  0
   68.5861   49.0313   56.7580 O   0  0  0  0  0  0  0  0  0  0  0  0
   69.7194   48.3484   54.8854 C   0  0  0  0  0  0  0  0  0  0  0  0
   70.6443   49.2305   54.3771 N   0  0  0  0  0  0  0  0  0  0  0  0
   70.8912   49.3403   53.0919 N   0  0  0  0  0  0  0  0  0  0  0  0
   70.2467   48.5891   52.1841 C   0  0  0  0  0  0  0  0  0  0  0  0
   70.5112   48.7275   50.9565 O   0  0  0  0  0  0  0  0  0  0  0  0
   69.3056   47.6771   52.5985 C   0  0  0  0  0  0  0  0  0  0  0  0
   68.6986   46.9112   51.6288 C   0  0  0  0  0  0  0  0  0  0  0  0
   67.7796   45.9714   52.0639 C   0  0  0  0  0  0  0  0  0  0  0  0
   67.4947   45.8154   53.3972 C   0  0  0  0  0  0  0  0  0  0  0  0
   68.1425   46.6230   54.3360 C   0  0  0  0  0  0  0  0  0  0  0  0
   69.0595   47.5726   53.9572 C   0  0  0  0  0  0  0  0  0  0  0  0
  7  8  2  0
  8  9  1  0
  8 10  1  0
  9  1  1  0
  1  2  2  0
  1  6  1  0
  2  3  1  0
  3  4  2  0
  4  5  1  0
  5 16  1  0
  5  6  2  0
 16 17  2  0
 16 18  1  0
 18 19  2  0
 18 28  1  0
 19 20  1  0
 20 21  1  0
 21 22  2  0
 21 23  1  0
 23 24  1  0
 23 28  2  0
 24 25  2  0
 25 26  1  0
 26 27  2  0
 27 28  1  0
 10 11  2  0
 10 15  1  0
 11 12  1  0
 12 13  2  0
 13 14  1  0
 14 15  2  0
M  END
>  <minimizedAffinity>  (113) 
-9.69894

$$$$
cs_full_output_folder/data/smiles/7311.pdb
     RDKit          3D

 27 30  0  0  0  0  0  0  0  0999 V2000
   70.3654   45.3581   57.6981 C   0  0  0  0  0  0  0  0  0  0  0  0
   71.4773   45.8087   58.4007 C   0  0  0  0  0  0  0  0  0  0  0  0
   71.7765   47.1536   58.4119 C   0  0  0  0  0  0  0  0  0  0  0  0
   70.9855   48.0895   57.7291 C   0  0  0  0  0  0  0  0  0  0  0  0
   69.8878   47.6650   57.0335 C   0  0  0  0  0  0  0  0  0  0  0  0
   69.6153   46.3020   57.0425 C   0  0  0  0  0  0  0  0  0  0  0  0
   68.0377   40.9410   56.6716 C   0  0  0  0  0  0  0  0  0  0  0  0
   69.0163   41.8982   57.2432 C   0  0  0  0  0  0  0  0  0  0  0  0
   70.0474   41.6414   58.0408 C   0  0  0  0  0  0  0  0  0  0  0  0
   70.4837   40.3219   58.5665 C   0  0  0  0  0  0  0  0  0  0  0  0
   70.7277   42.9183   58.3439 C   0  0  0  0  0  0  0  0  0  0  0  0
   71.7434   43.0932   59.0636 O   0  0  0  0  0  0  0  0  0  0  0  0
   70.0481   43.9732   57.6805 N   0  0  0  0  0  0  0  0  0  0  0  0
   68.9758   43.3463   56.9885 C   0  0  0  0  0  0  0  0  0  0  0  0
   68.1296   43.9729   56.2694 O   0  0  0  0  0  0  0  0  0  0  0  0
   68.9522   48.5616   56.2758 C   0  0  0  0  0  0  0  0  0  0  0  0
   69.3070   48.5504   54.8475 C   0  0  0  0  0  0  0  0  0  0  0  0
   70.2142   49.4671   54.3869 N   0  0  0  0  0  0  0  0  0  0  0  0
   70.6249   49.5051   53.1367 N   0  0  0  0  0  0  0  0  0  0  0  0
   70.1842   48.6406   52.2004 C   0  0  0  0  0  0  0  0  0  0  0  0
   70.6136   48.7229   51.0145 O   0  0  0  0  0  0  0  0  0  0  0  0
   69.2652   47.6879   52.5905 C   0  0  0  0  0  0  0  0  0  0  0  0
   68.7928   46.8054   51.6479 C   0  0  0  0  0  0  0  0  0  0  0  0
   67.8626   45.8501   52.0014 C   0  0  0  0  0  0  0  0  0  0  0  0
   67.4423   45.8259   53.3134 C   0  0  0  0  0  0  0  0  0  0  0  0
   67.9205   46.7199   54.2714 C   0  0  0  0  0  0  0  0  0  0  0  0
   68.8386   47.6617   53.9244 C   0  0  0  0  0  0  0  0  0  0  0  0
  7  8  1  0
  8  9  2  0
  8 14  1  0
  9 10  1  0
  9 11  1  0
 11 12  2  0
 11 13  1  0
 13  1  1  0
 13 14  1  0
  1  2  2  0
  1  6  1  0
  2  3  1  0
  3  4  2  0
  4  5  1  0
  5 16  1  0
  5  6  2  0
 16 17  1  0
 17 18  2  0
 17 27  1  0
 18 19  1  0
 19 20  1  0
 20 21  2  0
 20 22  1  0
 22 23  1  0
 22 27  2  0
 23 24  2  0
 24 25  1  0
 25 26  2  0
 26 27  1  0
 14 15  2  0
M  END
>  <minimizedAffinity>  (114) 
-9.69461

$$$$
cs_full_output_folder/data/smiles/2158.pdb
     RDKit          3D

 26 28  0  0  0  0  0  0  0  0999 V2000
   70.5039   41.8617   58.6992 C   0  0  0  0  0  0  0  0  0  0  0  0
   69.4298   41.4661   57.7773 C   0  0  0  0  0  0  0  0  0  0  0  0
   68.7169   42.2896   56.9437 C   0  0  0  0  0  0  0  0  0  0  0  0
   67.8292   41.4784   56.2803 C   0  0  0  0  0  0  0  0  0  0  0  0
   68.0363   40.2312   56.7282 N   0  0  0  0  0  0  0  0  0  0  0  0
   68.9958   40.1803   57.6340 N   0  0  0  0  0  0  0  0  0  0  0  0
   69.5095   39.0629   58.3404 C   0  0  0  0  0  0  0  0  0  0  0  0
   68.7430   38.4909   59.3310 C   0  0  0  0  0  0  0  0  0  0  0  0
   69.1744   37.3967   60.0623 C   0  0  0  0  0  0  0  0  0  0  0  0
   70.3979   36.8371   59.8217 C   0  0  0  0  0  0  0  0  0  0  0  0
   70.9794   35.4395   60.7370 Cl  0  0  0  0  0  0  0  0  0  0  0  0
   71.1865   37.3936   58.8314 C   0  0  0  0  0  0  0  0  0  0  0  0
   70.7367   38.4833   58.1159 C   0  0  0  0  0  0  0  0  0  0  0  0
   68.8601   43.7295   56.7836 C   0  0  0  0  0  0  0  0  0  0  0  0
   69.6231   44.3851   57.5577 O   0  0  0  0  0  0  0  0  0  0  0  0
   68.1776   44.4640   55.7824 N   0  0  0  0  0  0  0  0  0  0  0  0
   68.2644   45.8851   55.5636 C   0  0  0  0  0  0  0  0  0  0  0  0
   68.3973   46.2809   54.1542 C   0  0  0  0  0  0  0  0  0  0  0  0
   67.7259   45.6181   53.1644 C   0  0  0  0  0  0  0  0  0  0  0  0
   67.8548   45.9851   51.8179 C   0  0  0  0  0  0  0  0  0  0  0  0
   68.6562   47.0073   51.5380 N   0  0  0  0  0  0  0  0  0  0  0  0
   69.3508   47.7104   52.4621 C   0  0  0  0  0  0  0  0  0  0  0  0
   69.2064   47.3299   53.7618 C   0  0  0  0  0  0  0  0  0  0  0  0
   70.1946   48.8035   52.0443 C   0  0  0  0  0  0  0  0  0  0  0  0
   69.7967   49.6781   51.0033 N   0  0  0  0  0  0  0  0  0  0  0  0
   71.3082   49.0169   52.5885 O   0  0  0  0  0  0  0  0  0  0  0  0
  1  2  1  0
  2  3  2  0
  2  6  1  0
  3 14  1  0
  3  4  1  0
 14 15  2  0
 14 16  1  0
 16 17  1  0
 17 18  1  0
 18 19  2  0
 18 23  1  0
 19 20  1  0
 20 21  2  0
 21 22  1  0
 22 24  1  0
 22 23  2  0
 24 25  1  0
 24 26  2  0
  4  5  2  0
  5  6  1  0
  6  7  1  0
  7  8  2  0
  7 13  1  0
  8  9  1  0
  9 10  2  0
 10 11  1  0
 10 12  1  0
 12 13  2  0
M  END
>  <minimizedAffinity>  (115) 
-9.69403

$$$$
cs_full_output_folder/data/smiles/3410.pdb
     RDKit          3D

 27 29  0  0  0  0  0  0  0  0999 V2000
   70.9344   41.8859   58.4330 C   0  0  0  0  0  0  0  0  0  0  0  0
   69.6334   41.5429   57.7993 C   0  0  0  0  0  0  0  0  0  0  0  0
   68.7765   42.4016   57.1166 C   0  0  0  0  0  0  0  0  0  0  0  0
   67.7221   41.6375   56.7282 C   0  0  0  0  0  0  0  0  0  0  0  0
   67.9259   40.3555   57.1579 N   0  0  0  0  0  0  0  0  0  0  0  0
   69.1015   40.3159   57.8099 N   0  0  0  0  0  0  0  0  0  0  0  0
   69.6755   39.1401   58.3822 C   0  0  0  0  0  0  0  0  0  0  0  0
   69.0195   38.5067   59.4436 C   0  0  0  0  0  0  0  0  0  0  0  0
   69.5483   37.3832   60.0275 C   0  0  0  0  0  0  0  0  0  0  0  0
   70.7364   36.8182   59.6153 C   0  0  0  0  0  0  0  0  0  0  0  0
   71.3944   35.3853   60.3846 Cl  0  0  0  0  0  0  0  0  0  0  0  0
   71.3939   37.4292   58.5741 C   0  0  0  0  0  0  0  0  0  0  0  0
   72.5736   36.9035   58.1342 F   0  0  0  0  0  0  0  0  0  0  0  0
   70.8594   38.5716   57.9759 C   0  0  0  0  0  0  0  0  0  0  0  0
   69.0154   43.8123   56.8872 C   0  0  0  0  0  0  0  0  0  0  0  0
   69.8367   44.4448   57.6317 O   0  0  0  0  0  0  0  0  0  0  0  0
   68.3612   44.5203   55.8644 N   0  0  0  0  0  0  0  0  0  0  0  0
   68.6024   45.9420   55.6815 C   0  0  0  0  0  0  0  0  0  0  0  0
   68.5209   46.2737   54.2312 C   0  0  0  0  0  0  0  0  0  0  0  0
   67.6893   45.5188   53.3844 C   0  0  0  0  0  0  0  0  0  0  0  0
   67.6184   45.8153   52.0390 C   0  0  0  0  0  0  0  0  0  0  0  0
   68.3446   46.8360   51.4928 C   0  0  0  0  0  0  0  0  0  0  0  0
   69.1696   47.5828   52.3310 C   0  0  0  0  0  0  0  0  0  0  0  0
   69.2547   47.2946   53.7009 C   0  0  0  0  0  0  0  0  0  0  0  0
   69.9670   48.6780   51.8170 C   0  0  0  0  0  0  0  0  0  0  0  0
   69.9419   49.9902   52.2575 N   0  0  0  0  0  0  0  0  0  0  0  0
   70.7754   48.3915   50.8531 O   0  0  0  0  0  0  0  0  0  0  0  0
  1  2  1  0
  2  3  2  0
  2  6  1  0
  3 15  1  0
  3  4  1  0
 15 16  2  0
 15 17  1  0
 17 18  1  0
 18 19  1  0
 19 20  2  0
 19 24  1  0
 20 21  1  0
 21 22  2  0
 22 23  1  0
 23 25  1  0
 23 24  2  0
 25 26  1  0
 25 27  2  0
  4  5  2  0
  5  6  1  0
  6  7  1  0
  7  8  2  0
  7 14  1  0
  8  9  1  0
  9 10  2  0
 10 11  1  0
 10 12  1  0
 12 13  1  0
 12 14  2  0
M  END
>  <minimizedAffinity>  (116) 
-9.69139

$$$$
cs_full_output_folder/data/smiles/832.pdb
     RDKit          3D

 29 32  0  0  0  0  0  0  0  0999 V2000
   71.5057   47.4203   58.9134 C   0  0  0  0  0  0  0  0  0  0  0  0
   70.6176   48.0776   58.0988 C   0  0  0  0  0  0  0  0  0  0  0  0
   69.7938   47.3975   57.1828 C   0  0  0  0  0  0  0  0  0  0  0  0
   69.9083   46.0535   57.1326 C   0  0  0  0  0  0  0  0  0  0  0  0
   70.7931   45.3641   57.9404 C   0  0  0  0  0  0  0  0  0  0  0  0
   71.5859   46.0378   58.8238 C   0  0  0  0  0  0  0  0  0  0  0  0
   72.4482   45.3422   59.6076 F   0  0  0  0  0  0  0  0  0  0  0  0
   72.2163   47.8975   61.1199 O   0  0  0  0  0  0  0  0  0  0  0  0
   72.3739   48.0746   59.8805 C   0  0  0  0  0  0  0  0  0  0  0  0
   73.4089   48.9221   59.4106 N   0  0  0  0  0  0  0  0  0  0  0  0
   73.4968   49.0540   57.9868 C   0  0  0  0  0  0  0  0  0  0  0  0
   74.7437   48.4533   57.3975 C   0  0  0  0  0  0  0  0  0  0  0  0
   75.9938   49.2330   57.6464 C   0  0  0  0  0  0  0  0  0  0  0  0
   75.8559   50.2121   58.7916 C   0  0  2  0  0  0  0  0  0  0  0  0
   76.9919   51.0235   58.8745 O   0  0  0  0  0  0  0  0  0  0  0  0
   75.6639   49.4010   60.0551 C   0  0  0  0  0  0  0  0  0  0  0  0
   74.2218   49.5251   60.4705 C   0  0  0  0  0  0  0  0  0  0  0  0
   68.8438   48.1984   56.3612 C   0  0  0  0  0  0  0  0  0  0  0  0
   69.2358   48.3237   54.9464 C   0  0  0  0  0  0  0  0  0  0  0  0
   70.1428   49.2931   54.5844 N   0  0  0  0  0  0  0  0  0  0  0  0
   70.5806   49.4531   53.3654 N   0  0  0  0  0  0  0  0  0  0  0  0
   70.1970   48.6969   52.3471 C   0  0  0  0  0  0  0  0  0  0  0  0
   70.5753   48.7951   51.1675 O   0  0  0  0  0  0  0  0  0  0  0  0
   69.2766   47.6910   52.6346 C   0  0  0  0  0  0  0  0  0  0  0  0
   68.8187   46.8737   51.6374 C   0  0  0  0  0  0  0  0  0  0  0  0
   67.8949   45.8736   51.8748 C   0  0  0  0  0  0  0  0  0  0  0  0
   67.4431   45.7204   53.1625 C   0  0  0  0  0  0  0  0  0  0  0  0
   67.8857   46.5269   54.1883 C   0  0  0  0  0  0  0  0  0  0  0  0
   68.8063   47.5137   53.9190 C   0  0  0  0  0  0  0  0  0  0  0  0
  8  9  2  0
  9  1  1  0
  9 10  1  0
  1  2  2  0
  1  6  1  0
  2  3  1  0
  3 18  1  0
  3  4  2  0
 18 19  1  0
 19 20  2  0
 19 29  1  0
 20 21  1  0
 21 22  1  0
 22 23  2  0
 22 24  1  0
 24 25  1  0
 24 29  2  0
 25 26  2  0
 26 27  1  0
 27 28  2  0
 28 29  1  0
  4  5  1  0
  5  6  2  0
  6  7  1  0
 10 11  1  0
 10 17  1  0
 11 12  1  0
 12 13  1  0
 13 14  1  0
 14 15  1  1
 14 16  1  0
 16 17  1  0
M  END
>  <minimizedAffinity>  (117) 
-9.68617

$$$$
cs_full_output_folder/data/smiles/6550.pdb
     RDKit          3D

 28 32  0  0  0  0  0  0  0  0999 V2000
   71.3334   46.9147   58.9495 C   0  0  0  0  0  0  0  0  0  0  0  0
   70.6254   47.8520   58.1786 C   0  0  0  0  0  0  0  0  0  0  0  0
   69.8257   47.4451   57.1675 C   0  0  0  0  0  0  0  0  0  0  0  0
   69.7551   46.0598   56.9510 C   0  0  0  0  0  0  0  0  0  0  0  0
   70.4345   45.1392   57.6884 C   0  0  0  0  0  0  0  0  0  0  0  0
   71.2388   45.5615   58.7059 C   0  0  0  0  0  0  0  0  0  0  0  0
   71.9165   44.6333   59.4422 F   0  0  0  0  0  0  0  0  0  0  0  0
   71.8141   47.0643   61.1991 O   0  0  0  0  0  0  0  0  0  0  0  0
   72.2025   47.3560   60.0414 C   0  0  0  0  0  0  0  0  0  0  0  0
   73.3958   48.0614   59.7685 N   0  0  0  0  0  0  0  0  0  0  0  0
   74.4636   48.6318   60.5462 C   0  0  0  0  0  0  0  0  0  0  0  0
   74.8395   49.4391   59.3985 C   0  0  0  0  0  0  0  0  0  0  0  0
   74.5862   50.8986   59.3451 C   0  0  0  0  0  0  0  0  0  0  0  0
   75.8297   51.0157   58.6735 O   0  0  0  0  0  0  0  0  0  0  0  0
   76.2536   49.7264   59.0848 C   0  0  0  0  0  0  0  0  0  0  0  0
   74.0581   48.5204   58.5776 C   0  0  0  0  0  0  0  0  0  0  0  0
   69.0204   48.2524   56.2481 C   0  0  0  0  0  0  0  0  0  0  0  0
   69.4137   48.2810   54.8562 C   0  0  0  0  0  0  0  0  0  0  0  0
   70.3672   49.1789   54.4831 N   0  0  0  0  0  0  0  0  0  0  0  0
   70.7722   49.3213   53.2443 N   0  0  0  0  0  0  0  0  0  0  0  0
   70.2909   48.6001   52.2216 C   0  0  0  0  0  0  0  0  0  0  0  0
   70.6460   48.7040   51.0368 O   0  0  0  0  0  0  0  0  0  0  0  0
   69.3018   47.6545   52.5455 C   0  0  0  0  0  0  0  0  0  0  0  0
   68.7558   46.8607   51.5813 C   0  0  0  0  0  0  0  0  0  0  0  0
   67.7889   45.9080   51.8646 C   0  0  0  0  0  0  0  0  0  0  0  0
   67.3836   45.7807   53.1793 C   0  0  0  0  0  0  0  0  0  0  0  0
   67.9171   46.5669   54.1717 C   0  0  0  0  0  0  0  0  0  0  0  0
   68.8756   47.5048   53.8566 C   0  0  0  0  0  0  0  0  0  0  0  0
  8  9  2  0
  9  1  1  0
  9 10  1  0
  1  2  2  0
  1  6  1  0
  2  3  1  0
  3 17  1  0
  3  4  2  0
 17 18  1  0
 18 19  2  0
 18 28  1  0
 19 20  1  0
 20 21  1  0
 21 22  2  0
 21 23  1  0
 23 24  1  0
 23 28  2  0
 24 25  2  0
 25 26  1  0
 26 27  2  0
 27 28  1  0
  4  5  1  0
  5  6  2  0
  6  7  1  0
 10 11  1  0
 10 16  1  0
 11 12  1  0
 12 13  1  0
 12 15  1  0
 12 16  1  0
 13 14  1  0
 14 15  1  0
M  END
>  <minimizedAffinity>  (118) 
-9.68516

$$$$
cs_full_output_folder/data/smiles/4157.pdb
     RDKit          3D

 27 29  0  0  0  0  0  0  0  0999 V2000
   69.1136   43.5112   57.0253 C   0  0  0  0  0  0  0  0  0  0  0  0
   68.0839   43.4312   56.3482 O   0  0  0  0  0  0  0  0  0  0  0  0
   69.6608   44.7915   57.2591 N   0  0  0  0  0  0  0  0  0  0  0  0
   73.0262   38.7490   59.1646 C   0  0  0  0  0  0  0  0  0  0  0  0
   71.5510   38.7944   58.9985 C   0  0  0  0  0  0  0  0  0  0  0  0
   70.7948   37.6765   59.3287 C   0  0  0  0  0  0  0  0  0  0  0  0
   71.4024   36.5351   59.8055 O   0  0  0  0  0  0  0  0  0  0  0  0
   69.4419   37.7367   59.1691 C   0  0  0  0  0  0  0  0  0  0  0  0
   68.8451   38.8832   58.6905 C   0  0  0  0  0  0  0  0  0  0  0  0
   69.5964   39.9888   58.3636 C   0  0  0  0  0  0  0  0  0  0  0  0
   68.9910   41.1558   57.8757 C   0  0  0  0  0  0  0  0  0  0  0  0
   69.7019   42.2615   57.5442 C   0  0  0  0  0  0  0  0  0  0  0  0
   71.0777   42.1873   57.7107 C   0  0  0  0  0  0  0  0  0  0  0  0
   71.7176   41.0644   58.1870 C   0  0  0  0  0  0  0  0  0  0  0  0
   70.9633   39.9508   58.5177 C   0  0  0  0  0  0  0  0  0  0  0  0
   69.2471   46.0492   56.8578 C   0  0  0  0  0  0  0  0  0  0  0  0
   70.1064   47.2936   57.6726 S   0  0  0  0  0  0  0  0  0  0  0  0
   68.3228   46.5641   55.9784 N   0  0  0  0  0  0  0  0  0  0  0  0
   68.4319   46.7010   54.5884 C   0  0  0  0  0  0  0  0  0  0  0  0
   67.7547   45.8564   53.7009 C   0  0  0  0  0  0  0  0  0  0  0  0
   67.9335   46.0065   52.3483 C   0  0  0  0  0  0  0  0  0  0  0  0
   68.7628   46.9669   51.8297 C   0  0  0  0  0  0  0  0  0  0  0  0
   69.4509   47.8217   52.6711 C   0  0  0  0  0  0  0  0  0  0  0  0
   69.2703   47.6700   54.0242 C   0  0  0  0  0  0  0  0  0  0  0  0
   70.3184   48.8261   52.1339 N   0  0  0  0  0  0  0  0  0  0  0  0
   71.3396   49.1210   52.7724 O   0  0  0  0  0  0  0  0  0  0  0  0
   69.9957   49.4157   50.9548 O   0  0  0  0  0  0  0  0  0  0  0  0
  4  5  1  0
  5  6  2  0
  5 15  1  0
  6  7  1  0
  6  8  1  0
  8  9  2  0
  9 10  1  0
 10 11  1  0
 10 15  2  0
 11 12  2  0
 12  1  1  0
 12 13  1  0
  1  2  2  0
  1  3  1  0
  3 16  1  0
 16 17  2  0
 16 18  1  0
 18 19  1  0
 19 20  2  0
 19 24  1  0
 20 21  1  0
 21 22  2  0
 22 23  1  0
 23 25  1  0
 23 24  2  0
 25 26  2  0
 25 27  1  0
 13 14  2  0
 14 15  1  0
M  CHG  2  25   1  27  -1
M  END
>  <minimizedAffinity>  (119) 
-9.68368

$$$$
cs_full_output_folder/data/smiles/5394.pdb
     RDKit          3D

 29 32  0  0  0  0  0  0  0  0999 V2000
   70.6865   46.0978   58.1101 C   0  0  0  0  0  0  0  0  0  0  0  0
   69.7509   46.7869   57.3224 C   0  0  0  0  0  0  0  0  0  0  0  0
   69.8549   48.0990   56.9961 C   0  0  0  0  0  0  0  0  0  0  0  0
   70.9768   48.7755   57.4952 C   0  0  0  0  0  0  0  0  0  0  0  0
   71.9233   48.1671   58.2675 C   0  0  0  0  0  0  0  0  0  0  0  0
   71.7490   46.8037   58.5639 C   0  0  0  0  0  0  0  0  0  0  0  0
   72.6795   46.2137   59.3278 F   0  0  0  0  0  0  0  0  0  0  0  0
   69.7022   44.3595   59.3567 O   0  0  0  0  0  0  0  0  0  0  0  0
   70.4477   44.6918   58.3632 C   0  0  0  0  0  0  0  0  0  0  0  0
   70.9417   43.6013   57.6360 N   0  0  0  0  0  0  0  0  0  0  0  0
   70.6391   42.2094   57.9788 C   0  0  0  0  0  0  0  0  0  0  0  0
   71.9081   41.5868   58.3805 C   0  0  0  0  0  0  0  0  0  0  0  0
   71.9046   40.4236   59.0063 C   0  0  0  0  0  0  0  0  0  0  0  0
   73.1750   39.7659   59.4271 C   0  0  0  0  0  0  0  0  0  0  0  0
   74.2621   40.7109   59.8076 C   0  0  0  0  0  0  0  0  0  0  0  0
   74.1731   42.0866   59.2526 C   0  0  0  0  0  0  0  0  0  0  0  0
   73.2026   42.2315   58.1061 C   0  0  0  0  0  0  0  0  0  0  0  0
   68.9493   48.9027   56.1683 C   0  0  0  0  0  0  0  0  0  0  0  0
   69.2905   48.7893   54.7577 C   0  0  0  0  0  0  0  0  0  0  0  0
   70.1695   49.6857   54.2165 N   0  0  0  0  0  0  0  0  0  0  0  0
   70.5748   49.6550   52.9792 N   0  0  0  0  0  0  0  0  0  0  0  0
   70.1658   48.7254   52.0882 C   0  0  0  0  0  0  0  0  0  0  0  0
   70.5876   48.7324   50.8924 O   0  0  0  0  0  0  0  0  0  0  0  0
   69.2771   47.7879   52.5624 C   0  0  0  0  0  0  0  0  0  0  0  0
   68.8287   46.8306   51.6807 C   0  0  0  0  0  0  0  0  0  0  0  0
   67.9285   45.8769   52.1022 C   0  0  0  0  0  0  0  0  0  0  0  0
   67.5094   45.9273   53.4178 C   0  0  0  0  0  0  0  0  0  0  0  0
   67.9587   46.8920   54.3169 C   0  0  0  0  0  0  0  0  0  0  0  0
   68.8467   47.8261   53.8895 C   0  0  0  0  0  0  0  0  0  0  0  0
  8  9  2  0
  9 10  1  0
  9  1  1  0
 10 11  1  0
 11 12  1  0
 12 13  2  0
 12 17  1  0
 13 14  1  0
 14 15  1  0
 15 16  1  0
 16 17  1  0
  1  2  2  0
  1  6  1  0
  2  3  1  0
  3 18  1  0
  3  4  2  0
 18 19  1  0
 19 20  2  0
 19 29  1  0
 20 21  1  0
 21 22  1  0
 22 23  2  0
 22 24  1  0
 24 25  1  0
 24 29  2  0
 25 26  2  0
 26 27  1  0
 27 28  2  0
 28 29  1  0
  4  5  1  0
  5  6  2  0
  6  7  1  0
M  END
>  <minimizedAffinity>  (120) 
-9.68338

$$$$
cs_full_output_folder/data/smiles/2874.pdb
     RDKit          3D

 29 32  0  0  0  0  0  0  0  0999 V2000
   71.4887   47.0989   58.8927 C   0  0  0  0  0  0  0  0  0  0  0  0
   70.6570   47.9528   58.1635 C   0  0  0  0  0  0  0  0  0  0  0  0
   69.7998   47.4961   57.2059 C   0  0  0  0  0  0  0  0  0  0  0  0
   69.7930   46.1125   56.9883 C   0  0  0  0  0  0  0  0  0  0  0  0
   70.5901   45.2536   57.6832 C   0  0  0  0  0  0  0  0  0  0  0  0
   71.4492   45.7501   58.6459 C   0  0  0  0  0  0  0  0  0  0  0  0
   72.2415   44.8726   59.3313 F   0  0  0  0  0  0  0  0  0  0  0  0
   72.0725   47.6516   61.1195 O   0  0  0  0  0  0  0  0  0  0  0  0
   72.3729   47.6884   59.8890 C   0  0  0  0  0  0  0  0  0  0  0  0
   73.5702   48.2997   59.4279 N   0  0  0  0  0  0  0  0  0  0  0  0
   74.3584   48.8580   60.5141 C   0  0  0  0  0  0  0  0  0  0  0  0
   75.0642   50.1233   60.0800 C   0  0  0  0  0  0  0  0  0  0  0  0
   76.1778   49.7426   59.1686 C   0  0  0  0  0  0  0  0  0  0  0  0
   75.8319   49.6590   57.7229 C   0  0  0  0  0  0  0  0  0  0  0  0
   74.3617   49.5085   57.4298 C   0  0  1  0  0  0  0  0  0  0  0  0
   74.2437   49.3859   56.0292 O   0  0  0  0  0  0  0  0  0  0  0  0
   73.7745   48.2488   58.0112 C   0  0  0  0  0  0  0  0  0  0  0  0
   68.9039   48.3587   56.3907 C   0  0  0  0  0  0  0  0  0  0  0  0
   69.3452   48.3247   55.0058 C   0  0  0  0  0  0  0  0  0  0  0  0
   70.3300   49.2162   54.6660 N   0  0  0  0  0  0  0  0  0  0  0  0
   70.8021   49.3543   53.4502 N   0  0  0  0  0  0  0  0  0  0  0  0
   70.3494   48.6171   52.4205 C   0  0  0  0  0  0  0  0  0  0  0  0
   70.7578   48.7044   51.2478 O   0  0  0  0  0  0  0  0  0  0  0  0
   69.3609   47.7035   52.7055 C   0  0  0  0  0  0  0  0  0  0  0  0
   68.8398   46.8938   51.7283 C   0  0  0  0  0  0  0  0  0  0  0  0
   67.8612   45.9604   51.9807 C   0  0  0  0  0  0  0  0  0  0  0  0
   67.3841   45.8366   53.2792 C   0  0  0  0  0  0  0  0  0  0  0  0
   67.9094   46.6519   54.2588 C   0  0  0  0  0  0  0  0  0  0  0  0
   68.8739   47.5662   53.9816 C   0  0  0  0  0  0  0  0  0  0  0  0
  8  9  2  0
  9  1  1  0
  9 10  1  0
  1  2  2  0
  1  6  1  0
  2  3  1  0
  3 18  1  0
  3  4  2  0
 18 19  1  0
 19 20  2  0
 19 29  1  0
 20 21  1  0
 21 22  1  0
 22 23  2  0
 22 24  1  0
 24 25  1  0
 24 29  2  0
 25 26  2  0
 26 27  1  0
 27 28  2  0
 28 29  1  0
  4  5  1  0
  5  6  2  0
  6  7  1  0
 10 11  1  0
 10 17  1  0
 11 12  1  0
 12 13  1  0
 13 14  1  0
 14 15  1  0
 15 16  1  6
 15 17  1  0
M  END
>  <minimizedAffinity>  (121) 
-9.67986

$$$$
cs_full_output_folder/data/smiles/71.pdb
     RDKit          3D

 27 30  0  0  0  0  0  0  0  0999 V2000
   71.1274   46.2986   58.3363 C   0  0  0  0  0  0  0  0  0  0  0  0
   70.2134   46.7725   57.3886 C   0  0  0  0  0  0  0  0  0  0  0  0
   69.8285   48.0783   57.2573 C   0  0  0  0  0  0  0  0  0  0  0  0
   70.4148   48.9929   58.1555 C   0  0  0  0  0  0  0  0  0  0  0  0
   71.3102   48.5277   59.0823 C   0  0  0  0  0  0  0  0  0  0  0  0
   71.6888   47.2108   59.2070 C   0  0  0  0  0  0  0  0  0  0  0  0
   72.5884   46.8591   60.1922 F   0  0  0  0  0  0  0  0  0  0  0  0
   69.5492   44.2525   59.5966 O   0  0  0  0  0  0  0  0  0  0  0  0
   70.4469   43.9431   58.7567 C   0  0  0  0  0  0  0  0  0  0  0  0
   70.5103   42.6137   58.1099 C   0  0  0  0  0  0  0  0  0  0  0  0
   71.8677   42.2853   57.6035 C   0  0  0  0  0  0  0  0  0  0  0  0
   72.9409   42.9925   58.4191 C   0  0  0  0  0  0  0  0  0  0  0  0
   72.7735   44.4731   58.1781 C   0  0  0  0  0  0  0  0  0  0  0  0
   73.7130   45.1710   57.7969 O   0  0  0  0  0  0  0  0  0  0  0  0
   71.4340   44.9430   58.4375 N   0  0  0  0  0  0  0  0  0  0  0  0
   68.8469   48.6140   56.2751 C   0  0  0  0  0  0  0  0  0  0  0  0
   69.3418   48.5926   54.8768 C   0  0  0  0  0  0  0  0  0  0  0  0
   70.2418   49.5533   54.4800 N   0  0  0  0  0  0  0  0  0  0  0  0
   70.6308   49.5653   53.2275 N   0  0  0  0  0  0  0  0  0  0  0  0
   70.2059   48.6972   52.3062 C   0  0  0  0  0  0  0  0  0  0  0  0
   70.5978   48.7381   51.1184 O   0  0  0  0  0  0  0  0  0  0  0  0
   69.3058   47.7175   52.6605 C   0  0  0  0  0  0  0  0  0  0  0  0
   68.8545   46.7928   51.7404 C   0  0  0  0  0  0  0  0  0  0  0  0
   67.9708   45.8283   52.1508 C   0  0  0  0  0  0  0  0  0  0  0  0
   67.5313   45.7693   53.4556 C   0  0  0  0  0  0  0  0  0  0  0  0
   67.9747   46.6844   54.3711 C   0  0  0  0  0  0  0  0  0  0  0  0
   68.8609   47.6643   53.9851 C   0  0  0  0  0  0  0  0  0  0  0  0
  8  9  2  0
  9 10  1  0
  9 15  1  0
 10 11  1  0
 11 12  1  0
 12 13  1  0
 13 14  2  0
 13 15  1  0
 15  1  1  0
  1  2  2  0
  1  6  1  0
  2  3  1  0
  3 16  1  0
  3  4  2  0
 16 17  1  0
 17 18  2  0
 17 27  1  0
 18 19  1  0
 19 20  1  0
 20 21  2  0
 20 22  1  0
 22 23  1  0
 22 27  2  0
 23 24  2  0
 24 25  1  0
 25 26  2  0
 26 27  1  0
  4  5  1  0
  5  6  2  0
  6  7  1  0
M  END
>  <minimizedAffinity>  (122) 
-9.66596

$$$$
cs_full_output_folder/data/smiles/1487.pdb
     RDKit          3D

 29 32  0  0  0  0  0  0  0  0999 V2000
   70.9386   45.2707   58.4282 C   0  0  0  0  0  0  0  0  0  0  0  0
   71.9616   46.0414   58.9923 C   0  0  0  0  0  0  0  0  0  0  0  0
   71.9876   47.4093   58.8740 C   0  0  0  0  0  0  0  0  0  0  0  0
   70.9919   48.0861   58.1849 C   0  0  0  0  0  0  0  0  0  0  0  0
   69.9752   47.3627   57.6205 C   0  0  0  0  0  0  0  0  0  0  0  0
   69.9720   45.9606   57.7556 C   0  0  0  0  0  0  0  0  0  0  0  0
   69.5362   43.2846   56.9138 O   0  0  0  0  0  0  0  0  0  0  0  0
   70.3012   42.9048   57.8487 C   0  0  0  0  0  0  0  0  0  0  0  0
   70.9921   43.8754   58.5994 N   0  0  0  0  0  0  0  0  0  0  0  0
   70.3851   41.4674   58.0520 C   0  0  0  0  0  0  0  0  0  0  0  0
   69.2023   40.7150   58.0280 C   0  0  0  0  0  0  0  0  0  0  0  0
   69.1757   39.3551   58.2327 C   0  0  0  0  0  0  0  0  0  0  0  0
   68.0019   38.6489   58.2031 F   0  0  0  0  0  0  0  0  0  0  0  0
   70.3280   38.6457   58.4763 C   0  0  0  0  0  0  0  0  0  0  0  0
   71.4982   39.3580   58.5044 C   0  0  0  0  0  0  0  0  0  0  0  0
   71.5246   40.7490   58.2944 C   0  0  0  0  0  0  0  0  0  0  0  0
   72.7310   41.3877   58.3178 F   0  0  0  0  0  0  0  0  0  0  0  0
   68.8450   48.0085   56.8686 C   0  0  0  0  0  0  0  0  0  0  0  0
   68.5985   47.2186   55.6572 C   0  0  0  0  0  0  0  0  0  0  0  0
   68.0752   45.9659   55.8134 N   0  0  0  0  0  0  0  0  0  0  0  0
   67.7859   45.1938   54.7914 N   0  0  0  0  0  0  0  0  0  0  0  0
   67.9987   45.6136   53.5406 C   0  0  0  0  0  0  0  0  0  0  0  0
   67.7212   44.8723   52.5498 O   0  0  0  0  0  0  0  0  0  0  0  0
   68.5319   46.8814   53.2729 C   0  0  0  0  0  0  0  0  0  0  0  0
   68.8198   47.6554   54.3912 C   0  0  0  0  0  0  0  0  0  0  0  0
   69.4211   48.9878   54.1612 C   0  0  0  0  0  0  0  0  0  0  0  0
   70.4748   48.7648   53.0604 C   0  0  0  0  0  0  0  0  0  0  0  0
   69.8198   48.3636   51.7646 C   0  0  0  0  0  0  0  0  0  0  0  0
   68.7438   47.3454   51.8953 C   0  0  0  0  0  0  0  0  0  0  0  0
  7  8  2  0
  8  9  1  0
  8 10  1  0
  9  1  1  0
  1  2  2  0
  1  6  1  0
  2  3  1  0
  3  4  2  0
  4  5  1  0
  5 18  1  0
  5  6  2  0
 18 19  1  0
 19 20  2  0
 19 25  1  0
 20 21  1  0
 21 22  1  0
 22 23  2  0
 22 24  1  0
 24 25  2  0
 24 29  1  0
 25 26  1  0
 26 27  1  0
 27 28  1  0
 28 29  1  0
 10 11  2  0
 10 16  1  0
 11 12  1  0
 12 13  1  0
 12 14  2  0
 14 15  1  0
 15 16  2  0
 16 17  1  0
M  END
>  <minimizedAffinity>  (123) 
-9.65669

$$$$
cs_full_output_folder/data/smiles/2448.pdb
     RDKit          3D

 26 29  0  0  0  0  0  0  0  0999 V2000
   70.2525   45.1492   57.8732 C   0  0  0  0  0  0  0  0  0  0  0  0
   71.2099   45.6059   58.7533 C   0  0  0  0  0  0  0  0  0  0  0  0
   71.5650   46.9364   58.8292 C   0  0  0  0  0  0  0  0  0  0  0  0
   70.9380   47.8293   57.9965 C   0  0  0  0  0  0  0  0  0  0  0  0
   69.9532   47.4385   57.0745 C   0  0  0  0  0  0  0  0  0  0  0  0
   69.6612   46.0960   57.0641 C   0  0  0  0  0  0  0  0  0  0  0  0
   68.2321   44.0103   56.3524 O   0  0  0  0  0  0  0  0  0  0  0  0
   68.8891   43.2037   57.0576 C   0  0  0  0  0  0  0  0  0  0  0  0
   69.9320   43.7673   57.8453 N   0  0  0  0  0  0  0  0  0  0  0  0
   68.5851   41.7769   57.0543 C   0  0  0  0  0  0  0  0  0  0  0  0
   69.0126   40.9022   58.0282 C   0  0  0  0  0  0  0  0  0  0  0  0
   68.5424   39.6206   57.7116 C   0  0  0  0  0  0  0  0  0  0  0  0
   67.8572   39.8204   56.5550 N   0  0  0  0  0  0  0  0  0  0  0  0
   67.9061   41.0694   56.2150 O   0  0  0  0  0  0  0  0  0  0  0  0
   69.3243   48.4455   56.1839 C   0  0  0  0  0  0  0  0  0  0  0  0
   69.6458   48.3954   54.7847 C   0  0  0  0  0  0  0  0  0  0  0  0
   70.7335   49.0690   54.3061 N   0  0  0  0  0  0  0  0  0  0  0  0
   71.0561   49.0873   53.0384 N   0  0  0  0  0  0  0  0  0  0  0  0
   70.3546   48.4499   52.0871 C   0  0  0  0  0  0  0  0  0  0  0  0
   70.6568   48.4627   50.8673 O   0  0  0  0  0  0  0  0  0  0  0  0
   69.2411   47.7460   52.4944 C   0  0  0  0  0  0  0  0  0  0  0  0
   68.8992   47.7296   53.8615 C   0  0  0  0  0  0  0  0  0  0  0  0
   67.7359   46.9421   54.2108 C   0  0  0  0  0  0  0  0  0  0  0  0
   67.8821   45.5560   53.5656 C   0  0  0  0  0  0  0  0  0  0  0  0
   67.9969   45.6335   52.0847 C   0  0  0  0  0  0  0  0  0  0  0  0
   68.3634   47.0057   51.5803 C   0  0  0  0  0  0  0  0  0  0  0  0
  7  8  2  0
  8  9  1  0
  8 10  1  0
  9  1  1  0
  1  2  2  0
  1  6  1  0
  2  3  1  0
  3  4  2  0
  4  5  1  0
  5 15  1  0
  5  6  2  0
 15 16  1  0
 16 17  2  0
 16 22  1  0
 17 18  1  0
 18 19  1  0
 19 20  2  0
 19 21  1  0
 21 22  2  0
 21 26  1  0
 22 23  1  0
 23 24  1  0
 24 25  1  0
 25 26  1  0
 10 11  2  0
 10 14  1  0
 11 12  1  0
 12 13  2  0
 13 14  1  0
M  END
>  <minimizedAffinity>  (124) 
-9.65246

$$$$
cs_full_output_folder/data/smiles/314.pdb
     RDKit          3D

 28 31  0  0  0  0  0  0  0  0999 V2000
   72.2337   44.7237   59.5329 C   0  0  0  0  0  0  0  0  0  0  0  0
   71.4258   45.6770   58.7505 C   0  0  0  0  0  0  0  0  0  0  0  0
   70.5660   45.1568   57.8114 C   0  0  0  0  0  0  0  0  0  0  0  0
   69.7658   45.9846   57.0281 C   0  0  0  0  0  0  0  0  0  0  0  0
   69.8112   47.3394   57.1705 C   0  0  0  0  0  0  0  0  0  0  0  0
   70.6784   47.8671   58.1187 C   0  0  0  0  0  0  0  0  0  0  0  0
   71.4693   47.0433   58.8911 C   0  0  0  0  0  0  0  0  0  0  0  0
   72.3831   47.6077   59.8887 C   0  0  0  0  0  0  0  0  0  0  0  0
   72.0925   47.6977   61.1051 O   0  0  0  0  0  0  0  0  0  0  0  0
   73.6517   48.0718   59.4526 N   0  0  0  0  0  0  0  0  0  0  0  0
   74.6312   48.6519   60.3497 C   0  0  0  0  0  0  0  0  0  0  0  0
   74.7171   50.1186   60.0384 C   0  0  0  0  0  0  0  0  0  0  0  0
   74.5281   50.3686   58.6046 C   0  0  0  0  0  0  0  0  0  0  0  0
   74.3934   51.5366   58.2449 O   0  0  0  0  0  0  0  0  0  0  0  0
   74.4826   49.3419   57.5321 C   0  0  0  0  0  0  0  0  0  0  0  0
   74.0541   47.9919   58.0565 C   0  0  0  0  0  0  0  0  0  0  0  0
   68.9898   48.2520   56.3499 C   0  0  0  0  0  0  0  0  0  0  0  0
   69.3746   48.3429   54.9374 C   0  0  0  0  0  0  0  0  0  0  0  0
   70.3278   49.2455   54.5444 N   0  0  0  0  0  0  0  0  0  0  0  0
   70.7686   49.3676   53.3220 N   0  0  0  0  0  0  0  0  0  0  0  0
   70.3073   48.5952   52.3232 C   0  0  0  0  0  0  0  0  0  0  0  0
   70.7111   48.6882   51.1379 O   0  0  0  0  0  0  0  0  0  0  0  0
   69.3425   47.6658   52.6555 C   0  0  0  0  0  0  0  0  0  0  0  0
   68.8159   46.8491   51.6680 C   0  0  0  0  0  0  0  0  0  0  0  0
   67.8449   45.9189   51.9433 C   0  0  0  0  0  0  0  0  0  0  0  0
   67.3887   45.8082   53.2579 C   0  0  0  0  0  0  0  0  0  0  0  0
   67.8883   46.6006   54.2619 C   0  0  0  0  0  0  0  0  0  0  0  0
   68.8623   47.5275   53.9677 C   0  0  0  0  0  0  0  0  0  0  0  0
  1  2  1  0
  2  3  2  0
  2  7  1  0
  3  4  1  0
  4  5  2  0
  5 17  1  0
  5  6  1  0
 17 18  1  0
 18 19  2  0
 18 28  1  0
 19 20  1  0
 20 21  1  0
 21 22  2  0
 21 23  1  0
 23 24  1  0
 23 28  2  0
 24 25  2  0
 25 26  1  0
 26 27  2  0
 27 28  1  0
  6  7  2  0
  7  8  1  0
  8  9  2  0
  8 10  1  0
 10 11  1  0
 10 16  1  0
 11 12  1  0
 12 13  1  0
 13 14  2  0
 13 15  1  0
 15 16  1  0
M  END
>  <minimizedAffinity>  (125) 
-9.64704

$$$$
cs_full_output_folder/data/smiles/5673.pdb
     RDKit          3D

 30 34  0  0  0  0  0  0  0  0999 V2000
   69.0125   42.2524   56.9259 C   0  0  0  0  0  0  0  0  0  0  0  0
   68.1569   41.1896   57.1440 C   0  0  0  0  0  0  0  0  0  0  0  0
   68.4519   40.1736   58.0315 C   0  0  0  0  0  0  0  0  0  0  0  0
   69.6223   40.1786   58.7415 C   0  0  0  0  0  0  0  0  0  0  0  0
   70.4927   41.2285   58.5405 C   0  0  0  0  0  0  0  0  0  0  0  0
   70.1889   42.2458   57.6470 C   0  0  0  0  0  0  0  0  0  0  0  0
   69.3759   44.9712   57.3485 O   0  0  0  0  0  0  0  0  0  0  0  0
   68.8674   44.6620   56.2404 C   0  0  0  0  0  0  0  0  0  0  0  0
   68.6717   43.2820   56.0007 N   0  0  0  0  0  0  0  0  0  0  0  0
   68.5211   45.6762   55.3057 N   0  0  0  0  0  0  0  0  0  0  0  0
   67.9348   45.5577   53.9947 C   0  0  0  0  0  0  0  0  0  0  0  0
   68.5876   46.6886   53.2665 C   0  0  0  0  0  0  0  0  0  0  0  0
   68.8014   46.9714   51.9322 C   0  0  0  0  0  0  0  0  0  0  0  0
   69.4476   48.1156   51.5232 C   0  0  0  0  0  0  0  0  0  0  0  0
   69.9087   49.0319   52.4452 C   0  0  0  0  0  0  0  0  0  0  0  0
   69.6938   48.7482   53.7825 C   0  0  0  0  0  0  0  0  0  0  0  0
   69.0485   47.6042   54.1893 C   0  0  0  0  0  0  0  0  0  0  0  0
   68.7103   47.0965   55.5252 C   0  0  0  0  0  0  0  0  0  0  0  0
   69.8999   39.0604   59.6885 C   0  0  0  0  0  0  0  0  0  0  0  0
   70.6647   38.0079   59.1152 N   0  0  0  0  0  0  0  0  0  0  0  0
   71.4694   38.2222   58.0610 C   0  0  0  0  0  0  0  0  0  0  0  0
   72.1993   37.2390   57.5062 N   0  0  0  0  0  0  0  0  0  0  0  0
   72.1505   35.9915   57.9900 C   0  0  0  0  0  0  0  0  0  0  0  0
   72.9229   34.9974   57.3861 C   0  0  0  0  0  0  0  0  0  0  0  0
   72.8700   33.7199   57.8861 C   0  0  0  0  0  0  0  0  0  0  0  0
   72.0611   33.4297   58.9693 C   0  0  0  0  0  0  0  0  0  0  0  0
   71.3087   34.4297   59.5468 C   0  0  0  0  0  0  0  0  0  0  0  0
   71.3465   35.7221   59.0610 C   0  0  0  0  0  0  0  0  0  0  0  0
   70.6066   36.7606   59.6092 C   0  0  0  0  0  0  0  0  0  0  0  0
   69.8782   36.4839   60.5912 O   0  0  0  0  0  0  0  0  0  0  0  0
  7  8  2  0
  8  9  1  0
  8 10  1  0
  9  1  1  0
  1  2  2  0
  1  6  1  0
  2  3  1  0
  3  4  2  0
  4 19  1  0
  4  5  1  0
 19 20  1  0
 20 21  1  0
 20 29  1  0
 21 22  2  0
 22 23  1  0
 23 24  2  0
 23 28  1  0
 24 25  1  0
 25 26  2  0
 26 27  1  0
 27 28  2  0
 28 29  1  0
 29 30  2  0
  5  6  2  0
 10 11  1  0
 10 18  1  0
 11 12  1  0
 12 13  1  0
 12 17  2  0
 13 14  2  0
 14 15  1  0
 15 16  2  0
 16 17  1  0
 17 18  1  0
M  END
>  <minimizedAffinity>  (126) 
-9.64575

$$$$
cs_full_output_folder/data/smiles/6165.pdb
     RDKit          3D

 26 28  0  0  0  0  0  0  0  0999 V2000
   73.4785   48.6167   57.6041 N   0  0  0  0  0  0  0  0  0  0  0  0
   72.8808   49.7008   56.9093 C   0  0  0  0  0  0  0  0  0  0  0  0
   73.6551   50.6183   56.4427 N   0  0  0  0  0  0  0  0  0  0  0  0
   75.0454   50.5748   56.6025 N   0  0  0  0  0  0  0  0  0  0  0  0
   75.8806   50.0603   55.5976 C   0  0  0  0  0  0  0  0  0  0  0  0
   75.3515   49.6312   54.5300 O   0  0  0  0  0  0  0  0  0  0  0  0
   77.3198   49.9928   55.7143 C   0  0  0  0  0  0  0  0  0  0  0  0
   77.9933   50.9443   56.4422 C   0  0  0  0  0  0  0  0  0  0  0  0
   79.3822   50.8865   56.5598 C   0  0  0  0  0  0  0  0  0  0  0  0
   80.0402   49.8549   55.9276 C   0  0  0  0  0  0  0  0  0  0  0  0
   81.4002   49.7799   56.0298 F   0  0  0  0  0  0  0  0  0  0  0  0
   79.3941   48.8955   55.1968 C   0  0  0  0  0  0  0  0  0  0  0  0
   78.0232   48.9801   55.0993 C   0  0  0  0  0  0  0  0  0  0  0  0
   71.4216   49.8304   56.7135 C   0  0  0  0  0  0  0  0  0  0  0  0
   71.0313   50.4408   55.4278 C   0  0  0  0  0  0  0  0  0  0  0  0
   70.4579   49.5473   54.4105 C   0  0  0  0  0  0  0  0  0  0  0  0
   69.6587   48.5695   54.8905 N   0  0  0  0  0  0  0  0  0  0  0  0
   69.0873   47.6810   54.0444 C   0  0  0  0  0  0  0  0  0  0  0  0
   68.2655   46.6759   54.5367 C   0  0  0  0  0  0  0  0  0  0  0  0
   67.6909   45.7799   53.6676 C   0  0  0  0  0  0  0  0  0  0  0  0
   67.9128   45.8565   52.3081 C   0  0  0  0  0  0  0  0  0  0  0  0
   68.7237   46.8457   51.8009 C   0  0  0  0  0  0  0  0  0  0  0  0
   69.2926   47.7366   52.6849 C   0  0  0  0  0  0  0  0  0  0  0  0
   70.1201   48.7556   52.2346 C   0  0  0  0  0  0  0  0  0  0  0  0
   70.3778   48.9027   51.0227 O   0  0  0  0  0  0  0  0  0  0  0  0
   70.6861   49.6391   53.0978 N   0  0  0  0  0  0  0  0  0  0  0  0
  1  2  1  0
  2 14  1  0
  2  3  2  0
 14 15  1  0
 15 16  1  0
 16 17  2  0
 16 26  1  0
 17 18  1  0
 18 19  2  0
 18 23  1  0
 19 20  1  0
 20 21  2  0
 21 22  1  0
 22 23  2  0
 23 24  1  0
 24 25  2  0
 24 26  1  0
  3  4  1  0
  4  5  1  0
  5  6  2  0
  5  7  1  0
  7  8  2  0
  7 13  1  0
  8  9  1  0
  9 10  2  0
 10 11  1  0
 10 12  1  0
 12 13  2  0
M  CHG  1   3   1
M  END
>  <minimizedAffinity>  (127) 
-9.63136

$$$$
cs_full_output_folder/data/smiles/9014.pdb
     RDKit          3D

 29 32  0  0  0  0  0  0  0  0999 V2000
   70.5635   45.9493   58.1122 C   0  0  0  0  0  0  0  0  0  0  0  0
   69.7691   46.7933   57.3600 C   0  0  0  0  0  0  0  0  0  0  0  0
   70.0327   48.1175   57.0893 C   0  0  0  0  0  0  0  0  0  0  0  0
   71.1852   48.6464   57.6114 C   0  0  0  0  0  0  0  0  0  0  0  0
   72.0251   47.8616   58.3724 C   0  0  0  0  0  0  0  0  0  0  0  0
   71.7082   46.5155   58.6182 C   0  0  0  0  0  0  0  0  0  0  0  0
   72.5528   45.7907   59.3688 F   0  0  0  0  0  0  0  0  0  0  0  0
   69.7365   44.2370   59.4754 O   0  0  0  0  0  0  0  0  0  0  0  0
   70.1746   44.5609   58.3161 C   0  0  0  0  0  0  0  0  0  0  0  0
   70.2192   43.5166   57.3874 N   0  0  0  0  0  0  0  0  0  0  0  0
   69.8201   42.1962   57.6840 N   0  0  0  0  0  0  0  0  0  0  0  0
   70.7491   41.2332   58.2460 C   0  0  0  0  0  0  0  0  0  0  0  0
   70.0258   40.6152   59.4226 C   0  0  0  0  0  0  0  0  0  0  0  0
   68.9242   39.7269   58.9039 C   0  0  0  0  0  0  0  0  0  0  0  0
   68.3345   40.2386   57.6268 C   0  0  0  0  0  0  0  0  0  0  0  0
   68.5027   41.7079   57.4636 C   0  0  0  0  0  0  0  0  0  0  0  0
   67.5987   42.5030   57.1589 O   0  0  0  0  0  0  0  0  0  0  0  0
   69.0735   48.9021   56.2235 C   0  0  0  0  0  0  0  0  0  0  0  0
   69.3939   48.7865   54.7849 C   0  0  0  0  0  0  0  0  0  0  0  0
   70.2702   49.6855   54.2321 N   0  0  0  0  0  0  0  0  0  0  0  0
   70.6421   49.6332   52.9700 N   0  0  0  0  0  0  0  0  0  0  0  0
   70.1878   48.6871   52.1172 C   0  0  0  0  0  0  0  0  0  0  0  0
   70.5740   48.6750   50.9097 O   0  0  0  0  0  0  0  0  0  0  0  0
   69.3078   47.7557   52.5983 C   0  0  0  0  0  0  0  0  0  0  0  0
   68.8210   46.7896   51.7516 C   0  0  0  0  0  0  0  0  0  0  0  0
   67.9108   45.8342   52.2123 C   0  0  0  0  0  0  0  0  0  0  0  0
   67.5335   45.9074   53.5325 C   0  0  0  0  0  0  0  0  0  0  0  0
   68.0360   46.8937   54.3852 C   0  0  0  0  0  0  0  0  0  0  0  0
   68.9317   47.8298   53.9269 C   0  0  0  0  0  0  0  0  0  0  0  0
  8  9  2  0
  9 10  1  0
  9  1  1  0
 10 11  1  0
 11 12  1  0
 11 16  1  0
 12 13  1  0
 13 14  1  0
 14 15  1  0
 15 16  1  0
 16 17  2  0
  1  2  2  0
  1  6  1  0
  2  3  1  0
  3 18  1  0
  3  4  2  0
 18 19  1  0
 19 20  2  0
 19 29  1  0
 20 21  1  0
 21 22  1  0
 22 23  2  0
 22 24  1  0
 24 25  1  0
 24 29  2  0
 25 26  2  0
 26 27  1  0
 27 28  2  0
 28 29  1  0
  4  5  1  0
  5  6  2  0
  6  7  1  0
M  END
>  <minimizedAffinity>  (128) 
-9.62937

$$$$
cs_full_output_folder/data/smiles/4689.pdb
     RDKit          3D

 26 28  0  0  0  0  0  0  0  0999 V2000
   70.1871   41.8649   58.8918 C   0  0  0  0  0  0  0  0  0  0  0  0
   69.2130   41.3785   57.8837 C   0  0  0  0  0  0  0  0  0  0  0  0
   68.6201   42.1891   56.9071 C   0  0  0  0  0  0  0  0  0  0  0  0
   67.8256   41.3484   56.1703 C   0  0  0  0  0  0  0  0  0  0  0  0
   67.9482   40.1264   56.6887 N   0  0  0  0  0  0  0  0  0  0  0  0
   68.7923   40.1274   57.7377 N   0  0  0  0  0  0  0  0  0  0  0  0
   69.1115   38.9774   58.5346 C   0  0  0  0  0  0  0  0  0  0  0  0
   68.1640   38.5083   59.4401 C   0  0  0  0  0  0  0  0  0  0  0  0
   68.4404   37.4094   60.2492 C   0  0  0  0  0  0  0  0  0  0  0  0
   69.6518   36.7569   60.1768 C   0  0  0  0  0  0  0  0  0  0  0  0
   70.0045   35.3593   61.2017 Cl  0  0  0  0  0  0  0  0  0  0  0  0
   70.5874   37.2096   59.2898 C   0  0  0  0  0  0  0  0  0  0  0  0
   70.3011   38.3057   58.4883 C   0  0  0  0  0  0  0  0  0  0  0  0
   68.8117   43.6212   56.7851 C   0  0  0  0  0  0  0  0  0  0  0  0
   69.5899   44.1850   57.6304 O   0  0  0  0  0  0  0  0  0  0  0  0
   68.2046   44.4258   55.8124 N   0  0  0  0  0  0  0  0  0  0  0  0
   68.3981   45.8697   55.7339 C   0  0  0  0  0  0  0  0  0  0  0  0
   68.5025   46.2916   54.3342 C   0  0  0  0  0  0  0  0  0  0  0  0
   67.7814   45.5229   53.4093 C   0  0  0  0  0  0  0  0  0  0  0  0
   67.8301   45.8552   52.0783 C   0  0  0  0  0  0  0  0  0  0  0  0
   68.5936   46.9473   51.6697 C   0  0  0  0  0  0  0  0  0  0  0  0
   69.2887   47.6817   52.5901 C   0  0  0  0  0  0  0  0  0  0  0  0
   69.2464   47.3532   53.9383 C   0  0  0  0  0  0  0  0  0  0  0  0
   70.0715   48.8643   52.1503 C   0  0  0  0  0  0  0  0  0  0  0  0
   71.1664   49.0661   53.0208 O   0  0  0  0  0  0  0  0  0  0  0  0
   70.6009   48.6946   50.8616 O   0  0  0  0  0  0  0  0  0  0  0  0
  1  2  1  0
  2  3  2  0
  2  6  1  0
  3 14  1  0
  3  4  1  0
 14 15  2  0
 14 16  1  0
 16 17  1  0
 17 18  1  0
 18 19  2  0
 18 23  1  0
 19 20  1  0
 20 21  2  0
 21 22  1  0
 22 24  1  0
 22 23  2  0
 24 25  1  0
 24 26  1  0
  4  5  2  0
  5  6  1  0
  6  7  1  0
  7  8  2  0
  7 13  1  0
  8  9  1  0
  9 10  2  0
 10 11  1  0
 10 12  1  0
 12 13  2  0
M  END
>  <minimizedAffinity>  (129) 
-9.62470

$$$$
cs_full_output_folder/data/smiles/2623.pdb
     RDKit          3D

 28 31  0  0  0  0  0  0  0  0999 V2000
   70.6124   45.3664   57.7020 C   0  0  0  0  0  0  0  0  0  0  0  0
   71.6554   45.9064   58.4702 C   0  0  0  0  0  0  0  0  0  0  0  0
   71.8374   47.2756   58.6106 C   0  0  0  0  0  0  0  0  0  0  0  0
   70.9637   48.1577   57.9768 C   0  0  0  0  0  0  0  0  0  0  0  0
   69.9412   47.6440   57.2272 C   0  0  0  0  0  0  0  0  0  0  0  0
   69.7849   46.2616   57.1056 C   0  0  0  0  0  0  0  0  0  0  0  0
   69.8493   43.1335   58.5409 C   0  0  0  0  0  0  0  0  0  0  0  0
   69.2915   43.7451   59.4791 O   0  0  0  0  0  0  0  0  0  0  0  0
   70.5397   43.9750   57.6053 N   0  0  0  0  0  0  0  0  0  0  0  0
   70.4189   38.0675   58.9306 C   0  0  0  0  0  0  0  0  0  0  0  0
   69.9607   39.4490   58.5751 C   0  0  0  0  0  0  0  0  0  0  0  0
   70.4841   40.6598   58.9919 C   0  0  0  0  0  0  0  0  0  0  0  0
   69.7685   41.6899   58.4499 C   0  0  0  0  0  0  0  0  0  0  0  0
   68.7807   41.0693   57.6806 C   0  0  0  0  0  0  0  0  0  0  0  0
   67.7384   41.7900   56.8778 C   0  0  0  0  0  0  0  0  0  0  0  0
   68.9199   39.7294   57.7723 N   0  0  0  0  0  0  0  0  0  0  0  0
   68.9623   48.4905   56.4598 C   0  0  0  0  0  0  0  0  0  0  0  0
   69.3972   48.4824   55.0142 C   0  0  0  0  0  0  0  0  0  0  0  0
   70.3572   49.3663   54.6172 N   0  0  0  0  0  0  0  0  0  0  0  0
   70.8131   49.4426   53.3968 N   0  0  0  0  0  0  0  0  0  0  0  0
   70.3278   48.6134   52.4505 C   0  0  0  0  0  0  0  0  0  0  0  0
   70.7608   48.6772   51.2726 O   0  0  0  0  0  0  0  0  0  0  0  0
   69.3312   47.6714   52.7779 C   0  0  0  0  0  0  0  0  0  0  0  0
   68.8868   47.6316   54.0671 C   0  0  0  0  0  0  0  0  0  0  0  0
   67.8105   46.7015   54.4615 C   0  0  0  0  0  0  0  0  0  0  0  0
   67.8388   45.5308   53.5009 C   0  0  0  0  0  0  0  0  0  0  0  0
   67.6558   46.0174   52.0714 C   0  0  0  0  0  0  0  0  0  0  0  0
   68.8642   46.8055   51.6852 C   0  0  0  0  0  0  0  0  0  0  0  0
 10 11  1  0
 11 12  2  0
 11 16  1  0
 12 13  1  0
 13  7  1  0
 13 14  2  0
  7  8  2  0
  7  9  1  0
  9  1  1  0
  1  2  2  0
  1  6  1  0
  2  3  1  0
  3  4  2  0
  4  5  1  0
  5 17  1  0
  5  6  2  0
 17 18  1  0
 18 19  2  0
 18 24  1  0
 19 20  1  0
 20 21  1  0
 21 22  2  0
 21 23  1  0
 23 24  2  0
 23 28  1  0
 24 25  1  0
 25 26  1  0
 26 27  1  0
 27 28  1  0
 14 15  1  0
 14 16  1  0
M  END
>  <minimizedAffinity>  (130) 
-9.62328

$$$$
cs_full_output_folder/data/smiles/8578.pdb
     RDKit          3D

 29 33  0  0  0  0  0  0  0  0999 V2000
   71.4611   46.9895   58.7306 C   0  0  0  0  0  0  0  0  0  0  0  0
   70.6507   47.7780   57.9610 C   0  0  0  0  0  0  0  0  0  0  0  0
   69.7189   47.2694   57.0896 C   0  0  0  0  0  0  0  0  0  0  0  0
   69.5830   45.9171   56.9742 C   0  0  0  0  0  0  0  0  0  0  0  0
   70.3874   45.0846   57.7386 C   0  0  0  0  0  0  0  0  0  0  0  0
   71.3167   45.6112   58.6079 C   0  0  0  0  0  0  0  0  0  0  0  0
   72.0858   44.7853   59.3386 F   0  0  0  0  0  0  0  0  0  0  0  0
   72.0253   47.9447   60.7678 O   0  0  0  0  0  0  0  0  0  0  0  0
   72.4360   47.5712   59.6463 C   0  0  0  0  0  0  0  0  0  0  0  0
   73.7968   47.7259   59.3263 N   0  0  0  0  0  0  0  0  0  0  0  0
   74.4893   47.3718   58.1050 C   0  0  0  0  0  0  0  0  0  0  0  0
   75.5126   48.4809   58.0424 C   0  0  0  0  0  0  0  0  0  0  0  0
   75.6832   49.0018   59.2390 C   0  0  0  0  0  0  0  0  0  0  0  0
   76.7105   50.1115   59.1554 C   0  0  0  0  0  0  0  0  0  0  0  0
   76.5046   50.5189   57.7516 N   0  0  0  0  0  0  0  0  0  0  0  0
   76.4189   49.2144   57.1293 C   0  0  0  0  0  0  0  0  0  0  0  0
   74.8026   48.2866   60.1854 C   0  0  0  0  0  0  0  0  0  0  0  0
   68.8989   48.2018   56.2683 C   0  0  0  0  0  0  0  0  0  0  0  0
   69.3234   48.2874   54.8598 C   0  0  0  0  0  0  0  0  0  0  0  0
   70.2478   49.2320   54.5144 N   0  0  0  0  0  0  0  0  0  0  0  0
   70.6284   49.3778   53.2820 N   0  0  0  0  0  0  0  0  0  0  0  0
   70.1646   48.6378   52.2561 C   0  0  0  0  0  0  0  0  0  0  0  0
   70.5547   48.8106   51.0881 O   0  0  0  0  0  0  0  0  0  0  0  0
   69.2273   47.6581   52.5144 C   0  0  0  0  0  0  0  0  0  0  0  0
   68.7242   46.8603   51.4964 C   0  0  0  0  0  0  0  0  0  0  0  0
   67.8027   45.8845   51.7756 C   0  0  0  0  0  0  0  0  0  0  0  0
   67.3973   45.7221   53.0780 C   0  0  0  0  0  0  0  0  0  0  0  0
   67.9054   46.5278   54.1013 C   0  0  0  0  0  0  0  0  0  0  0  0
   68.8239   47.5078   53.8448 C   0  0  0  0  0  0  0  0  0  0  0  0
  8  9  2  0
  9  1  1  0
  9 10  1  0
  1  2  2  0
  1  6  1  0
  2  3  1  0
  3 18  1  0
  3  4  2  0
 18 19  1  0
 19 20  2  0
 19 29  1  0
 20 21  1  0
 21 22  1  0
 22 23  2  0
 22 24  1  0
 24 25  1  0
 24 29  2  0
 25 26  2  0
 26 27  1  0
 27 28  2  0
 28 29  1  0
  4  5  1  0
  5  6  2  0
  6  7  1  0
 10 11  1  0
 10 17  1  0
 11 12  1  0
 12 13  2  0
 12 16  1  0
 13 14  1  0
 13 17  1  0
 14 15  1  0
 15 16  1  0
M  CHG  1  15   1
M  END
>  <minimizedAffinity>  (131) 
-9.62202

$$$$
cs_full_output_folder/data/smiles/1458.pdb
     RDKit          3D

 26 28  0  0  0  0  0  0  0  0999 V2000
   70.6559   41.7864   58.5918 C   0  0  0  0  0  0  0  0  0  0  0  0
   69.5144   41.3249   57.7674 C   0  0  0  0  0  0  0  0  0  0  0  0
   68.7296   42.1534   56.9924 C   0  0  0  0  0  0  0  0  0  0  0  0
   67.8053   41.3098   56.4088 C   0  0  0  0  0  0  0  0  0  0  0  0
   68.0626   40.0465   56.8428 N   0  0  0  0  0  0  0  0  0  0  0  0
   69.0962   40.0429   57.6672 N   0  0  0  0  0  0  0  0  0  0  0  0
   69.7025   38.9389   58.3500 C   0  0  0  0  0  0  0  0  0  0  0  0
   69.1477   38.2851   59.4020 C   0  0  0  0  0  0  0  0  0  0  0  0
   69.8160   37.2241   59.9948 C   0  0  0  0  0  0  0  0  0  0  0  0
   71.0532   36.8131   59.5318 C   0  0  0  0  0  0  0  0  0  0  0  0
   71.7444   35.7858   60.0745 F   0  0  0  0  0  0  0  0  0  0  0  0
   71.6304   37.4695   58.4612 C   0  0  0  0  0  0  0  0  0  0  0  0
   70.9459   38.5079   57.9022 C   0  0  0  0  0  0  0  0  0  0  0  0
   68.9016   43.6000   56.8684 C   0  0  0  0  0  0  0  0  0  0  0  0
   69.6110   44.2406   57.7159 O   0  0  0  0  0  0  0  0  0  0  0  0
   68.3110   44.3650   55.8324 N   0  0  0  0  0  0  0  0  0  0  0  0
   68.4619   45.7941   55.6840 C   0  0  0  0  0  0  0  0  0  0  0  0
   68.4945   46.1971   54.2535 C   0  0  0  0  0  0  0  0  0  0  0  0
   67.7361   45.5477   53.2910 C   0  0  0  0  0  0  0  0  0  0  0  0
   67.7694   45.9243   51.9630 C   0  0  0  0  0  0  0  0  0  0  0  0
   68.5565   46.9601   51.5393 C   0  0  0  0  0  0  0  0  0  0  0  0
   69.3219   47.6270   52.4661 C   0  0  0  0  0  0  0  0  0  0  0  0
   69.2817   47.2381   53.8071 C   0  0  0  0  0  0  0  0  0  0  0  0
   70.1642   48.7253   52.0406 C   0  0  0  0  0  0  0  0  0  0  0  0
   71.2175   48.9891   52.6595 O   0  0  0  0  0  0  0  0  0  0  0  0
   69.8098   49.4871   50.9529 O   0  0  0  0  0  0  0  0  0  0  0  0
  1  2  1  0
  2  3  2  0
  2  6  1  0
  3 14  1  0
  3  4  1  0
 14 15  2  0
 14 16  1  0
 16 17  1  0
 17 18  1  0
 18 19  2  0
 18 23  1  0
 19 20  1  0
 20 21  2  0
 21 22  1  0
 22 24  1  0
 22 23  2  0
 24 25  2  0
 24 26  1  0
  4  5  2  0
  5  6  1  0
  6  7  1  0
  7  8  2  0
  7 13  1  0
  8  9  1  0
  9 10  2  0
 10 11  1  0
 10 12  1  0
 12 13  2  0
M  END
>  <minimizedAffinity>  (132) 
-9.62037

$$$$
cs_full_output_folder/data/smiles/58.pdb
     RDKit          3D

 28 31  0  0  0  0  0  0  0  0999 V2000
   71.4963   46.9995   58.9275 C   0  0  0  0  0  0  0  0  0  0  0  0
   70.6996   47.8263   58.1669 C   0  0  0  0  0  0  0  0  0  0  0  0
   69.8345   47.3818   57.2236 C   0  0  0  0  0  0  0  0  0  0  0  0
   69.7708   45.9910   57.0359 C   0  0  0  0  0  0  0  0  0  0  0  0
   70.5491   45.1250   57.7737 C   0  0  0  0  0  0  0  0  0  0  0  0
   71.4132   45.6399   58.7211 C   0  0  0  0  0  0  0  0  0  0  0  0
   72.1849   44.7959   59.4529 F   0  0  0  0  0  0  0  0  0  0  0  0
   76.1833   50.8767   58.4937 O   0  0  0  0  0  0  0  0  0  0  0  0
   75.2680   50.1660   58.8761 C   0  0  0  0  0  0  0  0  0  0  0  0
   75.0590   49.9305   60.3222 C   0  0  0  0  0  0  0  0  0  0  0  0
   74.5831   48.5286   60.6404 C   0  0  0  0  0  0  0  0  0  0  0  0
   73.7077   48.0137   59.6116 N   0  0  0  0  0  0  0  0  0  0  0  0
   72.4145   47.5357   59.9426 C   0  0  0  0  0  0  0  0  0  0  0  0
   72.0380   47.5685   61.1397 O   0  0  0  0  0  0  0  0  0  0  0  0
   74.2324   48.0291   58.2585 C   0  0  0  0  0  0  0  0  0  0  0  0
   74.3412   49.5210   57.9070 C   0  0  0  0  0  0  0  0  0  0  0  0
   68.9674   48.1770   56.3489 C   0  0  0  0  0  0  0  0  0  0  0  0
   69.4043   48.3194   54.9625 C   0  0  0  0  0  0  0  0  0  0  0  0
   70.3449   49.1942   54.5695 N   0  0  0  0  0  0  0  0  0  0  0  0
   70.7947   49.3453   53.3587 N   0  0  0  0  0  0  0  0  0  0  0  0
   70.3182   48.5915   52.3667 C   0  0  0  0  0  0  0  0  0  0  0  0
   70.7108   48.6892   51.1790 O   0  0  0  0  0  0  0  0  0  0  0  0
   69.3324   47.6498   52.6749 C   0  0  0  0  0  0  0  0  0  0  0  0
   68.8196   46.8707   51.6396 C   0  0  0  0  0  0  0  0  0  0  0  0
   67.8383   45.9452   51.9070 C   0  0  0  0  0  0  0  0  0  0  0  0
   67.3926   45.8203   53.2012 C   0  0  0  0  0  0  0  0  0  0  0  0
   67.8827   46.5771   54.2388 C   0  0  0  0  0  0  0  0  0  0  0  0
   68.8653   47.5012   53.9615 C   0  0  0  0  0  0  0  0  0  0  0  0
  8  9  2  0
  9 10  1  0
  9 16  1  0
 10 11  1  0
 11 12  1  0
 12 13  1  0
 12 15  1  0
 13 14  2  0
 13  1  1  0
  1  2  2  0
  1  6  1  0
  2  3  1  0
  3 17  1  0
  3  4  2  0
 17 18  1  0
 18 19  2  0
 18 28  1  0
 19 20  1  0
 20 21  1  0
 21 22  2  0
 21 23  1  0
 23 24  1  0
 23 28  2  0
 24 25  2  0
 25 26  1  0
 26 27  2  0
 27 28  1  0
  4  5  1  0
  5  6  2  0
  6  7  1  0
 15 16  1  0
M  END
>  <minimizedAffinity>  (133) 
-9.61810

$$$$
cs_full_output_folder/data/smiles/3784.pdb
     RDKit          3D

 29 32  0  0  0  0  0  0  0  0999 V2000
   70.7456   45.3504   57.8953 C   0  0  0  0  0  0  0  0  0  0  0  0
   71.5606   46.0351   58.7520 C   0  0  0  0  0  0  0  0  0  0  0  0
   71.4962   47.4319   58.8476 C   0  0  0  0  0  0  0  0  0  0  0  0
   70.5692   48.0664   58.0320 C   0  0  0  0  0  0  0  0  0  0  0  0
   69.7548   47.3793   57.1737 C   0  0  0  0  0  0  0  0  0  0  0  0
   69.8440   46.0080   57.1052 C   0  0  0  0  0  0  0  0  0  0  0  0
   70.0185   43.1249   58.6819 C   0  0  0  0  0  0  0  0  0  0  0  0
   69.2900   43.7828   59.5222 O   0  0  0  0  0  0  0  0  0  0  0  0
   70.7947   43.9349   57.8165 N   0  0  0  0  0  0  0  0  0  0  0  0
   68.0592   41.6476   57.0919 C   0  0  0  0  0  0  0  0  0  0  0  0
   69.0461   40.9756   57.9596 C   0  0  0  0  0  0  0  0  0  0  0  0
   69.0821   39.5728   58.0402 C   0  0  0  0  0  0  0  0  0  0  0  0
   69.9845   38.9228   58.8212 C   0  0  0  0  0  0  0  0  0  0  0  0
   70.0330   37.5695   58.9060 F   0  0  0  0  0  0  0  0  0  0  0  0
   70.8892   39.6332   59.5586 C   0  0  0  0  0  0  0  0  0  0  0  0
   70.8924   40.9979   59.5137 C   0  0  0  0  0  0  0  0  0  0  0  0
   69.9618   41.6800   58.7062 C   0  0  0  0  0  0  0  0  0  0  0  0
   68.7701   48.1283   56.3551 C   0  0  0  0  0  0  0  0  0  0  0  0
   69.2434   48.3265   54.9710 C   0  0  0  0  0  0  0  0  0  0  0  0
   69.9907   49.3968   54.6275 N   0  0  0  0  0  0  0  0  0  0  0  0
   70.4362   49.6010   53.3841 N   0  0  0  0  0  0  0  0  0  0  0  0
   70.1584   48.7331   52.3958 C   0  0  0  0  0  0  0  0  0  0  0  0
   70.5965   48.9694   51.2545 O   0  0  0  0  0  0  0  0  0  0  0  0
   69.3947   47.6108   52.6784 C   0  0  0  0  0  0  0  0  0  0  0  0
   68.9486   47.4223   53.9562 C   0  0  0  0  0  0  0  0  0  0  0  0
   68.1383   46.2612   54.3380 C   0  0  0  0  0  0  0  0  0  0  0  0
   67.6062   45.4756   53.1999 C   0  0  0  0  0  0  0  0  0  0  0  0
   67.6159   46.2368   51.9038 C   0  0  0  0  0  0  0  0  0  0  0  0
   69.0746   46.6363   51.6101 C   0  0  0  0  0  0  0  0  0  0  0  0
 10 11  1  0
 11 12  2  0
 11 17  1  0
 12 13  1  0
 13 14  1  0
 13 15  2  0
 15 16  1  0
 16 17  2  0
 17  7  1  0
  7  8  2  0
  7  9  1  0
  9  1  1  0
  1  2  2  0
  1  6  1  0
  2  3  1  0
  3  4  2  0
  4  5  1  0
  5 18  1  0
  5  6  2  0
 18 19  1  0
 19 20  2  0
 19 25  1  0
 20 21  1  0
 21 22  1  0
 22 23  2  0
 22 24  1  0
 24 25  2  0
 24 29  1  0
 25 26  1  0
 26 27  1  0
 27 28  1  0
 28 29  1  0
M  END
>  <minimizedAffinity>  (134) 
-9.61462

$$$$
cs_full_output_folder/data/smiles/2629.pdb
     RDKit          3D

 27 29  0  0  0  0  0  0  0  0999 V2000
   68.3776   45.9383   54.1339 C   0  0  0  0  0  0  0  0  0  0  0  0
   67.8174   45.4690   52.9682 C   0  0  0  0  0  0  0  0  0  0  0  0
   67.9124   46.1651   51.7721 C   0  0  0  0  0  0  0  0  0  0  0  0
   68.5936   47.3628   51.7717 C   0  0  0  0  0  0  0  0  0  0  0  0
   69.1744   47.8743   52.9203 C   0  0  0  0  0  0  0  0  0  0  0  0
   69.0448   47.1264   54.0962 C   0  0  0  0  0  0  0  0  0  0  0  0
   68.5677   45.6006   56.4847 O   0  0  0  0  0  0  0  0  0  0  0  0
   68.2265   45.1371   55.3419 C   0  0  0  0  0  0  0  0  0  0  0  0
   67.7101   43.8223   55.3780 N   0  0  0  0  0  0  0  0  0  0  0  0
   67.5679   43.0628   56.5328 N   0  0  0  0  0  0  0  0  0  0  0  0
   67.5350   41.6549   56.5759 C   0  0  0  0  0  0  0  0  0  0  0  0
   67.6435   41.0366   55.4899 O   0  0  0  0  0  0  0  0  0  0  0  0
   67.3838   40.8879   57.8102 C   0  0  0  0  0  0  0  0  0  0  0  0
   67.9897   39.6606   57.9840 C   0  0  0  0  0  0  0  0  0  0  0  0
   67.8580   38.9191   59.1457 C   0  0  0  0  0  0  0  0  0  0  0  0
   67.0917   39.4103   60.1886 C   0  0  0  0  0  0  0  0  0  0  0  0
   66.4985   40.6401   59.9841 C   0  0  0  0  0  0  0  0  0  0  0  0
   66.6456   41.3377   58.8417 N   0  0  0  0  0  0  0  0  0  0  0  0
   70.0413   49.3725   52.9774 S   0  0  0  0  0  0  0  0  0  0  0  0
   69.7559   50.1497   51.7038 O   0  0  0  0  0  0  0  0  0  0  0  0
   71.5277   49.1646   53.0217 O   0  0  0  0  0  0  0  0  0  0  0  0
   69.5574   50.3815   54.2850 N   0  0  0  0  0  0  0  0  0  0  0  0
   70.2700   50.0753   55.4958 C   0  0  0  0  0  0  0  0  0  0  0  0
   69.7123   50.8821   56.6400 C   0  0  0  0  0  0  0  0  0  0  0  0
   68.4811   51.6379   56.1772 C   0  0  0  0  0  0  0  0  0  0  0  0
   68.8816   52.5487   55.0371 C   0  0  0  0  0  0  0  0  0  0  0  0
   69.6083   51.7882   53.9514 C   0  0  0  0  0  0  0  0  0  0  0  0
  7  8  2  0
  8  9  1  0
  8  1  1  0
  9 10  1  0
 10 11  1  0
 11 12  2  0
 11 13  1  0
 13 14  2  0
 13 18  1  0
 14 15  1  0
 15 16  2  0
 16 17  1  0
 17 18  2  0
  1  2  2  0
  1  6  1  0
  2  3  1  0
  3  4  2  0
  4  5  1  0
  5 19  1  0
  5  6  2  0
 19 20  2  0
 19 21  2  0
 19 22  1  0
 22 23  1  0
 22 27  1  0
 23 24  1  0
 24 25  1  0
 25 26  1  0
 26 27  1  0
M  END
>  <minimizedAffinity>  (135) 
-9.61221

$$$$
cs_full_output_folder/data/smiles/3136.pdb
     RDKit          3D

 29 32  0  0  0  0  0  0  0  0999 V2000
   70.8595   45.2212   58.0199 C   0  0  0  0  0  0  0  0  0  0  0  0
   71.6319   46.0553   58.8457 C   0  0  0  0  0  0  0  0  0  0  0  0
   71.4127   47.4158   58.9140 C   0  0  0  0  0  0  0  0  0  0  0  0
   70.4137   47.9842   58.1579 C   0  0  0  0  0  0  0  0  0  0  0  0
   69.6153   47.2043   57.3195 C   0  0  0  0  0  0  0  0  0  0  0  0
   69.8926   45.8408   57.3027 C   0  0  0  0  0  0  0  0  0  0  0  0
   70.4132   42.7613   58.4570 C   0  0  0  0  0  0  0  0  0  0  0  0
   69.2241   43.0831   58.8362 O   0  0  0  0  0  0  0  0  0  0  0  0
   71.2011   43.8477   58.0566 N   0  0  0  0  0  0  0  0  0  0  0  0
   71.4619   37.0844   58.5705 C   0  0  0  0  0  0  0  0  0  0  0  0
   71.1870   38.5427   58.5408 C   0  0  0  0  0  0  0  0  0  0  0  0
   69.9285   39.0678   58.3745 C   0  0  0  0  0  0  0  0  0  0  0  0
   69.7181   40.4280   58.3522 C   0  0  0  0  0  0  0  0  0  0  0  0
   70.7582   41.3651   58.4958 C   0  0  0  0  0  0  0  0  0  0  0  0
   71.9955   40.8153   58.6593 C   0  0  0  0  0  0  0  0  0  0  0  0
   73.0673   41.6566   58.8061 O   0  0  0  0  0  0  0  0  0  0  0  0
   72.2211   39.4247   58.6828 C   0  0  0  0  0  0  0  0  0  0  0  0
   68.5342   47.8413   56.5323 C   0  0  0  0  0  0  0  0  0  0  0  0
   68.9773   48.2625   55.1649 C   0  0  0  0  0  0  0  0  0  0  0  0
   69.5243   49.4815   55.0085 N   0  0  0  0  0  0  0  0  0  0  0  0
   69.9520   49.8877   53.8514 N   0  0  0  0  0  0  0  0  0  0  0  0
   69.8677   49.1061   52.7532 C   0  0  0  0  0  0  0  0  0  0  0  0
   70.2698   49.4642   51.6198 O   0  0  0  0  0  0  0  0  0  0  0  0
   69.3156   47.8406   52.8425 C   0  0  0  0  0  0  0  0  0  0  0  0
   68.8644   47.4235   54.0808 C   0  0  0  0  0  0  0  0  0  0  0  0
   68.2513   46.0717   54.1948 C   0  0  0  0  0  0  0  0  0  0  0  0
   67.5483   45.5824   52.9743 C   0  0  0  0  0  0  0  0  0  0  0  0
   67.8481   46.2932   51.7043 C   0  0  0  0  0  0  0  0  0  0  0  0
   69.2036   46.9391   51.6923 C   0  0  0  0  0  0  0  0  0  0  0  0
 10 11  1  0
 11 12  2  0
 11 17  1  0
 12 13  1  0
 13 14  2  0
 14  7  1  0
 14 15  1  0
  7  8  2  0
  7  9  1  0
  9  1  1  0
  1  2  2  0
  1  6  1  0
  2  3  1  0
  3  4  2  0
  4  5  1  0
  5 18  1  0
  5  6  2  0
 18 19  1  0
 19 20  2  0
 19 25  1  0
 20 21  1  0
 21 22  1  0
 22 23  2  0
 22 24  1  0
 24 25  2  0
 24 29  1  0
 25 26  1  0
 26 27  1  0
 27 28  1  0
 28 29  1  0
 15 16  1  0
 15 17  2  0
M  END
>  <minimizedAffinity>  (136) 
-9.60992

$$$$
cs_full_output_folder/data/smiles/5120.pdb
     RDKit          3D

 26 27  0  0  0  0  0  0  0  0999 V2000
   70.8790   45.1934   58.6172 C   0  0  0  0  0  0  0  0  0  0  0  0
   71.6272   46.6587   59.0499 S   0  0  0  0  0  0  0  0  0  0  0  0
   70.0424   42.8403   58.3056 C   0  0  0  0  0  0  0  0  0  0  0  0
   68.8983   43.2044   57.9935 O   0  0  0  0  0  0  0  0  0  0  0  0
   70.9333   43.9733   58.5984 N   0  0  0  0  0  0  0  0  0  0  0  0
   71.3815   38.7332   58.5497 C   0  0  0  0  0  0  0  0  0  0  0  0
   70.0531   39.0791   58.4391 C   0  0  0  0  0  0  0  0  0  0  0  0
   69.6325   40.3852   58.3595 C   0  0  0  0  0  0  0  0  0  0  0  0
   70.5105   41.4593   58.3808 C   0  0  0  0  0  0  0  0  0  0  0  0
   71.8379   41.1226   58.4925 C   0  0  0  0  0  0  0  0  0  0  0  0
   72.2877   39.7982   58.5754 C   0  0  0  0  0  0  0  0  0  0  0  0
   72.4097   36.6778   57.4875 C   0  0  0  0  0  0  0  0  0  0  0  0
   71.9254   37.3551   58.6975 C   0  0  0  0  0  0  0  0  0  0  0  0
   70.9023   36.5444   59.5199 C   0  0  0  0  0  0  0  0  0  0  0  0
   69.6301   45.7559   57.8165 N   0  0  0  0  0  0  0  0  0  0  0  0
   69.7122   45.7576   56.4583 N   0  0  0  0  0  0  0  0  0  0  0  0
   68.6592   46.4687   55.7367 C   0  0  0  0  0  0  0  0  0  0  0  0
   67.7908   46.9925   56.5046 O   0  0  0  0  0  0  0  0  0  0  0  0
   68.5887   46.5721   54.3082 C   0  0  0  0  0  0  0  0  0  0  0  0
   67.7615   45.6148   53.6624 C   0  0  0  0  0  0  0  0  0  0  0  0
   67.6595   45.7048   52.2689 C   0  0  0  0  0  0  0  0  0  0  0  0
   68.2945   46.6364   51.5191 C   0  0  0  0  0  0  0  0  0  0  0  0
   69.1098   47.5834   52.1604 C   0  0  0  0  0  0  0  0  0  0  0  0
   69.2091   47.4888   53.5532 C   0  0  0  0  0  0  0  0  0  0  0  0
   69.7714   48.5635   51.4030 N   0  0  0  0  0  0  0  0  0  0  0  0
   70.8732   49.0307   52.0568 O   0  0  0  0  0  0  0  0  0  0  0  0
 12 13  1  0
 13 14  1  0
 13  6  1  0
  6  7  2  0
  6 11  1  0
  7  8  1  0
  8  9  2  0
  9  3  1  0
  9 10  1  0
  3  4  2  0
  3  5  1  0
  5  1  1  0
  1  2  2  0
  1 15  1  0
 15 16  1  0
 16 17  1  0
 17 18  2  0
 17 19  1  0
 19 20  2  0
 19 24  1  0
 20 21  1  0
 21 22  2  0
 22 23  1  0
 23 25  1  0
 23 24  2  0
 25 26  1  0
 10 11  2  0
M  CHG  2  25   1  26  -1
M  END
>  <minimizedAffinity>  (137) 
-9.60980

$$$$
cs_full_output_folder/data/smiles/5214.pdb
     RDKit          3D

 29 32  0  0  0  0  0  0  0  0999 V2000
   68.8930   46.4848   55.2034 C   0  0  0  0  0  0  0  0  0  0  0  0
   69.2601   47.5877   54.4354 C   0  0  0  0  0  0  0  0  0  0  0  0
   68.9857   47.7162   53.0954 C   0  0  0  0  0  0  0  0  0  0  0  0
   68.3090   46.6942   52.4839 C   0  0  0  0  0  0  0  0  0  0  0  0
   67.9207   45.5782   53.1946 C   0  0  0  0  0  0  0  0  0  0  0  0
   68.2243   45.4905   54.5625 C   0  0  0  0  0  0  0  0  0  0  0  0
   67.8410   44.3684   55.2413 F   0  0  0  0  0  0  0  0  0  0  0  0
   68.5379   47.2403   57.3545 O   0  0  0  0  0  0  0  0  0  0  0  0
   69.2373   46.4826   56.6427 C   0  0  0  0  0  0  0  0  0  0  0  0
   70.2318   45.7430   57.2724 N   0  0  0  0  0  0  0  0  0  0  0  0
   70.6340   45.6481   58.6245 C   0  0  0  0  0  0  0  0  0  0  0  0
   71.2065   44.4331   59.2087 C   0  0  1  0  0  0  0  0  0  0  0  0
   70.6730   43.1462   58.7782 C   0  0  0  0  0  0  0  0  0  0  0  0
   71.4280   42.4607   57.6993 C   0  0  0  0  0  0  0  0  0  0  0  0
   72.6642   42.7868   57.4130 C   0  0  0  0  0  0  0  0  0  0  0  0
   73.3949   43.8320   58.1149 C   0  0  0  0  0  0  0  0  0  0  0  0
   72.7320   44.4715   59.2647 C   0  0  0  0  0  0  0  0  0  0  0  0
   69.4133   48.9769   52.3670 C   0  0  0  0  0  0  0  0  0  0  0  0
   70.2717   49.7932   53.2261 C   0  0  0  0  0  0  0  0  0  0  0  0
   71.6042   49.4950   53.2146 N   0  0  0  0  0  0  0  0  0  0  0  0
   72.5057   50.1634   53.9009 N   0  0  0  0  0  0  0  0  0  0  0  0
   72.1944   51.2107   54.6860 C   0  0  0  0  0  0  0  0  0  0  0  0
   73.1143   51.7918   55.3053 O   0  0  0  0  0  0  0  0  0  0  0  0
   70.8650   51.5538   54.7358 C   0  0  0  0  0  0  0  0  0  0  0  0
   70.5142   52.6135   55.5392 C   0  0  0  0  0  0  0  0  0  0  0  0
   69.1769   52.9507   55.6011 C   0  0  0  0  0  0  0  0  0  0  0  0
   68.2193   52.2561   54.8860 C   0  0  0  0  0  0  0  0  0  0  0  0
   68.5683   51.1916   54.0773 C   0  0  0  0  0  0  0  0  0  0  0  0
   69.9031   50.8469   54.0078 C   0  0  0  0  0  0  0  0  0  0  0  0
  8  9  2  0
  9 10  1  0
  9  1  1  0
 10 11  1  0
 12 11  1  6
 12 13  1  0
 12 17  1  0
 13 14  1  0
 14 15  2  0
 15 16  1  0
 16 17  1  0
  1  2  2  0
  1  6  1  0
  2  3  1  0
  3 18  1  0
  3  4  2  0
 18 19  1  0
 19 20  2  0
 19 29  1  0
 20 21  1  0
 21 22  1  0
 22 23  2  0
 22 24  1  0
 24 25  1  0
 24 29  2  0
 25 26  2  0
 26 27  1  0
 27 28  2  0
 28 29  1  0
  4  5  1  0
  5  6  2  0
  6  7  1  0
M  END
>  <minimizedAffinity>  (138) 
-9.60959

$$$$
cs_full_output_folder/data/smiles/4018.pdb
     RDKit          3D

 28 31  0  0  0  0  0  0  0  0999 V2000
   70.6852   46.2449   58.4618 C   0  0  0  0  0  0  0  0  0  0  0  0
   69.8374   46.8197   57.5072 C   0  0  0  0  0  0  0  0  0  0  0  0
   69.8032   48.1577   57.2496 C   0  0  0  0  0  0  0  0  0  0  0  0
   70.6856   48.9466   58.0109 C   0  0  0  0  0  0  0  0  0  0  0  0
   71.5328   48.4197   58.9567 C   0  0  0  0  0  0  0  0  0  0  0  0
   71.5340   47.0494   59.1871 C   0  0  0  0  0  0  0  0  0  0  0  0
   72.3451   46.4773   60.1032 F   0  0  0  0  0  0  0  0  0  0  0  0
   69.6365   44.2420   59.2216 O   0  0  0  0  0  0  0  0  0  0  0  0
   70.6153   44.8038   58.6485 C   0  0  0  0  0  0  0  0  0  0  0  0
   71.6574   43.9361   58.1926 N   0  0  0  0  0  0  0  0  0  0  0  0
   71.4889   42.5173   58.4226 C   0  0  0  0  0  0  0  0  0  0  0  0
   72.3967   42.0707   59.5322 C   0  0  0  0  0  0  0  0  0  0  0  0
   73.7817   41.7254   59.0300 C   0  0  0  0  0  0  0  0  0  0  0  0
   74.1985   42.6025   57.8762 C   0  0  0  0  0  0  0  0  0  0  0  0
   73.9409   44.0596   58.0918 C   0  0  0  0  0  0  0  0  0  0  0  0
   72.7255   44.4882   57.5803 O   0  0  0  0  0  0  0  0  0  0  0  0
   68.9089   48.8332   56.2567 C   0  0  0  0  0  0  0  0  0  0  0  0
   69.3304   48.6866   54.8688 C   0  0  0  0  0  0  0  0  0  0  0  0
   70.2265   49.5790   54.3492 N   0  0  0  0  0  0  0  0  0  0  0  0
   70.6433   49.5848   53.1198 N   0  0  0  0  0  0  0  0  0  0  0  0
   70.1927   48.6683   52.2537 C   0  0  0  0  0  0  0  0  0  0  0  0
   70.6255   48.7117   51.0649 O   0  0  0  0  0  0  0  0  0  0  0  0
   69.2913   47.7158   52.6488 C   0  0  0  0  0  0  0  0  0  0  0  0
   68.8409   46.7657   51.7589 C   0  0  0  0  0  0  0  0  0  0  0  0
   67.9495   45.8176   52.1993 C   0  0  0  0  0  0  0  0  0  0  0  0
   67.5261   45.8461   53.5337 C   0  0  0  0  0  0  0  0  0  0  0  0
   67.9798   46.7950   54.4157 C   0  0  0  0  0  0  0  0  0  0  0  0
   68.8657   47.7423   53.9825 C   0  0  0  0  0  0  0  0  0  0  0  0
  8  9  2  0
  9  1  1  0
  9 10  1  0
  1  2  2  0
  1  6  1  0
  2  3  1  0
  3 17  1  0
  3  4  2  0
 17 18  1  0
 18 19  2  0
 18 28  1  0
 19 20  1  0
 20 21  1  0
 21 22  2  0
 21 23  1  0
 23 24  1  0
 23 28  2  0
 24 25  2  0
 25 26  1  0
 26 27  2  0
 27 28  1  0
  4  5  1  0
  5  6  2  0
  6  7  1  0
 10 11  1  0
 10 16  1  0
 11 12  1  0
 12 13  1  0
 13 14  1  0
 14 15  1  0
 15 16  1  0
M  END
>  <minimizedAffinity>  (139) 
-9.60907

$$$$
cs_full_output_folder/data/smiles/233.pdb
     RDKit          3D

 27 29  0  0  0  0  0  0  0  0999 V2000
   71.0887   42.0851   58.7556 C   0  0  0  0  0  0  0  0  0  0  0  0
   69.8943   41.8487   57.9282 C   0  0  0  0  0  0  0  0  0  0  0  0
   69.1574   42.7429   57.2176 C   0  0  0  0  0  0  0  0  0  0  0  0
   68.1142   41.9991   56.6528 C   0  0  0  0  0  0  0  0  0  0  0  0
   68.2555   40.7249   57.0272 N   0  0  0  0  0  0  0  0  0  0  0  0
   69.3184   40.6159   57.7924 N   0  0  0  0  0  0  0  0  0  0  0  0
   69.7870   39.3984   58.3470 C   0  0  0  0  0  0  0  0  0  0  0  0
   68.9896   38.7310   59.2672 C   0  0  0  0  0  0  0  0  0  0  0  0
   69.3799   37.5429   59.8351 C   0  0  0  0  0  0  0  0  0  0  0  0
   70.5897   36.9458   59.5238 C   0  0  0  0  0  0  0  0  0  0  0  0
   71.0941   35.4287   60.2378 Cl  0  0  0  0  0  0  0  0  0  0  0  0
   71.3886   37.6064   58.6077 C   0  0  0  0  0  0  0  0  0  0  0  0
   72.6468   37.0016   58.2925 N   0  0  0  0  0  0  0  0  0  0  0  0
   70.9916   38.7953   58.0423 C   0  0  0  0  0  0  0  0  0  0  0  0
   69.3908   44.1599   56.9831 C   0  0  0  0  0  0  0  0  0  0  0  0
   70.4270   44.6853   57.5303 O   0  0  0  0  0  0  0  0  0  0  0  0
   68.5838   44.9986   56.2282 N   0  0  0  0  0  0  0  0  0  0  0  0
   68.7958   46.4498   56.0195 C   0  0  0  0  0  0  0  0  0  0  0  0
   68.6237   46.5544   54.5190 C   0  0  0  0  0  0  0  0  0  0  0  0
   67.9216   45.6508   53.7838 C   0  0  0  0  0  0  0  0  0  0  0  0
   67.8511   45.7299   52.3896 C   0  0  0  0  0  0  0  0  0  0  0  0
   68.5137   46.7514   51.7540 C   0  0  0  0  0  0  0  0  0  0  0  0
   69.2280   47.6736   52.4735 C   0  0  0  0  0  0  0  0  0  0  0  0
   69.2814   47.5716   53.8655 C   0  0  0  0  0  0  0  0  0  0  0  0
   69.9719   48.7709   51.8761 C   0  0  0  0  0  0  0  0  0  0  0  0
   69.9577   50.0860   52.3855 N   0  0  0  0  0  0  0  0  0  0  0  0
   70.6634   48.5302   50.8469 O   0  0  0  0  0  0  0  0  0  0  0  0
  1  2  1  0
  2  3  2  0
  2  6  1  0
  3 15  1  0
  3  4  1  0
 15 16  2  0
 15 17  1  0
 17 18  1  0
 18 19  1  0
 19 20  2  0
 19 24  1  0
 20 21  1  0
 21 22  2  0
 22 23  1  0
 23 25  1  0
 23 24  2  0
 25 26  1  0
 25 27  2  0
  4  5  2  0
  5  6  1  0
  6  7  1  0
  7  8  2  0
  7 14  1  0
  8  9  1  0
  9 10  2  0
 10 11  1  0
 10 12  1  0
 12 13  1  0
 12 14  2  0
M  END
>  <minimizedAffinity>  (140) 
-9.60669

$$$$
cs_full_output_folder/data/smiles/1994.pdb
     RDKit          3D

 27 30  0  0  0  0  0  0  0  0999 V2000
   68.9499   47.7632   52.9207 C   0  0  0  0  0  0  0  0  0  0  0  0
   68.3609   46.7991   52.0904 C   0  0  0  0  0  0  0  0  0  0  0  0
   67.8416   45.6256   52.5605 C   0  0  0  0  0  0  0  0  0  0  0  0
   67.9013   45.3807   53.9166 C   0  0  0  0  0  0  0  0  0  0  0  0
   68.4605   46.2766   54.7796 C   0  0  0  0  0  0  0  0  0  0  0  0
   68.9796   47.4645   54.2431 C   0  0  0  0  0  0  0  0  0  0  0  0
   69.4824   48.9652   52.2461 C   0  0  0  0  0  0  0  0  0  0  0  0
   72.9329   51.7494   55.4962 O   0  0  0  0  0  0  0  0  0  0  0  0
   72.0748   51.1569   54.7885 C   0  0  0  0  0  0  0  0  0  0  0  0
   72.4639   50.1027   54.0264 N   0  0  0  0  0  0  0  0  0  0  0  0
   71.6171   49.4339   53.2568 N   0  0  0  0  0  0  0  0  0  0  0  0
   70.2880   49.7460   53.1665 C   0  0  0  0  0  0  0  0  0  0  0  0
   69.9000   50.7980   53.9304 C   0  0  0  0  0  0  0  0  0  0  0  0
   68.5780   51.1725   53.9191 C   0  0  0  0  0  0  0  0  0  0  0  0
   68.1071   52.2343   54.6890 C   0  0  0  0  0  0  0  0  0  0  0  0
   68.9824   52.9467   55.4977 C   0  0  0  0  0  0  0  0  0  0  0  0
   70.3109   52.5840   55.5215 C   0  0  0  0  0  0  0  0  0  0  0  0
   70.7567   51.5294   54.7523 C   0  0  0  0  0  0  0  0  0  0  0  0
   68.5142   46.0357   56.1809 N   0  0  0  0  0  0  0  0  0  0  0  0
   69.2511   47.1343   57.2792 S   0  0  0  0  0  0  0  0  0  0  0  0
   69.5255   46.4386   58.5844 O   0  0  0  0  0  0  0  0  0  0  0  0
   70.5933   47.5250   56.7137 O   0  0  0  0  0  0  0  0  0  0  0  0
   68.2578   48.5444   57.5454 C   0  0  0  0  0  0  0  0  0  0  0  0
   68.7324   49.8603   57.5485 C   0  0  0  0  0  0  0  0  0  0  0  0
   67.6353   50.6481   57.7913 C   0  0  0  0  0  0  0  0  0  0  0  0
   66.5547   49.8143   57.9254 C   0  0  0  0  0  0  0  0  0  0  0  0
   66.9743   48.5690   57.7706 O   0  0  0  0  0  0  0  0  0  0  0  0
  8  9  2  0
  9 10  1  0
  9 18  1  0
 10 11  1  0
 11 12  2  0
 12  7  1  0
 12 13  1  0
  7  1  1  0
  1  2  2  0
  1  6  1  0
  2  3  1  0
  3  4  2  0
  4  5  1  0
  5 19  1  0
  5  6  2  0
 19 20  1  0
 20 21  2  0
 20 22  2  0
 20 23  1  0
 23 24  2  0
 23 27  1  0
 24 25  1  0
 25 26  2  0
 26 27  1  0
 13 14  1  0
 13 18  2  0
 14 15  2  0
 15 16  1  0
 16 17  2  0
 17 18  1  0
M  END
>  <minimizedAffinity>  (141) 
-9.60577

$$$$
cs_full_output_folder/data/smiles/2214.pdb
     RDKit          3D

 29 32  0  0  0  0  0  0  0  0999 V2000
   70.4233   45.6851   58.1870 C   0  0  0  0  0  0  0  0  0  0  0  0
   69.5952   46.4191   57.3246 C   0  0  0  0  0  0  0  0  0  0  0  0
   69.8837   47.7170   57.0646 C   0  0  0  0  0  0  0  0  0  0  0  0
   71.0062   48.3249   57.6558 C   0  0  0  0  0  0  0  0  0  0  0  0
   71.8159   47.6077   58.4985 C   0  0  0  0  0  0  0  0  0  0  0  0
   71.5225   46.2644   58.7722 C   0  0  0  0  0  0  0  0  0  0  0  0
   72.3539   45.5959   59.6166 F   0  0  0  0  0  0  0  0  0  0  0  0
   70.0965   44.3946   58.4188 O   0  0  0  0  0  0  0  0  0  0  0  0
   70.7321   42.1086   58.0666 C   0  0  0  0  0  0  0  0  0  0  0  0
   69.8731   43.2999   57.6173 C   0  0  1  0  0  0  0  0  0  0  0  0
   68.4868   42.8550   57.8717 N   0  0  0  0  0  0  0  0  0  0  0  0
   67.8717   42.3620   56.6814 C   0  0  0  0  0  0  0  0  0  0  0  0
   68.0748   40.8826   56.5739 C   0  0  0  0  0  0  0  0  0  0  0  0
   67.6426   40.1232   57.7055 N   0  0  0  0  0  0  0  0  0  0  0  0
   68.6614   39.1584   58.0877 C   0  0  0  0  0  0  0  0  0  0  0  0
   67.2822   40.9995   58.8038 C   0  0  0  0  0  0  0  0  0  0  0  0
   68.4140   41.9857   59.0070 C   0  0  0  0  0  0  0  0  0  0  0  0
   69.0223   48.5551   56.1517 C   0  0  0  0  0  0  0  0  0  0  0  0
   69.4020   48.5111   54.7580 C   0  0  0  0  0  0  0  0  0  0  0  0
   70.3072   49.4266   54.2970 N   0  0  0  0  0  0  0  0  0  0  0  0
   70.6867   49.5082   53.0522 N   0  0  0  0  0  0  0  0  0  0  0  0
   70.1899   48.6667   52.1329 C   0  0  0  0  0  0  0  0  0  0  0  0
   70.5337   48.7154   50.9193 O   0  0  0  0  0  0  0  0  0  0  0  0
   69.2674   47.7001   52.4937 C   0  0  0  0  0  0  0  0  0  0  0  0
   68.7458   46.8106   51.5867 C   0  0  0  0  0  0  0  0  0  0  0  0
   67.8408   45.8470   51.9738 C   0  0  0  0  0  0  0  0  0  0  0  0
   67.4823   45.8085   53.2947 C   0  0  0  0  0  0  0  0  0  0  0  0
   68.0025   46.6976   54.2018 C   0  0  0  0  0  0  0  0  0  0  0  0
   68.8877   47.6452   53.8309 C   0  0  0  0  0  0  0  0  0  0  0  0
 10  9  1  1
 10  8  1  0
 10 11  1  0
  8  1  1  0
  1  2  2  0
  1  6  1  0
  2  3  1  0
  3 18  1  0
  3  4  2  0
 18 19  1  0
 19 20  2  0
 19 29  1  0
 20 21  1  0
 21 22  1  0
 22 23  2  0
 22 24  1  0
 24 25  1  0
 24 29  2  0
 25 26  2  0
 26 27  1  0
 27 28  2  0
 28 29  1  0
  4  5  1  0
  5  6  2  0
  6  7  1  0
 11 12  1  0
 11 17  1  0
 12 13  1  0
 13 14  1  0
 14 15  1  0
 14 16  1  0
 16 17  1  0
M  CHG  2  11   1  14   1
M  END
>  <minimizedAffinity>  (142) 
-9.60325

$$$$
cs_full_output_folder/data/smiles/9369.pdb
     RDKit          3D

 28 31  0  0  0  0  0  0  0  0999 V2000
   70.5660   45.8282   58.1723 C   0  0  0  0  0  0  0  0  0  0  0  0
   71.7222   46.4716   58.6340 C   0  0  0  0  0  0  0  0  0  0  0  0
   71.9642   47.7982   58.3417 C   0  0  0  0  0  0  0  0  0  0  0  0
   71.0659   48.5188   57.5847 C   0  0  0  0  0  0  0  0  0  0  0  0
   69.8967   47.9179   57.1012 C   0  0  0  0  0  0  0  0  0  0  0  0
   69.7067   46.5947   57.4226 C   0  0  0  0  0  0  0  0  0  0  0  0
   70.8717   43.3503   57.7748 N   0  0  0  0  0  0  0  0  0  0  0  0
   70.3440   44.4137   58.5043 C   0  0  0  0  0  0  0  0  0  0  0  0
   69.6410   44.1742   59.4989 O   0  0  0  0  0  0  0  0  0  0  0  0
   68.1706   39.1690   58.2212 C   0  0  0  0  0  0  0  0  0  0  0  0
   69.4643   39.8914   58.2513 C   0  0  0  0  0  0  0  0  0  0  0  0
   70.6006   39.1699   58.5346 C   0  0  0  0  0  0  0  0  0  0  0  0
   71.7958   39.8495   58.5602 C   0  0  0  0  0  0  0  0  0  0  0  0
   71.8476   41.2048   58.3089 C   0  0  0  0  0  0  0  0  0  0  0  0
   70.7127   41.9665   58.0179 C   0  0  0  0  0  0  0  0  0  0  0  0
   69.5416   41.2680   57.9989 C   0  0  0  0  0  0  0  0  0  0  0  0
   68.9462   48.7186   56.2657 C   0  0  0  0  0  0  0  0  0  0  0  0
   69.2837   48.7741   54.8511 C   0  0  0  0  0  0  0  0  0  0  0  0
   69.7640   49.9464   54.3351 N   0  0  0  0  0  0  0  0  0  0  0  0
   70.0690   50.0933   53.0622 N   0  0  0  0  0  0  0  0  0  0  0  0
   69.9271   49.0883   52.1645 C   0  0  0  0  0  0  0  0  0  0  0  0
   70.2138   49.2165   50.9447 O   0  0  0  0  0  0  0  0  0  0  0  0
   69.4561   47.8916   52.5947 C   0  0  0  0  0  0  0  0  0  0  0  0
   69.1397   47.7536   53.9494 C   0  0  0  0  0  0  0  0  0  0  0  0
   68.6647   46.4181   54.3391 C   0  0  0  0  0  0  0  0  0  0  0  0
   67.4700   46.1018   53.4785 C   0  0  0  0  0  0  0  0  0  0  0  0
   67.7807   46.2529   52.0310 C   0  0  0  0  0  0  0  0  0  0  0  0
   69.2283   46.6862   51.7567 C   0  0  0  0  0  0  0  0  0  0  0  0
 10 11  1  0
 11 12  2  0
 11 16  1  0
 12 13  1  0
 13 14  2  0
 14 15  1  0
 15  7  1  0
 15 16  2  0
  7  8  1  0
  8  9  2  0
  8  1  1  0
  1  2  2  0
  1  6  1  0
  2  3  1  0
  3  4  2  0
  4  5  1  0
  5 17  1  0
  5  6  2  0
 17 18  1  0
 18 19  2  0
 18 24  1  0
 19 20  1  0
 20 21  1  0
 21 22  2  0
 21 23  1  0
 23 24  2  0
 23 28  1  0
 24 25  1  0
 25 26  1  0
 26 27  1  0
 27 28  1  0
M  END
>  <minimizedAffinity>  (143) 
-9.60224

$$$$
cs_full_output_folder/data/smiles/5048.pdb
     RDKit          3D

 29 33  0  0  0  0  0  0  0  0999 V2000
   71.5268   47.2222   58.8154 C   0  0  0  0  0  0  0  0  0  0  0  0
   70.6998   48.0068   58.0252 C   0  0  0  0  0  0  0  0  0  0  0  0
   69.7863   47.5117   57.1368 C   0  0  0  0  0  0  0  0  0  0  0  0
   69.7317   46.1036   57.0685 C   0  0  0  0  0  0  0  0  0  0  0  0
   70.5398   45.3001   57.8394 C   0  0  0  0  0  0  0  0  0  0  0  0
   71.4453   45.8496   58.7206 C   0  0  0  0  0  0  0  0  0  0  0  0
   72.2444   45.0637   59.4842 F   0  0  0  0  0  0  0  0  0  0  0  0
   72.1381   47.9555   60.9363 O   0  0  0  0  0  0  0  0  0  0  0  0
   72.4793   47.7759   59.7518 C   0  0  0  0  0  0  0  0  0  0  0  0
   73.7769   48.1055   59.3168 N   0  0  0  0  0  0  0  0  0  0  0  0
   74.3385   47.9584   57.9825 C   0  0  0  0  0  0  0  0  0  0  0  0
   75.3861   49.0140   57.9436 C   0  0  0  0  0  0  0  0  0  0  0  0
   76.2126   49.7564   57.1090 C   0  0  0  0  0  0  0  0  0  0  0  0
   76.9541   50.5895   57.8864 N   0  0  0  0  0  0  0  0  0  0  0  0
   76.6102   50.3816   59.1460 N   0  0  0  0  0  0  0  0  0  0  0  0
   75.6681   49.4396   59.2224 C   0  0  0  0  0  0  0  0  0  0  0  0
   74.8085   48.6808   60.1781 C   0  0  0  0  0  0  0  0  0  0  0  0
   68.8635   48.2563   56.2724 C   0  0  0  0  0  0  0  0  0  0  0  0
   69.2578   48.3710   54.8615 C   0  0  0  0  0  0  0  0  0  0  0  0
   70.1562   49.3149   54.4697 N   0  0  0  0  0  0  0  0  0  0  0  0
   70.5940   49.4528   53.2300 N   0  0  0  0  0  0  0  0  0  0  0  0
   70.1616   48.6404   52.2450 C   0  0  0  0  0  0  0  0  0  0  0  0
   70.5915   48.7877   51.0647 O   0  0  0  0  0  0  0  0  0  0  0  0
   69.2483   47.6610   52.5761 C   0  0  0  0  0  0  0  0  0  0  0  0
   68.7860   46.8309   51.5775 C   0  0  0  0  0  0  0  0  0  0  0  0
   67.8727   45.8520   51.8308 C   0  0  0  0  0  0  0  0  0  0  0  0
   67.4244   45.7225   53.1315 C   0  0  0  0  0  0  0  0  0  0  0  0
   67.8704   46.5352   54.1341 C   0  0  0  0  0  0  0  0  0  0  0  0
   68.7894   47.5198   53.8861 C   0  0  0  0  0  0  0  0  0  0  0  0
  8  9  2  0
  9  1  1  0
  9 10  1  0
  1  2  2  0
  1  6  1  0
  2  3  1  0
  3 18  1  0
  3  4  2  0
 18 19  1  0
 19 20  2  0
 19 29  1  0
 20 21  1  0
 21 22  1  0
 22 23  2  0
 22 24  1  0
 24 25  1  0
 24 29  2  0
 25 26  2  0
 26 27  1  0
 27 28  2  0
 28 29  1  0
  4  5  1  0
  5  6  2  0
  6  7  1  0
 10 11  1  0
 10 17  1  0
 11 12  1  0
 12 13  1  0
 12 16  2  0
 13 14  2  0
 14 15  1  0
 15 16  1  0
 16 17  1  0
M  END
>  <minimizedAffinity>  (144) 
-9.60169

$$$$
cs_full_output_folder/data/smiles/3305.pdb
     RDKit          3D

 26 28  0  0  0  0  0  0  0  0999 V2000
   70.0719   49.1778   52.5211 S   0  0  0  0  0  0  0  0  0  0  0  0
   70.1650   49.0404   51.0285 O   0  0  0  0  0  0  0  0  0  0  0  0
   71.4606   49.2437   53.0487 O   0  0  0  0  0  0  0  0  0  0  0  0
   69.2558   47.7395   53.1440 C   0  0  0  0  0  0  0  0  0  0  0  0
   68.6171   46.8464   52.3251 C   0  0  0  0  0  0  0  0  0  0  0  0
   68.5824   47.0304   51.0069 F   0  0  0  0  0  0  0  0  0  0  0  0
   68.0010   45.7423   52.8747 C   0  0  0  0  0  0  0  0  0  0  0  0
   67.3492   44.8189   52.1084 F   0  0  0  0  0  0  0  0  0  0  0  0
   68.0027   45.4970   54.2462 C   0  0  0  0  0  0  0  0  0  0  0  0
   67.3922   44.4073   54.7725 F   0  0  0  0  0  0  0  0  0  0  0  0
   68.6455   46.3947   55.0715 C   0  0  0  0  0  0  0  0  0  0  0  0
   68.6655   46.1863   56.4092 F   0  0  0  0  0  0  0  0  0  0  0  0
   69.2544   47.4915   54.5004 C   0  0  0  0  0  0  0  0  0  0  0  0
   69.8947   48.3903   55.3010 F   0  0  0  0  0  0  0  0  0  0  0  0
   69.2012   50.5930   52.9709 N   0  0  0  0  0  0  0  0  0  0  0  0
   74.3106   54.2008   56.3122 O   0  0  0  0  0  0  0  0  0  0  0  0
   73.2529   53.5701   56.3641 C   0  0  0  0  0  0  0  0  0  0  0  0
   72.3333   53.6670   57.5462 C   0  0  0  0  0  0  0  0  0  0  0  0
   70.9947   54.0890   57.0455 C   0  0  0  0  0  0  0  0  0  0  0  0
   70.5165   53.1735   55.9941 C   0  0  0  0  0  0  0  0  0  0  0  0
   69.1508   52.9413   55.7908 C   0  0  0  0  0  0  0  0  0  0  0  0
   68.7121   52.0943   54.7981 C   0  0  0  0  0  0  0  0  0  0  0  0
   69.6275   51.4679   53.9968 C   0  0  0  0  0  0  0  0  0  0  0  0
   70.9620   51.6753   54.1717 C   0  0  0  0  0  0  0  0  0  0  0  0
   71.3926   52.5305   55.1753 C   0  0  0  0  0  0  0  0  0  0  0  0
   72.8108   52.7056   55.3283 N   0  0  0  0  0  0  0  0  0  0  0  0
 16 17  2  0
 17 18  1  0
 17 26  1  0
 18 19  1  0
 19 20  1  0
 20 21  1  0
 20 25  2  0
 21 22  2  0
 22 23  1  0
 23 15  1  0
 23 24  2  0
 15  1  1  0
  1  2  2  0
  1  3  2  0
  1  4  1  0
  4  5  2  0
  4 13  1  0
  5  6  1  0
  5  7  1  0
  7  8  1  0
  7  9  2  0
  9 10  1  0
  9 11  1  0
 11 12  1  0
 11 13  2  0
 13 14  1  0
 24 25  1  0
 25 26  1  0
M  END
>  <minimizedAffinity>  (145) 
-9.60108

$$$$
cs_full_output_folder/data/smiles/2673.pdb
     RDKit          3D

 27 29  0  0  0  0  0  0  0  0999 V2000
   68.9955   43.7128   56.9915 C   0  0  0  0  0  0  0  0  0  0  0  0
   69.6831   44.3900   57.8075 O   0  0  0  0  0  0  0  0  0  0  0  0
   68.3778   44.4524   55.9492 N   0  0  0  0  0  0  0  0  0  0  0  0
   70.6953   41.7731   58.8287 C   0  0  0  0  0  0  0  0  0  0  0  0
   69.5822   41.3930   57.9224 C   0  0  0  0  0  0  0  0  0  0  0  0
   68.8553   42.2585   57.1288 C   0  0  0  0  0  0  0  0  0  0  0  0
   67.9457   41.4356   56.4806 C   0  0  0  0  0  0  0  0  0  0  0  0
   68.1572   40.1827   56.8908 N   0  0  0  0  0  0  0  0  0  0  0  0
   69.1509   40.1178   57.7737 N   0  0  0  0  0  0  0  0  0  0  0  0
   69.6497   38.9544   58.4167 C   0  0  0  0  0  0  0  0  0  0  0  0
   68.9820   38.3726   59.4668 C   0  0  0  0  0  0  0  0  0  0  0  0
   69.4453   37.2439   60.1084 C   0  0  0  0  0  0  0  0  0  0  0  0
   70.6145   36.6691   59.6956 C   0  0  0  0  0  0  0  0  0  0  0  0
   71.2439   35.2370   60.4786 Cl  0  0  0  0  0  0  0  0  0  0  0  0
   71.3042   37.2217   58.6561 C   0  0  0  0  0  0  0  0  0  0  0  0
   70.8294   38.3690   58.0057 C   0  0  0  0  0  0  0  0  0  0  0  0
   68.5132   45.8825   55.8107 C   0  0  0  0  0  0  0  0  0  0  0  0
   68.5588   46.2455   54.3690 C   0  0  0  0  0  0  0  0  0  0  0  0
   69.3489   47.2993   53.9248 C   0  0  0  0  0  0  0  0  0  0  0  0
   69.4109   47.6587   52.5959 C   0  0  0  0  0  0  0  0  0  0  0  0
   68.6610   46.9475   51.6743 C   0  0  0  0  0  0  0  0  0  0  0  0
   67.8751   45.9062   52.0844 C   0  0  0  0  0  0  0  0  0  0  0  0
   67.8313   45.5669   53.4162 C   0  0  0  0  0  0  0  0  0  0  0  0
   67.0426   44.5359   53.7769 F   0  0  0  0  0  0  0  0  0  0  0  0
   70.2345   48.7563   52.1490 C   0  0  0  0  0  0  0  0  0  0  0  0
   69.9743   49.2936   51.0192 O   0  0  0  0  0  0  0  0  0  0  0  0
   71.2908   49.2598   52.8783 O   0  0  0  0  0  0  0  0  0  0  0  0
  4  5  1  0
  5  6  2  0
  5  9  1  0
  6  1  1  0
  6  7  1  0
  1  2  2  0
  1  3  1  0
  3 17  1  0
 17 18  1  0
 18 19  2  0
 18 23  1  0
 19 20  1  0
 20 25  1  0
 20 21  2  0
 25 26  2  0
 25 27  1  0
 21 22  1  0
 22 23  2  0
 23 24  1  0
  7  8  2  0
  8  9  1  0
  9 10  1  0
 10 11  2  0
 10 16  1  0
 11 12  1  0
 12 13  2  0
 13 14  1  0
 13 15  1  0
 15 16  2  0
M  END
>  <minimizedAffinity>  (146) 
-9.59260

$$$$
cs_full_output_folder/data/smiles/133.pdb
     RDKit          3D

 28 31  0  0  0  0  0  0  0  0999 V2000
   68.5759   50.6706   56.6004 C   0  0  0  0  0  0  0  0  0  0  0  0
   67.4290   51.3358   57.0070 C   0  0  0  0  0  0  0  0  0  0  0  0
   66.4100   50.6366   57.6187 C   0  0  0  0  0  0  0  0  0  0  0  0
   65.3179   51.3138   57.9977 F   0  0  0  0  0  0  0  0  0  0  0  0
   66.5706   49.2747   57.8070 C   0  0  0  0  0  0  0  0  0  0  0  0
   67.7207   48.6290   57.3952 C   0  0  0  0  0  0  0  0  0  0  0  0
   68.7472   49.3140   56.7832 C   0  0  0  0  0  0  0  0  0  0  0  0
   74.0969   53.3958   58.2911 O   0  0  0  0  0  0  0  0  0  0  0  0
   73.0430   53.0063   57.8753 C   0  0  0  0  0  0  0  0  0  0  0  0
   72.4209   51.8047   58.4334 C   0  0  0  0  0  0  0  0  0  0  0  0
   70.9919   51.5846   58.0106 C   0  0  0  0  0  0  0  0  0  0  0  0
   70.7709   51.9400   56.6248 N   0  0  0  0  0  0  0  0  0  0  0  0
   69.6027   51.4916   55.9650 C   0  0  0  0  0  0  0  0  0  0  0  0
   69.3772   51.7858   54.7583 O   0  0  0  0  0  0  0  0  0  0  0  0
   71.7078   52.7491   55.8679 C   0  0  0  0  0  0  0  0  0  0  0  0
   72.3754   53.7607   56.7865 C   0  0  0  0  0  0  0  0  0  0  0  0
   69.9938   48.6918   56.3173 C   0  0  0  0  0  0  0  0  0  0  0  0
   70.1111   48.5914   54.8608 C   0  0  0  0  0  0  0  0  0  0  0  0
   70.9957   49.3434   54.1795 N   0  0  0  0  0  0  0  0  0  0  0  0
   71.1385   49.2858   52.8576 N   0  0  0  0  0  0  0  0  0  0  0  0
   70.4002   48.4615   52.0948 C   0  0  0  0  0  0  0  0  0  0  0  0
   70.5667   48.4393   50.8508 O   0  0  0  0  0  0  0  0  0  0  0  0
   69.4809   47.6712   52.7486 C   0  0  0  0  0  0  0  0  0  0  0  0
   68.7027   46.8110   52.0029 C   0  0  0  0  0  0  0  0  0  0  0  0
   67.7606   45.9936   52.6300 C   0  0  0  0  0  0  0  0  0  0  0  0
   67.6355   46.0745   53.9987 C   0  0  0  0  0  0  0  0  0  0  0  0
   68.3999   46.9252   54.7646 C   0  0  0  0  0  0  0  0  0  0  0  0
   69.3260   47.7260   54.1303 C   0  0  0  0  0  0  0  0  0  0  0  0
  8  9  2  0
  9 10  1  0
  9 16  1  0
 10 11  1  0
 11 12  1  0
 12 13  1  0
 12 15  1  0
 13 14  2  0
 13  1  1  0
  1  2  2  0
  1  7  1  0
  2  3  1  0
  3  4  1  0
  3  5  2  0
  5  6  1  0
  6  7  2  0
  7 17  1  0
 17 18  1  0
 18 19  2  0
 18 28  1  0
 19 20  1  0
 20 21  1  0
 21 22  2  0
 21 23  1  0
 23 24  1  0
 23 28  2  0
 24 25  2  0
 25 26  1  0
 26 27  2  0
 27 28  1  0
 15 16  1  0
M  END
>  <minimizedAffinity>  (147) 
-9.59212

$$$$
cs_full_output_folder/data/smiles/3026.pdb
     RDKit          3D

 28 31  0  0  0  0  0  0  0  0999 V2000
   70.9403   44.8612   58.1543 C   0  0  0  0  0  0  0  0  0  0  0  0
   71.8527   45.6068   58.8685 C   0  0  0  0  0  0  0  0  0  0  0  0
   71.7782   46.9819   58.9557 C   0  0  0  0  0  0  0  0  0  0  0  0
   70.7645   47.6534   58.3147 C   0  0  0  0  0  0  0  0  0  0  0  0
   69.8517   46.9091   57.6006 C   0  0  0  0  0  0  0  0  0  0  0  0
   69.9639   45.5456   57.5410 N   0  0  0  0  0  0  0  0  0  0  0  0
   69.0292   43.1640   59.0905 O   0  0  0  0  0  0  0  0  0  0  0  0
   70.0379   42.5756   58.5872 C   0  0  0  0  0  0  0  0  0  0  0  0
   71.0513   43.4426   58.0899 N   0  0  0  0  0  0  0  0  0  0  0  0
   70.1262   41.1270   58.5335 C   0  0  0  0  0  0  0  0  0  0  0  0
   69.0455   40.2911   58.5231 C   0  0  0  0  0  0  0  0  0  0  0  0
   69.1797   38.9104   58.4698 C   0  0  0  0  0  0  0  0  0  0  0  0
   70.4315   38.3326   58.4255 C   0  0  0  0  0  0  0  0  0  0  0  0
   71.5369   39.1765   58.4358 C   0  0  0  0  0  0  0  0  0  0  0  0
   71.3793   40.5524   58.4884 C   0  0  0  0  0  0  0  0  0  0  0  0
   68.7269   47.5239   56.8741 C   0  0  0  0  0  0  0  0  0  0  0  0
   68.5544   47.1034   55.4873 C   0  0  0  0  0  0  0  0  0  0  0  0
   67.8861   45.9290   55.2718 N   0  0  0  0  0  0  0  0  0  0  0  0
   67.6627   45.4339   54.0827 N   0  0  0  0  0  0  0  0  0  0  0  0
   68.0828   46.0560   52.9750 C   0  0  0  0  0  0  0  0  0  0  0  0
   67.8622   45.5683   51.8450 O   0  0  0  0  0  0  0  0  0  0  0  0
   68.7758   47.2656   53.1204 C   0  0  0  0  0  0  0  0  0  0  0  0
   69.0000   47.7684   54.3827 C   0  0  0  0  0  0  0  0  0  0  0  0
   69.7300   49.0561   54.5808 C   0  0  0  0  0  0  0  0  0  0  0  0
   69.6855   49.8592   53.2795 C   0  0  0  0  0  0  0  0  0  0  0  0
   70.1847   48.9850   52.1331 C   0  0  0  0  0  0  0  0  0  0  0  0
   69.2003   47.9000   51.8556 C   0  0  1  0  0  0  0  0  0  0  0  0
   69.8259   46.9442   51.0199 O   0  0  0  0  0  0  0  0  0  0  0  0
  7  8  2  0
  8  9  1  0
  8 10  1  0
  9  1  1  0
  1  2  2  0
  1  6  1  0
  2  3  1  0
  3  4  2  0
  4  5  1  0
  5 16  1  0
  5  6  2  0
 16 17  1  0
 17 18  2  0
 17 23  1  0
 18 19  1  0
 19 20  1  0
 20 21  2  0
 20 22  1  0
 22 23  2  0
 22 27  1  0
 23 24  1  0
 24 25  1  0
 25 26  1  0
 26 27  1  0
 27 28  1  6
 10 11  2  0
 10 15  1  0
 11 12  1  0
 12 13  2  0
 13 14  1  0
 14 15  2  0
M  END
>  <minimizedAffinity>  (148) 
-9.58924

$$$$
cs_full_output_folder/data/smiles/1660.pdb
     RDKit          3D

 24 26  0  0  0  0  0  0  0  0999 V2000
   68.2321   45.5401   55.8119 N   0  0  0  0  0  0  0  0  0  0  0  0
   69.1440   47.6786   52.8799 C   0  0  0  0  0  0  0  0  0  0  0  0
   68.5461   46.9787   51.8573 C   0  0  0  0  0  0  0  0  0  0  0  0
   67.8610   45.8305   52.1637 C   0  0  0  0  0  0  0  0  0  0  0  0
   67.7796   45.3951   53.4655 C   0  0  0  0  0  0  0  0  0  0  0  0
   68.3742   46.0791   54.5367 C   0  0  0  0  0  0  0  0  0  0  0  0
   69.0492   47.2189   54.2022 C   0  0  0  0  0  0  0  0  0  0  0  0
   71.4298   49.0921   52.9725 O   0  0  0  0  0  0  0  0  0  0  0  0
   70.0149   49.1370   52.5000 S   0  0  0  0  0  0  0  0  0  0  0  0
   70.0454   49.2839   51.0060 O   0  0  0  0  0  0  0  0  0  0  0  0
   69.1537   50.4630   53.2273 N   0  0  0  0  0  0  0  0  0  0  0  0
   70.2773   51.6950   53.7112 Cl  0  0  0  0  0  0  0  0  0  0  0  0
   68.4451   44.2071   56.2298 C   0  0  0  0  0  0  0  0  0  0  0  0
   67.4738   43.3001   56.1109 N   0  0  0  0  0  0  0  0  0  0  0  0
   67.5901   42.0227   56.4802 C   0  0  0  0  0  0  0  0  0  0  0  0
   68.8239   41.6323   57.0247 C   0  0  0  0  0  0  0  0  0  0  0  0
   69.8455   42.5305   57.1639 C   0  0  0  0  0  0  0  0  0  0  0  0
   69.6183   43.7979   56.7577 N   0  0  0  0  0  0  0  0  0  0  0  0
   71.1254   42.1320   57.7280 C   0  0  0  0  0  0  0  0  0  0  0  0
   71.2388   40.9019   58.4004 C   0  0  0  0  0  0  0  0  0  0  0  0
   72.4322   40.4902   58.9479 C   0  0  0  0  0  0  0  0  0  0  0  0
   73.5750   41.2679   58.8628 C   0  0  0  0  0  0  0  0  0  0  0  0
   73.4826   42.4735   58.2096 C   0  0  0  0  0  0  0  0  0  0  0  0
   72.2657   42.8856   57.6553 C   0  0  0  0  0  0  0  0  0  0  0  0
  8  9  2  0
  9 10  2  0
  9 11  1  0
  9  2  1  0
 11 12  1  0
  2  3  2  0
  2  7  1  0
  3  4  1  0
  4  5  2  0
  5  6  1  0
  6  1  1  0
  6  7  2  0
  1 13  1  0
 13 14  2  0
 13 18  1  0
 14 15  1  0
 15 16  2  0
 16 17  1  0
 17 19  1  0
 17 18  2  0
 19 20  2  0
 19 24  1  0
 20 21  1  0
 21 22  2  0
 22 23  1  0
 23 24  2  0
M  END
>  <minimizedAffinity>  (149) 
-9.58898

$$$$
cs_full_output_folder/data/smiles/2317.pdb
     RDKit          3D

 29 32  0  0  0  0  0  0  0  0999 V2000
   68.8642   46.2955   55.2792 C   0  0  0  0  0  0  0  0  0  0  0  0
   69.1989   47.5074   54.6737 C   0  0  0  0  0  0  0  0  0  0  0  0
   68.9042   47.8500   53.3870 C   0  0  0  0  0  0  0  0  0  0  0  0
   68.2108   46.8957   52.6331 C   0  0  0  0  0  0  0  0  0  0  0  0
   67.8541   45.6872   53.1701 C   0  0  0  0  0  0  0  0  0  0  0  0
   68.1851   45.3878   54.5048 C   0  0  0  0  0  0  0  0  0  0  0  0
   67.8431   44.1996   55.0355 F   0  0  0  0  0  0  0  0  0  0  0  0
   68.8887   46.9758   57.5344 O   0  0  0  0  0  0  0  0  0  0  0  0
   69.2443   46.1039   56.6657 C   0  0  0  0  0  0  0  0  0  0  0  0
   69.9878   45.0304   57.1957 N   0  0  0  0  0  0  0  0  0  0  0  0
   70.3345   44.9063   58.6008 C   0  0  1  0  0  0  0  0  0  0  0  0
   70.2255   43.4209   58.9627 C   0  0  0  0  0  0  0  0  0  0  0  0
   71.1603   42.6190   58.1189 C   0  0  0  0  0  0  0  0  0  0  0  0
   72.5803   43.0737   58.1484 C   0  0  1  0  0  0  0  0  0  0  0  0
   73.1856   42.5828   56.9830 F   0  0  0  0  0  0  0  0  0  0  0  0
   72.7799   44.5486   58.1571 C   0  0  0  0  0  0  0  0  0  0  0  0
   71.7364   45.3360   58.8865 C   0  0  0  0  0  0  0  0  0  0  0  0
   69.2546   49.1630   52.7589 C   0  0  0  0  0  0  0  0  0  0  0  0
   70.2524   49.9319   53.5130 C   0  0  0  0  0  0  0  0  0  0  0  0
   71.5670   49.5715   53.3977 N   0  0  0  0  0  0  0  0  0  0  0  0
   72.5221   50.2210   54.0025 N   0  0  0  0  0  0  0  0  0  0  0  0
   72.3188   51.2966   54.7910 C   0  0  0  0  0  0  0  0  0  0  0  0
   73.2899   51.8915   55.3564 O   0  0  0  0  0  0  0  0  0  0  0  0
   71.0312   51.7259   54.9637 C   0  0  0  0  0  0  0  0  0  0  0  0
   70.7511   52.8158   55.7664 C   0  0  0  0  0  0  0  0  0  0  0  0
   69.4567   53.2409   55.9492 C   0  0  0  0  0  0  0  0  0  0  0  0
   68.4568   52.5345   55.2983 C   0  0  0  0  0  0  0  0  0  0  0  0
   68.7310   51.4531   54.4997 C   0  0  0  0  0  0  0  0  0  0  0  0
   70.0205   51.0196   54.3087 C   0  0  0  0  0  0  0  0  0  0  0  0
  8  9  2  0
  9 10  1  0
  9  1  1  0
 11 10  1  6
 11 12  1  0
 11 17  1  0
 12 13  1  0
 13 14  1  0
 14 15  1  6
 14 16  1  0
 16 17  1  0
  1  2  2  0
  1  6  1  0
  2  3  1  0
  3 18  1  0
  3  4  2  0
 18 19  1  0
 19 20  2  0
 19 29  1  0
 20 21  1  0
 21 22  1  0
 22 23  2  0
 22 24  1  0
 24 25  1  0
 24 29  2  0
 25 26  2  0
 26 27  1  0
 27 28  2  0
 28 29  1  0
  4  5  1  0
  5  6  2  0
  6  7  1  0
M  END
>  <minimizedAffinity>  (150) 
-9.58711

$$$$
cs_full_output_folder/data/smiles/5912.pdb
     RDKit          3D

 28 31  0  0  0  0  0  0  0  0999 V2000
   70.0656   45.2612   59.2019 O   0  0  0  0  0  0  0  0  0  0  0  0
   70.0130   44.5029   58.1951 C   0  0  0  0  0  0  0  0  0  0  0  0
   69.4780   45.0676   57.0055 N   0  0  0  0  0  0  0  0  0  0  0  0
   70.4673   43.1256   58.2332 C   0  0  0  0  0  0  0  0  0  0  0  0
   71.7905   42.7590   58.2307 C   0  0  0  0  0  0  0  0  0  0  0  0
   72.1575   41.4074   58.2700 C   0  0  0  0  0  0  0  0  0  0  0  0
   71.2280   40.3948   58.3126 C   0  0  0  0  0  0  0  0  0  0  0  0
   69.8979   40.7528   58.3153 C   0  0  0  0  0  0  0  0  0  0  0  0
   69.5343   42.0775   58.2768 C   0  0  0  0  0  0  0  0  0  0  0  0
   69.1514   39.4876   58.3633 C   0  0  0  0  0  0  0  0  0  0  0  0
   67.8990   39.4031   58.3784 O   0  0  0  0  0  0  0  0  0  0  0  0
   70.0407   38.3805   58.3890 N   0  0  0  0  0  0  0  0  0  0  0  0
   71.3535   38.9381   58.3570 C   0  0  0  0  0  0  0  0  0  0  0  0
   72.4176   38.2605   58.3672 O   0  0  0  0  0  0  0  0  0  0  0  0
   69.0440   46.3251   56.9056 N   0  0  0  0  0  0  0  0  0  0  0  0
   68.6346   47.1250   56.0067 C   0  0  0  0  0  0  0  0  0  0  0  0
   68.5467   46.7305   54.6146 C   0  0  0  0  0  0  0  0  0  0  0  0
   67.8221   45.6756   54.1652 C   0  0  0  0  0  0  0  0  0  0  0  0
   67.6678   45.4261   52.8000 C   0  0  0  0  0  0  0  0  0  0  0  0
   68.2444   46.2346   51.8467 C   0  0  0  0  0  0  0  0  0  0  0  0
   68.9891   47.3121   52.2726 C   0  0  0  0  0  0  0  0  0  0  0  0
   69.1230   47.5350   53.6444 C   0  0  0  0  0  0  0  0  0  0  0  0
   68.2865   48.4763   56.4984 C   0  0  0  0  0  0  0  0  0  0  0  0
   67.1829   48.5943   57.3598 C   0  0  0  0  0  0  0  0  0  0  0  0
   66.8277   49.7779   57.9670 C   0  0  0  0  0  0  0  0  0  0  0  0
   67.5779   50.9068   57.7286 C   0  0  0  0  0  0  0  0  0  0  0  0
   68.6629   50.8041   56.8879 C   0  0  0  0  0  0  0  0  0  0  0  0
   69.0277   49.5972   56.2688 C   0  0  0  0  0  0  0  0  0  0  0  0
  1  2  2  0
  2  3  1  0
  2  4  1  0
  3 15  1  0
 15 16  2  0
 16 17  1  0
 16 23  1  0
 17 18  2  0
 17 22  1  0
 18 19  1  0
 19 20  2  0
 20 21  1  0
 21 22  2  0
 23 24  2  0
 23 28  1  0
 24 25  1  0
 25 26  2  0
 26 27  1  0
 27 28  2  0
  4  5  2  0
  4  9  1  0
  5  6  1  0
  6  7  2  0
  7  8  1  0
  7 13  1  0
  8  9  2  0
  8 10  1  0
 10 11  2  0
 10 12  1  0
 12 13  1  0
 13 14  2  0
M  END
>  <minimizedAffinity>  (151) 
-9.58547

$$$$
cs_full_output_folder/data/smiles/191.pdb
     RDKit          3D

 29 32  0  0  0  0  0  0  0  0999 V2000
   70.9229   45.3810   57.9983 C   0  0  0  0  0  0  0  0  0  0  0  0
   71.6261   46.1884   58.8704 C   0  0  0  0  0  0  0  0  0  0  0  0
   71.3833   47.5560   58.9441 C   0  0  0  0  0  0  0  0  0  0  0  0
   70.4267   48.1271   58.1372 C   0  0  0  0  0  0  0  0  0  0  0  0
   69.6899   47.3485   57.2372 C   0  0  0  0  0  0  0  0  0  0  0  0
   69.9763   46.0051   57.2129 C   0  0  0  0  0  0  0  0  0  0  0  0
   70.4044   43.0011   58.5440 C   0  0  0  0  0  0  0  0  0  0  0  0
   69.4018   43.4551   59.2084 O   0  0  0  0  0  0  0  0  0  0  0  0
   71.1796   43.9739   57.9284 N   0  0  0  0  0  0  0  0  0  0  0  0
   71.4008   37.2927   58.5464 C   0  0  0  0  0  0  0  0  0  0  0  0
   71.1093   38.7541   58.5389 C   0  0  0  0  0  0  0  0  0  0  0  0
   72.1090   39.6723   58.7714 C   0  0  0  0  0  0  0  0  0  0  0  0
   71.8599   41.0223   58.7682 C   0  0  0  0  0  0  0  0  0  0  0  0
   70.5853   41.5610   58.5308 C   0  0  0  0  0  0  0  0  0  0  0  0
   69.5975   40.6372   58.3012 C   0  0  0  0  0  0  0  0  0  0  0  0
   68.3092   41.0787   58.0584 O   0  0  0  0  0  0  0  0  0  0  0  0
   69.8529   39.2536   58.3044 C   0  0  0  0  0  0  0  0  0  0  0  0
   68.6649   47.9613   56.3881 C   0  0  0  0  0  0  0  0  0  0  0  0
   69.0314   48.1933   54.9926 C   0  0  0  0  0  0  0  0  0  0  0  0
   69.6326   49.3940   54.7265 N   0  0  0  0  0  0  0  0  0  0  0  0
   70.0307   49.7579   53.5325 N   0  0  0  0  0  0  0  0  0  0  0  0
   69.8695   48.9526   52.4687 C   0  0  0  0  0  0  0  0  0  0  0  0
   70.2591   49.3075   51.3042 O   0  0  0  0  0  0  0  0  0  0  0  0
   69.2709   47.7379   52.6903 C   0  0  0  0  0  0  0  0  0  0  0  0
   68.8490   47.3475   53.9365 C   0  0  0  0  0  0  0  0  0  0  0  0
   68.1965   46.0414   54.1941 C   0  0  0  0  0  0  0  0  0  0  0  0
   67.5674   45.4030   53.0031 C   0  0  0  0  0  0  0  0  0  0  0  0
   67.6797   46.2089   51.7364 C   0  0  0  0  0  0  0  0  0  0  0  0
   69.0610   46.7968   51.5562 C   0  0  0  0  0  0  0  0  0  0  0  0
 10 11  1  0
 11 12  2  0
 11 17  1  0
 12 13  1  0
 13 14  2  0
 14  7  1  0
 14 15  1  0
  7  8  2  0
  7  9  1  0
  9  1  1  0
  1  2  2  0
  1  6  1  0
  2  3  1  0
  3  4  2  0
  4  5  1  0
  5 18  1  0
  5  6  2  0
 18 19  1  0
 19 20  2  0
 19 25  1  0
 20 21  1  0
 21 22  1  0
 22 23  2  0
 22 24  1  0
 24 25  2  0
 24 29  1  0
 25 26  1  0
 26 27  1  0
 27 28  1  0
 28 29  1  0
 15 16  1  0
 15 17  2  0
M  END
>  <minimizedAffinity>  (152) 
-9.58238

$$$$
cs_full_output_folder/data/smiles/3850.pdb
     RDKit          3D

 29 33  0  0  0  0  0  0  0  0999 V2000
   70.7430   46.6601   58.4538 C   0  0  0  0  0  0  0  0  0  0  0  0
   69.8828   47.1210   57.4492 C   0  0  0  0  0  0  0  0  0  0  0  0
   69.7455   48.4505   57.1586 C   0  0  0  0  0  0  0  0  0  0  0  0
   70.5159   49.3437   57.9207 C   0  0  0  0  0  0  0  0  0  0  0  0
   71.3708   48.9297   58.9130 C   0  0  0  0  0  0  0  0  0  0  0  0
   71.4732   47.5797   59.1681 C   0  0  0  0  0  0  0  0  0  0  0  0
   72.3002   47.1188   60.1353 F   0  0  0  0  0  0  0  0  0  0  0  0
   69.7463   44.6688   59.0663 O   0  0  0  0  0  0  0  0  0  0  0  0
   70.8211   45.2160   58.6902 C   0  0  0  0  0  0  0  0  0  0  0  0
   72.0215   44.4911   58.5061 N   0  0  0  0  0  0  0  0  0  0  0  0
   72.1808   43.0712   58.7175 C   0  0  0  0  0  0  0  0  0  0  0  0
   73.5888   42.9383   59.2438 C   0  0  1  0  0  0  0  0  0  0  0  0
   74.4460   42.0608   58.3613 C   0  0  0  0  0  0  0  0  0  0  0  0
   75.8424   42.5954   58.6030 C   0  0  0  0  0  0  0  0  0  0  0  0
   75.6181   44.0903   58.5970 C   0  0  0  0  0  0  0  0  0  0  0  0
   74.2223   44.3077   59.1033 C   0  0  1  0  0  0  0  0  0  0  0  0
   73.3172   44.9612   58.0849 C   0  0  0  0  0  0  0  0  0  0  0  0
   68.8297   48.9854   56.1080 C   0  0  0  0  0  0  0  0  0  0  0  0
   69.2820   48.7415   54.7385 C   0  0  0  0  0  0  0  0  0  0  0  0
   70.1993   49.6169   54.2197 N   0  0  0  0  0  0  0  0  0  0  0  0
   70.6522   49.5344   52.9885 N   0  0  0  0  0  0  0  0  0  0  0  0
   70.2572   48.5829   52.1307 C   0  0  0  0  0  0  0  0  0  0  0  0
   70.6860   48.5046   50.9632 O   0  0  0  0  0  0  0  0  0  0  0  0
   69.3271   47.6625   52.5969 C   0  0  0  0  0  0  0  0  0  0  0  0
   68.8762   46.6439   51.7819 C   0  0  0  0  0  0  0  0  0  0  0  0
   67.9629   45.7373   52.2759 C   0  0  0  0  0  0  0  0  0  0  0  0
   67.4920   45.8230   53.5611 C   0  0  0  0  0  0  0  0  0  0  0  0
   67.9229   46.8256   54.3929 C   0  0  0  0  0  0  0  0  0  0  0  0
   68.8405   47.7469   53.9109 C   0  0  0  0  0  0  0  0  0  0  0  0
  8  9  2  0
  9  1  1  0
  9 10  1  0
  1  2  2  0
  1  6  1  0
  2  3  1  0
  3 18  1  0
  3  4  2  0
 18 19  1  0
 19 20  2  0
 19 29  1  0
 20 21  1  0
 21 22  1  0
 22 23  2  0
 22 24  1  0
 24 25  1  0
 24 29  2  0
 25 26  2  0
 26 27  1  0
 27 28  2  0
 28 29  1  0
  4  5  1  0
  5  6  2  0
  6  7  1  0
 10 11  1  0
 10 17  1  0
 12 11  1  6
 12 13  1  0
 12 16  1  0
 13 14  1  0
 14 15  1  0
 16 15  1  6
 16 17  1  0
M  END
>  <minimizedAffinity>  (153) 
-9.57750

$$$$
cs_full_output_folder/data/smiles/8892.pdb
     RDKit          3D

 30 34  0  0  0  0  0  0  0  0999 V2000
   71.1727   46.3146   58.1226 C   0  0  0  0  0  0  0  0  0  0  0  0
   71.7702   47.2085   58.9844 C   0  0  0  0  0  0  0  0  0  0  0  0
   71.3492   48.5264   59.0214 C   0  0  0  0  0  0  0  0  0  0  0  0
   70.3297   48.9456   58.1955 C   0  0  0  0  0  0  0  0  0  0  0  0
   69.7044   48.0592   57.3093 C   0  0  0  0  0  0  0  0  0  0  0  0
   70.1478   46.7767   57.3047 C   0  0  0  0  0  0  0  0  0  0  0  0
   69.7485   44.4155   59.3520 O   0  0  0  0  0  0  0  0  0  0  0  0
   70.7494   43.9975   58.7161 C   0  0  0  0  0  0  0  0  0  0  0  0
   71.5531   44.9497   58.0379 N   0  0  0  0  0  0  0  0  0  0  0  0
   71.0399   42.5326   58.7087 C   0  0  0  0  0  0  0  0  0  0  0  0
   71.8210   42.0401   59.8602 C   0  0  0  0  0  0  0  0  0  0  0  0
   72.4283   42.0694   58.4753 C   0  0  0  0  0  0  0  0  0  0  0  0
   69.9605   41.6950   58.1313 C   0  0  0  0  0  0  0  0  0  0  0  0
   69.8522   40.3691   58.5432 C   0  0  0  0  0  0  0  0  0  0  0  0
   68.8754   39.5375   58.0457 C   0  0  0  0  0  0  0  0  0  0  0  0
   67.9630   40.0120   57.1082 C   0  0  0  0  0  0  0  0  0  0  0  0
   68.0565   41.3189   56.6905 C   0  0  0  0  0  0  0  0  0  0  0  0
   69.0471   42.1447   57.2019 C   0  0  0  0  0  0  0  0  0  0  0  0
   68.6046   48.5894   56.4677 C   0  0  0  0  0  0  0  0  0  0  0  0
   68.9740   48.7988   55.0658 C   0  0  0  0  0  0  0  0  0  0  0  0
   69.4102   50.0131   54.6295 N   0  0  0  0  0  0  0  0  0  0  0  0
   69.7840   50.2290   53.3947 N   0  0  0  0  0  0  0  0  0  0  0  0
   69.7676   49.2665   52.4590 C   0  0  0  0  0  0  0  0  0  0  0  0
   70.1240   49.4575   51.2729 O   0  0  0  0  0  0  0  0  0  0  0  0
   69.3346   48.0152   52.8448 C   0  0  0  0  0  0  0  0  0  0  0  0
   68.9333   47.7848   54.1660 C   0  0  0  0  0  0  0  0  0  0  0  0
   68.4557   46.4213   54.4597 C   0  0  0  0  0  0  0  0  0  0  0  0
   67.4233   46.0950   53.3658 C   0  0  0  0  0  0  0  0  0  0  0  0
   68.0674   46.0272   52.0158 C   0  0  0  0  0  0  0  0  0  0  0  0
   69.2846   46.8724   51.9114 C   0  0  0  0  0  0  0  0  0  0  0  0
  7  8  2  0
  8  9  1  0
  8 10  1  0
  9  1  1  0
  1  2  2  0
  1  6  1  0
  2  3  1  0
  3  4  2  0
  4  5  1  0
  5 19  1  0
  5  6  2  0
 19 20  1  0
 20 21  2  0
 20 26  1  0
 21 22  1  0
 22 23  1  0
 23 24  2  0
 23 25  1  0
 25 26  2  0
 25 30  1  0
 26 27  1  0
 27 28  1  0
 28 29  1  0
 29 30  1  0
 10 13  1  0
 10 11  1  0
 10 12  1  0
 13 14  2  0
 13 18  1  0
 14 15  1  0
 15 16  2  0
 16 17  1  0
 17 18  2  0
 11 12  1  0
M  END
>  <minimizedAffinity>  (154) 
-9.57082

$$$$
cs_full_output_folder/data/smiles/2561.pdb
     RDKit          3D

 28 31  0  0  0  0  0  0  0  0999 V2000
   70.3909   46.5236   58.5057 C   0  0  0  0  0  0  0  0  0  0  0  0
   71.5510   47.0562   59.0667 C   0  0  0  0  0  0  0  0  0  0  0  0
   71.9732   48.3094   58.7067 C   0  0  0  0  0  0  0  0  0  0  0  0
   71.2136   49.0171   57.7788 C   0  0  0  0  0  0  0  0  0  0  0  0
   70.0756   48.4950   57.2298 C   0  0  0  0  0  0  0  0  0  0  0  0
   69.6726   47.2481   57.5988 C   0  0  0  0  0  0  0  0  0  0  0  0
   71.6063   44.2873   57.5624 O   0  0  0  0  0  0  0  0  0  0  0  0
   70.6668   44.0678   58.4002 C   0  0  0  0  0  0  0  0  0  0  0  0
   69.9991   45.2074   58.9256 N   0  0  0  0  0  0  0  0  0  0  0  0
   70.3006   42.6845   58.7980 C   0  0  0  0  0  0  0  0  0  0  0  0
   69.2688   42.1577   57.8459 C   0  0  0  0  0  0  0  0  0  0  0  0
   68.9919   40.8133   57.8201 C   0  0  0  0  0  0  0  0  0  0  0  0
   68.0397   40.3424   56.9352 C   0  0  0  0  0  0  0  0  0  0  0  0
   67.3656   41.1888   56.0804 C   0  0  0  0  0  0  0  0  0  0  0  0
   67.6725   42.5375   56.1359 C   0  0  0  0  0  0  0  0  0  0  0  0
   68.6032   42.9689   57.0065 N   0  0  0  0  0  0  0  0  0  0  0  0
   69.2998   49.2708   56.2744 C   0  0  0  0  0  0  0  0  0  0  0  0
   69.5518   49.0440   54.8613 C   0  0  0  0  0  0  0  0  0  0  0  0
   70.3447   49.9675   54.2368 N   0  0  0  0  0  0  0  0  0  0  0  0
   70.6481   49.8524   52.9629 N   0  0  0  0  0  0  0  0  0  0  0  0
   70.1829   48.8197   52.2433 C   0  0  0  0  0  0  0  0  0  0  0  0
   70.5026   48.7591   51.0335 O   0  0  0  0  0  0  0  0  0  0  0  0
   69.3647   47.8521   52.8485 C   0  0  0  0  0  0  0  0  0  0  0  0
   69.0406   47.9518   54.1589 C   0  0  0  0  0  0  0  0  0  0  0  0
   68.1996   46.9954   54.8493 C   0  0  0  0  0  0  0  0  0  0  0  0
   67.3641   46.2405   53.8324 C   0  0  0  0  0  0  0  0  0  0  0  0
   68.2473   45.6908   52.7270 C   0  0  0  0  0  0  0  0  0  0  0  0
   68.9187   46.7728   51.9605 C   0  0  0  0  0  0  0  0  0  0  0  0
  7  8  2  0
  8 10  1  0
  8  9  1  0
 10 11  1  0
 11 12  2  0
 11 16  1  0
 12 13  1  0
 13 14  2  0
 14 15  1  0
 15 16  2  0
  9  1  1  0
  1  2  2  0
  1  6  1  0
  2  3  1  0
  3  4  2  0
  4  5  1  0
  5 17  1  0
  5  6  2  0
 17 18  1  0
 18 19  2  0
 18 24  1  0
 19 20  1  0
 20 21  1  0
 21 22  2  0
 21 23  1  0
 23 24  2  0
 23 28  1  0
 24 25  1  0
 25 26  1  0
 26 27  1  0
 27 28  1  0
M  END
>  <minimizedAffinity>  (155) 
-9.56438

$$$$
cs_full_output_folder/data/smiles/3367.pdb
     RDKit          3D

 28 31  0  0  0  0  0  0  0  0999 V2000
   70.8898   45.7375   58.0492 C   0  0  0  0  0  0  0  0  0  0  0  0
   71.6236   46.5015   58.9744 C   0  0  0  0  0  0  0  0  0  0  0  0
   71.5223   47.8668   59.0644 C   0  0  0  0  0  0  0  0  0  0  0  0
   70.6700   48.5438   58.2233 C   0  0  0  0  0  0  0  0  0  0  0  0
   69.9157   47.8499   57.2867 C   0  0  0  0  0  0  0  0  0  0  0  0
   70.0632   46.4818   57.2454 C   0  0  0  0  0  0  0  0  0  0  0  0
   70.2964   43.4263   58.7627 C   0  0  0  0  0  0  0  0  0  0  0  0
   69.3648   43.7741   59.4946 O   0  0  0  0  0  0  0  0  0  0  0  0
   71.0684   44.3469   58.0387 N   0  0  0  0  0  0  0  0  0  0  0  0
   71.4423   37.8351   58.3926 C   0  0  0  0  0  0  0  0  0  0  0  0
   71.1384   39.2948   58.4903 C   0  0  0  0  0  0  0  0  0  0  0  0
   69.8437   39.7534   58.6327 C   0  0  0  0  0  0  0  0  0  0  0  0
   69.5792   41.0874   58.7207 N   0  0  0  0  0  0  0  0  0  0  0  0
   70.5867   41.9685   58.6670 C   0  0  0  0  0  0  0  0  0  0  0  0
   71.8704   41.5379   58.5261 C   0  0  0  0  0  0  0  0  0  0  0  0
   72.1211   40.2036   58.4407 N   0  0  0  0  0  0  0  0  0  0  0  0
   69.0035   48.6090   56.3584 C   0  0  0  0  0  0  0  0  0  0  0  0
   69.4582   48.5811   54.9569 C   0  0  0  0  0  0  0  0  0  0  0  0
   70.4266   49.4573   54.5340 N   0  0  0  0  0  0  0  0  0  0  0  0
   70.8648   49.4982   53.2953 N   0  0  0  0  0  0  0  0  0  0  0  0
   70.3360   48.6412   52.4188 C   0  0  0  0  0  0  0  0  0  0  0  0
   70.7334   48.6533   51.2191 O   0  0  0  0  0  0  0  0  0  0  0  0
   69.3387   47.7082   52.7677 C   0  0  0  0  0  0  0  0  0  0  0  0
   68.8912   47.6792   54.0694 C   0  0  0  0  0  0  0  0  0  0  0  0
   67.8597   46.7295   54.5447 C   0  0  0  0  0  0  0  0  0  0  0  0
   67.9397   45.5010   53.6290 C   0  0  0  0  0  0  0  0  0  0  0  0
   67.6243   46.0632   52.2350 C   0  0  0  0  0  0  0  0  0  0  0  0
   68.8237   46.8022   51.7131 C   0  0  0  0  0  0  0  0  0  0  0  0
 10 11  1  0
 11 12  2  0
 11 16  1  0
 12 13  1  0
 13 14  2  0
 14  7  1  0
 14 15  1  0
  7  8  2  0
  7  9  1  0
  9  1  1  0
  1  2  2  0
  1  6  1  0
  2  3  1  0
  3  4  2  0
  4  5  1  0
  5 17  1  0
  5  6  2  0
 17 18  1  0
 18 19  2  0
 18 24  1  0
 19 20  1  0
 20 21  1  0
 21 22  2  0
 21 23  1  0
 23 24  2  0
 23 28  1  0
 24 25  1  0
 25 26  1  0
 26 27  1  0
 27 28  1  0
 15 16  2  0
M  END
>  <minimizedAffinity>  (156) 
-9.55855

$$$$
cs_full_output_folder/data/smiles/4233.pdb
     RDKit          3D

 28 32  0  0  0  0  0  0  0  0999 V2000
   70.7459   46.4187   58.5057 C   0  0  0  0  0  0  0  0  0  0  0  0
   69.8929   46.9384   57.5625 C   0  0  0  0  0  0  0  0  0  0  0  0
   69.8312   48.2989   57.2805 C   0  0  0  0  0  0  0  0  0  0  0  0
   70.6845   49.0862   58.0124 C   0  0  0  0  0  0  0  0  0  0  0  0
   71.5586   48.5990   58.9711 C   0  0  0  0  0  0  0  0  0  0  0  0
   71.5881   47.2423   59.2203 C   0  0  0  0  0  0  0  0  0  0  0  0
   72.4190   46.6924   60.1437 F   0  0  0  0  0  0  0  0  0  0  0  0
   69.7939   44.4399   59.2905 O   0  0  0  0  0  0  0  0  0  0  0  0
   70.7627   44.9892   58.7493 C   0  0  0  0  0  0  0  0  0  0  0  0
   71.9009   44.2051   58.3649 N   0  0  0  0  0  0  0  0  0  0  0  0
   73.1482   44.5471   57.7331 C   0  0  0  0  0  0  0  0  0  0  0  0
   73.5714   43.1048   57.7425 C   0  0  0  0  0  0  0  0  0  0  0  0
   72.2990   42.8603   58.4198 C   0  0  0  0  0  0  0  0  0  0  0  0
   72.3040   42.1563   59.7399 C   0  0  0  0  0  0  0  0  0  0  0  0
   71.9484   40.8757   58.9665 C   0  0  0  0  0  0  0  0  0  0  0  0
   71.3843   41.8080   57.8830 C   0  0  0  0  0  0  0  0  0  0  0  0
   68.8662   48.8220   56.2629 C   0  0  0  0  0  0  0  0  0  0  0  0
   69.3163   48.6853   54.8800 C   0  0  0  0  0  0  0  0  0  0  0  0
   70.2111   49.6321   54.4452 N   0  0  0  0  0  0  0  0  0  0  0  0
   70.6312   49.6114   53.2017 N   0  0  0  0  0  0  0  0  0  0  0  0
   70.2361   48.7051   52.2980 C   0  0  0  0  0  0  0  0  0  0  0  0
   70.6543   48.7003   51.0938 O   0  0  0  0  0  0  0  0  0  0  0  0
   69.3400   47.7405   52.6998 C   0  0  0  0  0  0  0  0  0  0  0  0
   68.8960   46.7685   51.8289 C   0  0  0  0  0  0  0  0  0  0  0  0
   68.0085   45.8107   52.2652 C   0  0  0  0  0  0  0  0  0  0  0  0
   67.5463   45.8008   53.5688 C   0  0  0  0  0  0  0  0  0  0  0  0
   67.9823   46.7645   54.4438 C   0  0  0  0  0  0  0  0  0  0  0  0
   68.8699   47.7281   54.0149 C   0  0  0  0  0  0  0  0  0  0  0  0
  8  9  2  0
  9  1  1  0
  9 10  1  0
  1  2  2  0
  1  6  1  0
  2  3  1  0
  3 17  1  0
  3  4  2  0
 17 18  1  0
 18 19  2  0
 18 28  1  0
 19 20  1  0
 20 21  1  0
 21 22  2  0
 21 23  1  0
 23 24  1  0
 23 28  2  0
 24 25  2  0
 25 26  1  0
 26 27  2  0
 27 28  1  0
  4  5  1  0
  5  6  2  0
  6  7  1  0
 10 11  1  0
 10 13  1  0
 11 12  1  0
 12 13  1  0
 13 14  1  0
 13 16  1  0
 14 15  1  0
 15 16  1  0
M  END
>  <minimizedAffinity>  (157) 
-9.55597

$$$$
cs_full_output_folder/data/smiles/1791.pdb
     RDKit          3D

 29 32  0  0  0  0  0  0  0  0999 V2000
   70.7009   46.0884   58.1008 C   0  0  0  0  0  0  0  0  0  0  0  0
   69.8645   46.7919   57.2249 C   0  0  0  0  0  0  0  0  0  0  0  0
   69.7987   48.1445   57.1221 C   0  0  0  0  0  0  0  0  0  0  0  0
   70.6278   48.9111   57.9514 C   0  0  0  0  0  0  0  0  0  0  0  0
   71.4556   48.2473   58.8180 C   0  0  0  0  0  0  0  0  0  0  0  0
   71.5014   46.8552   58.9017 C   0  0  0  0  0  0  0  0  0  0  0  0
   72.3616   46.2621   59.7722 F   0  0  0  0  0  0  0  0  0  0  0  0
   71.7533   44.0293   58.3189 O   0  0  0  0  0  0  0  0  0  0  0  0
   70.6445   44.6500   58.1154 C   0  0  0  0  0  0  0  0  0  0  0  0
   69.4596   43.9361   57.9188 N   0  0  0  0  0  0  0  0  0  0  0  0
   69.4545   42.4753   57.9473 C   0  0  1  0  0  0  0  0  0  0  0  0
   68.9802   42.0288   59.3148 C   0  0  0  0  0  0  0  0  0  0  0  0
   69.1761   40.5487   59.4873 C   0  0  0  0  0  0  0  0  0  0  0  0
   68.9282   39.8827   58.1682 C   0  0  1  0  0  0  0  0  0  0  0  0
   68.6065   38.5356   58.2966 O   0  0  0  0  0  0  0  0  0  0  0  0
   67.8319   40.6649   57.4582 C   0  0  0  0  0  0  0  0  0  0  0  0
   68.4840   41.9230   56.9208 C   0  0  0  0  0  0  0  0  0  0  0  0
   68.9000   48.9003   56.2038 C   0  0  0  0  0  0  0  0  0  0  0  0
   69.2943   48.7184   54.8120 C   0  0  0  0  0  0  0  0  0  0  0  0
   70.1880   49.6267   54.3069 N   0  0  0  0  0  0  0  0  0  0  0  0
   70.6018   49.6128   53.0695 N   0  0  0  0  0  0  0  0  0  0  0  0
   70.1843   48.6942   52.1645 C   0  0  0  0  0  0  0  0  0  0  0  0
   70.6061   48.7197   50.9913 O   0  0  0  0  0  0  0  0  0  0  0  0
   69.2865   47.7473   52.5988 C   0  0  0  0  0  0  0  0  0  0  0  0
   68.8255   46.7761   51.7384 C   0  0  0  0  0  0  0  0  0  0  0  0
   67.9461   45.8407   52.1898 C   0  0  0  0  0  0  0  0  0  0  0  0
   67.5171   45.8689   53.5118 C   0  0  0  0  0  0  0  0  0  0  0  0
   67.9714   46.8295   54.3641 C   0  0  0  0  0  0  0  0  0  0  0  0
   68.8591   47.7820   53.9244 C   0  0  0  0  0  0  0  0  0  0  0  0
  8  9  2  0
  9 10  1  0
  9  1  1  0
 11 10  1  1
 11 12  1  0
 11 17  1  0
 12 13  1  0
 13 14  1  0
 14 15  1  1
 14 16  1  0
 16 17  1  0
  1  2  2  0
  1  6  1  0
  2  3  1  0
  3 18  1  0
  3  4  2  0
 18 19  1  0
 19 20  2  0
 19 29  1  0
 20 21  1  0
 21 22  1  0
 22 23  2  0
 22 24  1  0
 24 25  1  0
 24 29  2  0
 25 26  2  0
 26 27  1  0
 27 28  2  0
 28 29  1  0
  4  5  1  0
  5  6  2  0
  6  7  1  0
M  END
>  <minimizedAffinity>  (158) 
-9.55179

$$$$
cs_full_output_folder/data/smiles/1225.pdb
     RDKit          3D

 26 29  0  0  0  0  0  0  0  0999 V2000
   70.4042   46.2819   58.5319 C   0  0  0  0  0  0  0  0  0  0  0  0
   71.6584   46.7762   58.8116 C   0  0  0  0  0  0  0  0  0  0  0  0
   72.0979   47.9635   58.2371 C   0  0  0  0  0  0  0  0  0  0  0  0
   71.2874   48.6606   57.3824 C   0  0  0  0  0  0  0  0  0  0  0  0
   70.0043   48.1958   57.0702 C   0  0  0  0  0  0  0  0  0  0  0  0
   69.6181   47.0369   57.6520 C   0  0  0  0  0  0  0  0  0  0  0  0
   69.9558   45.0705   59.1170 N   0  0  0  0  0  0  0  0  0  0  0  0
   69.7039   43.6272   58.2465 S   0  0  0  0  0  0  0  0  0  0  0  0
   68.6537   42.8106   58.9810 O   0  0  0  0  0  0  0  0  0  0  0  0
   69.1751   43.9420   56.8764 O   0  0  0  0  0  0  0  0  0  0  0  0
   73.7450   43.0180   57.4553 C   0  0  0  0  0  0  0  0  0  0  0  0
   72.5765   42.5216   57.8043 C   0  0  0  0  0  0  0  0  0  0  0  0
   71.7110   41.4327   58.1919 C   0  0  0  0  0  0  0  0  0  0  0  0
   71.1552   42.6657   58.0948 C   0  0  0  0  0  0  0  0  0  0  0  0
   69.1347   48.9932   56.1704 C   0  0  0  0  0  0  0  0  0  0  0  0
   69.4992   48.7892   54.7930 C   0  0  0  0  0  0  0  0  0  0  0  0
   70.3040   49.7024   54.2213 N   0  0  0  0  0  0  0  0  0  0  0  0
   70.6718   49.6785   52.9569 N   0  0  0  0  0  0  0  0  0  0  0  0
   70.2339   48.6897   52.1560 C   0  0  0  0  0  0  0  0  0  0  0  0
   70.5712   48.6536   50.9588 O   0  0  0  0  0  0  0  0  0  0  0  0
   69.3999   47.7109   52.6798 C   0  0  0  0  0  0  0  0  0  0  0  0
   69.0258   47.7502   54.0035 C   0  0  0  0  0  0  0  0  0  0  0  0
   68.2041   46.7288   54.6500 C   0  0  0  0  0  0  0  0  0  0  0  0
   67.9869   45.5855   53.6784 C   0  0  0  0  0  0  0  0  0  0  0  0
   67.6191   46.1443   52.3064 C   0  0  0  0  0  0  0  0  0  0  0  0
   68.9525   46.6520   51.7474 C   0  0  0  0  0  0  0  0  0  0  0  0
 11 12  2  0
 12 13  1  0
 12 14  1  0
 13 14  2  0
 14  8  1  0
  8  9  2  0
  8 10  2  0
  8  7  1  0
  7  1  1  0
  1  2  2  0
  1  6  1  0
  2  3  1  0
  3  4  2  0
  4  5  1  0
  5 15  1  0
  5  6  2  0
 15 16  1  0
 16 17  2  0
 16 22  1  0
 17 18  1  0
 18 19  1  0
 19 20  2  0
 19 21  1  0
 21 22  2  0
 21 26  1  0
 22 23  1  0
 23 24  1  0
 24 25  1  0
 25 26  1  0
M  END
>  <minimizedAffinity>  (159) 
-9.55113

$$$$
cs_full_output_folder/data/smiles/3379.pdb
     RDKit          3D

 27 30  0  0  0  0  0  0  0  0999 V2000
   71.2227   47.4832   58.5176 C   0  0  0  0  0  0  0  0  0  0  0  0
   71.0298   46.0980   58.5259 C   0  0  0  0  0  0  0  0  0  0  0  0
   70.1877   45.4744   57.6546 C   0  0  0  0  0  0  0  0  0  0  0  0
   69.5056   46.2659   56.7307 C   0  0  0  0  0  0  0  0  0  0  0  0
   69.6618   47.5829   56.6917 N   0  0  0  0  0  0  0  0  0  0  0  0
   70.5032   48.1699   57.5686 C   0  0  0  0  0  0  0  0  0  0  0  0
   70.6182   49.4334   57.4899 O   0  0  0  0  0  0  0  0  0  0  0  0
   74.1210   49.4189   60.2630 C   0  0  0  0  0  0  0  0  0  0  0  0
   73.2723   48.8616   59.1959 N   0  0  0  0  0  0  0  0  0  0  0  0
   72.1380   48.0876   59.4770 C   0  0  0  0  0  0  0  0  0  0  0  0
   71.8988   47.9053   60.7168 O   0  0  0  0  0  0  0  0  0  0  0  0
   69.9730   44.0321   57.6475 C   0  0  0  0  0  0  0  0  0  0  0  0
   70.8030   43.2679   58.2356 O   0  0  0  0  0  0  0  0  0  0  0  0
   68.8593   43.4856   56.9979 N   0  0  0  0  0  0  0  0  0  0  0  0
   68.6671   42.0491   57.0044 C   0  0  0  0  0  0  0  0  0  0  0  0
   67.4635   41.4731   57.6710 C   0  0  0  0  0  0  0  0  0  0  0  0
   67.4194   41.6189   56.2103 C   0  0  0  0  0  0  0  0  0  0  0  0
   68.9283   48.3607   55.7109 C   0  0  0  0  0  0  0  0  0  0  0  0
   68.7259   47.5879   54.4555 C   0  0  0  0  0  0  0  0  0  0  0  0
   67.8741   46.5230   54.3429 C   0  0  0  0  0  0  0  0  0  0  0  0
   67.7194   45.8387   53.1622 C   0  0  0  0  0  0  0  0  0  0  0  0
   68.4361   46.2199   52.0457 C   0  0  0  0  0  0  0  0  0  0  0  0
   69.2988   47.2905   52.1408 C   0  0  0  0  0  0  0  0  0  0  0  0
   70.1052   47.8659   51.2312 N   0  0  0  0  0  0  0  0  0  0  0  0
   70.7459   48.8729   51.8016 N   0  0  0  0  0  0  0  0  0  0  0  0
   70.3629   48.9608   53.0862 C   0  0  0  0  0  0  0  0  0  0  0  0
   69.4377   47.9684   53.3485 C   0  0  0  0  0  0  0  0  0  0  0  0
  8  9  1  0
  9 10  1  0
 10 11  2  0
 10  1  1  0
  1  2  2  0
  1  6  1  0
  2  3  1  0
  3 12  1  0
  3  4  2  0
 12 13  2  0
 12 14  1  0
 14 15  1  0
 15 16  1  0
 15 17  1  0
 16 17  1  0
  4  5  1  0
  5 18  1  0
  5  6  1  0
 18 19  1  0
 19 20  2  0
 19 27  1  0
 20 21  1  0
 21 22  2  0
 22 23  1  0
 23 24  1  0
 23 27  2  0
 24 25  1  0
 25 26  2  0
 26 27  1  0
  6  7  2  0
M  END
>  <minimizedAffinity>  (160) 
-9.55099

$$$$
cs_full_output_folder/data/smiles/3278.pdb
     RDKit          3D

 28 31  0  0  0  0  0  0  0  0999 V2000
   70.6827   46.5964   58.4746 C   0  0  0  0  0  0  0  0  0  0  0  0
   69.7930   47.0663   57.5293 C   0  0  0  0  0  0  0  0  0  0  0  0
   69.6467   48.3862   57.2052 C   0  0  0  0  0  0  0  0  0  0  0  0
   70.4830   49.2652   57.9146 C   0  0  0  0  0  0  0  0  0  0  0  0
   71.3767   48.8176   58.8591 C   0  0  0  0  0  0  0  0  0  0  0  0
   71.4852   47.4797   59.1491 C   0  0  0  0  0  0  0  0  0  0  0  0
   72.3675   47.0527   60.0806 F   0  0  0  0  0  0  0  0  0  0  0  0
   69.8095   44.6454   59.3809 O   0  0  0  0  0  0  0  0  0  0  0  0
   70.7522   45.1479   58.7325 C   0  0  0  0  0  0  0  0  0  0  0  0
   71.8157   44.3249   58.2859 N   0  0  0  0  0  0  0  0  0  0  0  0
   71.6928   42.9438   58.6404 C   0  0  0  0  0  0  0  0  0  0  0  0
   72.5755   42.0179   57.8777 C   0  0  0  0  0  0  0  0  0  0  0  0
   73.8917   42.6286   57.4780 C   0  0  0  0  0  0  0  0  0  0  0  0
   74.4414   43.5623   58.5101 C   0  0  0  0  0  0  0  0  0  0  0  0
   73.9827   44.9816   58.2756 C   0  0  0  0  0  0  0  0  0  0  0  0
   72.7647   45.0146   57.5972 O   0  0  0  0  0  0  0  0  0  0  0  0
   68.7194   48.9678   56.2266 C   0  0  0  0  0  0  0  0  0  0  0  0
   69.2269   48.8075   54.8423 C   0  0  0  0  0  0  0  0  0  0  0  0
   70.1377   49.7141   54.3581 N   0  0  0  0  0  0  0  0  0  0  0  0
   70.5942   49.6462   53.1243 N   0  0  0  0  0  0  0  0  0  0  0  0
   70.2096   48.6988   52.2561 C   0  0  0  0  0  0  0  0  0  0  0  0
   70.6772   48.6876   51.1017 O   0  0  0  0  0  0  0  0  0  0  0  0
   69.3001   47.7432   52.6480 C   0  0  0  0  0  0  0  0  0  0  0  0
   68.8821   46.7364   51.7888 C   0  0  0  0  0  0  0  0  0  0  0  0
   67.9806   45.7836   52.2043 C   0  0  0  0  0  0  0  0  0  0  0  0
   67.5109   45.8605   53.4962 C   0  0  0  0  0  0  0  0  0  0  0  0
   67.9326   46.8752   54.3620 C   0  0  0  0  0  0  0  0  0  0  0  0
   68.8300   47.8341   53.9602 C   0  0  0  0  0  0  0  0  0  0  0  0
  8  9  2  0
  9  1  1  0
  9 10  1  0
  1  2  2  0
  1  6  1  0
  2  3  1  0
  3 17  1  0
  3  4  2  0
 17 18  1  0
 18 19  2  0
 18 28  1  0
 19 20  1  0
 20 21  1  0
 21 22  2  0
 21 23  1  0
 23 24  1  0
 23 28  2  0
 24 25  2  0
 25 26  1  0
 26 27  2  0
 27 28  1  0
  4  5  1  0
  5  6  2  0
  6  7  1  0
 10 11  1  0
 10 16  1  0
 11 12  1  0
 12 13  1  0
 13 14  1  0
 14 15  1  0
 15 16  1  0
M  END
>  <minimizedAffinity>  (161) 
-9.55084

$$$$
cs_full_output_folder/data/smiles/7052.pdb
     RDKit          3D

 28 30  0  0  0  0  0  0  0  0999 V2000
   71.0783   45.9074   58.7795 C   0  0  0  0  0  0  0  0  0  0  0  0
   72.1157   46.6541   59.8413 S   0  0  0  0  0  0  0  0  0  0  0  0
   71.9199   43.5863   58.2020 C   0  0  0  0  0  0  0  0  0  0  0  0
   72.8124   44.0185   57.4945 O   0  0  0  0  0  0  0  0  0  0  0  0
   71.0370   44.5068   58.8702 N   0  0  0  0  0  0  0  0  0  0  0  0
   71.6073   39.3343   58.6061 C   0  0  0  0  0  0  0  0  0  0  0  0
   72.8162   40.0034   58.7371 C   0  0  0  0  0  0  0  0  0  0  0  0
   72.9031   41.3839   58.6180 C   0  0  0  0  0  0  0  0  0  0  0  0
   71.7591   42.1440   58.3623 C   0  0  0  0  0  0  0  0  0  0  0  0
   70.5747   41.4636   58.2365 C   0  0  0  0  0  0  0  0  0  0  0  0
   70.4954   40.0911   58.3558 C   0  0  0  0  0  0  0  0  0  0  0  0
   70.3797   37.2689   59.5125 C   0  0  0  0  0  0  0  0  0  0  0  0
   71.5927   37.8497   58.7740 C   0  0  0  0  0  0  0  0  0  0  0  0
   72.3045   37.0214   57.7645 C   0  0  0  0  0  0  0  0  0  0  0  0
   72.8881   37.2203   59.1561 C   0  0  0  0  0  0  0  0  0  0  0  0
   70.3580   46.7743   57.8678 C   0  0  0  0  0  0  0  0  0  0  0  0
   69.3828   46.5811   57.1685 N   0  0  0  0  0  0  0  0  0  0  0  0
   68.4575   46.9547   56.2899 C   0  0  0  0  0  0  0  0  0  0  0  0
   67.3365   47.4621   56.6869 O   0  0  0  0  0  0  0  0  0  0  0  0
   68.5430   46.8587   54.8192 C   0  0  0  0  0  0  0  0  0  0  0  0
   67.8543   45.9211   54.0825 C   0  0  0  0  0  0  0  0  0  0  0  0
   68.0032   45.9045   52.6950 C   0  0  0  0  0  0  0  0  0  0  0  0
   68.8187   46.7983   52.0489 C   0  0  0  0  0  0  0  0  0  0  0  0
   69.5247   47.7537   52.7793 C   0  0  0  0  0  0  0  0  0  0  0  0
   69.3649   47.7558   54.1479 C   0  0  0  0  0  0  0  0  0  0  0  0
   70.3889   48.7066   52.1756 N   0  0  0  0  0  0  0  0  0  0  0  0
   71.4507   48.9809   52.7543 O   0  0  0  0  0  0  0  0  0  0  0  0
   70.0770   49.3245   50.9764 O   0  0  0  0  0  0  0  0  0  0  0  0
 12 13  1  0
 13  6  1  0
 13 14  1  0
 13 15  1  0
  6  7  2  0
  6 11  1  0
  7  8  1  0
  8  9  2  0
  9  3  1  0
  9 10  1  0
  3  4  2  0
  3  5  1  0
  5  1  1  0
  1  2  2  0
  1 16  1  0
 16 17  2  0
 17 18  1  0
 18 19  2  0
 18 20  1  0
 20 21  2  0
 20 25  1  0
 21 22  1  0
 22 23  2  0
 23 24  1  0
 24 26  1  0
 24 25  2  0
 26 27  2  0
 26 28  1  0
 10 11  2  0
 14 15  1  0
M  CHG  2  26   1  28  -1
M  END
>  <minimizedAffinity>  (162) 
-9.54393

$$$$
cs_full_output_folder/data/smiles/8642.pdb
     RDKit          3D

 29 32  0  0  0  0  0  0  0  0999 V2000
   70.7752   46.0203   58.4693 C   0  0  0  0  0  0  0  0  0  0  0  0
   69.9300   46.6505   57.5679 C   0  0  0  0  0  0  0  0  0  0  0  0
   70.0743   47.9639   57.2676 C   0  0  0  0  0  0  0  0  0  0  0  0
   71.0957   48.6891   57.8786 C   0  0  0  0  0  0  0  0  0  0  0  0
   71.2541   50.0768   57.5635 N   0  0  0  0  0  0  0  0  0  0  0  0
   71.9181   48.0443   58.7656 C   0  0  0  0  0  0  0  0  0  0  0  0
   71.7934   46.7115   59.0896 C   0  0  0  0  0  0  0  0  0  0  0  0
   72.6291   46.0983   59.9768 F   0  0  0  0  0  0  0  0  0  0  0  0
   75.1734   41.7827   59.1574 C   0  0  0  0  0  0  0  0  0  0  0  0
   73.8155   42.1444   58.6698 C   0  0  0  0  0  0  0  0  0  0  0  0
   72.6936   41.7894   59.2802 C   0  0  0  0  0  0  0  0  0  0  0  0
   71.3752   42.2204   58.6855 C   0  0  0  0  0  0  0  0  0  0  0  0
   71.5456   43.6268   58.3843 N   0  0  0  0  0  0  0  0  0  0  0  0
   70.5880   44.5936   58.7817 C   0  0  0  0  0  0  0  0  0  0  0  0
   69.5741   44.1971   59.4098 O   0  0  0  0  0  0  0  0  0  0  0  0
   72.7171   44.0695   57.6679 C   0  0  0  0  0  0  0  0  0  0  0  0
   73.6967   42.9478   57.4265 C   0  0  0  0  0  0  0  0  0  0  0  0
   69.2042   48.6408   56.2982 C   0  0  0  0  0  0  0  0  0  0  0  0
   69.6020   48.5128   54.8890 C   0  0  0  0  0  0  0  0  0  0  0  0
   70.5806   49.3156   54.3764 N   0  0  0  0  0  0  0  0  0  0  0  0
   70.9480   49.2749   53.1141 N   0  0  0  0  0  0  0  0  0  0  0  0
   70.3909   48.4358   52.2046 C   0  0  0  0  0  0  0  0  0  0  0  0
   70.7542   48.4117   51.0068 O   0  0  0  0  0  0  0  0  0  0  0  0
   69.3982   47.6004   52.6661 C   0  0  0  0  0  0  0  0  0  0  0  0
   68.8174   46.7256   51.7731 C   0  0  0  0  0  0  0  0  0  0  0  0
   67.8225   45.8549   52.1867 C   0  0  0  0  0  0  0  0  0  0  0  0
   67.4361   45.8868   53.4919 C   0  0  0  0  0  0  0  0  0  0  0  0
   68.0192   46.7635   54.3796 C   0  0  0  0  0  0  0  0  0  0  0  0
   69.0129   47.6490   54.0107 C   0  0  0  0  0  0  0  0  0  0  0  0
  9 10  1  0
 10 11  2  0
 10 17  1  0
 11 12  1  0
 12 13  1  0
 13 14  1  0
 13 16  1  0
 14 15  2  0
 14  1  1  0
  1  2  2  0
  1  7  1  0
  2  3  1  0
  3 18  1  0
  3  4  2  0
 18 19  1  0
 19 20  2  0
 19 29  1  0
 20 21  1  0
 21 22  1  0
 22 23  2  0
 22 24  1  0
 24 25  1  0
 24 29  2  0
 25 26  2  0
 26 27  1  0
 27 28  2  0
 28 29  1  0
  4  5  1  0
  4  6  1  0
  6  7  2  0
  7  8  1  0
 16 17  1  0
M  END
>  <minimizedAffinity>  (163) 
-9.54243

$$$$
cs_full_output_folder/data/smiles/7234.pdb
     RDKit          3D

 28 31  0  0  0  0  0  0  0  0999 V2000
   70.9962   46.1515   58.1818 C   0  0  0  0  0  0  0  0  0  0  0  0
   70.1413   46.7689   57.2818 C   0  0  0  0  0  0  0  0  0  0  0  0
   69.8570   48.1008   57.2617 C   0  0  0  0  0  0  0  0  0  0  0  0
   70.4867   48.8877   58.2313 C   0  0  0  0  0  0  0  0  0  0  0  0
   71.3433   48.3263   59.1464 C   0  0  0  0  0  0  0  0  0  0  0  0
   71.5937   46.9702   59.1195 C   0  0  0  0  0  0  0  0  0  0  0  0
   72.4394   46.4225   60.0255 F   0  0  0  0  0  0  0  0  0  0  0  0
   71.9834   40.5432   58.2377 N   0  0  0  0  0  0  0  0  0  0  0  0
   71.7430   41.9401   58.2261 C   0  0  0  0  0  0  0  0  0  0  0  0
   70.4960   42.4682   58.5058 C   0  0  0  0  0  0  0  0  0  0  0  0
   70.2934   43.8277   58.4792 C   0  0  0  0  0  0  0  0  0  0  0  0
   71.2894   44.7306   58.1822 C   0  0  0  0  0  0  0  0  0  0  0  0
   72.5319   44.1921   57.9053 C   0  0  0  0  0  0  0  0  0  0  0  0
   73.5451   45.0473   57.6059 F   0  0  0  0  0  0  0  0  0  0  0  0
   72.7655   42.8349   57.9230 C   0  0  0  0  0  0  0  0  0  0  0  0
   74.0379   42.2632   57.6387 N   0  0  0  0  0  0  0  0  0  0  0  0
   68.9291   48.7775   56.3055 C   0  0  0  0  0  0  0  0  0  0  0  0
   69.3471   48.6701   54.9021 C   0  0  0  0  0  0  0  0  0  0  0  0
   70.2434   49.5855   54.4102 N   0  0  0  0  0  0  0  0  0  0  0  0
   70.6296   49.5769   53.1491 N   0  0  0  0  0  0  0  0  0  0  0  0
   70.1924   48.6858   52.2328 C   0  0  0  0  0  0  0  0  0  0  0  0
   70.5734   48.6979   51.0407 O   0  0  0  0  0  0  0  0  0  0  0  0
   69.2919   47.7368   52.6590 C   0  0  0  0  0  0  0  0  0  0  0  0
   68.8469   46.8192   51.7512 C   0  0  0  0  0  0  0  0  0  0  0  0
   67.9565   45.8464   52.1468 C   0  0  0  0  0  0  0  0  0  0  0  0
   67.5541   45.8550   53.4681 C   0  0  0  0  0  0  0  0  0  0  0  0
   68.0053   46.7849   54.3819 C   0  0  0  0  0  0  0  0  0  0  0  0
   68.9012   47.7623   53.9770 C   0  0  0  0  0  0  0  0  0  0  0  0
  8  9  1  0
  9 10  2  0
  9 15  1  0
 10 11  1  0
 11 12  2  0
 12  1  1  0
 12 13  1  0
  1  2  2  0
  1  6  1  0
  2  3  1  0
  3 17  1  0
  3  4  2  0
 17 18  1  0
 18 19  2  0
 18 28  1  0
 19 20  1  0
 20 21  1  0
 21 22  2  0
 21 23  1  0
 23 24  1  0
 23 28  2  0
 24 25  2  0
 25 26  1  0
 26 27  2  0
 27 28  1  0
  4  5  1  0
  5  6  2  0
  6  7  1  0
 13 14  1  0
 13 15  2  0
 15 16  1  0
M  END
>  <minimizedAffinity>  (164) 
-9.54075

$$$$
cs_full_output_folder/data/smiles/4815.pdb
     RDKit          3D

 29 32  0  0  0  0  0  0  0  0999 V2000
   71.6464   47.0402   58.9239 C   0  0  0  0  0  0  0  0  0  0  0  0
   70.8468   47.8151   58.1198 C   0  0  0  0  0  0  0  0  0  0  0  0
   69.9365   47.2707   57.1971 C   0  0  0  0  0  0  0  0  0  0  0  0
   69.8402   45.9170   57.0953 C   0  0  0  0  0  0  0  0  0  0  0  0
   70.6421   45.1002   57.9023 C   0  0  0  0  0  0  0  0  0  0  0  0
   71.5244   45.6774   58.7958 C   0  0  0  0  0  0  0  0  0  0  0  0
   72.2865   44.8622   59.5727 F   0  0  0  0  0  0  0  0  0  0  0  0
   74.8470   48.2914   60.5888 C   0  0  0  0  0  0  0  0  0  0  0  0
   73.9703   47.7431   59.5876 N   0  0  0  0  0  0  0  0  0  0  0  0
   72.6009   47.5896   59.8827 C   0  0  0  0  0  0  0  0  0  0  0  0
   72.1752   47.9499   61.0475 O   0  0  0  0  0  0  0  0  0  0  0  0
   74.5124   47.3711   58.3145 C   0  0  0  0  0  0  0  0  0  0  0  0
   74.5229   48.4685   57.3231 C   0  0  0  0  0  0  0  0  0  0  0  0
   75.6613   49.1576   56.9122 C   0  0  0  0  0  0  0  0  0  0  0  0
   75.2619   50.0994   55.9855 C   0  0  0  0  0  0  0  0  0  0  0  0
   73.9162   49.9300   55.8858 N   0  0  0  0  0  0  0  0  0  0  0  0
   73.5177   48.9779   56.6727 O   0  0  0  0  0  0  0  0  0  0  0  0
   69.1121   48.2312   56.4043 C   0  0  0  0  0  0  0  0  0  0  0  0
   69.4389   48.2982   54.9885 C   0  0  0  0  0  0  0  0  0  0  0  0
   70.3884   49.1908   54.5664 N   0  0  0  0  0  0  0  0  0  0  0  0
   70.7710   49.3033   53.3294 N   0  0  0  0  0  0  0  0  0  0  0  0
   70.2799   48.5567   52.3190 C   0  0  0  0  0  0  0  0  0  0  0  0
   70.7097   48.7343   51.1561 O   0  0  0  0  0  0  0  0  0  0  0  0
   69.3167   47.6296   52.6482 C   0  0  0  0  0  0  0  0  0  0  0  0
   68.7644   46.8371   51.6502 C   0  0  0  0  0  0  0  0  0  0  0  0
   67.7942   45.9137   51.9646 C   0  0  0  0  0  0  0  0  0  0  0  0
   67.4122   45.8181   53.2627 C   0  0  0  0  0  0  0  0  0  0  0  0
   67.9618   46.6119   54.2728 C   0  0  0  0  0  0  0  0  0  0  0  0
   68.9194   47.5230   53.9759 C   0  0  0  0  0  0  0  0  0  0  0  0
  8  9  1  0
  9 12  1  0
  9 10  1  0
 12 13  1  0
 13 14  2  0
 13 17  1  0
 14 15  1  0
 15 16  2  0
 16 17  1  0
 10 11  2  0
 10  1  1  0
  1  2  2  0
  1  6  1  0
  2  3  1  0
  3 18  1  0
  3  4  2  0
 18 19  1  0
 19 20  2  0
 19 29  1  0
 20 21  1  0
 21 22  1  0
 22 23  2  0
 22 24  1  0
 24 25  1  0
 24 29  2  0
 25 26  2  0
 26 27  1  0
 27 28  2  0
 28 29  1  0
  4  5  1  0
  5  6  2  0
  6  7  1  0
M  END
>  <minimizedAffinity>  (165) 
-9.53875

$$$$
cs_full_output_folder/data/smiles/203.pdb
     RDKit          3D

 29 32  0  0  0  0  0  0  0  0999 V2000
   71.5047   47.0096   58.8244 C   0  0  0  0  0  0  0  0  0  0  0  0
   70.6962   47.8985   58.1252 C   0  0  0  0  0  0  0  0  0  0  0  0
   69.8077   47.4257   57.2210 C   0  0  0  0  0  0  0  0  0  0  0  0
   69.7023   46.0547   56.9939 C   0  0  0  0  0  0  0  0  0  0  0  0
   70.5107   45.1913   57.6970 C   0  0  0  0  0  0  0  0  0  0  0  0
   71.4237   45.6543   58.6213 C   0  0  0  0  0  0  0  0  0  0  0  0
   72.2118   44.7875   59.3041 F   0  0  0  0  0  0  0  0  0  0  0  0
   74.7249   50.9248   60.2900 C   0  0  0  0  0  0  0  0  0  0  0  0
   75.3930   49.6621   59.7416 C   0  0  1  0  0  0  0  0  0  0  0  0
   74.7534   48.4272   60.2827 C   0  0  0  0  0  0  0  0  0  0  0  0
   73.7654   47.8570   59.3860 N   0  0  0  0  0  0  0  0  0  0  0  0
   72.4388   47.5820   59.7807 C   0  0  0  0  0  0  0  0  0  0  0  0
   72.1145   47.8525   60.9759 O   0  0  0  0  0  0  0  0  0  0  0  0
   74.1812   47.5707   58.0421 C   0  0  0  0  0  0  0  0  0  0  0  0
   74.5546   48.8839   57.3896 C   0  0  0  0  0  0  0  0  0  0  0  0
   75.4365   49.6975   58.2595 C   0  0  0  0  0  0  0  0  0  0  0  0
   76.2430   50.4388   57.7307 O   0  0  0  0  0  0  0  0  0  0  0  0
   68.9031   48.3043   56.4030 C   0  0  0  0  0  0  0  0  0  0  0  0
   69.3420   48.2978   55.0240 C   0  0  0  0  0  0  0  0  0  0  0  0
   70.3200   49.1907   54.6692 N   0  0  0  0  0  0  0  0  0  0  0  0
   70.7730   49.3164   53.4409 N   0  0  0  0  0  0  0  0  0  0  0  0
   70.3124   48.5732   52.4211 C   0  0  0  0  0  0  0  0  0  0  0  0
   70.7573   48.7069   51.2483 O   0  0  0  0  0  0  0  0  0  0  0  0
   69.3266   47.6440   52.6806 C   0  0  0  0  0  0  0  0  0  0  0  0
   68.8448   46.8571   51.6450 C   0  0  0  0  0  0  0  0  0  0  0  0
   67.8716   45.9396   51.9716 C   0  0  0  0  0  0  0  0  0  0  0  0
   67.4006   45.8071   53.2514 C   0  0  0  0  0  0  0  0  0  0  0  0
   67.8996   46.6074   54.2702 C   0  0  0  0  0  0  0  0  0  0  0  0
   68.8582   47.5256   53.9905 C   0  0  0  0  0  0  0  0  0  0  0  0
  9  8  1  6
  9 10  1  0
  9 16  1  0
 10 11  1  0
 11 12  1  0
 11 14  1  0
 12 13  2  0
 12  1  1  0
  1  2  2  0
  1  6  1  0
  2  3  1  0
  3 18  1  0
  3  4  2  0
 18 19  1  0
 19 20  2  0
 19 29  1  0
 20 21  1  0
 21 22  1  0
 22 23  2  0
 22 24  1  0
 24 25  1  0
 24 29  2  0
 25 26  2  0
 26 27  1  0
 27 28  2  0
 28 29  1  0
  4  5  1  0
  5  6  2  0
  6  7  1  0
 14 15  1  0
 15 16  1  0
 16 17  2  0
M  END
>  <minimizedAffinity>  (166) 
-9.53870

$$$$
cs_full_output_folder/data/smiles/6646.pdb
     RDKit          3D

 27 30  0  0  0  0  0  0  0  0999 V2000
   70.7306   46.6239   58.3328 O   0  0  0  0  0  0  0  0  0  0  0  0
   70.2060   45.7069   57.6507 C   0  0  0  0  0  0  0  0  0  0  0  0
   69.2720   46.0609   56.6695 N   0  0  0  0  0  0  0  0  0  0  0  0
   70.5812   44.3205   57.8980 C   0  0  0  0  0  0  0  0  0  0  0  0
   69.7364   43.2869   57.4679 C   0  0  0  0  0  0  0  0  0  0  0  0
   70.0406   41.9600   57.6713 C   0  0  0  0  0  0  0  0  0  0  0  0
   71.1961   41.5697   58.3127 C   0  0  0  0  0  0  0  0  0  0  0  0
   72.0331   42.5756   58.7401 C   0  0  0  0  0  0  0  0  0  0  0  0
   71.7282   43.9144   58.5345 C   0  0  0  0  0  0  0  0  0  0  0  0
   71.4877   40.1557   58.5132 C   0  0  0  0  0  0  0  0  0  0  0  0
   70.5494   39.1624   58.3222 C   0  0  0  0  0  0  0  0  0  0  0  0
   70.8407   37.8276   58.5150 C   0  0  0  0  0  0  0  0  0  0  0  0
   72.0973   37.4265   58.9102 C   0  0  0  0  0  0  0  0  0  0  0  0
   73.0429   38.4136   59.1037 C   0  0  0  0  0  0  0  0  0  0  0  0
   72.7436   39.7454   58.9097 C   0  0  0  0  0  0  0  0  0  0  0  0
   68.8649   47.4260   56.3864 C   0  0  0  0  0  0  0  0  0  0  0  0
   69.2889   47.8005   55.0270 C   0  0  0  0  0  0  0  0  0  0  0  0
   70.1876   48.7763   54.8487 N   0  0  0  0  0  0  0  0  0  0  0  0
   70.6025   49.1461   53.6438 N   0  0  0  0  0  0  0  0  0  0  0  0
   70.1206   48.5359   52.5216 C   0  0  0  0  0  0  0  0  0  0  0  0
   70.5252   48.8968   51.3662 O   0  0  0  0  0  0  0  0  0  0  0  0
   69.1972   47.5280   52.6322 C   0  0  0  0  0  0  0  0  0  0  0  0
   68.6767   46.8775   51.5466 C   0  0  0  0  0  0  0  0  0  0  0  0
   67.7366   45.8522   51.6810 C   0  0  0  0  0  0  0  0  0  0  0  0
   67.3208   45.4848   52.9290 C   0  0  0  0  0  0  0  0  0  0  0  0
   67.8540   46.1514   54.0182 C   0  0  0  0  0  0  0  0  0  0  0  0
   68.7857   47.1673   53.9148 C   0  0  0  0  0  0  0  0  0  0  0  0
  1  2  2  0
  2  3  1  0
  2  4  1  0
  3 16  1  0
 16 17  1  0
 17 18  2  0
 17 27  1  0
 18 19  1  0
 19 20  1  0
 20 21  2  0
 20 22  1  0
 22 23  1  0
 22 27  2  0
 23 24  2  0
 24 25  1  0
 25 26  2  0
 26 27  1  0
  4  5  2  0
  4  9  1  0
  5  6  1  0
  6  7  2  0
  7 10  1  0
  7  8  1  0
 10 11  2  0
 10 15  1  0
 11 12  1  0
 12 13  2  0
 13 14  1  0
 14 15  2  0
  8  9  2  0
M  END
>  <minimizedAffinity>  (167) 
-9.53803

$$$$
cs_full_output_folder/data/smiles/4600.pdb
     RDKit          3D

 26 28  0  0  0  0  0  0  0  0999 V2000
   70.2926   39.1742   58.7792 C   0  0  0  0  0  0  0  0  0  0  0  0
   70.8948   40.4155   58.8394 C   0  0  0  0  0  0  0  0  0  0  0  0
   70.3624   41.5257   58.1929 C   0  0  0  0  0  0  0  0  0  0  0  0
   69.2104   41.4262   57.4674 C   0  0  0  0  0  0  0  0  0  0  0  0
   68.5980   40.1909   57.3987 C   0  0  0  0  0  0  0  0  0  0  0  0
   69.1291   39.0791   58.0443 C   0  0  0  0  0  0  0  0  0  0  0  0
   67.4378   40.3673   56.5934 N   0  0  0  0  0  0  0  0  0  0  0  0
   67.3182   41.7047   56.1562 C   0  0  0  0  0  0  0  0  0  0  0  0
   66.4253   42.2696   55.4209 N   0  0  0  0  0  0  0  0  0  0  0  0
   68.4612   42.4236   56.7095 C   0  0  0  0  0  0  0  0  0  0  0  0
   68.7287   43.6851   56.5459 N   0  0  0  0  0  0  0  0  0  0  0  0
   71.6033   37.1586   58.4531 C   0  0  0  0  0  0  0  0  0  0  0  0
   70.8895   38.0077   59.4830 C   0  0  0  0  0  0  0  0  0  0  0  0
   71.9376   38.5190   60.4423 C   0  0  0  0  0  0  0  0  0  0  0  0
   69.8466   37.1692   60.1760 C   0  0  0  0  0  0  0  0  0  0  0  0
   67.8822   44.4743   55.7810 N   0  0  0  0  0  0  0  0  0  0  0  0
   68.3629   45.6129   55.0920 C   0  0  0  0  0  0  0  0  0  0  0  0
   68.1983   45.8081   53.7420 C   0  0  0  0  0  0  0  0  0  0  0  0
   68.6678   46.9158   53.0791 C   0  0  0  0  0  0  0  0  0  0  0  0
   69.3446   47.9084   53.7562 C   0  0  0  0  0  0  0  0  0  0  0  0
   69.5272   47.7449   55.1111 C   0  0  0  0  0  0  0  0  0  0  0  0
   69.0515   46.6291   55.7650 C   0  0  0  0  0  0  0  0  0  0  0  0
   69.9501   49.3335   52.9138 S   0  0  0  0  0  0  0  0  0  0  0  0
   69.9644   49.0762   51.2181 N   0  0  0  0  0  0  0  0  0  0  0  0
   71.3467   49.6033   53.3699 O   0  0  0  0  0  0  0  0  0  0  0  0
   69.1263   50.5393   53.2307 O   0  0  0  0  0  0  0  0  0  0  0  0
 12 13  1  0
 13 14  1  0
 13 15  1  0
 13  1  1  0
  1  2  2  0
  1  6  1  0
  2  3  1  0
  3  4  2  0
  4  5  1  0
  4 10  1  0
  5  6  2  0
  5  7  1  0
  7  8  1  0
  8  9  2  0
  8 10  1  0
 10 11  2  0
 11 16  1  0
 16 17  1  0
 17 18  2  0
 17 22  1  0
 18 19  1  0
 19 20  2  0
 20 23  1  0
 20 21  1  0
 23 24  1  0
 23 25  2  0
 23 26  2  0
 21 22  2  0
M  CHG  1   9   1
M  END
>  <minimizedAffinity>  (168) 
-9.53373

$$$$
cs_full_output_folder/data/smiles/1610.pdb
     RDKit          3D

 28 31  0  0  0  0  0  0  0  0999 V2000
   71.4570   47.0923   58.8424 C   0  0  0  0  0  0  0  0  0  0  0  0
   70.6528   47.8695   58.0495 C   0  0  0  0  0  0  0  0  0  0  0  0
   69.7727   47.3050   57.1328 C   0  0  0  0  0  0  0  0  0  0  0  0
   69.7087   45.9629   57.0226 C   0  0  0  0  0  0  0  0  0  0  0  0
   70.5107   45.1612   57.8117 C   0  0  0  0  0  0  0  0  0  0  0  0
   71.3802   45.7164   58.7168 C   0  0  0  0  0  0  0  0  0  0  0  0
   72.1708   44.9391   59.4971 F   0  0  0  0  0  0  0  0  0  0  0  0
   72.0578   47.7556   61.0303 O   0  0  0  0  0  0  0  0  0  0  0  0
   72.3902   47.6824   59.8195 C   0  0  0  0  0  0  0  0  0  0  0  0
   73.6688   48.1776   59.4392 N   0  0  0  0  0  0  0  0  0  0  0  0
   74.0217   48.0768   58.0394 C   0  0  0  0  0  0  0  0  0  0  0  0
   74.5445   49.4471   57.6612 C   0  0  0  0  0  0  0  0  0  0  0  0
   75.8889   49.5514   58.3960 C   0  0  0  0  0  0  0  0  0  0  0  0
   76.5462   50.6864   57.9602 O   0  0  0  0  0  0  0  0  0  0  0  0
   75.7114   49.4986   59.8790 C   0  0  0  0  0  0  0  0  0  0  0  0
   74.5625   48.7444   60.3832 C   0  0  0  0  0  0  0  0  0  0  0  0
   68.9128   48.1963   56.3323 C   0  0  0  0  0  0  0  0  0  0  0  0
   69.2853   48.3094   54.9142 C   0  0  0  0  0  0  0  0  0  0  0  0
   70.1930   49.2608   54.5376 N   0  0  0  0  0  0  0  0  0  0  0  0
   70.6238   49.4288   53.3172 N   0  0  0  0  0  0  0  0  0  0  0  0
   70.1916   48.6543   52.3163 C   0  0  0  0  0  0  0  0  0  0  0  0
   70.5967   48.7992   51.1258 O   0  0  0  0  0  0  0  0  0  0  0  0
   69.2618   47.6569   52.6112 C   0  0  0  0  0  0  0  0  0  0  0  0
   68.8009   46.8642   51.5952 C   0  0  0  0  0  0  0  0  0  0  0  0
   67.8751   45.8881   51.8810 C   0  0  0  0  0  0  0  0  0  0  0  0
   67.4172   45.7103   53.1576 C   0  0  0  0  0  0  0  0  0  0  0  0
   67.9010   46.5269   54.1655 C   0  0  0  0  0  0  0  0  0  0  0  0
   68.8227   47.5015   53.9113 C   0  0  0  0  0  0  0  0  0  0  0  0
  8  9  2  0
  9  1  1  0
  9 10  1  0
  1  2  2  0
  1  6  1  0
  2  3  1  0
  3 17  1  0
  3  4  2  0
 17 18  1  0
 18 19  2  0
 18 28  1  0
 19 20  1  0
 20 21  1  0
 21 22  2  0
 21 23  1  0
 23 24  1  0
 23 28  2  0
 24 25  2  0
 25 26  1  0
 26 27  2  0
 27 28  1  0
  4  5  1  0
  5  6  2  0
  6  7  1  0
 10 11  1  0
 10 16  1  0
 11 12  1  0
 12 13  1  0
 13 14  1  0
 13 15  1  0
 15 16  1  0
M  END
>  <minimizedAffinity>  (169) 
-9.53093

$$$$
cs_full_output_folder/data/smiles/5409.pdb
     RDKit          3D

 29 33  0  0  0  0  0  0  0  0999 V2000
   70.8124   46.1674   58.4037 C   0  0  0  0  0  0  0  0  0  0  0  0
   69.9011   46.8309   57.5604 C   0  0  0  0  0  0  0  0  0  0  0  0
   70.0782   48.0990   57.1087 C   0  0  0  0  0  0  0  0  0  0  0  0
   71.2384   48.7782   57.5134 C   0  0  0  0  0  0  0  0  0  0  0  0
   72.1363   48.1620   58.3278 C   0  0  0  0  0  0  0  0  0  0  0  0
   71.9290   46.8741   58.7693 C   0  0  0  0  0  0  0  0  0  0  0  0
   72.8396   46.2802   59.5828 F   0  0  0  0  0  0  0  0  0  0  0  0
   70.8765   44.4858   60.0049 O   0  0  0  0  0  0  0  0  0  0  0  0
   70.5603   44.8178   58.8513 C   0  0  0  0  0  0  0  0  0  0  0  0
   69.9583   43.8685   57.9956 N   0  0  0  0  0  0  0  0  0  0  0  0
   69.6243   42.4955   58.2371 C   0  0  0  0  0  0  0  0  0  0  0  0
   68.4349   42.2639   57.3893 C   0  0  0  0  0  0  0  0  0  0  0  0
   67.3203   41.4735   57.1308 C   0  0  0  0  0  0  0  0  0  0  0  0
   66.7119   41.9849   56.0992 O   0  0  0  0  0  0  0  0  0  0  0  0
   67.3416   43.0322   55.6792 N   0  0  0  0  0  0  0  0  0  0  0  0
   68.4122   43.2596   56.4299 C   0  0  0  0  0  0  0  0  0  0  0  0
   69.5704   44.1527   56.6335 C   0  0  0  0  0  0  0  0  0  0  0  0
   69.1896   48.8722   56.2263 C   0  0  0  0  0  0  0  0  0  0  0  0
   69.4609   48.7871   54.7986 C   0  0  0  0  0  0  0  0  0  0  0  0
   70.2838   49.6971   54.2519 N   0  0  0  0  0  0  0  0  0  0  0  0
   70.6376   49.7086   52.9982 N   0  0  0  0  0  0  0  0  0  0  0  0
   70.1546   48.7483   52.1790 C   0  0  0  0  0  0  0  0  0  0  0  0
   70.4832   48.7380   50.9584 O   0  0  0  0  0  0  0  0  0  0  0  0
   69.3078   47.7816   52.6519 C   0  0  0  0  0  0  0  0  0  0  0  0
   68.7975   46.8032   51.8200 C   0  0  0  0  0  0  0  0  0  0  0  0
   67.9402   45.8455   52.2931 C   0  0  0  0  0  0  0  0  0  0  0  0
   67.5925   45.8721   53.6153 C   0  0  0  0  0  0  0  0  0  0  0  0
   68.0942   46.8362   54.4427 C   0  0  0  0  0  0  0  0  0  0  0  0
   68.9545   47.8055   53.9985 C   0  0  0  0  0  0  0  0  0  0  0  0
  8  9  2  0
  9  1  1  0
  9 10  1  0
  1  2  2  0
  1  6  1  0
  2  3  1  0
  3 18  1  0
  3  4  2  0
 18 19  1  0
 19 20  2  0
 19 29  1  0
 20 21  1  0
 21 22  1  0
 22 23  2  0
 22 24  1  0
 24 25  1  0
 24 29  2  0
 25 26  2  0
 26 27  1  0
 27 28  2  0
 28 29  1  0
  4  5  1  0
  5  6  2  0
  6  7  1  0
 10 11  1  0
 10 17  1  0
 11 12  1  0
 12 13  2  0
 12 16  1  0
 13 14  1  0
 14 15  1  0
 15 16  2  0
 16 17  1  0
M  END
>  <minimizedAffinity>  (170) 
-9.52926

$$$$
cs_full_output_folder/data/smiles/9236.pdb
     RDKit          3D

 29 33  0  0  0  0  0  0  0  0999 V2000
   71.4809   47.0418   58.7254 C   0  0  0  0  0  0  0  0  0  0  0  0
   70.6561   47.8120   57.9485 C   0  0  0  0  0  0  0  0  0  0  0  0
   69.7262   47.2392   57.0784 C   0  0  0  0  0  0  0  0  0  0  0  0
   69.6455   45.8849   57.0076 C   0  0  0  0  0  0  0  0  0  0  0  0
   70.4526   45.0861   57.7670 C   0  0  0  0  0  0  0  0  0  0  0  0
   71.3665   45.6616   58.6227 C   0  0  0  0  0  0  0  0  0  0  0  0
   72.1845   44.8885   59.3925 F   0  0  0  0  0  0  0  0  0  0  0  0
   72.0680   47.9047   60.8073 O   0  0  0  0  0  0  0  0  0  0  0  0
   72.4711   47.6190   59.6533 C   0  0  0  0  0  0  0  0  0  0  0  0
   73.8055   47.8514   59.3009 N   0  0  0  0  0  0  0  0  0  0  0  0
   74.4503   47.5915   58.0408 C   0  0  0  0  0  0  0  0  0  0  0  0
   75.4023   48.7257   57.9517 C   0  0  0  0  0  0  0  0  0  0  0  0
   75.6173   49.1993   59.1690 C   0  0  0  0  0  0  0  0  0  0  0  0
   76.5711   50.3316   59.0571 C   0  0  0  0  0  0  0  0  0  0  0  0
   76.8501   50.4189   57.6288 N   0  0  0  0  0  0  0  0  0  0  0  0
   76.1864   49.5099   57.0098 C   0  0  0  0  0  0  0  0  0  0  0  0
   74.8244   48.4106   60.1458 C   0  0  0  0  0  0  0  0  0  0  0  0
   68.8627   48.1911   56.3013 C   0  0  0  0  0  0  0  0  0  0  0  0
   69.2673   48.3284   54.8921 C   0  0  0  0  0  0  0  0  0  0  0  0
   70.1895   49.2842   54.5321 N   0  0  0  0  0  0  0  0  0  0  0  0
   70.6132   49.4140   53.2879 N   0  0  0  0  0  0  0  0  0  0  0  0
   70.1805   48.6323   52.2918 C   0  0  0  0  0  0  0  0  0  0  0  0
   70.6162   48.7976   51.1312 O   0  0  0  0  0  0  0  0  0  0  0  0
   69.2520   47.6439   52.5556 C   0  0  0  0  0  0  0  0  0  0  0  0
   68.7677   46.8223   51.5583 C   0  0  0  0  0  0  0  0  0  0  0  0
   67.8321   45.8462   51.8185 C   0  0  0  0  0  0  0  0  0  0  0  0
   67.3946   45.7203   53.1189 C   0  0  0  0  0  0  0  0  0  0  0  0
   67.8790   46.5460   54.1313 C   0  0  0  0  0  0  0  0  0  0  0  0
   68.8176   47.5256   53.8803 C   0  0  0  0  0  0  0  0  0  0  0  0
  8  9  2  0
  9  1  1  0
  9 10  1  0
  1  2  2  0
  1  6  1  0
  2  3  1  0
  3 18  1  0
  3  4  2  0
 18 19  1  0
 19 20  2  0
 19 29  1  0
 20 21  1  0
 21 22  1  0
 22 23  2  0
 22 24  1  0
 24 25  1  0
 24 29  2  0
 25 26  2  0
 26 27  1  0
 27 28  2  0
 28 29  1  0
  4  5  1  0
  5  6  2  0
  6  7  1  0
 10 11  1  0
 10 17  1  0
 11 12  1  0
 12 13  2  0
 12 16  1  0
 13 14  1  0
 13 17  1  0
 14 15  1  0
 15 16  2  0
M  END
>  <minimizedAffinity>  (171) 
-9.52926

$$$$
cs_full_output_folder/data/smiles/54.pdb
     RDKit          3D

 26 28  0  0  0  0  0  0  0  0999 V2000
   69.9928   39.5040   58.7345 C   0  0  0  0  0  0  0  0  0  0  0  0
   70.5567   40.7702   58.7236 C   0  0  0  0  0  0  0  0  0  0  0  0
   70.0276   41.8086   57.9814 C   0  0  0  0  0  0  0  0  0  0  0  0
   68.8991   41.6066   57.2181 C   0  0  0  0  0  0  0  0  0  0  0  0
   68.3212   40.3545   57.2162 C   0  0  0  0  0  0  0  0  0  0  0  0
   68.8620   39.3073   57.9673 C   0  0  0  0  0  0  0  0  0  0  0  0
   67.1950   40.4472   56.3538 N   0  0  0  0  0  0  0  0  0  0  0  0
   67.0625   41.7510   55.8163 C   0  0  0  0  0  0  0  0  0  0  0  0
   66.1974   42.2072   55.0246 O   0  0  0  0  0  0  0  0  0  0  0  0
   68.1522   42.5245   56.3581 C   0  0  0  0  0  0  0  0  0  0  0  0
   68.3816   43.7671   56.1071 N   0  0  0  0  0  0  0  0  0  0  0  0
   71.4611   37.5240   58.6637 C   0  0  0  0  0  0  0  0  0  0  0  0
   70.6059   38.4207   59.5531 C   0  0  0  0  0  0  0  0  0  0  0  0
   69.5703   37.5685   60.2408 C   0  0  0  0  0  0  0  0  0  0  0  0
   71.5165   38.9856   60.6232 C   0  0  0  0  0  0  0  0  0  0  0  0
   67.5844   44.5396   55.2578 N   0  0  0  0  0  0  0  0  0  0  0  0
   68.1644   45.7162   54.6977 C   0  0  0  0  0  0  0  0  0  0  0  0
   68.7361   46.6986   55.4787 C   0  0  0  0  0  0  0  0  0  0  0  0
   69.2913   47.8276   54.9186 C   0  0  0  0  0  0  0  0  0  0  0  0
   69.3107   48.0441   53.5574 C   0  0  0  0  0  0  0  0  0  0  0  0
   68.7417   47.0708   52.7644 C   0  0  0  0  0  0  0  0  0  0  0  0
   68.1852   45.9397   53.3249 C   0  0  0  0  0  0  0  0  0  0  0  0
   70.0285   49.4990   52.8761 S   0  0  0  0  0  0  0  0  0  0  0  0
   69.9193   49.3970   51.1373 N   0  0  0  0  0  0  0  0  0  0  0  0
   69.3649   50.7351   53.3636 O   0  0  0  0  0  0  0  0  0  0  0  0
   71.4827   49.5119   53.2254 O   0  0  0  0  0  0  0  0  0  0  0  0
 12 13  1  0
 13 14  1  0
 13 15  1  0
 13  1  1  0
  1  2  2  0
  1  6  1  0
  2  3  1  0
  3  4  2  0
  4  5  1  0
  4 10  1  0
  5  6  2  0
  5  7  1  0
  7  8  1  0
  8  9  2  0
  8 10  1  0
 10 11  2  0
 11 16  1  0
 16 17  1  0
 17 18  2  0
 17 22  1  0
 18 19  1  0
 19 20  2  0
 20 23  1  0
 20 21  1  0
 23 24  1  0
 23 25  2  0
 23 26  2  0
 21 22  2  0
M  END
>  <minimizedAffinity>  (172) 
-9.52607

$$$$
cs_full_output_folder/data/smiles/542.pdb
     RDKit          3D

 28 31  0  0  0  0  0  0  0  0999 V2000
   71.5620   47.4174   58.9363 C   0  0  0  0  0  0  0  0  0  0  0  0
   70.6796   48.1413   58.1185 C   0  0  0  0  0  0  0  0  0  0  0  0
   69.8525   47.5498   57.2111 C   0  0  0  0  0  0  0  0  0  0  0  0
   69.9557   46.1401   57.1600 C   0  0  0  0  0  0  0  0  0  0  0  0
   70.7948   45.4143   57.9346 C   0  0  0  0  0  0  0  0  0  0  0  0
   71.6121   46.0299   58.8339 C   0  0  0  0  0  0  0  0  0  0  0  0
   72.4760   45.3525   59.6386 F   0  0  0  0  0  0  0  0  0  0  0  0
   76.6632   50.4142   57.8297 O   0  0  0  0  0  0  0  0  0  0  0  0
   75.7960   49.7673   58.3884 C   0  0  0  0  0  0  0  0  0  0  0  0
   75.6289   49.7764   59.8516 C   0  0  0  0  0  0  0  0  0  0  0  0
   74.1848   49.8435   60.2721 C   0  0  0  0  0  0  0  0  0  0  0  0
   73.3260   49.0910   59.3774 N   0  0  0  0  0  0  0  0  0  0  0  0
   72.4069   48.1406   59.8693 C   0  0  0  0  0  0  0  0  0  0  0  0
   72.2909   47.8956   61.0898 O   0  0  0  0  0  0  0  0  0  0  0  0
   73.4513   49.3450   57.9570 C   0  0  0  0  0  0  0  0  0  0  0  0
   74.8785   48.9429   57.5682 C   0  0  0  0  0  0  0  0  0  0  0  0
   68.8902   48.2366   56.3168 C   0  0  0  0  0  0  0  0  0  0  0  0
   69.3032   48.3079   54.8998 C   0  0  0  0  0  0  0  0  0  0  0  0
   70.1924   49.2601   54.5101 N   0  0  0  0  0  0  0  0  0  0  0  0
   70.5946   49.4568   53.2853 N   0  0  0  0  0  0  0  0  0  0  0  0
   70.1187   48.6809   52.3132 C   0  0  0  0  0  0  0  0  0  0  0  0
   70.4924   48.8495   51.1076 O   0  0  0  0  0  0  0  0  0  0  0  0
   69.2113   47.6815   52.6037 C   0  0  0  0  0  0  0  0  0  0  0  0
   68.7458   46.8709   51.5676 C   0  0  0  0  0  0  0  0  0  0  0  0
   67.8636   45.8678   51.8528 C   0  0  0  0  0  0  0  0  0  0  0  0
   67.4570   45.6889   53.1842 C   0  0  0  0  0  0  0  0  0  0  0  0
   67.9345   46.5033   54.1834 C   0  0  0  0  0  0  0  0  0  0  0  0
   68.8105   47.5030   53.9021 C   0  0  0  0  0  0  0  0  0  0  0  0
  8  9  2  0
  9 10  1  0
  9 16  1  0
 10 11  1  0
 11 12  1  0
 12 13  1  0
 12 15  1  0
 13 14  2  0
 13  1  1  0
  1  2  2  0
  1  6  1  0
  2  3  1  0
  3 17  1  0
  3  4  2  0
 17 18  1  0
 18 19  2  0
 18 28  1  0
 19 20  1  0
 20 21  1  0
 21 22  2  0
 21 23  1  0
 23 24  1  0
 23 28  2  0
 24 25  2  0
 25 26  1  0
 26 27  2  0
 27 28  1  0
  4  5  1  0
  5  6  2  0
  6  7  1  0
 15 16  1  0
M  END
>  <minimizedAffinity>  (173) 
-9.52241

$$$$
cs_full_output_folder/data/smiles/1203.pdb
     RDKit          3D

 25 26  0  0  0  0  0  0  0  0999 V2000
   70.0543   49.1428   52.5323 S   0  0  0  0  0  0  0  0  0  0  0  0
   71.4765   49.1690   53.0555 O   0  0  0  0  0  0  0  0  0  0  0  0
   70.1620   49.0158   51.0377 O   0  0  0  0  0  0  0  0  0  0  0  0
   69.2493   47.7466   53.1792 C   0  0  0  0  0  0  0  0  0  0  0  0
   69.2818   47.5547   54.5615 C   0  0  0  0  0  0  0  0  0  0  0  0
   69.9184   48.4139   55.3920 F   0  0  0  0  0  0  0  0  0  0  0  0
   68.6548   46.4632   55.1156 C   0  0  0  0  0  0  0  0  0  0  0  0
   68.0097   45.5935   54.2628 C   0  0  0  0  0  0  0  0  0  0  0  0
   67.3973   44.5267   54.8130 F   0  0  0  0  0  0  0  0  0  0  0  0
   67.9753   45.7804   52.9003 C   0  0  0  0  0  0  0  0  0  0  0  0
   67.3266   44.9016   52.0740 F   0  0  0  0  0  0  0  0  0  0  0  0
   68.6062   46.8805   52.3242 C   0  0  0  0  0  0  0  0  0  0  0  0
   68.5540   47.0422   50.9818 F   0  0  0  0  0  0  0  0  0  0  0  0
   69.2507   50.6216   52.8939 N   0  0  0  0  0  0  0  0  0  0  0  0
   71.4579   52.4255   55.3131 C   0  0  0  0  0  0  0  0  0  0  0  0
   71.0025   51.6052   54.3033 C   0  0  0  0  0  0  0  0  0  0  0  0
   69.6735   51.4884   53.9529 C   0  0  0  0  0  0  0  0  0  0  0  0
   68.7201   52.2168   54.6281 C   0  0  0  0  0  0  0  0  0  0  0  0
   69.1464   53.0445   55.6428 C   0  0  0  0  0  0  0  0  0  0  0  0
   70.4902   53.1480   55.9793 C   0  0  0  0  0  0  0  0  0  0  0  0
   70.9266   53.9866   57.0083 O   0  0  0  0  0  0  0  0  0  0  0  0
   75.1906   52.8792   55.0650 N   0  0  0  0  0  0  0  0  0  0  0  0
   73.8359   52.7593   54.6890 C   0  0  0  0  0  0  0  0  0  0  0  0
   73.4454   52.8278   53.4980 O   0  0  0  0  0  0  0  0  0  0  0  0
   72.8244   52.5477   55.6766 N   0  0  0  0  0  0  0  0  0  0  0  0
 22 23  1  0
 23 24  2  0
 23 25  1  0
 25 15  1  0
 15 16  2  0
 15 20  1  0
 16 17  1  0
 17 14  1  0
 17 18  2  0
 14  1  1  0
  1  2  2  0
  1  3  2  0
  1  4  1  0
  4  5  2  0
  4 12  1  0
  5  6  1  0
  5  7  1  0
  7  8  2  0
  8  9  1  0
  8 10  1  0
 10 11  1  0
 10 12  2  0
 12 13  1  0
 18 19  1  0
 19 20  2  0
 20 21  1  0
M  END
>  <minimizedAffinity>  (174) 
-9.52175

$$$$
cs_full_output_folder/data/smiles/1274.pdb
     RDKit          3D

 29 32  0  0  0  0  0  0  0  0999 V2000
   71.5509   47.0204   58.9289 C   0  0  0  0  0  0  0  0  0  0  0  0
   70.7665   47.8606   58.1695 C   0  0  0  0  0  0  0  0  0  0  0  0
   69.8637   47.4495   57.2334 C   0  0  0  0  0  0  0  0  0  0  0  0
   69.7653   46.0582   57.0709 C   0  0  0  0  0  0  0  0  0  0  0  0
   70.5386   45.1968   57.8181 C   0  0  0  0  0  0  0  0  0  0  0  0
   71.4249   45.6632   58.7399 C   0  0  0  0  0  0  0  0  0  0  0  0
   72.2091   44.8299   59.4968 F   0  0  0  0  0  0  0  0  0  0  0  0
   73.8551   51.2979   58.7200 C   0  0  0  0  0  0  0  0  0  0  0  0
   74.9499   50.5555   59.4451 C   0  0  1  0  0  0  0  0  0  0  0  0
   74.4396   49.9342   60.7197 C   0  0  0  0  0  0  0  0  0  0  0  0
   74.6164   48.4334   60.6850 C   0  0  0  0  0  0  0  0  0  0  0  0
   73.8224   47.9261   59.5919 N   0  0  0  0  0  0  0  0  0  0  0  0
   72.5021   47.5606   59.9227 C   0  0  0  0  0  0  0  0  0  0  0  0
   72.0929   47.6872   61.0927 O   0  0  0  0  0  0  0  0  0  0  0  0
   74.1993   47.7440   58.2115 C   0  0  0  0  0  0  0  0  0  0  0  0
   75.0018   48.8965   57.6697 C   0  0  0  0  0  0  0  0  0  0  0  0
   75.6767   49.6274   58.6845 N   0  0  0  0  0  0  0  0  0  0  0  0
   68.9857   48.2605   56.3968 C   0  0  0  0  0  0  0  0  0  0  0  0
   69.3902   48.3487   54.9663 C   0  0  0  0  0  0  0  0  0  0  0  0
   70.3464   49.2480   54.5865 N   0  0  0  0  0  0  0  0  0  0  0  0
   70.7618   49.3345   53.3408 N   0  0  0  0  0  0  0  0  0  0  0  0
   70.2767   48.5473   52.3607 C   0  0  0  0  0  0  0  0  0  0  0  0
   70.7364   48.7028   51.2037 O   0  0  0  0  0  0  0  0  0  0  0  0
   69.3091   47.6138   52.6592 C   0  0  0  0  0  0  0  0  0  0  0  0
   68.8179   46.8275   51.6449 C   0  0  0  0  0  0  0  0  0  0  0  0
   67.8326   45.8998   51.9610 C   0  0  0  0  0  0  0  0  0  0  0  0
   67.3776   45.7950   53.2710 C   0  0  0  0  0  0  0  0  0  0  0  0
   67.9086   46.6110   54.2451 C   0  0  0  0  0  0  0  0  0  0  0  0
   68.8877   47.5418   53.9737 C   0  0  0  0  0  0  0  0  0  0  0  0
  9  8  1  6
  9 10  1  0
  9 17  1  0
 10 11  1  0
 11 12  1  0
 12 13  1  0
 12 15  1  0
 13 14  2  0
 13  1  1  0
  1  2  2  0
  1  6  1  0
  2  3  1  0
  3 18  1  0
  3  4  2  0
 18 19  1  0
 19 20  2  0
 19 29  1  0
 20 21  1  0
 21 22  1  0
 22 23  2  0
 22 24  1  0
 24 25  1  0
 24 29  2  0
 25 26  2  0
 26 27  1  0
 27 28  2  0
 28 29  1  0
  4  5  1  0
  5  6  2  0
  6  7  1  0
 15 16  1  0
 16 17  1  0
M  CHG  1  17   1
M  END
>  <minimizedAffinity>  (175) 
-9.51567

$$$$
cs_full_output_folder/data/smiles/6995.pdb
     RDKit          3D

 28 31  0  0  0  0  0  0  0  0999 V2000
   71.1783   45.9719   58.4391 C   0  0  0  0  0  0  0  0  0  0  0  0
   70.2710   46.4766   57.5158 C   0  0  0  0  0  0  0  0  0  0  0  0
   69.9682   47.7961   57.3954 C   0  0  0  0  0  0  0  0  0  0  0  0
   70.6304   48.6650   58.2706 C   0  0  0  0  0  0  0  0  0  0  0  0
   71.5392   48.2125   59.2025 C   0  0  0  0  0  0  0  0  0  0  0  0
   71.8051   46.8627   59.2785 C   0  0  0  0  0  0  0  0  0  0  0  0
   72.6887   46.3696   60.1764 F   0  0  0  0  0  0  0  0  0  0  0  0
   70.3304   41.5576   60.2100 C   0  0  0  0  0  0  0  0  0  0  0  0
   70.7871   42.2624   59.2114 C   0  0  0  0  0  0  0  0  0  0  0  0
   71.5973   41.6929   58.1008 C   0  0  0  0  0  0  0  0  0  0  0  0
   72.8590   42.5184   57.9748 C   0  0  0  0  0  0  0  0  0  0  0  0
   72.6118   43.9642   57.9830 C   0  0  0  0  0  0  0  0  0  0  0  0
   73.5145   44.7418   57.4766 N   0  0  0  0  0  0  0  0  0  0  0  0
   71.4429   44.5764   58.5133 N   0  0  0  0  0  0  0  0  0  0  0  0
   70.5075   43.6921   59.1453 C   0  0  0  0  0  0  0  0  0  0  0  0
   69.4579   44.1807   59.6311 O   0  0  0  0  0  0  0  0  0  0  0  0
   69.0133   48.4179   56.4527 C   0  0  0  0  0  0  0  0  0  0  0  0
   69.4191   48.3886   55.0537 C   0  0  0  0  0  0  0  0  0  0  0  0
   70.3670   49.2807   54.6309 N   0  0  0  0  0  0  0  0  0  0  0  0
   70.7771   49.3631   53.3842 N   0  0  0  0  0  0  0  0  0  0  0  0
   70.3067   48.5810   52.4059 C   0  0  0  0  0  0  0  0  0  0  0  0
   70.7080   48.6683   51.2039 O   0  0  0  0  0  0  0  0  0  0  0  0
   69.3464   47.6540   52.7530 C   0  0  0  0  0  0  0  0  0  0  0  0
   68.8471   46.8235   51.7700 C   0  0  0  0  0  0  0  0  0  0  0  0
   67.8966   45.8793   52.0910 C   0  0  0  0  0  0  0  0  0  0  0  0
   67.4890   45.8142   53.3917 C   0  0  0  0  0  0  0  0  0  0  0  0
   67.9850   46.6440   54.3827 C   0  0  0  0  0  0  0  0  0  0  0  0
   68.9230   47.5765   54.0663 C   0  0  0  0  0  0  0  0  0  0  0  0
  8  9  2  0
  9 10  1  0
  9 15  1  0
 10 11  1  0
 11 12  1  0
 12 13  2  0
 12 14  1  0
 14  1  1  0
 14 15  1  0
  1  2  2  0
  1  6  1  0
  2  3  1  0
  3 17  1  0
  3  4  2  0
 17 18  1  0
 18 19  2  0
 18 28  1  0
 19 20  1  0
 20 21  1  0
 21 22  2  0
 21 23  1  0
 23 24  1  0
 23 28  2  0
 24 25  2  0
 25 26  1  0
 26 27  2  0
 27 28  1  0
  4  5  1  0
  5  6  2  0
  6  7  1  0
 15 16  2  0
M  CHG  1  13   1
M  END
>  <minimizedAffinity>  (176) 
-9.51370

$$$$
cs_full_output_folder/data/smiles/2422.pdb
     RDKit          3D

 27 29  0  0  0  0  0  0  0  0999 V2000
   69.1412   47.8061   52.8136 C   0  0  0  0  0  0  0  0  0  0  0  0
   68.5546   46.9133   51.9580 C   0  0  0  0  0  0  0  0  0  0  0  0
   67.9217   45.7517   52.4199 C   0  0  0  0  0  0  0  0  0  0  0  0
   67.9056   45.5285   53.7805 C   0  0  0  0  0  0  0  0  0  0  0  0
   68.4914   46.4179   54.6561 C   0  0  0  0  0  0  0  0  0  0  0  0
   69.1027   47.5483   54.1605 C   0  0  0  0  0  0  0  0  0  0  0  0
   69.7856   49.0101   52.3156 C   0  0  0  0  0  0  0  0  0  0  0  0
   72.2681   52.1386   53.6771 O   0  0  0  0  0  0  0  0  0  0  0  0
   72.8182   51.5731   54.7499 C   0  0  0  0  0  0  0  0  0  0  0  0
   73.5551   52.5094   55.5740 C   0  0  0  0  0  0  0  0  0  0  0  0
   72.6116   53.5416   56.2239 C   0  0  0  0  0  0  0  0  0  0  0  0
   71.3067   53.6379   55.4618 C   0  0  0  0  0  0  0  0  0  0  0  0
   70.5201   52.3361   55.6527 C   0  0  0  0  0  0  0  0  0  0  0  0
   69.5376   52.0444   54.6090 C   0  0  0  0  0  0  0  0  0  0  0  0
   69.3189   50.6511   54.1449 C   0  0  0  0  0  0  0  0  0  0  0  0
   70.3385   49.8866   53.4691 C   0  0  0  0  0  0  0  0  0  0  0  0
   71.5473   49.7380   53.6895 N   0  0  0  0  0  0  0  0  0  0  0  0
   72.4349   50.2355   54.6764 N   0  0  0  0  0  0  0  0  0  0  0  0
   68.4638   46.1670   56.0773 N   0  0  0  0  0  0  0  0  0  0  0  0
   69.2048   47.2110   57.2012 S   0  0  0  0  0  0  0  0  0  0  0  0
   70.5595   47.6596   56.7315 O   0  0  0  0  0  0  0  0  0  0  0  0
   69.4326   46.5357   58.5369 O   0  0  0  0  0  0  0  0  0  0  0  0
   68.2616   48.6535   57.4941 C   0  0  0  0  0  0  0  0  0  0  0  0
   66.9175   48.7656   57.7573 C   0  0  0  0  0  0  0  0  0  0  0  0
   66.6416   50.1044   57.9165 C   0  0  0  0  0  0  0  0  0  0  0  0
   67.8306   50.7684   57.7442 C   0  0  0  0  0  0  0  0  0  0  0  0
   68.7388   49.8719   57.5008 O   0  0  0  0  0  0  0  0  0  0  0  0
  8  9  2  0
  9 10  1  0
  9 18  1  0
 10 11  1  0
 11 12  1  0
 12 13  1  0
 13 14  1  0
 14 15  1  0
 15 16  1  0
 16  7  1  0
 16 17  2  0
  7  1  1  0
  1  2  2  0
  1  6  1  0
  2  3  1  0
  3  4  2  0
  4  5  1  0
  5 19  1  0
  5  6  2  0
 19 20  1  0
 20 21  2  0
 20 22  2  0
 20 23  1  0
 23 24  2  0
 23 27  1  0
 24 25  1  0
 25 26  2  0
 26 27  1  0
 17 18  1  0
M  END
>  <minimizedAffinity>  (177) 
-9.51369

$$$$
cs_full_output_folder/data/smiles/4027.pdb
     RDKit          3D

 28 31  0  0  0  0  0  0  0  0999 V2000
   70.7818   49.3516   58.3857 C   0  0  0  0  0  0  0  0  0  0  0  0
   69.8849   50.3005   58.7463 C   0  0  0  0  0  0  0  0  0  0  0  0
   69.0059   50.8673   57.7989 C   0  0  0  0  0  0  0  0  0  0  0  0
   69.0632   50.4458   56.4822 C   0  0  0  0  0  0  0  0  0  0  0  0
   69.9683   49.4821   56.0989 C   0  0  0  0  0  0  0  0  0  0  0  0
   70.8024   48.9557   57.0384 C   0  0  0  0  0  0  0  0  0  0  0  0
   70.0429   49.0027   54.7179 C   0  0  0  0  0  0  0  0  0  0  0  0
   70.9375   49.5265   53.8801 N   0  0  0  0  0  0  0  0  0  0  0  0
   71.0435   49.1196   52.6398 N   0  0  0  0  0  0  0  0  0  0  0  0
   70.2377   48.1458   52.1688 C   0  0  0  0  0  0  0  0  0  0  0  0
   70.3761   47.7914   50.9756 O   0  0  0  0  0  0  0  0  0  0  0  0
   69.2957   47.5695   52.9902 C   0  0  0  0  0  0  0  0  0  0  0  0
   69.2071   48.0101   54.2745 C   0  0  0  0  0  0  0  0  0  0  0  0
   68.1906   47.3555   55.1413 C   0  0  0  0  0  0  0  0  0  0  0  0
   68.1937   45.8771   54.7990 C   0  0  0  0  0  0  0  0  0  0  0  0
   67.7414   45.6506   53.3760 C   0  0  0  0  0  0  0  0  0  0  0  0
   68.4532   46.5075   52.3889 C   0  0  0  0  0  0  0  0  0  0  0  0
   70.7638   46.6841   59.4293 O   0  0  0  0  0  0  0  0  0  0  0  0
   71.6831   47.4679   59.8280 C   0  0  0  0  0  0  0  0  0  0  0  0
   71.6762   48.7654   59.3127 N   0  0  0  0  0  0  0  0  0  0  0  0
   72.6134   46.8992   60.7692 C   0  0  0  0  0  0  0  0  0  0  0  0
   72.6832   45.5093   60.9274 C   0  0  0  0  0  0  0  0  0  0  0  0
   73.5313   44.8970   61.8209 C   0  0  0  0  0  0  0  0  0  0  0  0
   74.3600   45.6449   62.6086 C   0  0  0  0  0  0  0  0  0  0  0  0
   75.2205   45.0896   63.5100 F   0  0  0  0  0  0  0  0  0  0  0  0
   74.3213   47.0095   62.4831 C   0  0  0  0  0  0  0  0  0  0  0  0
   73.4507   47.6151   61.5667 C   0  0  0  0  0  0  0  0  0  0  0  0
   73.4899   48.9607   61.4961 F   0  0  0  0  0  0  0  0  0  0  0  0
 18 19  2  0
 19 20  1  0
 19 21  1  0
 20  1  1  0
  1  2  2  0
  1  6  1  0
  2  3  1  0
  3  4  2  0
  4  5  1  0
  5  7  1  0
  5  6  2  0
  7  8  2  0
  7 13  1  0
  8  9  1  0
  9 10  1  0
 10 11  2  0
 10 12  1  0
 12 13  2  0
 12 17  1  0
 13 14  1  0
 14 15  1  0
 15 16  1  0
 16 17  1  0
 21 22  2  0
 21 27  1  0
 22 23  1  0
 23 24  2  0
 24 25  1  0
 24 26  1  0
 26 27  2  0
 27 28  1  0
M  END
>  <minimizedAffinity>  (178) 
-9.51155

$$$$
cs_full_output_folder/data/smiles/5002.pdb
     RDKit          3D

 28 31  0  0  0  0  0  0  0  0999 V2000
   71.4398   47.1111   58.7919 C   0  0  0  0  0  0  0  0  0  0  0  0
   70.6104   47.8688   58.0155 C   0  0  0  0  0  0  0  0  0  0  0  0
   69.7309   47.2250   57.1398 C   0  0  0  0  0  0  0  0  0  0  0  0
   69.6953   45.8597   57.0565 C   0  0  0  0  0  0  0  0  0  0  0  0
   70.5387   45.1005   57.8470 C   0  0  0  0  0  0  0  0  0  0  0  0
   71.4041   45.7344   58.7081 C   0  0  0  0  0  0  0  0  0  0  0  0
   72.2392   44.9666   59.4904 F   0  0  0  0  0  0  0  0  0  0  0  0
   73.6748   49.7349   56.2895 N   0  0  0  0  0  0  0  0  0  0  0  0
   74.4608   49.4210   57.4669 C   0  0  1  0  0  0  0  0  0  0  0  0
   74.1524   50.4792   58.5169 C   0  0  0  0  0  0  0  0  0  0  0  0
   74.8809   50.1668   59.8001 C   0  0  0  0  0  0  0  0  0  0  0  0
   74.5797   48.7674   60.2801 C   0  0  0  0  0  0  0  0  0  0  0  0
   73.6737   48.1616   59.3231 N   0  0  0  0  0  0  0  0  0  0  0  0
   72.3871   47.7307   59.7323 C   0  0  0  0  0  0  0  0  0  0  0  0
   72.0008   47.8593   60.9140 O   0  0  0  0  0  0  0  0  0  0  0  0
   74.1383   48.0278   57.9688 C   0  0  0  0  0  0  0  0  0  0  0  0
   68.8744   48.1389   56.2977 C   0  0  0  0  0  0  0  0  0  0  0  0
   69.3709   48.2402   54.9062 C   0  0  0  0  0  0  0  0  0  0  0  0
   70.3307   49.1518   54.5937 N   0  0  0  0  0  0  0  0  0  0  0  0
   70.7676   49.3161   53.3839 N   0  0  0  0  0  0  0  0  0  0  0  0
   70.2794   48.5782   52.3753 C   0  0  0  0  0  0  0  0  0  0  0  0
   70.7084   48.7438   51.2003 O   0  0  0  0  0  0  0  0  0  0  0  0
   69.3039   47.6264   52.5948 C   0  0  0  0  0  0  0  0  0  0  0  0
   68.8091   46.8556   51.5601 C   0  0  0  0  0  0  0  0  0  0  0  0
   67.8454   45.9119   51.8507 C   0  0  0  0  0  0  0  0  0  0  0  0
   67.3837   45.7320   53.1189 C   0  0  0  0  0  0  0  0  0  0  0  0
   67.8841   46.5108   54.1573 C   0  0  0  0  0  0  0  0  0  0  0  0
   68.8437   47.4615   53.9042 C   0  0  0  0  0  0  0  0  0  0  0  0
  9  8  1  6
  9 10  1  0
  9 16  1  0
 10 11  1  0
 11 12  1  0
 12 13  1  0
 13 14  1  0
 13 16  1  0
 14 15  2  0
 14  1  1  0
  1  2  2  0
  1  6  1  0
  2  3  1  0
  3 17  1  0
  3  4  2  0
 17 18  1  0
 18 19  2  0
 18 28  1  0
 19 20  1  0
 20 21  1  0
 21 22  2  0
 21 23  1  0
 23 24  1  0
 23 28  2  0
 24 25  2  0
 25 26  1  0
 26 27  2  0
 27 28  1  0
  4  5  1  0
  5  6  2  0
  6  7  1  0
M  CHG  1   8   1
M  END
>  <minimizedAffinity>  (179) 
-9.51125

$$$$
cs_full_output_folder/data/smiles/1476.pdb
     RDKit          3D

 27 29  0  0  0  0  0  0  0  0999 V2000
   70.1294   44.8699   57.9064 C   0  0  0  0  0  0  0  0  0  0  0  0
   69.8596   45.6034   58.8642 O   0  0  0  0  0  0  0  0  0  0  0  0
   69.5990   45.1617   56.6353 N   0  0  0  0  0  0  0  0  0  0  0  0
   69.1717   41.9632   58.1234 C   0  0  0  0  0  0  0  0  0  0  0  0
   70.5967   42.3823   58.1968 C   0  0  0  0  0  0  0  0  0  0  0  0
   70.9993   43.6941   58.0832 C   0  0  0  0  0  0  0  0  0  0  0  0
   72.3838   43.6476   58.1897 C   0  0  0  0  0  0  0  0  0  0  0  0
   72.7288   42.3810   58.3538 N   0  0  0  0  0  0  0  0  0  0  0  0
   71.6449   41.5703   58.3634 N   0  0  0  0  0  0  0  0  0  0  0  0
   71.6648   40.1638   58.5351 C   0  0  0  0  0  0  0  0  0  0  0  0
   70.4757   39.4544   58.3739 C   0  0  0  0  0  0  0  0  0  0  0  0
   70.3978   38.0953   58.5189 C   0  0  0  0  0  0  0  0  0  0  0  0
   71.5082   37.3492   58.8395 C   0  0  0  0  0  0  0  0  0  0  0  0
   71.3783   35.6085   59.0175 Cl  0  0  0  0  0  0  0  0  0  0  0  0
   72.7006   38.0301   59.0055 C   0  0  0  0  0  0  0  0  0  0  0  0
   72.7553   39.3965   58.8541 C   0  0  0  0  0  0  0  0  0  0  0  0
   68.7486   46.2227   56.2047 C   0  0  0  0  0  0  0  0  0  0  0  0
   68.7075   46.4291   54.7427 C   0  0  0  0  0  0  0  0  0  0  0  0
   69.3572   47.5426   54.1888 C   0  0  0  0  0  0  0  0  0  0  0  0
   69.3502   47.8677   52.8657 C   0  0  0  0  0  0  0  0  0  0  0  0
   68.6554   47.0453   51.9976 C   0  0  0  0  0  0  0  0  0  0  0  0
   67.9951   45.9342   52.4710 C   0  0  0  0  0  0  0  0  0  0  0  0
   68.0347   45.6463   53.8398 C   0  0  0  0  0  0  0  0  0  0  0  0
   67.4120   44.4973   54.2423 F   0  0  0  0  0  0  0  0  0  0  0  0
   70.0475   49.0622   52.3293 C   0  0  1  0  0  0  0  0  0  0  0  0
   71.1765   49.4661   53.1346 N   0  0  0  0  0  0  0  0  0  0  0  0
   70.4221   48.7583   51.0178 O   0  0  0  0  0  0  0  0  0  0  0  0
  4  5  1  0
  5  6  2  0
  5  9  1  0
  6  1  1  0
  6  7  1  0
  1  2  2  0
  1  3  1  0
  3 17  1  0
 17 18  1  0
 18 19  2  0
 18 23  1  0
 19 20  1  0
 20 25  1  0
 20 21  2  0
 25 26  1  1
 25 27  1  0
 21 22  1  0
 22 23  2  0
 23 24  1  0
  7  8  2  0
  8  9  1  0
  9 10  1  0
 10 11  2  0
 10 16  1  0
 11 12  1  0
 12 13  2  0
 13 14  1  0
 13 15  1  0
 15 16  2  0
M  CHG  1  26   1
M  END
>  <minimizedAffinity>  (180) 
-9.50872

$$$$
cs_full_output_folder/data/smiles/5503.pdb
     RDKit          3D

 27 30  0  0  0  0  0  0  0  0999 V2000
   69.2406   40.7664   57.7388 C   0  0  0  0  0  0  0  0  0  0  0  0
   70.0732   41.8614   57.8144 C   0  0  0  0  0  0  0  0  0  0  0  0
   69.7405   43.0685   57.2160 C   0  0  0  0  0  0  0  0  0  0  0  0
   68.5630   43.2434   56.5146 C   0  0  0  0  0  0  0  0  0  0  0  0
   67.7291   42.1365   56.4423 C   0  0  0  0  0  0  0  0  0  0  0  0
   68.0645   40.9344   57.0402 C   0  0  0  0  0  0  0  0  0  0  0  0
   72.5009   36.2788   57.9730 C   0  0  0  0  0  0  0  0  0  0  0  0
   71.3909   36.4383   58.9389 C   0  0  0  0  0  0  0  0  0  0  0  0
   71.1256   35.5329   59.8903 N   0  0  0  0  0  0  0  0  0  0  0  0
   70.0991   35.6940   60.7723 C   0  0  0  0  0  0  0  0  0  0  0  0
   69.8446   34.7089   61.7743 N   0  0  0  0  0  0  0  0  0  0  0  0
   69.3508   36.8042   60.6582 N   0  0  0  0  0  0  0  0  0  0  0  0
   69.5462   37.7604   59.7357 C   0  0  0  0  0  0  0  0  0  0  0  0
   68.9663   38.9263   59.4140 N   0  0  0  0  0  0  0  0  0  0  0  0
   69.5903   39.4948   58.3678 C   0  0  0  0  0  0  0  0  0  0  0  0
   70.5817   38.6482   58.0429 N   0  0  0  0  0  0  0  0  0  0  0  0
   70.6019   37.5651   58.8514 C   0  0  0  0  0  0  0  0  0  0  0  0
   68.2183   44.4746   55.9025 N   0  0  0  0  0  0  0  0  0  0  0  0
   68.8594   45.6766   56.2690 C   0  0  0  0  0  0  0  0  0  0  0  0
   69.7655   45.6365   57.1715 O   0  0  0  0  0  0  0  0  0  0  0  0
   68.5583   46.9903   55.6826 C   0  0  0  0  0  0  0  0  0  0  0  0
   68.5747   46.9462   54.2195 C   0  0  0  0  0  0  0  0  0  0  0  0
   67.7689   46.0572   53.5291 C   0  0  0  0  0  0  0  0  0  0  0  0
   67.7409   45.9696   52.1577 C   0  0  0  0  0  0  0  0  0  0  0  0
   68.5678   46.8225   51.4489 C   0  0  0  0  0  0  0  0  0  0  0  0
   69.3953   47.7324   52.0723 C   0  0  0  0  0  0  0  0  0  0  0  0
   69.3901   47.7839   53.4504 C   0  0  0  0  0  0  0  0  0  0  0  0
  7  8  1  0
  8  9  2  0
  8 17  1  0
  9 10  1  0
 10 11  1  0
 10 12  2  0
 12 13  1  0
 13 14  1  0
 13 17  2  0
 14 15  1  0
 15  1  1  0
 15 16  2  0
  1  2  2  0
  1  6  1  0
  2  3  1  0
  3  4  2  0
  4 18  1  0
  4  5  1  0
 18 19  1  0
 19 20  2  0
 19 21  1  0
 21 22  1  0
 22 23  2  0
 22 27  1  0
 23 24  1  0
 24 25  2  0
 25 26  1  0
 26 27  2  0
  5  6  2  0
 16 17  1  0
M  CHG  1  16   1
M  END
>  <minimizedAffinity>  (181) 
-9.50746

$$$$
cs_full_output_folder/data/smiles/2929.pdb
     RDKit          3D

 28 31  0  0  0  0  0  0  0  0999 V2000
   70.8945   46.0821   58.2350 C   0  0  0  0  0  0  0  0  0  0  0  0
   72.0108   46.8263   58.6193 C   0  0  0  0  0  0  0  0  0  0  0  0
   72.1347   48.1625   58.3020 C   0  0  0  0  0  0  0  0  0  0  0  0
   71.1288   48.7762   57.5876 C   0  0  0  0  0  0  0  0  0  0  0  0
   69.9998   48.0682   57.1861 C   0  0  0  0  0  0  0  0  0  0  0  0
   69.9205   46.7480   57.5235 C   0  0  0  0  0  0  0  0  0  0  0  0
   71.8537   43.9649   58.4260 O   0  0  0  0  0  0  0  0  0  0  0  0
   70.8102   44.6564   58.5784 C   0  0  0  0  0  0  0  0  0  0  0  0
   69.6397   44.0307   59.0642 N   0  0  0  0  0  0  0  0  0  0  0  0
   69.5259   42.6339   59.4038 C   0  0  0  0  0  0  0  0  0  0  0  0
   68.9008   41.8054   58.3471 C   0  0  0  0  0  0  0  0  0  0  0  0
   68.3574   42.2960   57.1871 C   0  0  0  0  0  0  0  0  0  0  0  0
   67.7910   41.4570   56.2417 C   0  0  0  0  0  0  0  0  0  0  0  0
   67.7838   40.1445   56.4826 N   0  0  0  0  0  0  0  0  0  0  0  0
   68.3026   39.5981   57.6066 C   0  0  0  0  0  0  0  0  0  0  0  0
   68.8638   40.4409   58.5417 C   0  0  0  0  0  0  0  0  0  0  0  0
   68.9382   48.7709   56.4187 C   0  0  0  0  0  0  0  0  0  0  0  0
   69.2446   48.8297   54.9724 C   0  0  0  0  0  0  0  0  0  0  0  0
   69.7988   49.9656   54.4472 N   0  0  0  0  0  0  0  0  0  0  0  0
   70.1362   50.0716   53.1767 N   0  0  0  0  0  0  0  0  0  0  0  0
   69.9638   49.0779   52.2909 C   0  0  0  0  0  0  0  0  0  0  0  0
   70.2855   49.1686   51.0694 O   0  0  0  0  0  0  0  0  0  0  0  0
   69.4065   47.8953   52.7476 C   0  0  0  0  0  0  0  0  0  0  0  0
   69.0542   47.7964   54.0898 C   0  0  0  0  0  0  0  0  0  0  0  0
   68.4282   46.5360   54.5109 C   0  0  0  0  0  0  0  0  0  0  0  0
   67.3804   46.1666   53.4714 C   0  0  0  0  0  0  0  0  0  0  0  0
   67.9985   45.9122   52.1440 C   0  0  0  0  0  0  0  0  0  0  0  0
   69.2010   46.7326   51.8464 C   0  0  0  0  0  0  0  0  0  0  0  0
  7  8  2  0
  8  9  1  0
  8  1  1  0
  9 10  1  0
 10 11  1  0
 11 12  2  0
 11 16  1  0
 12 13  1  0
 13 14  2  0
 14 15  1  0
 15 16  2  0
  1  2  2  0
  1  6  1  0
  2  3  1  0
  3  4  2  0
  4  5  1  0
  5 17  1  0
  5  6  2  0
 17 18  1  0
 18 19  2  0
 18 24  1  0
 19 20  1  0
 20 21  1  0
 21 22  2  0
 21 23  1  0
 23 24  2  0
 23 28  1  0
 24 25  1  0
 25 26  1  0
 26 27  1  0
 27 28  1  0
M  END
>  <minimizedAffinity>  (182) 
-9.50637

$$$$
cs_full_output_folder/data/smiles/2310.pdb
     RDKit          3D

 29 33  0  0  0  0  0  0  0  0999 V2000
   71.4586   46.8026   58.9247 C   0  0  0  0  0  0  0  0  0  0  0  0
   70.7252   47.6736   58.1502 C   0  0  0  0  0  0  0  0  0  0  0  0
   69.8609   47.2333   57.1383 C   0  0  0  0  0  0  0  0  0  0  0  0
   69.7890   45.8773   56.9672 C   0  0  0  0  0  0  0  0  0  0  0  0
   70.5312   44.9957   57.7502 C   0  0  0  0  0  0  0  0  0  0  0  0
   71.3780   45.4374   58.7412 C   0  0  0  0  0  0  0  0  0  0  0  0
   72.0985   44.5611   59.4893 F   0  0  0  0  0  0  0  0  0  0  0  0
   71.8939   47.3633   61.1555 O   0  0  0  0  0  0  0  0  0  0  0  0
   72.3441   47.2747   59.9679 C   0  0  0  0  0  0  0  0  0  0  0  0
   73.7115   47.6536   59.7586 N   0  0  0  0  0  0  0  0  0  0  0  0
   74.6463   48.1342   60.7603 C   0  0  0  0  0  0  0  0  0  0  0  0
   75.3917   49.2287   59.9919 C   0  0  0  0  0  0  0  0  0  0  0  0
   75.6924   48.4705   58.7013 C   0  0  2  0  0  0  0  0  0  0  0  0
   75.4051   49.2500   57.4594 C   0  0  2  0  0  0  0  0  0  0  0  0
   75.3929   50.6242   57.6216 O   0  0  0  0  0  0  0  0  0  0  0  0
   74.0190   48.5939   57.4606 C   0  0  0  0  0  0  0  0  0  0  0  0
   74.4440   47.6248   58.5106 C   0  0  2  0  0  0  0  0  0  0  0  0
   69.0884   48.2479   56.3665 C   0  0  0  0  0  0  0  0  0  0  0  0
   69.4450   48.3409   54.9522 C   0  0  0  0  0  0  0  0  0  0  0  0
   70.3849   49.2396   54.5966 N   0  0  0  0  0  0  0  0  0  0  0  0
   70.7858   49.3555   53.3465 N   0  0  0  0  0  0  0  0  0  0  0  0
   70.2854   48.5890   52.3534 C   0  0  0  0  0  0  0  0  0  0  0  0
   70.6886   48.7218   51.1654 O   0  0  0  0  0  0  0  0  0  0  0  0
   69.3163   47.6456   52.6487 C   0  0  0  0  0  0  0  0  0  0  0  0
   68.7696   46.8497   51.6665 C   0  0  0  0  0  0  0  0  0  0  0  0
   67.7928   45.9158   51.9535 C   0  0  0  0  0  0  0  0  0  0  0  0
   67.3869   45.8118   53.2632 C   0  0  0  0  0  0  0  0  0  0  0  0
   67.9349   46.6073   54.2372 C   0  0  0  0  0  0  0  0  0  0  0  0
   68.9084   47.5449   53.9863 C   0  0  0  0  0  0  0  0  0  0  0  0
  8  9  2  0
  9  1  1  0
  9 10  1  0
  1  2  2  0
  1  6  1  0
  2  3  1  0
  3 18  1  0
  3  4  2  0
 18 19  1  0
 19 20  2  0
 19 29  1  0
 20 21  1  0
 21 22  1  0
 22 23  2  0
 22 24  1  0
 24 25  1  0
 24 29  2  0
 25 26  2  0
 26 27  1  0
 27 28  2  0
 28 29  1  0
  4  5  1  0
  5  6  2  0
  6  7  1  0
 10 11  1  0
 10 17  1  0
 11 12  1  0
 13 12  1  1
 13 14  1  0
 13 17  1  0
 14 15  1  1
 14 16  1  0
 17 16  1  6
M  END
>  <minimizedAffinity>  (183) 
-9.50631

$$$$
cs_full_output_folder/data/smiles/5040.pdb
     RDKit          3D

 27 30  0  0  0  0  0  0  0  0999 V2000
   70.6298   46.5606   58.4920 C   0  0  0  0  0  0  0  0  0  0  0  0
   69.8359   47.0791   57.5043 C   0  0  0  0  0  0  0  0  0  0  0  0
   69.8307   48.4449   57.1854 C   0  0  0  0  0  0  0  0  0  0  0  0
   70.6740   49.2284   57.9296 C   0  0  0  0  0  0  0  0  0  0  0  0
   71.4942   48.7470   58.9366 C   0  0  0  0  0  0  0  0  0  0  0  0
   71.4535   47.3993   59.2006 C   0  0  0  0  0  0  0  0  0  0  0  0
   72.2664   46.9142   60.2008 F   0  0  0  0  0  0  0  0  0  0  0  0
   69.6641   44.5753   59.3845 O   0  0  0  0  0  0  0  0  0  0  0  0
   70.6533   45.1385   58.8370 C   0  0  0  0  0  0  0  0  0  0  0  0
   71.8297   44.4078   58.5357 N   0  0  0  0  0  0  0  0  0  0  0  0
   72.9668   45.0461   57.9083 C   0  0  0  0  0  0  0  0  0  0  0  0
   74.1800   44.1706   58.1604 C   0  0  0  0  0  0  0  0  0  0  0  0
   73.9857   42.7851   57.5653 C   0  0  0  0  0  0  0  0  0  0  0  0
   72.5806   42.2750   57.7658 C   0  0  0  0  0  0  0  0  0  0  0  0
   71.8747   43.0042   58.8677 C   0  0  0  0  0  0  0  0  0  0  0  0
   68.9537   48.9739   56.1414 C   0  0  0  0  0  0  0  0  0  0  0  0
   69.3657   48.7313   54.7593 C   0  0  0  0  0  0  0  0  0  0  0  0
   70.2905   49.5897   54.2319 N   0  0  0  0  0  0  0  0  0  0  0  0
   70.7148   49.4953   52.9864 N   0  0  0  0  0  0  0  0  0  0  0  0
   70.2721   48.5514   52.1390 C   0  0  0  0  0  0  0  0  0  0  0  0
   70.6904   48.4739   50.9397 O   0  0  0  0  0  0  0  0  0  0  0  0
   69.3473   47.6568   52.5954 C   0  0  0  0  0  0  0  0  0  0  0  0
   68.8648   46.6615   51.7789 C   0  0  0  0  0  0  0  0  0  0  0  0
   67.9374   45.7666   52.2816 C   0  0  0  0  0  0  0  0  0  0  0  0
   67.4996   45.8595   53.5665 C   0  0  0  0  0  0  0  0  0  0  0  0
   67.9876   46.8591   54.3782 C   0  0  0  0  0  0  0  0  0  0  0  0
   68.9058   47.7647   53.9173 C   0  0  0  0  0  0  0  0  0  0  0  0
  8  9  2  0
  9  1  1  0
  9 10  1  0
  1  2  2  0
  1  6  1  0
  2  3  1  0
  3 16  1  0
  3  4  2  0
 16 17  1  0
 17 18  2  0
 17 27  1  0
 18 19  1  0
 19 20  1  0
 20 21  2  0
 20 22  1  0
 22 23  1  0
 22 27  2  0
 23 24  2  0
 24 25  1  0
 25 26  2  0
 26 27  1  0
  4  5  1  0
  5  6  2  0
  6  7  1  0
 10 11  1  0
 10 15  1  0
 11 12  1  0
 12 13  1  0
 13 14  1  0
 14 15  1  0
M  END
>  <minimizedAffinity>  (184) 
-9.50547

$$$$
cs_full_output_folder/data/smiles/1322.pdb
     RDKit          3D

 29 32  0  0  0  0  0  0  0  0999 V2000
   71.3875   46.7333   58.9139 C   0  0  0  0  0  0  0  0  0  0  0  0
   70.6386   47.5949   58.1069 C   0  0  0  0  0  0  0  0  0  0  0  0
   69.7801   47.1804   57.1245 C   0  0  0  0  0  0  0  0  0  0  0  0
   69.6734   45.7904   56.9496 C   0  0  0  0  0  0  0  0  0  0  0  0
   70.3825   44.8914   57.7104 C   0  0  0  0  0  0  0  0  0  0  0  0
   71.2276   45.3852   58.6804 C   0  0  0  0  0  0  0  0  0  0  0  0
   71.9466   44.5210   59.4538 F   0  0  0  0  0  0  0  0  0  0  0  0
   76.9378   50.2245   58.9578 C   0  0  0  0  0  0  0  0  0  0  0  0
   76.4514   49.1027   59.7351 N   0  0  2  0  0  0  0  0  0  0  0  0
   76.3618   47.9594   58.8671 C   0  0  0  0  0  0  0  0  0  0  0  0
   75.2337   48.1830   57.8947 C   0  0  0  0  0  0  0  0  0  0  0  0
   73.9978   47.3739   58.2414 C   0  0  0  0  0  0  0  0  0  0  0  0
   73.6247   47.5830   59.6315 N   0  0  0  0  0  0  0  0  0  0  0  0
   72.2838   47.2450   59.9418 C   0  0  0  0  0  0  0  0  0  0  0  0
   71.8697   47.3893   61.1054 O   0  0  0  0  0  0  0  0  0  0  0  0
   74.4512   48.0883   60.7171 C   0  0  0  0  0  0  0  0  0  0  0  0
   75.1634   49.3639   60.3072 C   0  0  0  0  0  0  0  0  0  0  0  0
   68.9993   48.0967   56.2630 C   0  0  0  0  0  0  0  0  0  0  0  0
   69.3804   48.1656   54.8716 C   0  0  0  0  0  0  0  0  0  0  0  0
   70.3275   49.0819   54.5301 N   0  0  0  0  0  0  0  0  0  0  0  0
   70.7282   49.2705   53.3050 N   0  0  0  0  0  0  0  0  0  0  0  0
   70.2555   48.5872   52.2497 C   0  0  0  0  0  0  0  0  0  0  0  0
   70.6336   48.7633   51.0771 O   0  0  0  0  0  0  0  0  0  0  0  0
   69.2761   47.6283   52.5501 C   0  0  0  0  0  0  0  0  0  0  0  0
   68.7327   46.8650   51.5422 C   0  0  0  0  0  0  0  0  0  0  0  0
   67.7835   45.9117   51.7938 C   0  0  0  0  0  0  0  0  0  0  0  0
   67.3634   45.7141   53.0922 C   0  0  0  0  0  0  0  0  0  0  0  0
   67.8841   46.4574   54.1215 C   0  0  0  0  0  0  0  0  0  0  0  0
   68.8410   47.4186   53.8558 C   0  0  0  0  0  0  0  0  0  0  0  0
  9  8  1  6
  9 10  1  0
  9 17  1  0
 10 11  1  0
 11 12  1  0
 12 13  1  0
 13 14  1  0
 13 16  1  0
 14 15  2  0
 14  1  1  0
  1  2  2  0
  1  6  1  0
  2  3  1  0
  3 18  1  0
  3  4  2  0
 18 19  1  0
 19 20  2  0
 19 29  1  0
 20 21  1  0
 21 22  1  0
 22 23  2  0
 22 24  1  0
 24 25  1  0
 24 29  2  0
 25 26  2  0
 26 27  1  0
 27 28  2  0
 28 29  1  0
  4  5  1  0
  5  6  2  0
  6  7  1  0
 16 17  1  0
M  CHG  1   9   1
M  END
>  <minimizedAffinity>  (185) 
-9.50431

$$$$
cs_full_output_folder/data/smiles/5141.pdb
     RDKit          3D

 27 30  0  0  0  0  0  0  0  0999 V2000
   70.7399   46.1435   58.2972 O   0  0  0  0  0  0  0  0  0  0  0  0
   70.1484   45.3211   57.5401 C   0  0  0  0  0  0  0  0  0  0  0  0
   69.2736   45.8307   56.5632 N   0  0  0  0  0  0  0  0  0  0  0  0
   70.4355   43.9043   57.7565 C   0  0  0  0  0  0  0  0  0  0  0  0
   69.4476   42.9371   57.7513 C   0  0  0  0  0  0  0  0  0  0  0  0
   69.7185   41.5914   57.9588 C   0  0  0  0  0  0  0  0  0  0  0  0
   68.7424   40.6222   57.9582 C   0  0  0  0  0  0  0  0  0  0  0  0
   68.9740   39.2796   58.1624 C   0  0  0  0  0  0  0  0  0  0  0  0
   70.2926   38.8849   58.3849 C   0  0  0  0  0  0  0  0  0  0  0  0
   70.5754   37.5907   58.5911 F   0  0  0  0  0  0  0  0  0  0  0  0
   71.3032   39.8362   58.3931 C   0  0  0  0  0  0  0  0  0  0  0  0
   71.0133   41.1759   58.1817 C   0  0  0  0  0  0  0  0  0  0  0  0
   71.9842   42.1612   58.1827 C   0  0  0  0  0  0  0  0  0  0  0  0
   73.1690   41.7910   58.3846 O   0  0  0  0  0  0  0  0  0  0  0  0
   71.6877   43.4585   57.9773 N   0  0  0  0  0  0  0  0  0  0  0  0
   68.9927   47.2362   56.3583 C   0  0  0  0  0  0  0  0  0  0  0  0
   69.3949   47.6708   54.9915 C   0  0  0  0  0  0  0  0  0  0  0  0
   70.3061   48.6375   54.7549 N   0  0  0  0  0  0  0  0  0  0  0  0
   70.6666   49.0351   53.5538 N   0  0  0  0  0  0  0  0  0  0  0  0
   70.1440   48.4975   52.4266 C   0  0  0  0  0  0  0  0  0  0  0  0
   70.4872   48.8766   51.2855 O   0  0  0  0  0  0  0  0  0  0  0  0
   69.2051   47.5025   52.5818 C   0  0  0  0  0  0  0  0  0  0  0  0
   68.6544   46.9344   51.4392 C   0  0  0  0  0  0  0  0  0  0  0  0
   67.7137   45.9361   51.5682 C   0  0  0  0  0  0  0  0  0  0  0  0
   67.3569   45.5426   52.8353 C   0  0  0  0  0  0  0  0  0  0  0  0
   67.8993   46.1011   53.9743 C   0  0  0  0  0  0  0  0  0  0  0  0
   68.8383   47.0973   53.8520 C   0  0  0  0  0  0  0  0  0  0  0  0
  1  2  2  0
  2  3  1  0
  2  4  1  0
  3 16  1  0
 16 17  1  0
 17 18  2  0
 17 27  1  0
 18 19  1  0
 19 20  1  0
 20 21  2  0
 20 22  1  0
 22 23  1  0
 22 27  2  0
 23 24  2  0
 24 25  1  0
 25 26  2  0
 26 27  1  0
  4  5  2  0
  4 15  1  0
  5  6  1  0
  6  7  2  0
  6 12  1  0
  7  8  1  0
  8  9  2  0
  9 10  1  0
  9 11  1  0
 11 12  2  0
 12 13  1  0
 13 14  2  0
 13 15  1  0
M  END
>  <minimizedAffinity>  (186) 
-9.50299

$$$$
cs_full_output_folder/data/smiles/2977.pdb
     RDKit          3D

 30 34  0  0  0  0  0  0  0  0999 V2000
   71.1981   45.0834   58.2977 C   0  0  0  0  0  0  0  0  0  0  0  0
   72.2556   45.8812   58.7729 C   0  0  0  0  0  0  0  0  0  0  0  0
   72.2770   47.2425   58.6170 C   0  0  0  0  0  0  0  0  0  0  0  0
   71.2365   47.8627   57.9780 C   0  0  0  0  0  0  0  0  0  0  0  0
   70.1781   47.1100   57.4955 C   0  0  0  0  0  0  0  0  0  0  0  0
   70.1838   45.7499   57.6636 C   0  0  0  0  0  0  0  0  0  0  0  0
   72.8873   43.0507   57.1562 O   0  0  0  0  0  0  0  0  0  0  0  0
   72.0358   42.7048   57.9952 C   0  0  0  0  0  0  0  0  0  0  0  0
   71.2208   43.7014   58.5624 N   0  0  0  0  0  0  0  0  0  0  0  0
   71.9052   41.2886   58.3582 C   0  0  0  0  0  0  0  0  0  0  0  0
   72.8232   40.3884   58.8250 C   0  0  0  0  0  0  0  0  0  0  0  0
   72.2502   39.1956   59.0793 N   0  0  0  0  0  0  0  0  0  0  0  0
   70.9260   39.3096   58.7754 C   0  0  0  0  0  0  0  0  0  0  0  0
   69.9314   38.3678   58.8708 C   0  0  0  0  0  0  0  0  0  0  0  0
   68.6586   38.6931   58.5119 C   0  0  0  0  0  0  0  0  0  0  0  0
   68.4016   39.9868   58.0518 C   0  0  0  0  0  0  0  0  0  0  0  0
   69.4170   40.9240   57.9619 C   0  0  0  0  0  0  0  0  0  0  0  0
   70.7209   40.5983   58.3294 C   0  0  0  0  0  0  0  0  0  0  0  0
   69.0392   47.8105   56.8245 C   0  0  0  0  0  0  0  0  0  0  0  0
   68.5953   47.0532   55.6305 C   0  0  0  0  0  0  0  0  0  0  0  0
   68.0999   45.7819   55.7787 N   0  0  0  0  0  0  0  0  0  0  0  0
   67.7595   44.9918   54.7938 N   0  0  0  0  0  0  0  0  0  0  0  0
   67.9054   45.4626   53.5105 C   0  0  0  0  0  0  0  0  0  0  0  0
   67.5881   44.7279   52.5517 O   0  0  0  0  0  0  0  0  0  0  0  0
   68.3869   46.7066   53.2580 C   0  0  0  0  0  0  0  0  0  0  0  0
   68.7340   47.5118   54.3629 C   0  0  0  0  0  0  0  0  0  0  0  0
   69.1729   48.8863   54.0606 C   0  0  0  0  0  0  0  0  0  0  0  0
   70.3057   48.8009   53.0491 C   0  0  0  0  0  0  0  0  0  0  0  0
   70.0099   47.8623   51.9222 C   0  0  0  0  0  0  0  0  0  0  0  0
   68.5939   47.3163   51.9183 C   0  0  0  0  0  0  0  0  0  0  0  0
  7  8  2  0
  8  9  1  0
  8 10  1  0
  9  1  1  0
  1  2  2  0
  1  6  1  0
  2  3  1  0
  3  4  2  0
  4  5  1  0
  5 19  1  0
  5  6  2  0
 19 20  1  0
 20 21  2  0
 20 26  1  0
 21 22  1  0
 22 23  1  0
 23 24  2  0
 23 25  1  0
 25 26  2  0
 25 30  1  0
 26 27  1  0
 27 28  1  0
 28 29  1  0
 29 30  1  0
 10 11  2  0
 10 18  1  0
 11 12  1  0
 12 13  1  0
 13 14  1  0
 13 18  2  0
 14 15  2  0
 15 16  1  0
 16 17  2  0
 17 18  1  0
M  END
>  <minimizedAffinity>  (187) 
-9.50236

$$$$
cs_full_output_folder/data/smiles/2751.pdb
     RDKit          3D

 29 32  0  0  0  0  0  0  0  0999 V2000
   70.7218   45.9115   58.4629 C   0  0  0  0  0  0  0  0  0  0  0  0
   69.8556   46.5553   57.5685 C   0  0  0  0  0  0  0  0  0  0  0  0
   69.9665   47.8658   57.2268 C   0  0  0  0  0  0  0  0  0  0  0  0
   70.9951   48.6044   57.7930 C   0  0  0  0  0  0  0  0  0  0  0  0
   71.8607   47.9924   58.6748 C   0  0  0  0  0  0  0  0  0  0  0  0
   71.7461   46.6649   59.0206 C   0  0  0  0  0  0  0  0  0  0  0  0
   72.5984   46.0661   59.8899 F   0  0  0  0  0  0  0  0  0  0  0  0
   75.1357   41.8269   59.2602 C   0  0  0  0  0  0  0  0  0  0  0  0
   73.7914   42.1467   58.6837 C   0  0  0  0  0  0  0  0  0  0  0  0
   72.7007   41.7715   59.3302 C   0  0  0  0  0  0  0  0  0  0  0  0
   72.7463   41.0456   60.6036 C   0  0  0  0  0  0  0  0  0  0  0  0
   71.3952   42.1432   58.6663 C   0  0  0  0  0  0  0  0  0  0  0  0
   71.5088   43.5705   58.3555 N   0  0  0  0  0  0  0  0  0  0  0  0
   70.5608   44.5119   58.7981 C   0  0  0  0  0  0  0  0  0  0  0  0
   69.5837   44.1495   59.4780 O   0  0  0  0  0  0  0  0  0  0  0  0
   72.6460   43.9739   57.5702 C   0  0  0  0  0  0  0  0  0  0  0  0
   73.6603   42.8678   57.4134 C   0  0  0  0  0  0  0  0  0  0  0  0
   69.0251   48.5083   56.2967 C   0  0  0  0  0  0  0  0  0  0  0  0
   69.4344   48.4763   54.8768 C   0  0  0  0  0  0  0  0  0  0  0  0
   70.3447   49.3925   54.4140 N   0  0  0  0  0  0  0  0  0  0  0  0
   70.7483   49.4981   53.1906 N   0  0  0  0  0  0  0  0  0  0  0  0
   70.2470   48.6495   52.2814 C   0  0  0  0  0  0  0  0  0  0  0  0
   70.6040   48.7031   51.0587 O   0  0  0  0  0  0  0  0  0  0  0  0
   69.3156   47.6832   52.6631 C   0  0  0  0  0  0  0  0  0  0  0  0
   68.7938   46.7954   51.7656 C   0  0  0  0  0  0  0  0  0  0  0  0
   67.8846   45.8192   52.1028 C   0  0  0  0  0  0  0  0  0  0  0  0
   67.4909   45.7432   53.4016 C   0  0  0  0  0  0  0  0  0  0  0  0
   67.9995   46.6252   54.3295 C   0  0  0  0  0  0  0  0  0  0  0  0
   68.9077   47.6023   53.9920 C   0  0  0  0  0  0  0  0  0  0  0  0
  8  9  1  0
  9 10  2  0
  9 17  1  0
 10 11  1  0
 10 12  1  0
 12 13  1  0
 13 14  1  0
 13 16  1  0
 14 15  2  0
 14  1  1  0
  1  2  2  0
  1  6  1  0
  2  3  1  0
  3 18  1  0
  3  4  2  0
 18 19  1  0
 19 20  2  0
 19 29  1  0
 20 21  1  0
 21 22  1  0
 22 23  2  0
 22 24  1  0
 24 25  1  0
 24 29  2  0
 25 26  2  0
 26 27  1  0
 27 28  2  0
 28 29  1  0
  4  5  1  0
  5  6  2  0
  6  7  1  0
 16 17  1  0
M  END
>  <minimizedAffinity>  (188) 
-9.50027

$$$$
cs_full_output_folder/data/smiles/683.pdb
     RDKit          3D

 28 31  0  0  0  0  0  0  0  0999 V2000
   68.7058   46.3342   54.5087 C   0  0  0  0  0  0  0  0  0  0  0  0
   69.2276   47.4876   53.9131 C   0  0  0  0  0  0  0  0  0  0  0  0
   69.0697   47.8276   52.5907 C   0  0  0  0  0  0  0  0  0  0  0  0
   68.3433   46.9611   51.8125 C   0  0  0  0  0  0  0  0  0  0  0  0
   67.8013   45.8068   52.3406 C   0  0  0  0  0  0  0  0  0  0  0  0
   67.9846   45.4991   53.6824 C   0  0  0  0  0  0  0  0  0  0  0  0
   67.4241   44.3542   54.1928 F   0  0  0  0  0  0  0  0  0  0  0  0
   68.9532   46.0635   55.9173 C   0  0  0  0  0  0  0  0  0  0  0  0
   68.4065   45.0331   56.4093 O   0  0  0  0  0  0  0  0  0  0  0  0
   71.3954   46.5525   59.9822 O   0  0  0  0  0  0  0  0  0  0  0  0
   70.9536   47.0160   58.9245 C   0  0  0  0  0  0  0  0  0  0  0  0
   71.1810   48.4592   58.6963 C   0  0  0  0  0  0  0  0  0  0  0  0
   70.1560   49.0740   57.7791 C   0  0  0  0  0  0  0  0  0  0  0  0
   69.0856   48.0947   57.3745 C   0  0  0  0  0  0  0  0  0  0  0  0
   69.7690   46.8723   56.8098 C   0  0  1  0  0  0  0  0  0  0  0  0
   70.2577   46.0915   58.0226 C   0  0  0  0  0  0  0  0  0  0  0  0
   69.6598   49.1143   52.0596 C   0  0  0  0  0  0  0  0  0  0  0  0
   70.4377   49.8453   53.0428 C   0  0  0  0  0  0  0  0  0  0  0  0
   71.7816   49.5850   53.1019 N   0  0  0  0  0  0  0  0  0  0  0  0
   72.6007   50.2038   53.9207 N   0  0  0  0  0  0  0  0  0  0  0  0
   72.1949   51.1503   54.7765 C   0  0  0  0  0  0  0  0  0  0  0  0
   72.9497   51.7594   55.5689 O   0  0  0  0  0  0  0  0  0  0  0  0
   70.8668   51.4730   54.7845 C   0  0  0  0  0  0  0  0  0  0  0  0
   70.3473   52.4290   55.6373 C   0  0  0  0  0  0  0  0  0  0  0  0
   69.0013   52.7338   55.6386 C   0  0  0  0  0  0  0  0  0  0  0  0
   68.1625   52.0696   54.7718 C   0  0  0  0  0  0  0  0  0  0  0  0
   68.6667   51.1136   53.9163 C   0  0  0  0  0  0  0  0  0  0  0  0
   70.0045   50.8127   53.9138 C   0  0  0  0  0  0  0  0  0  0  0  0
 10 11  2  0
 11 12  1  0
 11 16  1  0
 12 13  1  0
 13 14  1  0
 14 15  1  0
 15  8  1  1
 15 16  1  0
  8  9  2  0
  8  1  1  0
  1  2  2  0
  1  6  1  0
  2  3  1  0
  3 17  1  0
  3  4  2  0
 17 18  1  0
 18 19  2  0
 18 28  1  0
 19 20  1  0
 20 21  1  0
 21 22  2  0
 21 23  1  0
 23 24  1  0
 23 28  2  0
 24 25  2  0
 25 26  1  0
 26 27  2  0
 27 28  1  0
  4  5  1  0
  5  6  2  0
  6  7  1  0
M  END
>  <minimizedAffinity>  (189) 
-9.49863

$$$$
cs_full_output_folder/data/smiles/3773.pdb
     RDKit          3D

 29 32  0  0  0  0  0  0  0  0999 V2000
   71.5236   47.0756   58.7955 C   0  0  0  0  0  0  0  0  0  0  0  0
   70.7177   47.8995   58.0418 C   0  0  0  0  0  0  0  0  0  0  0  0
   69.8133   47.3942   57.1656 C   0  0  0  0  0  0  0  0  0  0  0  0
   69.7184   46.0093   57.0448 C   0  0  0  0  0  0  0  0  0  0  0  0
   70.5095   45.1725   57.7829 C   0  0  0  0  0  0  0  0  0  0  0  0
   71.4111   45.7161   58.6583 C   0  0  0  0  0  0  0  0  0  0  0  0
   72.2082   44.8887   59.4035 F   0  0  0  0  0  0  0  0  0  0  0  0
   74.6811   48.4550   60.4695 C   0  0  0  0  0  0  0  0  0  0  0  0
   73.8402   47.9085   59.4074 N   0  0  0  0  0  0  0  0  0  0  0  0
   72.4961   47.6283   59.7517 C   0  0  0  0  0  0  0  0  0  0  0  0
   72.0421   47.8342   60.9054 O   0  0  0  0  0  0  0  0  0  0  0  0
   74.4532   47.7144   58.1340 C   0  0  0  0  0  0  0  0  0  0  0  0
   74.7987   48.9191   57.3844 C   0  0  0  0  0  0  0  0  0  0  0  0
   73.8891   49.8720   56.9766 C   0  0  0  0  0  0  0  0  0  0  0  0
   74.5502   50.8231   56.3328 N   0  0  0  0  0  0  0  0  0  0  0  0
   75.8324   50.5163   56.3141 N   0  0  0  0  0  0  0  0  0  0  0  0
   76.0300   49.3503   56.9511 C   0  0  0  0  0  0  0  0  0  0  0  0
   68.9060   48.2109   56.3375 C   0  0  0  0  0  0  0  0  0  0  0  0
   69.3268   48.3144   54.9104 C   0  0  0  0  0  0  0  0  0  0  0  0
   70.2901   49.2295   54.5645 N   0  0  0  0  0  0  0  0  0  0  0  0
   70.7440   49.3495   53.3322 N   0  0  0  0  0  0  0  0  0  0  0  0
   70.2787   48.5716   52.3449 C   0  0  0  0  0  0  0  0  0  0  0  0
   70.7258   48.7047   51.1845 O   0  0  0  0  0  0  0  0  0  0  0  0
   69.3121   47.6383   52.6341 C   0  0  0  0  0  0  0  0  0  0  0  0
   68.8117   46.8296   51.6071 C   0  0  0  0  0  0  0  0  0  0  0  0
   67.8386   45.9089   51.8937 C   0  0  0  0  0  0  0  0  0  0  0  0
   67.3722   45.7930   53.1762 C   0  0  0  0  0  0  0  0  0  0  0  0
   67.8596   46.5775   54.1718 C   0  0  0  0  0  0  0  0  0  0  0  0
   68.8339   47.5100   53.9255 C   0  0  0  0  0  0  0  0  0  0  0  0
  8  9  1  0
  9 12  1  0
  9 10  1  0
 12 13  1  0
 13 14  1  0
 13 17  2  0
 14 15  2  0
 15 16  1  0
 16 17  1  0
 10 11  2  0
 10  1  1  0
  1  2  2  0
  1  6  1  0
  2  3  1  0
  3 18  1  0
  3  4  2  0
 18 19  1  0
 19 20  2  0
 19 29  1  0
 20 21  1  0
 21 22  1  0
 22 23  2  0
 22 24  1  0
 24 25  1  0
 24 29  2  0
 25 26  2  0
 26 27  1  0
 27 28  2  0
 28 29  1  0
  4  5  1  0
  5  6  2  0
  6  7  1  0
M  END
>  <minimizedAffinity>  (190) 
-9.49853

$$$$
cs_full_output_folder/data/smiles/1524.pdb
     RDKit          3D

 26 27  0  0  0  0  0  0  0  0999 V2000
   70.7972   45.4449   58.0497 C   0  0  0  0  0  0  0  0  0  0  0  0
   71.9731   46.4924   58.5351 S   0  0  0  0  0  0  0  0  0  0  0  0
   70.1077   42.9619   58.3001 C   0  0  0  0  0  0  0  0  0  0  0  0
   68.9119   43.2042   58.4745 O   0  0  0  0  0  0  0  0  0  0  0  0
   70.9600   44.0548   58.0888 N   0  0  0  0  0  0  0  0  0  0  0  0
   71.3785   38.8297   58.4097 C   0  0  0  0  0  0  0  0  0  0  0  0
   72.2643   39.8037   58.4588 C   0  0  0  0  0  0  0  0  0  0  0  0
   71.9217   41.1729   58.4109 C   0  0  0  0  0  0  0  0  0  0  0  0
   70.6674   41.6033   58.3062 C   0  0  0  0  0  0  0  0  0  0  0  0
   69.6743   40.5696   58.2460 C   0  0  0  0  0  0  0  0  0  0  0  0
   69.9886   39.2516   58.2934 C   0  0  0  0  0  0  0  0  0  0  0  0
   71.6535   36.2467   58.7141 C   0  0  0  0  0  0  0  0  0  0  0  0
   71.5185   37.4549   58.5812 C   0  0  0  0  0  0  0  0  0  0  0  0
   69.4821   45.9566   57.8057 N   0  0  0  0  0  0  0  0  0  0  0  0
   69.1488   46.0823   56.4863 N   0  0  0  0  0  0  0  0  0  0  0  0
   68.4708   45.4785   55.4497 C   0  0  0  0  0  0  0  0  0  0  0  0
   67.8619   44.4206   55.5616 O   0  0  0  0  0  0  0  0  0  0  0  0
   68.4691   46.1688   54.0910 C   0  0  0  0  0  0  0  0  0  0  0  0
   67.7028   45.6123   53.0938 C   0  0  0  0  0  0  0  0  0  0  0  0
   67.7511   46.0330   51.8012 C   0  0  0  0  0  0  0  0  0  0  0  0
   68.6003   47.0806   51.4522 C   0  0  0  0  0  0  0  0  0  0  0  0
   69.3771   47.6565   52.4347 C   0  0  0  0  0  0  0  0  0  0  0  0
   69.3107   47.1925   53.7884 C   0  0  0  0  0  0  0  0  0  0  0  0
   70.2354   48.7247   52.0996 N   0  0  0  0  0  0  0  0  0  0  0  0
   69.9783   49.3545   51.0449 O   0  0  0  0  0  0  0  0  0  0  0  0
   71.2855   49.0766   52.8639 O   0  0  0  0  0  0  0  0  0  0  0  0
 12 13  3  0
 13  6  1  0
  6  7  2  0
  6 11  1  0
  7  8  1  0
  8  9  2  0
  9  3  1  0
  9 10  1  0
  3  4  2  0
  3  5  1  0
  5  1  1  0
  1  2  2  0
  1 14  1  0
 14 15  1  0
 15 16  1  0
 16 17  2  0
 16 18  1  0
 18 19  2  0
 18 23  1  0
 19 20  1  0
 20 21  2  0
 21 22  1  0
 22 24  1  0
 22 23  2  0
 24 25  2  0
 24 26  1  0
 10 11  2  0
M  CHG  2  24   1  26  -1
M  END
>  <minimizedAffinity>  (191) 
-9.49635

$$$$
cs_full_output_folder/data/smiles/9373.pdb
     RDKit          3D

 29 32  0  0  0  0  0  0  0  0999 V2000
   68.6226   46.5105   54.2233 C   0  0  0  0  0  0  0  0  0  0  0  0
   68.6774   46.0773   52.9384 C   0  0  0  0  0  0  0  0  0  0  0  0
   68.9274   46.9825   51.9042 C   0  0  0  0  0  0  0  0  0  0  0  0
   69.1189   48.3183   52.1800 C   0  0  0  0  0  0  0  0  0  0  0  0
   69.0667   48.7779   53.4694 C   0  0  0  0  0  0  0  0  0  0  0  0
   68.8179   47.8541   54.4622 C   0  0  0  0  0  0  0  0  0  0  0  0
   68.5635   46.0277   56.5472 O   0  0  0  0  0  0  0  0  0  0  0  0
   68.3808   45.6267   55.3577 C   0  0  0  0  0  0  0  0  0  0  0  0
   67.9382   44.2848   55.2288 N   0  0  0  0  0  0  0  0  0  0  0  0
   67.7184   43.4514   56.3566 N   0  0  0  0  0  0  0  0  0  0  0  0
   67.8008   42.1711   56.1708 C   0  0  0  0  0  0  0  0  0  0  0  0
   67.5822   41.2611   57.2996 C   0  0  0  0  0  0  0  0  0  0  0  0
   68.1556   40.0108   57.3263 C   0  0  0  0  0  0  0  0  0  0  0  0
   67.9864   39.1084   58.3580 C   0  0  0  0  0  0  0  0  0  0  0  0
   67.1974   39.4705   59.4312 C   0  0  0  0  0  0  0  0  0  0  0  0
   66.6163   40.7309   59.4081 C   0  0  0  0  0  0  0  0  0  0  0  0
   66.7934   41.6208   58.3726 C   0  0  0  0  0  0  0  0  0  0  0  0
   69.2813   50.2309   53.8048 C   0  0  0  0  0  0  0  0  0  0  0  0
   70.6014   50.3974   54.4460 C   0  0  0  0  0  0  0  0  0  0  0  0
   71.7510   50.1910   53.7652 N   0  0  0  0  0  0  0  0  0  0  0  0
   72.9440   50.3334   54.3242 N   0  0  0  0  0  0  0  0  0  0  0  0
   73.0926   50.6948   55.6114 C   0  0  0  0  0  0  0  0  0  0  0  0
   74.2693   50.8095   56.0711 O   0  0  0  0  0  0  0  0  0  0  0  0
   71.9733   50.9218   56.3657 C   0  0  0  0  0  0  0  0  0  0  0  0
   70.7413   50.7704   55.7744 C   0  0  0  0  0  0  0  0  0  0  0  0
   69.5391   51.0092   56.5729 C   0  0  0  0  0  0  0  0  0  0  0  0
   69.7241   50.5725   58.0121 C   0  0  0  0  0  0  0  0  0  0  0  0
   70.9464   51.1647   58.6441 C   0  0  0  0  0  0  0  0  0  0  0  0
   72.1269   51.3242   57.7752 C   0  0  0  0  0  0  0  0  0  0  0  0
  7  8  2  0
  8  9  1  0
  8  1  1  0
  9 10  1  0
 10 11  2  0
 11 12  1  0
 12 13  2  0
 12 17  1  0
 13 14  1  0
 14 15  2  0
 15 16  1  0
 16 17  2  0
  1  2  2  0
  1  6  1  0
  2  3  1  0
  3  4  2  0
  4  5  1  0
  5 18  1  0
  5  6  2  0
 18 19  1  0
 19 20  2  0
 19 25  1  0
 20 21  1  0
 21 22  1  0
 22 23  2  0
 22 24  1  0
 24 25  2  0
 24 29  1  0
 25 26  1  0
 26 27  1  0
 27 28  1  0
 28 29  1  0
M  END
>  <minimizedAffinity>  (192) 
-9.49459

$$$$
cs_full_output_folder/data/smiles/357.pdb
     RDKit          3D

 27 30  0  0  0  0  0  0  0  0999 V2000
   70.6878   45.5637   58.0811 C   0  0  0  0  0  0  0  0  0  0  0  0
   71.8356   46.1676   58.6048 C   0  0  0  0  0  0  0  0  0  0  0  0
   72.0707   47.5148   58.4549 C   0  0  0  0  0  0  0  0  0  0  0  0
   71.1355   48.2568   57.7705 C   0  0  0  0  0  0  0  0  0  0  0  0
   69.9703   47.6842   57.2311 C   0  0  0  0  0  0  0  0  0  0  0  0
   69.8386   46.3705   57.4320 N   0  0  0  0  0  0  0  0  0  0  0  0
   68.9360   44.0136   56.5800 O   0  0  0  0  0  0  0  0  0  0  0  0
   69.5696   43.3953   57.4713 C   0  0  0  0  0  0  0  0  0  0  0  0
   70.4687   44.1669   58.2472 N   0  0  0  0  0  0  0  0  0  0  0  0
   69.3512   41.9664   57.6513 C   0  0  0  0  0  0  0  0  0  0  0  0
   68.2280   41.3519   57.1292 C   0  0  0  0  0  0  0  0  0  0  0  0
   67.9565   40.0194   57.2579 C   0  0  0  0  0  0  0  0  0  0  0  0
   68.8379   39.2182   57.9449 C   0  0  0  0  0  0  0  0  0  0  0  0
   69.9751   39.7952   58.4840 C   0  0  0  0  0  0  0  0  0  0  0  0
   70.2132   41.1428   58.3327 C   0  0  0  0  0  0  0  0  0  0  0  0
   68.9985   48.5525   56.5087 C   0  0  0  0  0  0  0  0  0  0  0  0
   69.3493   48.5172   55.0571 C   0  0  0  0  0  0  0  0  0  0  0  0
   70.3327   49.3606   54.6145 N   0  0  0  0  0  0  0  0  0  0  0  0
   70.7753   49.4035   53.3845 N   0  0  0  0  0  0  0  0  0  0  0  0
   70.2686   48.5878   52.4489 C   0  0  0  0  0  0  0  0  0  0  0  0
   70.6964   48.6267   51.2526 O   0  0  0  0  0  0  0  0  0  0  0  0
   69.2732   47.7116   52.8237 C   0  0  0  0  0  0  0  0  0  0  0  0
   68.8040   47.6738   54.1441 C   0  0  0  0  0  0  0  0  0  0  0  0
   67.7085   46.7495   54.4695 C   0  0  0  0  0  0  0  0  0  0  0  0
   68.0014   45.4742   53.6637 C   0  0  0  0  0  0  0  0  0  0  0  0
   67.7385   45.8275   52.2159 C   0  0  0  0  0  0  0  0  0  0  0  0
   68.7437   46.8240   51.7656 C   0  0  0  0  0  0  0  0  0  0  0  0
  7  8  2  0
  8  9  1  0
  8 10  1  0
  9  1  1  0
  1  2  2  0
  1  6  1  0
  2  3  1  0
  3  4  2  0
  4  5  1  0
  5 16  1  0
  5  6  2  0
 16 17  1  0
 17 18  2  0
 17 23  1  0
 18 19  1  0
 19 20  1  0
 20 21  2  0
 20 22  1  0
 22 23  2  0
 22 27  1  0
 23 24  1  0
 24 25  1  0
 25 26  1  0
 26 27  1  0
 10 11  2  0
 10 15  1  0
 11 12  1  0
 12 13  2  0
 13 14  1  0
 14 15  2  0
M  END
>  <minimizedAffinity>  (193) 
-9.49382

$$$$
cs_full_output_folder/data/smiles/3685.pdb
     RDKit          3D

 29 32  0  0  0  0  0  0  0  0999 V2000
   71.1318   46.4943   58.2412 C   0  0  0  0  0  0  0  0  0  0  0  0
   70.0835   47.0168   57.4620 C   0  0  0  0  0  0  0  0  0  0  0  0
   70.0464   48.3084   57.0350 C   0  0  0  0  0  0  0  0  0  0  0  0
   71.1291   49.1202   57.4150 C   0  0  0  0  0  0  0  0  0  0  0  0
   72.1699   48.6471   58.1745 C   0  0  0  0  0  0  0  0  0  0  0  0
   72.1629   47.3039   58.5916 C   0  0  0  0  0  0  0  0  0  0  0  0
   73.2449   46.9457   59.3154 F   0  0  0  0  0  0  0  0  0  0  0  0
   70.8615   44.8253   59.8929 O   0  0  0  0  0  0  0  0  0  0  0  0
   71.0810   45.1098   58.6727 C   0  0  0  0  0  0  0  0  0  0  0  0
   71.2663   44.0044   57.8157 N   0  0  0  0  0  0  0  0  0  0  0  0
   71.2050   42.6279   58.2685 C   0  0  0  0  0  0  0  0  0  0  0  0
   70.0313   41.8755   57.8175 C   0  0  0  0  0  0  0  0  0  0  0  0
   69.0810   42.4519   57.0179 C   0  0  0  0  0  0  0  0  0  0  0  0
   67.9921   41.7096   56.6291 C   0  0  0  0  0  0  0  0  0  0  0  0
   67.8326   40.3984   57.0228 C   0  0  0  0  0  0  0  0  0  0  0  0
   68.7954   39.8921   57.8030 N   0  0  0  0  0  0  0  0  0  0  0  0
   69.8639   40.5582   58.2080 C   0  0  0  0  0  0  0  0  0  0  0  0
   68.9637   48.9210   56.2050 C   0  0  0  0  0  0  0  0  0  0  0  0
   69.2701   48.8074   54.8102 C   0  0  0  0  0  0  0  0  0  0  0  0
   70.0896   49.7465   54.2546 N   0  0  0  0  0  0  0  0  0  0  0  0
   70.4868   49.7266   53.0046 N   0  0  0  0  0  0  0  0  0  0  0  0
   70.0893   48.7394   52.1726 C   0  0  0  0  0  0  0  0  0  0  0  0
   70.4948   48.7573   50.9784 O   0  0  0  0  0  0  0  0  0  0  0  0
   69.2595   47.7449   52.6379 C   0  0  0  0  0  0  0  0  0  0  0  0
   68.8342   46.7386   51.7899 C   0  0  0  0  0  0  0  0  0  0  0  0
   67.9929   45.7604   52.2541 C   0  0  0  0  0  0  0  0  0  0  0  0
   67.5995   45.8269   53.5832 C   0  0  0  0  0  0  0  0  0  0  0  0
   68.0316   46.8371   54.4236 C   0  0  0  0  0  0  0  0  0  0  0  0
   68.8644   47.8034   53.9641 C   0  0  0  0  0  0  0  0  0  0  0  0
  8  9  2  0
  9 10  1  0
  9  1  1  0
 10 11  1  0
 11 12  1  0
 12 13  2  0
 12 17  1  0
 13 14  1  0
 14 15  2  0
 15 16  1  0
 16 17  2  0
  1  2  2  0
  1  6  1  0
  2  3  1  0
  3 18  1  0
  3  4  2  0
 18 19  1  0
 19 20  2  0
 19 29  1  0
 20 21  1  0
 21 22  1  0
 22 23  2  0
 22 24  1  0
 24 25  1  0
 24 29  2  0
 25 26  2  0
 26 27  1  0
 27 28  2  0
 28 29  1  0
  4  5  1  0
  5  6  2  0
  6  7  1  0
M  END
>  <minimizedAffinity>  (194) 
-9.49217

$$$$
cs_full_output_folder/data/smiles/3736.pdb
     RDKit          3D

 29 32  0  0  0  0  0  0  0  0999 V2000
   71.4942   46.8398   58.8445 C   0  0  0  0  0  0  0  0  0  0  0  0
   70.7125   47.6707   58.0846 C   0  0  0  0  0  0  0  0  0  0  0  0
   69.7824   47.2210   57.1389 C   0  0  0  0  0  0  0  0  0  0  0  0
   69.6805   45.8701   56.9953 C   0  0  0  0  0  0  0  0  0  0  0  0
   70.4675   45.0025   57.7586 C   0  0  0  0  0  0  0  0  0  0  0  0
   71.3598   45.4850   58.6690 C   0  0  0  0  0  0  0  0  0  0  0  0
   72.1349   44.6406   59.4203 F   0  0  0  0  0  0  0  0  0  0  0  0
   74.2804   47.0850   58.1753 C   0  0  0  0  0  0  0  0  0  0  0  0
   73.8177   47.5254   59.4775 N   0  0  0  0  0  0  0  0  0  0  0  0
   72.4423   47.4064   59.8149 C   0  0  0  0  0  0  0  0  0  0  0  0
   72.0111   47.7761   60.9311 O   0  0  0  0  0  0  0  0  0  0  0  0
   74.7446   48.0875   60.4334 C   0  0  0  0  0  0  0  0  0  0  0  0
   75.1133   49.4522   59.9561 C   0  0  0  0  0  0  0  0  0  0  0  0
   74.2602   50.5383   60.0867 C   0  0  0  0  0  0  0  0  0  0  0  0
   74.9489   51.6054   59.5362 C   0  0  0  0  0  0  0  0  0  0  0  0
   76.1116   51.1780   59.1175 O   0  0  0  0  0  0  0  0  0  0  0  0
   76.2524   49.9018   59.3465 C   0  0  0  0  0  0  0  0  0  0  0  0
   69.0091   48.2239   56.3573 C   0  0  0  0  0  0  0  0  0  0  0  0
   69.4308   48.2664   54.9320 C   0  0  0  0  0  0  0  0  0  0  0  0
   70.3993   49.1647   54.5711 N   0  0  0  0  0  0  0  0  0  0  0  0
   70.8223   49.3218   53.3405 N   0  0  0  0  0  0  0  0  0  0  0  0
   70.2776   48.5576   52.3631 C   0  0  0  0  0  0  0  0  0  0  0  0
   70.7016   48.7298   51.1934 O   0  0  0  0  0  0  0  0  0  0  0  0
   69.3090   47.6404   52.6439 C   0  0  0  0  0  0  0  0  0  0  0  0
   68.7704   46.8647   51.6595 C   0  0  0  0  0  0  0  0  0  0  0  0
   67.7991   45.9292   51.9536 C   0  0  0  0  0  0  0  0  0  0  0  0
   67.3695   45.7781   53.2546 C   0  0  0  0  0  0  0  0  0  0  0  0
   67.9061   46.5531   54.2425 C   0  0  0  0  0  0  0  0  0  0  0  0
   68.8744   47.4907   53.9638 C   0  0  0  0  0  0  0  0  0  0  0  0
  8  9  1  0
  9 12  1  0
  9 10  1  0
 12 13  1  0
 13 14  1  0
 13 17  2  0
 14 15  2  0
 15 16  1  0
 16 17  1  0
 10 11  2  0
 10  1  1  0
  1  2  2  0
  1  6  1  0
  2  3  1  0
  3 18  1  0
  3  4  2  0
 18 19  1  0
 19 20  2  0
 19 29  1  0
 20 21  1  0
 21 22  1  0
 22 23  2  0
 22 24  1  0
 24 25  1  0
 24 29  2  0
 25 26  2  0
 26 27  1  0
 27 28  2  0
 28 29  1  0
  4  5  1  0
  5  6  2  0
  6  7  1  0
M  END
>  <minimizedAffinity>  (195) 
-9.49033

$$$$
cs_full_output_folder/data/smiles/457.pdb
     RDKit          3D

 28 31  0  0  0  0  0  0  0  0999 V2000
   68.9972   45.3898   56.6293 C   0  0  0  0  0  0  0  0  0  0  0  0
   69.9634   45.9454   57.4907 C   0  0  0  0  0  0  0  0  0  0  0  0
   70.7437   45.1641   58.2862 C   0  0  0  0  0  0  0  0  0  0  0  0
   70.6189   43.7699   58.2815 C   0  0  0  0  0  0  0  0  0  0  0  0
   69.6689   43.2430   57.4316 C   0  0  0  0  0  0  0  0  0  0  0  0
   68.9336   44.0613   56.6759 N   0  0  0  0  0  0  0  0  0  0  0  0
   68.2087   46.2330   55.8208 N   0  0  0  0  0  0  0  0  0  0  0  0
   69.2930   47.7086   52.5559 C   0  0  0  0  0  0  0  0  0  0  0  0
   68.6264   46.8673   51.6905 C   0  0  0  0  0  0  0  0  0  0  0  0
   67.8338   45.8334   52.1592 C   0  0  0  0  0  0  0  0  0  0  0  0
   67.7153   45.6504   53.5104 C   0  0  0  0  0  0  0  0  0  0  0  0
   68.3726   46.4782   54.4472 C   0  0  0  0  0  0  0  0  0  0  0  0
   69.1490   47.4916   53.9334 C   0  0  0  0  0  0  0  0  0  0  0  0
   69.8091   49.6805   51.0644 N   0  0  0  0  0  0  0  0  0  0  0  0
   70.1325   48.8067   52.1048 C   0  0  0  0  0  0  0  0  0  0  0  0
   71.2369   48.9503   52.7293 O   0  0  0  0  0  0  0  0  0  0  0  0
   71.4805   43.0176   59.1851 C   0  0  0  0  0  0  0  0  0  0  0  0
   70.9203   42.6573   60.4932 C   0  0  0  0  0  0  0  0  0  0  0  0
   70.6447   43.6174   61.4264 N   0  0  0  0  0  0  0  0  0  0  0  0
   70.1471   43.3742   62.6069 N   0  0  0  0  0  0  0  0  0  0  0  0
   69.8731   42.0866   62.9589 C   0  0  0  0  0  0  0  0  0  0  0  0
   69.3967   41.8706   64.0934 O   0  0  0  0  0  0  0  0  0  0  0  0
   70.1184   41.0602   62.0840 C   0  0  0  0  0  0  0  0  0  0  0  0
   70.6553   41.3546   60.8226 C   0  0  0  0  0  0  0  0  0  0  0  0
   70.9342   40.2625   59.8730 C   0  0  0  0  0  0  0  0  0  0  0  0
   70.2093   38.9879   60.1331 C   0  0  0  0  0  0  0  0  0  0  0  0
   69.1086   39.1114   61.1540 C   0  0  0  0  0  0  0  0  0  0  0  0
   69.8074   39.6355   62.4262 C   0  0  0  0  0  0  0  0  0  0  0  0
 14 15  1  0
 15 16  2  0
 15  8  1  0
  8  9  2  0
  8 13  1  0
  9 10  1  0
 10 11  2  0
 11 12  1  0
 12  7  1  0
 12 13  2  0
  7  1  1  0
  1  2  2  0
  1  6  1  0
  2  3  1  0
  3  4  2  0
  4 17  1  0
  4  5  1  0
 17 18  1  0
 18 19  2  0
 18 24  1  0
 19 20  1  0
 20 21  1  0
 21 22  2  0
 21 23  1  0
 23 24  2  0
 23 28  1  0
 24 25  1  0
 25 26  1  0
 26 27  1  0
 27 28  1  0
  5  6  2  0
M  END
>  <minimizedAffinity>  (196) 
-9.48887

$$$$
cs_full_output_folder/data/smiles/3414.pdb
     RDKit          3D

 29 32  0  0  0  0  0  0  0  0999 V2000
   70.7811   46.1790   58.0497 C   0  0  0  0  0  0  0  0  0  0  0  0
   71.9505   46.6786   58.6231 C   0  0  0  0  0  0  0  0  0  0  0  0
   72.3427   47.9857   58.4246 C   0  0  0  0  0  0  0  0  0  0  0  0
   71.5802   48.8324   57.6459 C   0  0  0  0  0  0  0  0  0  0  0  0
   70.4241   48.3838   57.0612 C   0  0  0  0  0  0  0  0  0  0  0  0
   70.0580   47.0512   57.2865 C   0  0  0  0  0  0  0  0  0  0  0  0
   70.7491   43.7085   57.4523 N   0  0  0  0  0  0  0  0  0  0  0  0
   70.4211   44.7916   58.3025 C   0  0  0  0  0  0  0  0  0  0  0  0
   69.7575   44.4781   59.3551 O   0  0  0  0  0  0  0  0  0  0  0  0
   69.3246   38.3301   58.8945 C   0  0  0  0  0  0  0  0  0  0  0  0
   69.6876   39.7383   58.5158 C   0  0  0  0  0  0  0  0  0  0  0  0
   70.9317   40.2612   58.7977 C   0  0  0  0  0  0  0  0  0  0  0  0
   71.2563   41.5687   58.4382 C   0  0  0  0  0  0  0  0  0  0  0  0
   70.3469   42.3860   57.7892 C   0  0  0  0  0  0  0  0  0  0  0  0
   69.1055   41.8536   57.5127 C   0  0  0  0  0  0  0  0  0  0  0  0
   68.2375   42.6864   56.8753 F   0  0  0  0  0  0  0  0  0  0  0  0
   68.7873   40.5594   57.8689 C   0  0  0  0  0  0  0  0  0  0  0  0
   69.5333   49.2241   56.1934 C   0  0  0  0  0  0  0  0  0  0  0  0
   69.7823   48.8724   54.7953 C   0  0  0  0  0  0  0  0  0  0  0  0
   70.8094   49.4599   54.1359 N   0  0  0  0  0  0  0  0  0  0  0  0
   71.0679   49.2245   52.8771 N   0  0  0  0  0  0  0  0  0  0  0  0
   70.3255   48.3694   52.1256 C   0  0  0  0  0  0  0  0  0  0  0  0
   70.5848   48.1519   50.9157 O   0  0  0  0  0  0  0  0  0  0  0  0
   69.2738   47.7514   52.7567 C   0  0  0  0  0  0  0  0  0  0  0  0
   69.0021   48.0028   54.0976 C   0  0  0  0  0  0  0  0  0  0  0  0
   67.8851   47.2730   54.7022 C   0  0  0  0  0  0  0  0  0  0  0  0
   67.8031   45.8125   54.2647 C   0  0  0  0  0  0  0  0  0  0  0  0
   68.2836   45.5696   52.8787 C   0  0  0  0  0  0  0  0  0  0  0  0
   68.3863   46.8048   52.0448 C   0  0  0  0  0  0  0  0  0  0  0  0
 10 11  1  0
 11 12  2  0
 11 17  1  0
 12 13  1  0
 13 14  2  0
 14  7  1  0
 14 15  1  0
  7  8  1  0
  8  9  2  0
  8  1  1  0
  1  2  2  0
  1  6  1  0
  2  3  1  0
  3  4  2  0
  4  5  1  0
  5 18  1  0
  5  6  2  0
 18 19  1  0
 19 20  2  0
 19 25  1  0
 20 21  1  0
 21 22  1  0
 22 23  2  0
 22 24  1  0
 24 25  2  0
 24 29  1  0
 25 26  1  0
 26 27  1  0
 27 28  1  0
 28 29  1  0
 15 16  1  0
 15 17  2  0
M  END
>  <minimizedAffinity>  (197) 
-9.48545

$$$$
cs_full_output_folder/data/smiles/69.pdb
     RDKit          3D

 27 30  0  0  0  0  0  0  0  0999 V2000
   73.7950   49.9971   56.6931 C   0  0  0  0  0  0  0  0  0  0  0  0
   73.1088   49.1961   57.5744 C   0  0  0  0  0  0  0  0  0  0  0  0
   71.7302   49.0157   57.5123 C   0  0  0  0  0  0  0  0  0  0  0  0
   71.0050   49.6545   56.5404 C   0  0  0  0  0  0  0  0  0  0  0  0
   71.7297   50.4649   55.6546 C   0  0  0  0  0  0  0  0  0  0  0  0
   73.0574   50.6022   55.7601 N   0  0  0  0  0  0  0  0  0  0  0  0
   75.5550   49.4007   54.6877 O   0  0  0  0  0  0  0  0  0  0  0  0
   76.0958   49.8163   55.7490 C   0  0  0  0  0  0  0  0  0  0  0  0
   75.2114   50.1359   56.8070 N   0  0  0  0  0  0  0  0  0  0  0  0
   77.5463   49.9344   55.8029 C   0  0  0  0  0  0  0  0  0  0  0  0
   78.1285   51.0332   56.3976 C   0  0  0  0  0  0  0  0  0  0  0  0
   79.4940   51.2046   56.4745 C   0  0  0  0  0  0  0  0  0  0  0  0
   80.3639   50.2613   55.9455 C   0  0  0  0  0  0  0  0  0  0  0  0
   79.7894   49.1601   55.3491 C   0  0  0  0  0  0  0  0  0  0  0  0
   78.4139   49.0009   55.2795 C   0  0  0  0  0  0  0  0  0  0  0  0
   69.5204   49.5539   56.3767 C   0  0  0  0  0  0  0  0  0  0  0  0
   69.0625   48.2487   55.8867 C   0  0  0  0  0  0  0  0  0  0  0  0
   68.8037   47.2492   56.7926 N   0  0  0  0  0  0  0  0  0  0  0  0
   68.4213   46.0447   56.4524 N   0  0  0  0  0  0  0  0  0  0  0  0
   68.2514   45.6951   55.1684 C   0  0  0  0  0  0  0  0  0  0  0  0
   67.8777   44.5161   54.8426 O   0  0  0  0  0  0  0  0  0  0  0  0
   68.4867   46.6331   54.1911 C   0  0  0  0  0  0  0  0  0  0  0  0
   68.8970   47.9219   54.5786 C   0  0  0  0  0  0  0  0  0  0  0  0
   69.0949   48.8586   53.4783 C   0  0  0  0  0  0  0  0  0  0  0  0
   69.9249   48.1417   52.4225 C   0  0  0  0  0  0  0  0  0  0  0  0
   69.1373   47.0082   51.8007 C   0  0  0  0  0  0  0  0  0  0  0  0
   68.3042   46.2495   52.7911 C   0  0  0  0  0  0  0  0  0  0  0  0
  7  8  2  0
  8  9  1  0
  8 10  1  0
  9  1  1  0
  1  2  2  0
  1  6  1  0
  2  3  1  0
  3  4  2  0
  4 16  1  0
  4  5  1  0
 16 17  1  0
 17 18  2  0
 17 23  1  0
 18 19  1  0
 19 20  1  0
 20 21  2  0
 20 22  1  0
 22 23  2  0
 22 27  1  0
 23 24  1  0
 24 25  1  0
 25 26  1  0
 26 27  1  0
  5  6  2  0
 10 11  2  0
 10 15  1  0
 11 12  1  0
 12 13  2  0
 13 14  1  0
 14 15  2  0
M  END
>  <minimizedAffinity>  (198) 
-9.47718

$$$$
cs_full_output_folder/data/smiles/1543.pdb
     RDKit          3D

 27 29  0  0  0  0  0  0  0  0999 V2000
   70.1870   45.1085   57.8536 C   0  0  0  0  0  0  0  0  0  0  0  0
   69.8920   45.7367   58.8635 O   0  0  0  0  0  0  0  0  0  0  0  0
   69.7413   45.5036   56.5857 N   0  0  0  0  0  0  0  0  0  0  0  0
   69.0906   42.2796   58.1302 C   0  0  0  0  0  0  0  0  0  0  0  0
   70.5162   42.6008   58.1348 C   0  0  0  0  0  0  0  0  0  0  0  0
   71.0325   43.8932   57.9906 C   0  0  0  0  0  0  0  0  0  0  0  0
   72.3887   43.7521   58.0387 C   0  0  0  0  0  0  0  0  0  0  0  0
   72.6580   42.4268   58.2033 N   0  0  0  0  0  0  0  0  0  0  0  0
   71.5429   41.7324   58.2623 N   0  0  0  0  0  0  0  0  0  0  0  0
   71.4350   40.3089   58.4442 C   0  0  0  0  0  0  0  0  0  0  0  0
   72.5972   39.5856   58.6938 C   0  0  0  0  0  0  0  0  0  0  0  0
   72.5391   38.2170   58.8741 C   0  0  0  0  0  0  0  0  0  0  0  0
   71.3205   37.5467   58.8082 C   0  0  0  0  0  0  0  0  0  0  0  0
   71.2908   35.7936   59.0476 Cl  0  0  0  0  0  0  0  0  0  0  0  0
   70.1698   38.2594   58.5629 C   0  0  0  0  0  0  0  0  0  0  0  0
   70.2353   39.6396   58.3814 C   0  0  0  0  0  0  0  0  0  0  0  0
   68.9018   46.5990   56.2291 C   0  0  0  0  0  0  0  0  0  0  0  0
   68.7399   46.7252   54.7525 C   0  0  0  0  0  0  0  0  0  0  0  0
   69.3142   47.8256   54.0968 C   0  0  0  0  0  0  0  0  0  0  0  0
   69.2873   47.9216   52.7336 C   0  0  0  0  0  0  0  0  0  0  0  0
   68.6881   46.9328   51.9987 C   0  0  0  0  0  0  0  0  0  0  0  0
   68.1090   45.8291   52.6237 C   0  0  0  0  0  0  0  0  0  0  0  0
   68.1510   45.7530   54.0168 C   0  0  0  0  0  0  0  0  0  0  0  0
   67.5267   44.6606   54.5818 F   0  0  0  0  0  0  0  0  0  0  0  0
   69.9257   49.0379   52.0543 C   0  0  0  0  0  0  0  0  0  0  0  0
   70.4485   48.8825   50.9332 O   0  0  0  0  0  0  0  0  0  0  0  0
   69.9837   50.3058   52.6138 O   0  0  0  0  0  0  0  0  0  0  0  0
  4  5  1  0
  5  6  2  0
  5  9  1  0
  6  1  1  0
  6  7  1  0
  1  2  2  0
  1  3  1  0
  3 17  1  0
 17 18  1  0
 18 19  2  0
 18 23  1  0
 19 20  1  0
 20 25  1  0
 20 21  2  0
 25 26  2  0
 25 27  1  0
 21 22  1  0
 22 23  2  0
 23 24  1  0
  7  8  2  0
  8  9  1  0
  9 10  1  0
 10 11  2  0
 10 16  1  0
 11 12  1  0
 12 13  2  0
 13 14  1  0
 13 15  1  0
 15 16  2  0
M  END
>  <minimizedAffinity>  (199) 
-9.47656

$$$$
cs_full_output_folder/data/smiles/1451.pdb
     RDKit          3D

 29 32  0  0  0  0  0  0  0  0999 V2000
   71.3092   45.6309   58.4344 C   0  0  0  0  0  0  0  0  0  0  0  0
   71.9956   46.3771   59.3539 C   0  0  0  0  0  0  0  0  0  0  0  0
   71.6845   47.7068   59.4460 C   0  0  0  0  0  0  0  0  0  0  0  0
   70.7239   48.3059   58.6604 C   0  0  0  0  0  0  0  0  0  0  0  0
   70.0231   47.5770   57.7312 C   0  0  0  0  0  0  0  0  0  0  0  0
   70.3539   46.2125   57.6475 C   0  0  0  0  0  0  0  0  0  0  0  0
   70.6652   43.3145   58.7935 C   0  0  0  0  0  0  0  0  0  0  0  0
   69.6140   43.7718   59.3396 O   0  0  0  0  0  0  0  0  0  0  0  0
   71.5921   44.2550   58.2998 N   0  0  0  0  0  0  0  0  0  0  0  0
   71.2213   37.6679   58.4980 C   0  0  0  0  0  0  0  0  0  0  0  0
   71.0804   39.1342   58.5763 C   0  0  0  0  0  0  0  0  0  0  0  0
   72.1962   39.9028   58.8622 C   0  0  0  0  0  0  0  0  0  0  0  0
   72.0442   41.2846   58.9310 C   0  0  0  0  0  0  0  0  0  0  0  0
   70.8254   41.8747   58.7224 C   0  0  0  0  0  0  0  0  0  0  0  0
   69.7441   41.0571   58.4404 C   0  0  0  0  0  0  0  0  0  0  0  0
   69.8430   39.6930   58.3621 C   0  0  0  0  0  0  0  0  0  0  0  0
   68.8098   38.8697   58.0904 F   0  0  0  0  0  0  0  0  0  0  0  0
   68.9683   48.1373   56.8547 C   0  0  0  0  0  0  0  0  0  0  0  0
   68.6677   47.3449   55.6576 C   0  0  0  0  0  0  0  0  0  0  0  0
   68.0123   46.1501   55.8028 N   0  0  0  0  0  0  0  0  0  0  0  0
   67.7181   45.4196   54.7624 N   0  0  0  0  0  0  0  0  0  0  0  0
   68.0517   45.8207   53.5287 C   0  0  0  0  0  0  0  0  0  0  0  0
   67.7426   45.0731   52.5475 O   0  0  0  0  0  0  0  0  0  0  0  0
   68.7234   47.0308   53.2971 C   0  0  0  0  0  0  0  0  0  0  0  0
   69.0291   47.7937   54.3987 C   0  0  0  0  0  0  0  0  0  0  0  0
   69.7481   49.0870   54.2557 C   0  0  0  0  0  0  0  0  0  0  0  0
   70.5778   48.9843   52.9769 C   0  0  0  0  0  0  0  0  0  0  0  0
   69.6662   48.7198   51.7930 C   0  0  0  0  0  0  0  0  0  0  0  0
   69.0455   47.3777   51.8925 C   0  0  0  0  0  0  0  0  0  0  0  0
 10 11  1  0
 11 12  2  0
 11 16  1  0
 12 13  1  0
 13 14  2  0
 14  7  1  0
 14 15  1  0
  7  8  2  0
  7  9  1  0
  9  1  1  0
  1  2  2  0
  1  6  1  0
  2  3  1  0
  3  4  2  0
  4  5  1  0
  5 18  1  0
  5  6  2  0
 18 19  1  0
 19 20  2  0
 19 25  1  0
 20 21  1  0
 21 22  1  0
 22 23  2  0
 22 24  1  0
 24 25  2  0
 24 29  1  0
 25 26  1  0
 26 27  1  0
 27 28  1  0
 28 29  1  0
 15 16  2  0
 16 17  1  0
M  END
>  <minimizedAffinity>  (200) 
-9.47645

$$$$
cs_full_output_folder/data/smiles/3287.pdb
     RDKit          3D

 26 27  0  0  0  0  0  0  0  0999 V2000
   70.0404   49.2458   52.5771 S   0  0  0  0  0  0  0  0  0  0  0  0
   70.0437   49.1050   51.0604 O   0  0  0  0  0  0  0  0  0  0  0  0
   71.4794   49.2774   53.0420 O   0  0  0  0  0  0  0  0  0  0  0  0
   69.2868   47.8139   53.2076 C   0  0  0  0  0  0  0  0  0  0  0  0
   69.2967   47.5626   54.5833 C   0  0  0  0  0  0  0  0  0  0  0  0
   69.9343   48.4591   55.3852 F   0  0  0  0  0  0  0  0  0  0  0  0
   68.6851   46.4493   55.1162 C   0  0  0  0  0  0  0  0  0  0  0  0
   68.7134   46.2332   56.4661 F   0  0  0  0  0  0  0  0  0  0  0  0
   68.0375   45.5405   54.2974 C   0  0  0  0  0  0  0  0  0  0  0  0
   67.4463   44.4561   54.8517 F   0  0  0  0  0  0  0  0  0  0  0  0
   68.0183   45.7727   52.9369 C   0  0  0  0  0  0  0  0  0  0  0  0
   67.3903   44.9001   52.0975 F   0  0  0  0  0  0  0  0  0  0  0  0
   68.6270   46.8799   52.4061 C   0  0  0  0  0  0  0  0  0  0  0  0
   68.6187   47.1297   51.0617 F   0  0  0  0  0  0  0  0  0  0  0  0
   69.2753   50.7115   52.9975 N   0  0  0  0  0  0  0  0  0  0  0  0
   71.5113   52.3378   55.3885 C   0  0  0  0  0  0  0  0  0  0  0  0
   71.0361   51.5544   54.3610 C   0  0  0  0  0  0  0  0  0  0  0  0
   69.6661   51.5622   54.0582 C   0  0  0  0  0  0  0  0  0  0  0  0
   68.7956   52.3459   54.7794 C   0  0  0  0  0  0  0  0  0  0  0  0
   69.2964   53.1201   55.8025 C   0  0  0  0  0  0  0  0  0  0  0  0
   70.6448   53.1334   56.1256 C   0  0  0  0  0  0  0  0  0  0  0  0
   71.1204   53.9265   57.1657 O   0  0  0  0  0  0  0  0  0  0  0  0
   75.2536   52.9268   55.1194 N   0  0  0  0  0  0  0  0  0  0  0  0
   73.8613   52.8835   54.8507 C   0  0  0  0  0  0  0  0  0  0  0  0
   73.4441   53.3572   53.7466 O   0  0  0  0  0  0  0  0  0  0  0  0
   72.8928   52.3505   55.7187 N   0  0  0  0  0  0  0  0  0  0  0  0
 23 24  1  0
 24 25  2  0
 24 26  1  0
 26 16  1  0
 16 17  2  0
 16 21  1  0
 17 18  1  0
 18 15  1  0
 18 19  2  0
 15  1  1  0
  1  2  2  0
  1  3  2  0
  1  4  1  0
  4  5  2  0
  4 13  1  0
  5  6  1  0
  5  7  1  0
  7  8  1  0
  7  9  2  0
  9 10  1  0
  9 11  1  0
 11 12  1  0
 11 13  2  0
 13 14  1  0
 19 20  1  0
 20 21  2  0
 21 22  1  0
M  END
>  <minimizedAffinity>  (201) 
-9.47603

$$$$
cs_full_output_folder/data/smiles/2633.pdb
     RDKit          3D

 28 31  0  0  0  0  0  0  0  0999 V2000
   70.5317   45.3679   57.9317 C   0  0  0  0  0  0  0  0  0  0  0  0
   71.4019   46.1251   58.6331 C   0  0  0  0  0  0  0  0  0  0  0  0
   71.3519   47.5031   58.6341 C   0  0  0  0  0  0  0  0  0  0  0  0
   70.3944   48.1753   57.9074 C   0  0  0  0  0  0  0  0  0  0  0  0
   69.4930   47.3860   57.1801 C   0  0  0  0  0  0  0  0  0  0  0  0
   69.5984   46.0594   57.2229 N   0  0  0  0  0  0  0  0  0  0  0  0
   69.3038   43.5948   59.7814 O   0  0  0  0  0  0  0  0  0  0  0  0
   69.8603   43.0716   58.7593 C   0  0  0  0  0  0  0  0  0  0  0  0
   70.4671   43.9566   57.8489 N   0  0  0  0  0  0  0  0  0  0  0  0
   69.8392   41.6143   58.5934 C   0  0  0  0  0  0  0  0  0  0  0  0
   70.9794   40.9174   58.9305 C   0  0  0  0  0  0  0  0  0  0  0  0
   71.0345   39.5233   58.8043 C   0  0  0  0  0  0  0  0  0  0  0  0
   69.9488   38.8180   58.3394 C   0  0  0  0  0  0  0  0  0  0  0  0
   68.8134   39.5146   58.0041 C   0  0  0  0  0  0  0  0  0  0  0  0
   67.7082   38.8406   57.5365 O   0  0  0  0  0  0  0  0  0  0  0  0
   68.7638   40.9147   58.1328 C   0  0  0  0  0  0  0  0  0  0  0  0
   68.4503   48.1023   56.3912 C   0  0  0  0  0  0  0  0  0  0  0  0
   68.9226   48.4313   55.0557 C   0  0  0  0  0  0  0  0  0  0  0  0
   69.3679   49.6656   54.7810 N   0  0  0  0  0  0  0  0  0  0  0  0
   69.7757   50.0042   53.5449 N   0  0  0  0  0  0  0  0  0  0  0  0
   69.7648   49.1353   52.5180 C   0  0  0  0  0  0  0  0  0  0  0  0
   70.1421   49.4345   51.3566 O   0  0  0  0  0  0  0  0  0  0  0  0
   69.3220   47.8665   52.7445 C   0  0  0  0  0  0  0  0  0  0  0  0
   68.8970   47.5245   54.0471 C   0  0  0  0  0  0  0  0  0  0  0  0
   68.4716   46.1528   54.2145 C   0  0  0  0  0  0  0  0  0  0  0  0
   67.3659   45.8991   53.2001 C   0  0  0  0  0  0  0  0  0  0  0  0
   67.8619   46.1258   51.7923 C   0  0  0  0  0  0  0  0  0  0  0  0
   69.2271   46.7788   51.7461 C   0  0  0  0  0  0  0  0  0  0  0  0
  7  8  2  0
  8  9  1  0
  8 10  1  0
  9  1  1  0
  1  2  2  0
  1  6  1  0
  2  3  1  0
  3  4  2  0
  4  5  1  0
  5 17  1  0
  5  6  2  0
 17 18  1  0
 18 19  2  0
 18 24  1  0
 19 20  1  0
 20 21  1  0
 21 22  2  0
 21 23  1  0
 23 24  2  0
 23 28  1  0
 24 25  1  0
 25 26  1  0
 26 27  1  0
 27 28  1  0
 10 11  2  0
 10 16  1  0
 11 12  1  0
 12 13  2  0
 13 14  1  0
 14 15  1  0
 14 16  2  0
M  END
>  <minimizedAffinity>  (202) 
-9.47247

$$$$
cs_full_output_folder/data/smiles/1016.pdb
     RDKit          3D

 25 27  0  0  0  0  0  0  0  0999 V2000
   69.9037   39.4977   58.8498 C   0  0  0  0  0  0  0  0  0  0  0  0
   70.4876   40.7469   58.8735 C   0  0  0  0  0  0  0  0  0  0  0  0
   69.9990   41.7978   58.1092 C   0  0  0  0  0  0  0  0  0  0  0  0
   68.9022   41.6238   57.2933 C   0  0  0  0  0  0  0  0  0  0  0  0
   68.3174   40.3742   57.2697 C   0  0  0  0  0  0  0  0  0  0  0  0
   68.8063   39.3146   58.0378 C   0  0  0  0  0  0  0  0  0  0  0  0
   67.2281   40.4622   56.3668 N   0  0  0  0  0  0  0  0  0  0  0  0
   67.1199   41.7658   55.8165 C   0  0  0  0  0  0  0  0  0  0  0  0
   66.2825   42.2201   54.9849 O   0  0  0  0  0  0  0  0  0  0  0  0
   68.1967   42.5371   56.4040 C   0  0  0  0  0  0  0  0  0  0  0  0
   68.4317   43.7800   56.1499 N   0  0  0  0  0  0  0  0  0  0  0  0
   70.4950   38.4448   59.6972 C   0  0  0  0  0  0  0  0  0  0  0  0
   71.9585   37.2532   58.0700 C   0  0  0  0  0  0  0  0  0  0  0  0
   71.9005   38.1086   59.3207 C   0  0  0  0  0  0  0  0  0  0  0  0
   67.6340   44.5012   55.2555 N   0  0  0  0  0  0  0  0  0  0  0  0
   68.1873   45.6638   54.6637 C   0  0  0  0  0  0  0  0  0  0  0  0
   68.7426   46.6757   55.4198 C   0  0  0  0  0  0  0  0  0  0  0  0
   69.2878   47.8192   54.8678 C   0  0  0  0  0  0  0  0  0  0  0  0
   69.2826   47.9651   53.5102 C   0  0  0  0  0  0  0  0  0  0  0  0
   68.7467   46.9954   52.7181 C   0  0  0  0  0  0  0  0  0  0  0  0
   68.2048   45.8579   53.2837 C   0  0  0  0  0  0  0  0  0  0  0  0
   69.9888   49.4385   52.8450 S   0  0  0  0  0  0  0  0  0  0  0  0
   69.9007   49.3807   51.1230 N   0  0  0  0  0  0  0  0  0  0  0  0
   71.4475   49.5250   53.2127 O   0  0  0  0  0  0  0  0  0  0  0  0
   69.2558   50.6118   53.4143 O   0  0  0  0  0  0  0  0  0  0  0  0
 13 14  1  0
 14 12  1  0
 12  1  1  0
  1  2  2  0
  1  6  1  0
  2  3  1  0
  3  4  2  0
  4  5  1  0
  4 10  1  0
  5  6  2  0
  5  7  1  0
  7  8  1  0
  8  9  2  0
  8 10  1  0
 10 11  2  0
 11 15  1  0
 15 16  1  0
 16 17  2  0
 16 21  1  0
 17 18  1  0
 18 19  2  0
 19 22  1  0
 19 20  1  0
 22 23  1  0
 22 24  2  0
 22 25  2  0
 20 21  2  0
M  END
>  <minimizedAffinity>  (203) 
-9.46946

$$$$
cs_full_output_folder/data/smiles/7927.pdb
     RDKit          3D

 28 31  0  0  0  0  0  0  0  0999 V2000
   69.7315   48.5091   56.1673 C   0  0  0  0  0  0  0  0  0  0  0  0
   70.4572   47.7305   57.0366 C   0  0  0  0  0  0  0  0  0  0  0  0
   70.7734   48.1204   58.3454 C   0  0  0  0  0  0  0  0  0  0  0  0
   70.3282   49.3401   58.7589 C   0  0  0  0  0  0  0  0  0  0  0  0
   69.5885   50.1550   57.8991 C   0  0  0  0  0  0  0  0  0  0  0  0
   69.2906   49.7486   56.6157 C   0  0  0  0  0  0  0  0  0  0  0  0
   68.5787   50.5394   55.7954 F   0  0  0  0  0  0  0  0  0  0  0  0
   68.4313   46.8521   50.9260 N   0  0  0  0  0  0  0  0  0  0  0  0
   68.7875   47.3028   52.2369 C   0  0  0  0  0  0  0  0  0  0  0  0
   68.2101   46.6587   53.3109 C   0  0  0  0  0  0  0  0  0  0  0  0
   68.5302   47.0672   54.6140 C   0  0  0  0  0  0  0  0  0  0  0  0
   67.9839   46.4603   55.6959 F   0  0  0  0  0  0  0  0  0  0  0  0
   69.4108   48.0987   54.8207 C   0  0  0  0  0  0  0  0  0  0  0  0
   69.9692   48.7199   53.7349 C   0  0  0  0  0  0  0  0  0  0  0  0
   69.6662   48.3312   52.4288 C   0  0  0  0  0  0  0  0  0  0  0  0
   70.2282   48.9545   51.2946 N   0  0  0  0  0  0  0  0  0  0  0  0
   71.5529   47.1550   59.1844 C   0  0  0  0  0  0  0  0  0  0  0  0
   71.2909   45.7668   58.7914 C   0  0  0  0  0  0  0  0  0  0  0  0
   69.9756   45.3822   58.7732 N   0  0  0  0  0  0  0  0  0  0  0  0
   69.6352   44.1647   58.3962 N   0  0  0  0  0  0  0  0  0  0  0  0
   70.5034   43.2226   58.0108 C   0  0  0  0  0  0  0  0  0  0  0  0
   70.1426   42.0890   57.6625 O   0  0  0  0  0  0  0  0  0  0  0  0
   71.8403   43.5696   58.0161 C   0  0  0  0  0  0  0  0  0  0  0  0
   72.7778   42.6236   57.6358 C   0  0  0  0  0  0  0  0  0  0  0  0
   74.1210   42.9491   57.6464 C   0  0  0  0  0  0  0  0  0  0  0  0
   74.4710   44.2163   58.0411 C   0  0  0  0  0  0  0  0  0  0  0  0
   73.5409   45.1622   58.4212 C   0  0  0  0  0  0  0  0  0  0  0  0
   72.1978   44.8361   58.4084 C   0  0  0  0  0  0  0  0  0  0  0  0
  8  9  1  0
  9 10  2  0
  9 15  1  0
 10 11  1  0
 11 12  1  0
 11 13  2  0
 13  1  1  0
 13 14  1  0
  1  2  2  0
  1  6  1  0
  2  3  1  0
  3 17  1  0
  3  4  2  0
 17 18  1  0
 18 19  2  0
 18 28  1  0
 19 20  1  0
 20 21  1  0
 21 22  2  0
 21 23  1  0
 23 24  1  0
 23 28  2  0
 24 25  2  0
 25 26  1  0
 26 27  2  0
 27 28  1  0
  4  5  1  0
  5  6  2  0
  6  7  1  0
 14 15  2  0
 15 16  1  0
M  END
>  <minimizedAffinity>  (204) 
-9.46810

$$$$
cs_full_output_folder/data/smiles/2909.pdb
     RDKit          3D

 29 32  0  0  0  0  0  0  0  0999 V2000
   71.4687   47.0549   58.8284 C   0  0  0  0  0  0  0  0  0  0  0  0
   70.6565   47.8240   58.0326 C   0  0  0  0  0  0  0  0  0  0  0  0
   69.7555   47.2648   57.1106 C   0  0  0  0  0  0  0  0  0  0  0  0
   69.6824   45.9044   56.9987 C   0  0  0  0  0  0  0  0  0  0  0  0
   70.5009   45.0980   57.7991 C   0  0  0  0  0  0  0  0  0  0  0  0
   71.3736   45.6853   58.6929 C   0  0  0  0  0  0  0  0  0  0  0  0
   72.1419   44.8513   59.4430 F   0  0  0  0  0  0  0  0  0  0  0  0
   72.0041   47.7827   60.9637 O   0  0  0  0  0  0  0  0  0  0  0  0
   72.4054   47.6201   59.7892 C   0  0  0  0  0  0  0  0  0  0  0  0
   73.7315   47.9828   59.4364 N   0  0  0  0  0  0  0  0  0  0  0  0
   74.5908   48.5346   60.4449 C   0  0  0  0  0  0  0  0  0  0  0  0
   75.9049   49.0252   59.8864 C   0  0  0  0  0  0  0  0  0  0  0  0
   75.5996   49.7321   58.5766 C   0  0  1  0  0  0  0  0  0  0  0  0
   76.7109   50.3938   58.0893 F   0  0  0  0  0  0  0  0  0  0  0  0
   75.2351   48.6453   57.5911 C   0  0  2  0  0  0  0  0  0  0  0  0
   74.9981   49.1724   56.3181 O   0  0  0  0  0  0  0  0  0  0  0  0
   74.1336   47.7670   58.0626 C   0  0  0  0  0  0  0  0  0  0  0  0
   68.8798   48.1338   56.3006 C   0  0  0  0  0  0  0  0  0  0  0  0
   69.2489   48.2615   54.8880 C   0  0  0  0  0  0  0  0  0  0  0  0
   70.1625   49.2229   54.5369 N   0  0  0  0  0  0  0  0  0  0  0  0
   70.5949   49.3939   53.3100 N   0  0  0  0  0  0  0  0  0  0  0  0
   70.1725   48.6295   52.2796 C   0  0  0  0  0  0  0  0  0  0  0  0
   70.6025   48.8104   51.1068 O   0  0  0  0  0  0  0  0  0  0  0  0
   69.2513   47.6471   52.5705 C   0  0  0  0  0  0  0  0  0  0  0  0
   68.7968   46.8637   51.5319 C   0  0  0  0  0  0  0  0  0  0  0  0
   67.8642   45.8876   51.8183 C   0  0  0  0  0  0  0  0  0  0  0  0
   67.3994   45.7021   53.1153 C   0  0  0  0  0  0  0  0  0  0  0  0
   67.8515   46.4835   54.1575 C   0  0  0  0  0  0  0  0  0  0  0  0
   68.7854   47.4611   53.8835 C   0  0  0  0  0  0  0  0  0  0  0  0
  8  9  2  0
  9  1  1  0
  9 10  1  0
  1  2  2  0
  1  6  1  0
  2  3  1  0
  3 18  1  0
  3  4  2  0
 18 19  1  0
 19 20  2  0
 19 29  1  0
 20 21  1  0
 21 22  1  0
 22 23  2  0
 22 24  1  0
 24 25  1  0
 24 29  2  0
 25 26  2  0
 26 27  1  0
 27 28  2  0
 28 29  1  0
  4  5  1  0
  5  6  2  0
  6  7  1  0
 10 11  1  0
 10 17  1  0
 11 12  1  0
 12 13  1  0
 13 14  1  6
 13 15  1  0
 15 16  1  6
 15 17  1  0
M  END
>  <minimizedAffinity>  (205) 
-9.46250

$$$$
cs_full_output_folder/data/smiles/538.pdb
     RDKit          3D

 29 32  0  0  0  0  0  0  0  0999 V2000
   70.5289   45.7942   58.1245 C   0  0  0  0  0  0  0  0  0  0  0  0
   71.6115   46.4738   58.6179 C   0  0  0  0  0  0  0  0  0  0  0  0
   71.7752   47.8453   58.4045 C   0  0  0  0  0  0  0  0  0  0  0  0
   70.7869   48.4479   57.6779 C   0  0  0  0  0  0  0  0  0  0  0  0
   69.6758   47.7872   57.1641 C   0  0  0  0  0  0  0  0  0  0  0  0
   69.5603   46.4480   57.3972 C   0  0  0  0  0  0  0  0  0  0  0  0
   70.4133   43.3914   57.3308 N   0  0  0  0  0  0  0  0  0  0  0  0
   70.3916   44.3741   58.3658 C   0  0  0  0  0  0  0  0  0  0  0  0
   70.2448   43.9794   59.5585 O   0  0  0  0  0  0  0  0  0  0  0  0
   67.9926   42.0524   56.7540 C   0  0  0  0  0  0  0  0  0  0  0  0
   69.0810   41.3396   57.4345 C   0  0  0  0  0  0  0  0  0  0  0  0
   68.8886   40.0242   57.7725 C   0  0  0  0  0  0  0  0  0  0  0  0
   67.7051   39.3643   57.4895 O   0  0  0  0  0  0  0  0  0  0  0  0
   69.9158   39.3676   58.4094 C   0  0  0  0  0  0  0  0  0  0  0  0
   71.1221   39.9773   58.7173 C   0  0  0  0  0  0  0  0  0  0  0  0
   71.2654   41.3137   58.3514 C   0  0  0  0  0  0  0  0  0  0  0  0
   70.2661   42.0111   57.7134 C   0  0  0  0  0  0  0  0  0  0  0  0
   68.6610   48.5628   56.3657 C   0  0  0  0  0  0  0  0  0  0  0  0
   69.0962   48.7101   54.9568 C   0  0  0  0  0  0  0  0  0  0  0  0
   69.5630   49.9171   54.5023 N   0  0  0  0  0  0  0  0  0  0  0  0
   69.9218   50.1171   53.2483 N   0  0  0  0  0  0  0  0  0  0  0  0
   69.8552   49.1456   52.3202 C   0  0  0  0  0  0  0  0  0  0  0  0
   70.1922   49.3167   51.1189 O   0  0  0  0  0  0  0  0  0  0  0  0
   69.4033   47.9189   52.6964 C   0  0  0  0  0  0  0  0  0  0  0  0
   69.0247   47.7184   54.0335 C   0  0  0  0  0  0  0  0  0  0  0  0
   68.5898   46.3454   54.3454 C   0  0  0  0  0  0  0  0  0  0  0  0
   67.4771   45.9305   53.4002 C   0  0  0  0  0  0  0  0  0  0  0  0
   67.8164   46.2556   51.9794 C   0  0  0  0  0  0  0  0  0  0  0  0
   69.2493   46.7382   51.8084 C   0  0  0  0  0  0  0  0  0  0  0  0
 10 11  1  0
 11 12  2  0
 11 17  1  0
 12 13  1  0
 12 14  1  0
 14 15  2  0
 15 16  1  0
 16 17  2  0
 17  7  1  0
  7  8  1  0
  8  9  2  0
  8  1  1  0
  1  2  2  0
  1  6  1  0
  2  3  1  0
  3  4  2  0
  4  5  1  0
  5 18  1  0
  5  6  2  0
 18 19  1  0
 19 20  2  0
 19 25  1  0
 20 21  1  0
 21 22  1  0
 22 23  2  0
 22 24  1  0
 24 25  2  0
 24 29  1  0
 25 26  1  0
 26 27  1  0
 27 28  1  0
 28 29  1  0
M  END
>  <minimizedAffinity>  (206) 
-9.45661

$$$$
cs_full_output_folder/data/smiles/5246.pdb
     RDKit          3D

 23 25  0  0  0  0  0  0  0  0999 V2000
   69.0170   45.6381   56.5597 C   0  0  0  0  0  0  0  0  0  0  0  0
   69.8463   46.5361   57.2660 C   0  0  0  0  0  0  0  0  0  0  0  0
   70.7859   46.0798   58.1635 C   0  0  0  0  0  0  0  0  0  0  0  0
   70.9010   44.7461   58.3571 N   0  0  0  0  0  0  0  0  0  0  0  0
   70.1236   43.8660   57.6977 C   0  0  0  0  0  0  0  0  0  0  0  0
   69.2249   44.3588   56.8354 N   0  0  0  0  0  0  0  0  0  0  0  0
   70.2842   42.4396   57.9394 C   0  0  0  0  0  0  0  0  0  0  0  0
   71.5357   41.9192   58.1817 C   0  0  0  0  0  0  0  0  0  0  0  0
   71.7231   40.5814   58.4136 C   0  0  0  0  0  0  0  0  0  0  0  0
   70.6499   39.7177   58.4085 C   0  0  0  0  0  0  0  0  0  0  0  0
   70.9107   37.8464   58.7325 Br  0  0  0  0  0  0  0  0  0  0  0  0
   69.3880   40.2073   58.1686 C   0  0  0  0  0  0  0  0  0  0  0  0
   69.2177   41.5673   57.9364 C   0  0  0  0  0  0  0  0  0  0  0  0
   68.1237   46.1934   55.6986 O   0  0  0  0  0  0  0  0  0  0  0  0
   69.3213   47.7226   52.5922 C   0  0  0  0  0  0  0  0  0  0  0  0
   68.6667   46.9563   51.6524 C   0  0  0  0  0  0  0  0  0  0  0  0
   67.8210   45.9247   52.0055 C   0  0  0  0  0  0  0  0  0  0  0  0
   67.6579   45.6911   53.3692 C   0  0  0  0  0  0  0  0  0  0  0  0
   68.2677   46.4020   54.3584 C   0  0  0  0  0  0  0  0  0  0  0  0
   69.1148   47.4380   53.9147 C   0  0  0  0  0  0  0  0  0  0  0  0
   71.2560   49.2022   52.9599 N   0  0  0  0  0  0  0  0  0  0  0  0
   70.1894   48.7842   52.1466 C   0  0  0  0  0  0  0  0  0  0  0  0
   69.9972   49.3317   51.0447 O   0  0  0  0  0  0  0  0  0  0  0  0
 21 22  1  0
 22 23  2  0
 22 15  1  0
 15 16  2  0
 15 20  1  0
 16 17  1  0
 17 18  2  0
 18 19  1  0
 19 14  1  0
 19 20  2  0
 14  1  1  0
  1  2  2  0
  1  6  1  0
  2  3  1  0
  3  4  2  0
  4  5  1  0
  5  7  1  0
  5  6  2  0
  7  8  2  0
  7 13  1  0
  8  9  1  0
  9 10  2  0
 10 11  1  0
 10 12  1  0
 12 13  2  0
M  END
>  <minimizedAffinity>  (207) 
-9.45392

$$$$
cs_full_output_folder/data/smiles/128.pdb
     RDKit          3D

 28 31  0  0  0  0  0  0  0  0999 V2000
   71.6590   46.0500   58.9266 C   0  0  0  0  0  0  0  0  0  0  0  0
   71.0396   46.8381   57.9923 C   0  0  0  0  0  0  0  0  0  0  0  0
   70.9030   48.2255   58.1413 C   0  0  0  0  0  0  0  0  0  0  0  0
   71.4270   48.7668   59.2875 C   0  0  0  0  0  0  0  0  0  0  0  0
   72.0594   47.9614   60.2432 C   0  0  0  0  0  0  0  0  0  0  0  0
   72.1741   46.6018   60.0599 C   0  0  0  0  0  0  0  0  0  0  0  0
   72.7903   45.8128   60.9884 F   0  0  0  0  0  0  0  0  0  0  0  0
   69.6181   44.3042   59.5974 O   0  0  0  0  0  0  0  0  0  0  0  0
   70.6425   43.8441   59.0067 C   0  0  0  0  0  0  0  0  0  0  0  0
   70.6799   42.4013   58.6540 C   0  0  0  0  0  0  0  0  0  0  0  0
   71.5806   42.2543   57.4276 C   0  0  0  0  0  0  0  0  0  0  0  0
   72.9756   42.6593   57.8768 C   0  0  0  0  0  0  0  0  0  0  0  0
   72.9337   44.1432   58.0955 C   0  0  0  0  0  0  0  0  0  0  0  0
   73.8938   44.8622   57.7823 O   0  0  0  0  0  0  0  0  0  0  0  0
   71.7418   44.6552   58.6740 N   0  0  0  0  0  0  0  0  0  0  0  0
   70.2173   49.0319   57.1196 C   0  0  0  0  0  0  0  0  0  0  0  0
   69.5927   48.3085   56.1026 O   0  0  0  0  0  0  0  0  0  0  0  0
   69.8344   48.3412   54.7559 C   0  0  0  0  0  0  0  0  0  0  0  0
   70.7540   49.1578   54.2314 N   0  0  0  0  0  0  0  0  0  0  0  0
   71.0294   49.2330   52.9443 N   0  0  0  0  0  0  0  0  0  0  0  0
   70.3609   48.4524   52.0849 C   0  0  0  0  0  0  0  0  0  0  0  0
   70.6058   48.5048   50.8470 O   0  0  0  0  0  0  0  0  0  0  0  0
   69.3987   47.5843   52.5440 C   0  0  0  0  0  0  0  0  0  0  0  0
   68.6895   46.7643   51.6802 C   0  0  0  0  0  0  0  0  0  0  0  0
   67.7390   45.9158   52.1878 C   0  0  0  0  0  0  0  0  0  0  0  0
   67.4754   45.8599   53.5299 C   0  0  0  0  0  0  0  0  0  0  0  0
   68.1572   46.6568   54.4126 C   0  0  0  0  0  0  0  0  0  0  0  0
   69.1175   47.5134   53.8895 C   0  0  0  0  0  0  0  0  0  0  0  0
  8  9  2  0
  9 10  1  0
  9 15  1  0
 10 11  1  0
 11 12  1  0
 12 13  1  0
 13 14  2  0
 13 15  1  0
 15  1  1  0
  1  2  2  0
  1  6  1  0
  2  3  1  0
  3 16  1  0
  3  4  2  0
 16 17  1  0
 17 18  1  0
 18 19  2  0
 18 28  1  0
 19 20  1  0
 20 21  1  0
 21 22  2  0
 21 23  1  0
 23 24  1  0
 23 28  2  0
 24 25  2  0
 25 26  1  0
 26 27  2  0
 27 28  1  0
  4  5  1  0
  5  6  2  0
  6  7  1  0
M  END
>  <minimizedAffinity>  (208) 
-9.45057

$$$$
cs_full_output_folder/data/smiles/5028.pdb
     RDKit          3D

 27 30  0  0  0  0  0  0  0  0999 V2000
   71.5563   47.3505   58.9083 C   0  0  0  0  0  0  0  0  0  0  0  0
   70.7158   48.0905   58.0975 C   0  0  0  0  0  0  0  0  0  0  0  0
   69.8453   47.5464   57.2024 C   0  0  0  0  0  0  0  0  0  0  0  0
   69.8411   46.1423   57.1387 C   0  0  0  0  0  0  0  0  0  0  0  0
   70.6498   45.3626   57.9157 C   0  0  0  0  0  0  0  0  0  0  0  0
   71.5044   45.9753   58.7985 C   0  0  0  0  0  0  0  0  0  0  0  0
   72.3222   45.2200   59.5857 F   0  0  0  0  0  0  0  0  0  0  0  0
   72.2276   47.9655   61.0671 O   0  0  0  0  0  0  0  0  0  0  0  0
   72.4767   47.9636   59.8542 C   0  0  0  0  0  0  0  0  0  0  0  0
   73.6629   48.5612   59.3589 N   0  0  0  0  0  0  0  0  0  0  0  0
   74.0234   48.5890   57.9512 C   0  0  0  0  0  0  0  0  0  0  0  0
   74.4733   49.9452   57.5917 C   0  0  0  0  0  0  0  0  0  0  0  0
   74.7900   50.8259   58.4404 N   0  0  0  0  0  0  0  0  0  0  0  0
   74.7656   50.6583   59.8556 C   0  0  0  0  0  0  0  0  0  0  0  0
   74.6246   49.2108   60.2637 C   0  0  0  0  0  0  0  0  0  0  0  0
   68.9213   48.2478   56.2906 C   0  0  0  0  0  0  0  0  0  0  0  0
   69.3431   48.3364   54.8973 C   0  0  0  0  0  0  0  0  0  0  0  0
   70.2497   49.2764   54.4959 N   0  0  0  0  0  0  0  0  0  0  0  0
   70.6337   49.4230   53.2411 N   0  0  0  0  0  0  0  0  0  0  0  0
   70.1647   48.6599   52.2609 C   0  0  0  0  0  0  0  0  0  0  0  0
   70.5312   48.8001   51.0634 O   0  0  0  0  0  0  0  0  0  0  0  0
   69.2453   47.6834   52.5708 C   0  0  0  0  0  0  0  0  0  0  0  0
   68.7578   46.8745   51.5708 C   0  0  0  0  0  0  0  0  0  0  0  0
   67.8494   45.8880   51.8862 C   0  0  0  0  0  0  0  0  0  0  0  0
   67.4347   45.7152   53.1852 C   0  0  0  0  0  0  0  0  0  0  0  0
   67.9413   46.5397   54.1597 C   0  0  0  0  0  0  0  0  0  0  0  0
   68.8386   47.5269   53.8942 C   0  0  0  0  0  0  0  0  0  0  0  0
  8  9  2  0
  9  1  1  0
  9 10  1  0
  1  2  2  0
  1  6  1  0
  2  3  1  0
  3 16  1  0
  3  4  2  0
 16 17  1  0
 17 18  2  0
 17 27  1  0
 18 19  1  0
 19 20  1  0
 20 21  2  0
 20 22  1  0
 22 23  1  0
 22 27  2  0
 23 24  2  0
 24 25  1  0
 25 26  2  0
 26 27  1  0
  4  5  1  0
  5  6  2  0
  6  7  1  0
 10 11  1  0
 10 15  1  0
 11 12  1  0
 12 13  2  0
 13 14  1  0
 14 15  1  0
M  END
>  <minimizedAffinity>  (209) 
-9.44585

$$$$
cs_full_output_folder/data/smiles/740.pdb
     RDKit          3D

 23 24  0  0  0  0  0  0  0  0999 V2000
   71.4552   49.1160   52.9190 O   0  0  0  0  0  0  0  0  0  0  0  0
   69.9853   49.2496   52.5145 S   0  0  0  0  0  0  0  0  0  0  0  0
   70.0631   49.2069   51.0150 O   0  0  0  0  0  0  0  0  0  0  0  0
   69.2375   47.8208   53.1636 C   0  0  0  0  0  0  0  0  0  0  0  0
   68.5875   46.8975   52.4116 C   0  0  0  0  0  0  0  0  0  0  0  0
   68.5371   47.1237   51.0573 F   0  0  0  0  0  0  0  0  0  0  0  0
   67.9824   45.7533   52.9238 C   0  0  0  0  0  0  0  0  0  0  0  0
   67.3525   44.8817   52.0950 F   0  0  0  0  0  0  0  0  0  0  0  0
   68.0447   45.5397   54.2844 C   0  0  0  0  0  0  0  0  0  0  0  0
   67.4654   44.4355   54.8156 F   0  0  0  0  0  0  0  0  0  0  0  0
   68.6980   46.4550   55.0930 C   0  0  0  0  0  0  0  0  0  0  0  0
   68.7408   46.2121   56.4372 F   0  0  0  0  0  0  0  0  0  0  0  0
   69.2836   47.5762   54.5423 C   0  0  0  0  0  0  0  0  0  0  0  0
   69.9271   48.4767   55.3436 F   0  0  0  0  0  0  0  0  0  0  0  0
   69.3373   50.6396   53.1643 N   0  0  0  0  0  0  0  0  0  0  0  0
   69.7262   51.5489   54.1308 C   0  0  0  0  0  0  0  0  0  0  0  0
   71.0290   51.8694   54.4345 C   0  0  0  0  0  0  0  0  0  0  0  0
   71.3683   52.8064   55.4210 C   0  0  0  0  0  0  0  0  0  0  0  0
   70.3689   53.4412   56.1222 C   0  0  0  0  0  0  0  0  0  0  0  0
   70.6482   54.3424   57.0723 F   0  0  0  0  0  0  0  0  0  0  0  0
   69.0497   53.1467   55.8458 C   0  0  0  0  0  0  0  0  0  0  0  0
   68.7534   52.2233   54.8741 C   0  0  0  0  0  0  0  0  0  0  0  0
   67.4824   51.9293   54.6007 F   0  0  0  0  0  0  0  0  0  0  0  0
  1  2  2  0
  2  3  2  0
  2 15  1  0
  2  4  1  0
 15 16  1  0
 16 17  2  0
 16 22  1  0
 17 18  1  0
 18 19  2  0
 19 20  1  0
 19 21  1  0
 21 22  2  0
 22 23  1  0
  4  5  2  0
  4 13  1  0
  5  6  1  0
  5  7  1  0
  7  8  1  0
  7  9  2  0
  9 10  1  0
  9 11  1  0
 11 12  1  0
 11 13  2  0
 13 14  1  0
M  END
>  <minimizedAffinity>  (210) 
-9.44114

$$$$
cs_full_output_folder/data/smiles/3079.pdb
     RDKit          3D

 26 29  0  0  0  0  0  0  0  0999 V2000
   68.9608   49.8797   56.0087 C   0  0  0  0  0  0  0  0  0  0  0  0
   68.8398   51.2368   55.9733 C   0  0  0  0  0  0  0  0  0  0  0  0
   69.0258   51.9244   54.8081 C   0  0  0  0  0  0  0  0  0  0  0  0
   69.3386   51.2396   53.6606 C   0  0  0  0  0  0  0  0  0  0  0  0
   69.4730   49.8671   53.6410 C   0  0  0  0  0  0  0  0  0  0  0  0
   69.2760   49.2164   54.8439 C   0  0  0  0  0  0  0  0  0  0  0  0
   69.8753   48.9856   52.1646 S   0  0  0  0  0  0  0  0  0  0  0  0
   69.6986   49.8553   50.9697 O   0  0  0  0  0  0  0  0  0  0  0  0
   71.3234   48.5968   52.2468 O   0  0  0  0  0  0  0  0  0  0  0  0
   68.9013   47.5284   52.0503 C   0  0  0  0  0  0  0  0  0  0  0  0
   68.6588   46.6102   53.0519 C   0  0  0  0  0  0  0  0  0  0  0  0
   67.8480   45.6580   52.4710 C   0  0  0  0  0  0  0  0  0  0  0  0
   67.6334   46.0359   51.1524 C   0  0  0  0  0  0  0  0  0  0  0  0
   68.2782   47.1421   50.9645 O   0  0  0  0  0  0  0  0  0  0  0  0
   68.7687   49.1495   57.2611 C   0  0  0  0  0  0  0  0  0  0  0  0
   70.0209   43.8087   57.1830 O   0  0  0  0  0  0  0  0  0  0  0  0
   69.7567   45.0549   57.2230 C   0  0  0  0  0  0  0  0  0  0  0  0
   68.6895   45.5541   56.5754 N   0  0  0  0  0  0  0  0  0  0  0  0
   68.3771   46.8405   56.5884 N   0  0  0  0  0  0  0  0  0  0  0  0
   69.1380   47.7411   57.2741 C   0  0  0  0  0  0  0  0  0  0  0  0
   70.2307   47.2548   57.9422 C   0  0  0  0  0  0  0  0  0  0  0  0
   70.5650   45.9173   57.9344 C   0  0  0  0  0  0  0  0  0  0  0  0
   71.7146   45.3267   58.6316 C   0  0  0  0  0  0  0  0  0  0  0  0
   72.7108   46.3714   58.9881 C   0  0  0  0  0  0  0  0  0  0  0  0
   71.9412   47.4767   59.7282 C   0  0  0  0  0  0  0  0  0  0  0  0
   71.0627   48.2061   58.6976 C   0  0  0  0  0  0  0  0  0  0  0  0
 16 17  2  0
 17 18  1  0
 17 22  1  0
 18 19  1  0
 19 20  2  0
 20 15  1  0
 20 21  1  0
 15  1  1  0
  1  2  2  0
  1  6  1  0
  2  3  1  0
  3  4  2  0
  4  5  1  0
  5  7  1  0
  5  6  2  0
  7  8  2  0
  7  9  2  0
  7 10  1  0
 10 11  2  0
 10 14  1  0
 11 12  1  0
 12 13  2  0
 13 14  1  0
 21 22  2  0
 21 26  1  0
 22 23  1  0
 23 24  1  0
 24 25  1  0
 25 26  1  0
M  END
>  <minimizedAffinity>  (211) 
-9.44072

$$$$
cs_full_output_folder/data/smiles/4374.pdb
     RDKit          3D

 28 31  0  0  0  0  0  0  0  0999 V2000
   71.3295   47.0194   58.9408 C   0  0  0  0  0  0  0  0  0  0  0  0
   70.5375   47.8876   58.1749 C   0  0  0  0  0  0  0  0  0  0  0  0
   69.7310   47.4411   57.1615 C   0  0  0  0  0  0  0  0  0  0  0  0
   69.7522   46.0540   56.9437 C   0  0  0  0  0  0  0  0  0  0  0  0
   70.5270   45.1954   57.6911 C   0  0  0  0  0  0  0  0  0  0  0  0
   71.3304   45.6640   58.7040 C   0  0  0  0  0  0  0  0  0  0  0  0
   72.1091   44.8546   59.4654 F   0  0  0  0  0  0  0  0  0  0  0  0
   71.8773   47.2230   61.1808 O   0  0  0  0  0  0  0  0  0  0  0  0
   72.1692   47.5431   60.0070 C   0  0  0  0  0  0  0  0  0  0  0  0
   73.2886   48.3874   59.7843 N   0  0  0  0  0  0  0  0  0  0  0  0
   74.1092   48.8865   60.8737 C   0  0  0  0  0  0  0  0  0  0  0  0
   75.2203   49.7294   60.3055 C   0  0  0  0  0  0  0  0  0  0  0  0
   74.6572   50.8741   59.4970 C   0  0  0  0  0  0  0  0  0  0  0  0
   73.7367   50.3478   58.4276 C   0  0  2  0  0  0  0  0  0  0  0  0
   72.4187   50.7391   58.7006 F   0  0  0  0  0  0  0  0  0  0  0  0
   73.6826   48.8129   58.4440 C   0  0  0  0  0  0  0  0  0  0  0  0
   68.8737   48.2953   56.2964 C   0  0  0  0  0  0  0  0  0  0  0  0
   69.3158   48.3053   54.9299 C   0  0  0  0  0  0  0  0  0  0  0  0
   70.2891   49.2022   54.5819 N   0  0  0  0  0  0  0  0  0  0  0  0
   70.7361   49.3202   53.3434 N   0  0  0  0  0  0  0  0  0  0  0  0
   70.2766   48.5763   52.3343 C   0  0  0  0  0  0  0  0  0  0  0  0
   70.7217   48.7047   51.1411 O   0  0  0  0  0  0  0  0  0  0  0  0
   69.2969   47.6486   52.6039 C   0  0  0  0  0  0  0  0  0  0  0  0
   68.8192   46.8595   51.5767 C   0  0  0  0  0  0  0  0  0  0  0  0
   67.8498   45.9292   51.8820 C   0  0  0  0  0  0  0  0  0  0  0  0
   67.3713   45.7936   53.1845 C   0  0  0  0  0  0  0  0  0  0  0  0
   67.8652   46.5937   54.1879 C   0  0  0  0  0  0  0  0  0  0  0  0
   68.8221   47.5246   53.9221 C   0  0  0  0  0  0  0  0  0  0  0  0
  8  9  2  0
  9  1  1  0
  9 10  1  0
  1  2  2  0
  1  6  1  0
  2  3  1  0
  3 17  1  0
  3  4  2  0
 17 18  1  0
 18 19  2  0
 18 28  1  0
 19 20  1  0
 20 21  1  0
 21 22  2  0
 21 23  1  0
 23 24  1  0
 23 28  2  0
 24 25  2  0
 25 26  1  0
 26 27  2  0
 27 28  1  0
  4  5  1  0
  5  6  2  0
  6  7  1  0
 10 11  1  0
 10 16  1  0
 11 12  1  0
 12 13  1  0
 13 14  1  0
 14 15  1  1
 14 16  1  0
M  END
>  <minimizedAffinity>  (212) 
-9.43956

$$$$
cs_full_output_folder/data/smiles/3712.pdb
     RDKit          3D

 29 32  0  0  0  0  0  0  0  0999 V2000
   71.3877   46.8717   58.9185 C   0  0  0  0  0  0  0  0  0  0  0  0
   70.6087   47.6962   58.1245 C   0  0  0  0  0  0  0  0  0  0  0  0
   69.8010   47.2275   57.1297 C   0  0  0  0  0  0  0  0  0  0  0  0
   69.7785   45.8502   56.9259 C   0  0  0  0  0  0  0  0  0  0  0  0
   70.5442   45.0048   57.7023 C   0  0  0  0  0  0  0  0  0  0  0  0
   71.3566   45.4944   58.7043 C   0  0  0  0  0  0  0  0  0  0  0  0
   72.1203   44.7029   59.4858 F   0  0  0  0  0  0  0  0  0  0  0  0
   71.8647   47.3245   61.1561 O   0  0  0  0  0  0  0  0  0  0  0  0
   72.2102   47.4751   59.9484 C   0  0  0  0  0  0  0  0  0  0  0  0
   73.3586   48.2047   59.5821 N   0  0  0  0  0  0  0  0  0  0  0  0
   74.0928   48.7555   60.6796 C   0  0  0  0  0  0  0  0  0  0  0  0
   75.5865   48.7366   60.4855 C   0  0  0  0  0  0  0  0  0  0  0  0
   76.0790   49.7469   59.6052 N   0  0  0  0  0  0  0  0  0  0  0  0
   75.1425   50.0617   58.5410 C   0  0  0  0  0  0  0  0  0  0  0  0
   74.9082   48.8008   57.7676 C   0  0  2  0  0  0  0  0  0  0  0  0
   74.9054   48.9912   56.4000 F   0  0  0  0  0  0  0  0  0  0  0  0
   73.5651   48.2506   58.1568 C   0  0  0  0  0  0  0  0  0  0  0  0
   68.9730   48.0588   56.2808 C   0  0  0  0  0  0  0  0  0  0  0  0
   69.4833   48.2993   54.9207 C   0  0  0  0  0  0  0  0  0  0  0  0
   70.4108   49.1911   54.5980 N   0  0  0  0  0  0  0  0  0  0  0  0
   70.8133   49.3476   53.3664 N   0  0  0  0  0  0  0  0  0  0  0  0
   70.2988   48.6092   52.3865 C   0  0  0  0  0  0  0  0  0  0  0  0
   70.6676   48.7367   51.1804 O   0  0  0  0  0  0  0  0  0  0  0  0
   69.3245   47.6508   52.6219 C   0  0  0  0  0  0  0  0  0  0  0  0
   68.7886   46.8842   51.6100 C   0  0  0  0  0  0  0  0  0  0  0  0
   67.8205   45.9445   51.9002 C   0  0  0  0  0  0  0  0  0  0  0  0
   67.3971   45.7817   53.2070 C   0  0  0  0  0  0  0  0  0  0  0  0
   67.9486   46.5633   54.2055 C   0  0  0  0  0  0  0  0  0  0  0  0
   68.9304   47.5200   53.9314 C   0  0  0  0  0  0  0  0  0  0  0  0
  8  9  2  0
  9  1  1  0
  9 10  1  0
  1  2  2  0
  1  6  1  0
  2  3  1  0
  3 18  1  0
  3  4  2  0
 18 19  1  0
 19 20  2  0
 19 29  1  0
 20 21  1  0
 21 22  1  0
 22 23  2  0
 22 24  1  0
 24 25  1  0
 24 29  2  0
 25 26  2  0
 26 27  1  0
 27 28  2  0
 28 29  1  0
  4  5  1  0
  5  6  2  0
  6  7  1  0
 10 11  1  0
 10 17  1  0
 11 12  1  0
 12 13  1  0
 13 14  1  0
 14 15  1  0
 15 16  1  6
 15 17  1  0
M  CHG  1  13   1
M  END
>  <minimizedAffinity>  (213) 
-9.43941

$$$$
cs_full_output_folder/data/smiles/1333.pdb
     RDKit          3D

 25 27  0  0  0  0  0  0  0  0999 V2000
   68.4865   44.5570   56.1537 N   0  0  0  0  0  0  0  0  0  0  0  0
   69.3224   43.7557   56.9675 C   0  0  0  0  0  0  0  0  0  0  0  0
   70.3143   44.2951   57.4978 O   0  0  0  0  0  0  0  0  0  0  0  0
   69.0557   42.3299   57.1974 C   0  0  0  0  0  0  0  0  0  0  0  0
   67.9636   41.6001   56.7817 C   0  0  0  0  0  0  0  0  0  0  0  0
   68.1469   40.3212   57.2201 N   0  0  0  0  0  0  0  0  0  0  0  0
   69.2637   40.1894   57.8776 N   0  0  0  0  0  0  0  0  0  0  0  0
   69.8412   41.4210   57.8753 C   0  0  0  0  0  0  0  0  0  0  0  0
   69.7789   39.0022   58.4764 C   0  0  0  0  0  0  0  0  0  0  0  0
   71.0041   38.4767   58.1186 C   0  0  0  0  0  0  0  0  0  0  0  0
   71.4934   37.3150   58.7043 C   0  0  0  0  0  0  0  0  0  0  0  0
   70.7735   36.6404   59.6679 C   0  0  0  0  0  0  0  0  0  0  0  0
   71.3985   35.1642   60.4097 Cl  0  0  0  0  0  0  0  0  0  0  0  0
   69.5503   37.1617   60.0296 C   0  0  0  0  0  0  0  0  0  0  0  0
   69.0702   38.3166   59.4423 C   0  0  0  0  0  0  0  0  0  0  0  0
   68.6407   45.9411   55.8596 C   0  0  0  0  0  0  0  0  0  0  0  0
   69.3630   47.6674   52.6551 C   0  0  0  0  0  0  0  0  0  0  0  0
   68.5651   46.9957   51.7596 C   0  0  0  0  0  0  0  0  0  0  0  0
   67.7825   45.9608   52.2262 C   0  0  0  0  0  0  0  0  0  0  0  0
   67.8118   45.6199   53.5706 C   0  0  0  0  0  0  0  0  0  0  0  0
   68.6188   46.3093   54.4426 C   0  0  0  0  0  0  0  0  0  0  0  0
   69.3710   47.3189   53.9423 N   0  0  0  0  0  0  0  0  0  0  0  0
   69.8181   49.5485   51.0601 N   0  0  0  0  0  0  0  0  0  0  0  0
   70.1933   48.7595   52.1751 C   0  0  0  0  0  0  0  0  0  0  0  0
   71.2897   49.0453   52.7411 O   0  0  0  0  0  0  0  0  0  0  0  0
 23 24  1  0
 24 25  2  0
 24 17  1  0
 17 18  2  0
 17 22  1  0
 18 19  1  0
 19 20  2  0
 20 21  1  0
 21 16  1  0
 21 22  2  0
 16  1  1  0
  1  2  1  0
  2  3  2  0
  2  4  1  0
  4  5  1  0
  4  8  2  0
  5  6  2  0
  6  7  1  0
  7  9  1  0
  7  8  1  0
  9 10  2  0
  9 15  1  0
 10 11  1  0
 11 12  2  0
 12 13  1  0
 12 14  1  0
 14 15  2  0
M  END
>  <minimizedAffinity>  (214) 
-9.43835

$$$$
cs_full_output_folder/data/smiles/8477.pdb
     RDKit          3D

 28 31  0  0  0  0  0  0  0  0999 V2000
   71.6194   47.3222   58.7838 C   0  0  0  0  0  0  0  0  0  0  0  0
   70.7524   48.0547   57.9950 C   0  0  0  0  0  0  0  0  0  0  0  0
   69.8305   47.4622   57.1384 C   0  0  0  0  0  0  0  0  0  0  0  0
   69.7826   46.1051   57.0782 C   0  0  0  0  0  0  0  0  0  0  0  0
   70.6415   45.3132   57.8583 C   0  0  0  0  0  0  0  0  0  0  0  0
   71.5355   45.9465   58.6900 C   0  0  0  0  0  0  0  0  0  0  0  0
   72.3570   45.1741   59.4369 F   0  0  0  0  0  0  0  0  0  0  0  0
   74.3576   49.3566   61.4177 C   0  0  0  0  0  0  0  0  0  0  0  0
   74.7050   49.2832   59.9576 C   0  0  2  0  0  0  0  0  0  0  0  0
   74.9273   50.6508   59.3495 C   0  0  0  0  0  0  0  0  0  0  0  0
   75.5649   50.4341   58.0748 N   0  0  0  0  0  0  0  0  0  0  0  0
   74.8529   49.6095   57.1775 C   0  0  0  0  0  0  0  0  0  0  0  0
   73.9680   48.5624   57.7311 C   0  0  0  0  0  0  0  0  0  0  0  0
   73.7297   48.6075   59.1463 N   0  0  0  0  0  0  0  0  0  0  0  0
   72.5662   47.9925   59.6658 C   0  0  0  0  0  0  0  0  0  0  0  0
   72.2944   47.9948   60.9137 O   0  0  0  0  0  0  0  0  0  0  0  0
   68.9308   48.3354   56.3617 C   0  0  0  0  0  0  0  0  0  0  0  0
   69.3116   48.4230   54.9433 C   0  0  0  0  0  0  0  0  0  0  0  0
   70.2113   49.3612   54.5583 N   0  0  0  0  0  0  0  0  0  0  0  0
   70.6463   49.4946   53.3301 N   0  0  0  0  0  0  0  0  0  0  0  0
   70.1910   48.6668   52.3735 C   0  0  0  0  0  0  0  0  0  0  0  0
   70.6100   48.7921   51.1841 O   0  0  0  0  0  0  0  0  0  0  0  0
   69.2761   47.6794   52.6478 C   0  0  0  0  0  0  0  0  0  0  0  0
   68.8212   46.8589   51.6505 C   0  0  0  0  0  0  0  0  0  0  0  0
   67.8948   45.8953   51.9781 C   0  0  0  0  0  0  0  0  0  0  0  0
   67.4217   45.7422   53.2707 C   0  0  0  0  0  0  0  0  0  0  0  0
   67.9181   46.6034   54.2458 C   0  0  0  0  0  0  0  0  0  0  0  0
   68.8416   47.5787   53.9801 C   0  0  0  0  0  0  0  0  0  0  0  0
  9  8  1  1
  9 10  1  0
  9 14  1  0
 10 11  1  0
 11 12  1  0
 12 13  1  0
 13 14  1  0
 14 15  1  0
 15 16  2  0
 15  1  1  0
  1  2  2  0
  1  6  1  0
  2  3  1  0
  3 17  1  0
  3  4  2  0
 17 18  1  0
 18 19  2  0
 18 28  1  0
 19 20  1  0
 20 21  1  0
 21 22  2  0
 21 23  1  0
 23 24  1  0
 23 28  2  0
 24 25  2  0
 25 26  1  0
 26 27  2  0
 27 28  1  0
  4  5  1  0
  5  6  2  0
  6  7  1  0
M  CHG  1  11   1
M  END
>  <minimizedAffinity>  (215) 
-9.43808

$$$$
cs_full_output_folder/data/smiles/4190.pdb
     RDKit          3D

 26 27  0  0  0  0  0  0  0  0999 V2000
   68.6263   42.4505   57.0488 C   0  0  0  0  0  0  0  0  0  0  0  0
   67.9254   40.9961   57.2479 S   0  0  0  0  0  0  0  0  0  0  0  0
   70.5915   43.7144   57.9193 C   0  0  0  0  0  0  0  0  0  0  0  0
   69.8494   44.5948   58.3865 O   0  0  0  0  0  0  0  0  0  0  0  0
   70.0186   42.6225   57.2408 N   0  0  0  0  0  0  0  0  0  0  0  0
   74.3362   43.4071   58.3402 C   0  0  0  0  0  0  0  0  0  0  0  0
   74.1407   44.7072   58.3817 C   0  0  0  0  0  0  0  0  0  0  0  0
   72.7276   44.9755   58.2296 C   0  0  0  0  0  0  0  0  0  0  0  0
   72.0579   43.8531   58.0970 C   0  0  0  0  0  0  0  0  0  0  0  0
   73.0313   42.7541   58.1567 C   0  0  0  0  0  0  0  0  0  0  0  0
   75.5298   41.6190   59.5107 C   0  0  0  0  0  0  0  0  0  0  0  0
   75.6684   42.6981   58.4615 C   0  0  0  0  0  0  0  0  0  0  0  0
   76.7533   43.6529   58.8273 C   0  0  0  0  0  0  0  0  0  0  0  0
   67.8337   43.5588   56.6801 N   0  0  0  0  0  0  0  0  0  0  0  0
   67.9220   44.0484   55.3794 N   0  0  0  0  0  0  0  0  0  0  0  0
   68.1947   45.4013   55.1174 C   0  0  0  0  0  0  0  0  0  0  0  0
   68.3567   46.1507   56.1348 O   0  0  0  0  0  0  0  0  0  0  0  0
   68.3005   45.9813   53.8019 C   0  0  0  0  0  0  0  0  0  0  0  0
   67.5314   45.5137   52.7623 C   0  0  0  0  0  0  0  0  0  0  0  0
   67.6366   46.0726   51.5067 C   0  0  0  0  0  0  0  0  0  0  0  0
   68.5147   47.1121   51.2607 C   0  0  0  0  0  0  0  0  0  0  0  0
   69.2926   47.5941   52.2836 C   0  0  0  0  0  0  0  0  0  0  0  0
   69.1660   47.0131   53.5378 C   0  0  0  0  0  0  0  0  0  0  0  0
   70.2062   48.6576   52.0778 N   0  0  0  0  0  0  0  0  0  0  0  0
   71.1165   48.8360   52.9057 O   0  0  0  0  0  0  0  0  0  0  0  0
   70.0535   49.4504   50.9752 O   0  0  0  0  0  0  0  0  0  0  0  0
 11 12  1  0
 12 13  1  0
 12  6  1  0
  6  7  2  0
  6 10  1  0
  7  8  1  0
  8  9  2  0
  9  3  1  0
  9 10  1  0
  3  4  2  0
  3  5  1  0
  5  1  1  0
  1  2  2  0
  1 14  1  0
 14 15  1  0
 15 16  1  0
 16 17  2  0
 16 18  1  0
 18 19  2  0
 18 23  1  0
 19 20  1  0
 20 21  2  0
 21 22  1  0
 22 24  1  0
 22 23  2  0
 24 25  2  0
 24 26  1  0
M  CHG  2  24   1  26  -1
M  END
>  <minimizedAffinity>  (216) 
-9.43674

$$$$
cs_full_output_folder/data/smiles/5197.pdb
     RDKit          3D

 28 31  0  0  0  0  0  0  0  0999 V2000
   70.4949   45.0937   57.9786 C   0  0  0  0  0  0  0  0  0  0  0  0
   69.6886   45.8868   57.1675 C   0  0  0  0  0  0  0  0  0  0  0  0
   69.7101   47.2548   57.1459 C   0  0  0  0  0  0  0  0  0  0  0  0
   70.6330   47.8572   58.0278 C   0  0  0  0  0  0  0  0  0  0  0  0
   71.4509   47.1257   58.8471 C   0  0  0  0  0  0  0  0  0  0  0  0
   71.3769   45.7489   58.8171 C   0  0  0  0  0  0  0  0  0  0  0  0
   72.1586   44.9597   59.6045 F   0  0  0  0  0  0  0  0  0  0  0  0
   70.4265   43.5987   57.9514 C   0  0  0  0  0  0  0  0  0  0  0  0
   67.1017   40.6842   59.7903 N   0  0  0  0  0  0  0  0  0  0  0  0
   67.7526   41.1655   58.5597 C   0  0  1  0  0  0  0  0  0  0  0  0
   66.7897   41.8291   57.6237 C   0  0  0  0  0  0  0  0  0  0  0  0
   67.5227   41.9974   56.3039 C   0  0  2  0  0  0  0  0  0  0  0  0
   67.5884   40.7060   55.7586 F   0  0  0  0  0  0  0  0  0  0  0  0
   68.9167   42.4768   56.5726 C   0  0  0  0  0  0  0  0  0  0  0  0
   69.0348   43.1305   57.8733 N   0  0  1  0  0  0  0  0  0  0  0  0
   68.8789   42.0886   58.8850 C   0  0  0  0  0  0  0  0  0  0  0  0
   68.8658   48.1287   56.2807 C   0  0  0  0  0  0  0  0  0  0  0  0
   69.2860   48.2045   54.8869 C   0  0  0  0  0  0  0  0  0  0  0  0
   70.1946   49.1569   54.5026 N   0  0  0  0  0  0  0  0  0  0  0  0
   70.5795   49.3446   53.2727 N   0  0  0  0  0  0  0  0  0  0  0  0
   70.1423   48.6360   52.2295 C   0  0  0  0  0  0  0  0  0  0  0  0
   70.5066   48.8077   51.0405 O   0  0  0  0  0  0  0  0  0  0  0  0
   69.2097   47.6353   52.5289 C   0  0  0  0  0  0  0  0  0  0  0  0
   68.7271   46.8420   51.4969 C   0  0  0  0  0  0  0  0  0  0  0  0
   67.8281   45.8434   51.7980 C   0  0  0  0  0  0  0  0  0  0  0  0
   67.4294   45.6507   53.1011 C   0  0  0  0  0  0  0  0  0  0  0  0
   67.9203   46.4504   54.1088 C   0  0  0  0  0  0  0  0  0  0  0  0
   68.8076   47.4444   53.8343 C   0  0  0  0  0  0  0  0  0  0  0  0
 10  9  1  1
 10 11  1  0
 10 16  1  0
 11 12  1  0
 12 13  1  1
 12 14  1  0
 14 15  1  0
 15  8  1  6
 15 16  1  0
  8  1  1  0
  1  2  2  0
  1  6  1  0
  2  3  1  0
  3 17  1  0
  3  4  2  0
 17 18  1  0
 18 19  2  0
 18 28  1  0
 19 20  1  0
 20 21  1  0
 21 22  2  0
 21 23  1  0
 23 24  1  0
 23 28  2  0
 24 25  2  0
 25 26  1  0
 26 27  2  0
 27 28  1  0
  4  5  1  0
  5  6  2  0
  6  7  1  0
M  CHG  2   9   1  15   1
M  END
>  <minimizedAffinity>  (217) 
-9.43615

$$$$
cs_full_output_folder/data/smiles/1909.pdb
     RDKit          3D

 30 34  0  0  0  0  0  0  0  0999 V2000
   70.9569   46.3138   58.3108 C   0  0  0  0  0  0  0  0  0  0  0  0
   72.0309   46.9785   58.8618 C   0  0  0  0  0  0  0  0  0  0  0  0
   72.2205   48.3414   58.6068 C   0  0  0  0  0  0  0  0  0  0  0  0
   71.3389   49.0283   57.8035 C   0  0  0  0  0  0  0  0  0  0  0  0
   70.2556   48.3926   57.2378 C   0  0  0  0  0  0  0  0  0  0  0  0
   70.0973   47.0351   57.5143 C   0  0  0  0  0  0  0  0  0  0  0  0
   70.4538   44.5106   59.7225 O   0  0  0  0  0  0  0  0  0  0  0  0
   70.7141   44.8982   58.5457 C   0  0  0  0  0  0  0  0  0  0  0  0
   70.7415   43.8922   57.5551 N   0  0  0  0  0  0  0  0  0  0  0  0
   70.4935   42.5074   57.8422 C   0  0  0  0  0  0  0  0  0  0  0  0
   71.5397   41.6853   58.2074 C   0  0  0  0  0  0  0  0  0  0  0  0
   71.3291   40.3422   58.4903 C   0  0  0  0  0  0  0  0  0  0  0  0
   70.0645   39.7988   58.4117 C   0  0  0  0  0  0  0  0  0  0  0  0
   69.5182   38.5516   58.6167 C   0  0  0  0  0  0  0  0  0  0  0  0
   68.1935   38.5929   58.3905 N   0  0  0  0  0  0  0  0  0  0  0  0
   67.8912   39.8278   58.0493 N   0  0  0  0  0  0  0  0  0  0  0  0
   68.9873   40.6066   58.0447 C   0  0  0  0  0  0  0  0  0  0  0  0
   69.2431   41.9340   57.7735 C   0  0  0  0  0  0  0  0  0  0  0  0
   69.2498   49.0499   56.3656 C   0  0  0  0  0  0  0  0  0  0  0  0
   69.4950   48.8763   54.9250 C   0  0  0  0  0  0  0  0  0  0  0  0
   70.2707   49.7912   54.3044 N   0  0  0  0  0  0  0  0  0  0  0  0
   70.6007   49.8043   53.0520 N   0  0  0  0  0  0  0  0  0  0  0  0
   70.1623   48.8455   52.2457 C   0  0  0  0  0  0  0  0  0  0  0  0
   70.4821   48.8564   51.0294 O   0  0  0  0  0  0  0  0  0  0  0  0
   69.3478   47.8442   52.7911 C   0  0  0  0  0  0  0  0  0  0  0  0
   69.0155   47.8640   54.1365 C   0  0  0  0  0  0  0  0  0  0  0  0
   68.1510   46.8272   54.7472 C   0  0  0  0  0  0  0  0  0  0  0  0
   67.3174   46.1741   53.6327 C   0  0  0  0  0  0  0  0  0  0  0  0
   68.2475   45.6625   52.5457 C   0  0  0  0  0  0  0  0  0  0  0  0
   68.8897   46.8166   51.8461 C   0  0  0  0  0  0  0  0  0  0  0  0
  7  8  2  0
  8  9  1  0
  8  1  1  0
  9 10  1  0
 10 11  2  0
 10 18  1  0
 11 12  1  0
 12 13  2  0
 13 14  1  0
 13 17  1  0
 14 15  2  0
 15 16  1  0
 16 17  1  0
 17 18  2  0
  1  2  2  0
  1  6  1  0
  2  3  1  0
  3  4  2  0
  4  5  1  0
  5 19  1  0
  5  6  2  0
 19 20  1  0
 20 21  2  0
 20 26  1  0
 21 22  1  0
 22 23  1  0
 23 24  2  0
 23 25  1  0
 25 26  2  0
 25 30  1  0
 26 27  1  0
 27 28  1  0
 28 29  1  0
 29 30  1  0
M  END
>  <minimizedAffinity>  (218) 
-9.43518

$$$$
cs_full_output_folder/data/smiles/8125.pdb
     RDKit          3D

 28 31  0  0  0  0  0  0  0  0999 V2000
   71.3482   46.8628   58.8623 C   0  0  0  0  0  0  0  0  0  0  0  0
   70.5570   47.7520   58.1304 C   0  0  0  0  0  0  0  0  0  0  0  0
   69.7119   47.3600   57.1373 C   0  0  0  0  0  0  0  0  0  0  0  0
   69.6803   45.9741   56.8828 C   0  0  0  0  0  0  0  0  0  0  0  0
   70.4403   45.0752   57.5799 C   0  0  0  0  0  0  0  0  0  0  0  0
   71.2743   45.5265   58.5697 C   0  0  0  0  0  0  0  0  0  0  0  0
   72.0163   44.6226   59.2474 F   0  0  0  0  0  0  0  0  0  0  0  0
   71.7819   47.2765   61.1082 O   0  0  0  0  0  0  0  0  0  0  0  0
   72.2322   47.3719   59.9340 C   0  0  0  0  0  0  0  0  0  0  0  0
   73.4920   47.9241   59.6354 N   0  0  0  0  0  0  0  0  0  0  0  0
   73.9561   48.0052   58.2804 C   0  0  0  0  0  0  0  0  0  0  0  0
   74.1286   49.4418   57.9224 C   0  0  0  0  0  0  0  0  0  0  0  0
   74.4913   50.3734   58.9947 C   0  0  0  0  0  0  0  0  0  0  0  0
   75.7043   51.0428   58.6882 O   0  0  0  0  0  0  0  0  0  0  0  0
   74.5760   49.9027   60.3824 C   0  0  0  0  0  0  0  0  0  0  0  0
   74.3811   48.4364   60.6346 C   0  0  0  0  0  0  0  0  0  0  0  0
   68.8342   48.2573   56.3237 C   0  0  0  0  0  0  0  0  0  0  0  0
   69.2444   48.3107   54.9238 C   0  0  0  0  0  0  0  0  0  0  0  0
   70.2131   49.2112   54.5843 N   0  0  0  0  0  0  0  0  0  0  0  0
   70.7282   49.3531   53.4010 N   0  0  0  0  0  0  0  0  0  0  0  0
   70.3003   48.5625   52.3816 C   0  0  0  0  0  0  0  0  0  0  0  0
   70.8000   48.7000   51.2349 O   0  0  0  0  0  0  0  0  0  0  0  0
   69.3212   47.6269   52.6406 C   0  0  0  0  0  0  0  0  0  0  0  0
   68.8357   46.8049   51.6349 C   0  0  0  0  0  0  0  0  0  0  0  0
   67.8419   45.8720   51.8762 C   0  0  0  0  0  0  0  0  0  0  0  0
   67.3174   45.7570   53.1640 C   0  0  0  0  0  0  0  0  0  0  0  0
   67.8288   46.5960   54.1416 C   0  0  0  0  0  0  0  0  0  0  0  0
   68.7990   47.5096   53.9199 C   0  0  0  0  0  0  0  0  0  0  0  0
  8  9  2  0
  9  1  1  0
  9 10  1  0
  1  2  2  0
  1  6  1  0
  2  3  1  0
  3 17  1  0
  3  4  2  0
 17 18  1  0
 18 19  2  0
 18 28  1  0
 19 20  1  0
 20 21  1  0
 21 22  2  0
 21 23  1  0
 23 24  1  0
 23 28  2  0
 24 25  2  0
 25 26  1  0
 26 27  2  0
 27 28  1  0
  4  5  1  0
  5  6  2  0
  6  7  1  0
 10 11  1  0
 10 16  1  0
 11 12  1  0
 12 13  1  0
 13 14  1  0
 13 15  1  0
 15 16  1  0
M  END
>  <minimizedAffinity>  (219) 
-9.43363

$$$$
cs_full_output_folder/data/smiles/373.pdb
     RDKit          3D

 28 31  0  0  0  0  0  0  0  0999 V2000
   71.6576   47.3542   58.7768 C   0  0  0  0  0  0  0  0  0  0  0  0
   71.6363   45.9677   58.7139 C   0  0  0  0  0  0  0  0  0  0  0  0
   70.7415   45.3211   57.9038 C   0  0  0  0  0  0  0  0  0  0  0  0
   69.8204   46.0076   57.1123 C   0  0  0  0  0  0  0  0  0  0  0  0
   69.8361   47.3615   57.1673 C   0  0  0  0  0  0  0  0  0  0  0  0
   70.7372   48.0174   57.9844 C   0  0  0  0  0  0  0  0  0  0  0  0
   72.3024   48.2486   60.8264 O   0  0  0  0  0  0  0  0  0  0  0  0
   72.5859   48.0828   59.6249 C   0  0  0  0  0  0  0  0  0  0  0  0
   73.7871   48.5951   59.1032 N   0  0  0  0  0  0  0  0  0  0  0  0
   74.7608   49.3264   59.8674 C   0  0  0  0  0  0  0  0  0  0  0  0
   75.9930   49.5076   58.9912 C   0  0  0  0  0  0  0  0  0  0  0  0
   75.6934   50.2259   57.7725 N   0  0  0  0  0  0  0  0  0  0  0  0
   74.4728   49.7871   57.1524 C   0  0  0  0  0  0  0  0  0  0  0  0
   74.1089   48.3936   57.6834 C   0  0  0  0  0  0  0  0  0  0  0  0
   76.9769   49.9599   56.6621 S   0  0  0  0  0  0  0  0  0  0  0  0
   77.4414   51.4565   56.0539 O   0  0  0  0  0  0  0  0  0  0  0  0
   68.9172   48.2313   56.4051 C   0  0  0  0  0  0  0  0  0  0  0  0
   69.3862   48.2844   54.9846 C   0  0  0  0  0  0  0  0  0  0  0  0
   70.3437   49.1835   54.6306 N   0  0  0  0  0  0  0  0  0  0  0  0
   70.7740   49.3299   53.3990 N   0  0  0  0  0  0  0  0  0  0  0  0
   70.2907   48.5908   52.3993 C   0  0  0  0  0  0  0  0  0  0  0  0
   70.6855   48.7080   51.1964 O   0  0  0  0  0  0  0  0  0  0  0  0
   69.3158   47.6528   52.6693 C   0  0  0  0  0  0  0  0  0  0  0  0
   68.8068   46.8651   51.6601 C   0  0  0  0  0  0  0  0  0  0  0  0
   67.8470   45.9163   51.9191 C   0  0  0  0  0  0  0  0  0  0  0  0
   67.4203   45.7902   53.2254 C   0  0  0  0  0  0  0  0  0  0  0  0
   67.9155   46.5661   54.2481 C   0  0  0  0  0  0  0  0  0  0  0  0
   68.8677   47.5067   53.9759 C   0  0  0  0  0  0  0  0  0  0  0  0
  7  8  2  0
  8  1  1  0
  8  9  1  0
  1  2  2  0
  1  6  1  0
  2  3  1  0
  3  4  2  0
  4  5  1  0
  5 17  1  0
  5  6  2  0
 17 18  1  0
 18 19  2  0
 18 28  1  0
 19 20  1  0
 20 21  1  0
 21 22  2  0
 21 23  1  0
 23 24  1  0
 23 28  2  0
 24 25  2  0
 25 26  1  0
 26 27  2  0
 27 28  1  0
  9 10  1  0
  9 14  1  0
 10 11  1  0
 11 12  1  0
 12 15  1  0
 12 13  1  0
 15 16  1  0
 13 14  1  0
M  CHG  1  15   1
M  END
>  <minimizedAffinity>  (220) 
-9.43091

$$$$
cs_full_output_folder/data/smiles/4928.pdb
     RDKit          3D

 29 32  0  0  0  0  0  0  0  0999 V2000
   71.3104   46.8890   58.8809 C   0  0  0  0  0  0  0  0  0  0  0  0
   70.4345   47.6886   58.1402 C   0  0  0  0  0  0  0  0  0  0  0  0
   69.6189   47.1654   57.1775 C   0  0  0  0  0  0  0  0  0  0  0  0
   69.7104   45.7856   56.9764 C   0  0  0  0  0  0  0  0  0  0  0  0
   70.5675   44.9895   57.6979 C   0  0  0  0  0  0  0  0  0  0  0  0
   71.3846   45.5322   58.6666 C   0  0  0  0  0  0  0  0  0  0  0  0
   72.2423   44.7660   59.3944 F   0  0  0  0  0  0  0  0  0  0  0  0
   76.0171   47.7639   58.4086 C   0  0  0  0  0  0  0  0  0  0  0  0
   75.0713   48.8579   58.0290 C   0  0  2  0  0  0  0  0  0  0  0  0
   75.3528   49.2154   56.7066 O   0  0  0  0  0  0  0  0  0  0  0  0
   75.2097   50.1043   58.8716 C   0  0  0  0  0  0  0  0  0  0  0  0
   75.1177   49.7854   60.3406 C   0  0  0  0  0  0  0  0  0  0  0  0
   74.0862   48.7795   60.6786 C   0  0  0  0  0  0  0  0  0  0  0  0
   73.3514   48.2414   59.5723 N   0  0  0  0  0  0  0  0  0  0  0  0
   72.1607   47.4948   59.8954 C   0  0  0  0  0  0  0  0  0  0  0  0
   71.8124   47.3421   61.0909 O   0  0  0  0  0  0  0  0  0  0  0  0
   73.6583   48.3607   58.1814 C   0  0  0  0  0  0  0  0  0  0  0  0
   68.6679   47.9044   56.3230 C   0  0  0  0  0  0  0  0  0  0  0  0
   69.1353   48.0845   54.9524 C   0  0  0  0  0  0  0  0  0  0  0  0
   70.0424   49.0692   54.6872 N   0  0  0  0  0  0  0  0  0  0  0  0
   70.4799   49.3142   53.4645 N   0  0  0  0  0  0  0  0  0  0  0  0
   70.0703   48.6201   52.4024 C   0  0  0  0  0  0  0  0  0  0  0  0
   70.5191   48.8931   51.2430 O   0  0  0  0  0  0  0  0  0  0  0  0
   69.1569   47.6086   52.5856 C   0  0  0  0  0  0  0  0  0  0  0  0
   68.7431   46.8870   51.4908 C   0  0  0  0  0  0  0  0  0  0  0  0
   67.8362   45.8658   51.6794 C   0  0  0  0  0  0  0  0  0  0  0  0
   67.3665   45.5879   52.9422 C   0  0  0  0  0  0  0  0  0  0  0  0
   67.8080   46.3400   54.0206 C   0  0  0  0  0  0  0  0  0  0  0  0
   68.7066   47.3637   53.8759 C   0  0  0  0  0  0  0  0  0  0  0  0
  9  8  1  1
  9 10  1  0
  9 11  1  0
  9 17  1  0
 11 12  1  0
 12 13  1  0
 13 14  1  0
 14 15  1  0
 14 17  1  0
 15 16  2  0
 15  1  1  0
  1  2  2  0
  1  6  1  0
  2  3  1  0
  3 18  1  0
  3  4  2  0
 18 19  1  0
 19 20  2  0
 19 29  1  0
 20 21  1  0
 21 22  1  0
 22 23  2  0
 22 24  1  0
 24 25  1  0
 24 29  2  0
 25 26  2  0
 26 27  1  0
 27 28  2  0
 28 29  1  0
  4  5  1  0
  5  6  2  0
  6  7  1  0
M  END
>  <minimizedAffinity>  (221) 
-9.43057

$$$$
cs_full_output_folder/data/smiles/226.pdb
     RDKit          3D

 27 30  0  0  0  0  0  0  0  0999 V2000
   73.8293   49.8191   56.7205 C   0  0  0  0  0  0  0  0  0  0  0  0
   73.0979   49.1272   57.6629 C   0  0  0  0  0  0  0  0  0  0  0  0
   71.7413   48.9522   57.5863 C   0  0  0  0  0  0  0  0  0  0  0  0
   71.0398   49.4828   56.5244 C   0  0  0  0  0  0  0  0  0  0  0  0
   71.7719   50.1699   55.5891 C   0  0  0  0  0  0  0  0  0  0  0  0
   73.1260   50.3250   55.6971 N   0  0  0  0  0  0  0  0  0  0  0  0
   75.5841   49.4266   54.6495 O   0  0  0  0  0  0  0  0  0  0  0  0
   76.1268   49.7730   55.7359 C   0  0  0  0  0  0  0  0  0  0  0  0
   75.2484   49.9852   56.8286 N   0  0  0  0  0  0  0  0  0  0  0  0
   77.5718   49.9306   55.7997 C   0  0  0  0  0  0  0  0  0  0  0  0
   78.4411   48.9960   55.2879 C   0  0  0  0  0  0  0  0  0  0  0  0
   79.8188   49.2012   55.3755 C   0  0  0  0  0  0  0  0  0  0  0  0
   80.3203   50.3390   55.9748 C   0  0  0  0  0  0  0  0  0  0  0  0
   79.4547   51.2776   56.4881 C   0  0  0  0  0  0  0  0  0  0  0  0
   78.1017   51.0595   56.3925 C   0  0  0  0  0  0  0  0  0  0  0  0
   69.5649   49.3416   56.4029 C   0  0  0  0  0  0  0  0  0  0  0  0
   69.0819   48.0984   55.8491 C   0  0  0  0  0  0  0  0  0  0  0  0
   68.8383   47.0285   56.6655 N   0  0  0  0  0  0  0  0  0  0  0  0
   68.4263   45.8578   56.1962 N   0  0  0  0  0  0  0  0  0  0  0  0
   68.2142   45.6298   54.8796 C   0  0  0  0  0  0  0  0  0  0  0  0
   67.8226   44.5180   54.4248 O   0  0  0  0  0  0  0  0  0  0  0  0
   68.4408   46.6590   54.0214 C   0  0  0  0  0  0  0  0  0  0  0  0
   68.8774   47.8988   54.5264 C   0  0  0  0  0  0  0  0  0  0  0  0
   69.0509   48.9274   53.5022 C   0  0  0  0  0  0  0  0  0  0  0  0
   70.0511   48.3969   52.5012 C   0  0  0  0  0  0  0  0  0  0  0  0
   69.5554   47.1084   51.9292 C   0  0  0  0  0  0  0  0  0  0  0  0
   68.2762   46.5953   52.5496 C   0  0  0  0  0  0  0  0  0  0  0  0
  7  8  2  0
  8  9  1  0
  8 10  1  0
  9  1  1  0
  1  2  2  0
  1  6  1  0
  2  3  1  0
  3  4  2  0
  4 16  1  0
  4  5  1  0
 16 17  1  0
 17 18  2  0
 17 23  1  0
 18 19  1  0
 19 20  1  0
 20 21  2  0
 20 22  1  0
 22 23  2  0
 22 27  1  0
 23 24  1  0
 24 25  1  0
 25 26  1  0
 26 27  1  0
  5  6  2  0
 10 11  2  0
 10 15  1  0
 11 12  1  0
 12 13  2  0
 13 14  1  0
 14 15  2  0
M  END
>  <minimizedAffinity>  (222) 
-9.42701

$$$$
cs_full_output_folder/data/smiles/56.pdb
     RDKit          3D

 27 30  0  0  0  0  0  0  0  0999 V2000
   70.4069   45.6777   57.9226 C   0  0  0  0  0  0  0  0  0  0  0  0
   71.5483   46.0595   58.5610 C   0  0  0  0  0  0  0  0  0  0  0  0
   72.0782   47.3554   58.4938 C   0  0  0  0  0  0  0  0  0  0  0  0
   71.4180   48.2977   57.7483 C   0  0  0  0  0  0  0  0  0  0  0  0
   70.2446   47.9096   57.0918 C   0  0  0  0  0  0  0  0  0  0  0  0
   69.8029   46.6604   57.2012 N   0  0  0  0  0  0  0  0  0  0  0  0
   71.6081   43.1317   57.3851 O   0  0  0  0  0  0  0  0  0  0  0  0
   70.3900   43.1531   57.6705 C   0  0  0  0  0  0  0  0  0  0  0  0
   69.8047   44.4007   57.9337 N   0  0  0  0  0  0  0  0  0  0  0  0
   69.6917   41.8691   57.7026 C   0  0  0  0  0  0  0  0  0  0  0  0
   68.5162   41.6848   56.9935 C   0  0  0  0  0  0  0  0  0  0  0  0
   67.8076   40.5037   56.9815 C   0  0  0  0  0  0  0  0  0  0  0  0
   68.2641   39.4230   57.7034 C   0  0  0  0  0  0  0  0  0  0  0  0
   69.4324   39.5658   58.4222 C   0  0  0  0  0  0  0  0  0  0  0  0
   70.1369   40.7806   58.4189 C   0  0  0  0  0  0  0  0  0  0  0  0
   69.5550   48.9676   56.2904 C   0  0  0  0  0  0  0  0  0  0  0  0
   69.7566   48.7413   54.8709 C   0  0  0  0  0  0  0  0  0  0  0  0
   70.7914   49.3549   54.2201 N   0  0  0  0  0  0  0  0  0  0  0  0
   71.0270   49.1318   52.9187 N   0  0  0  0  0  0  0  0  0  0  0  0
   70.2765   48.3026   52.1753 C   0  0  0  0  0  0  0  0  0  0  0  0
   70.5526   48.1311   50.9412 O   0  0  0  0  0  0  0  0  0  0  0  0
   69.2249   47.6612   52.7745 C   0  0  0  0  0  0  0  0  0  0  0  0
   68.9916   47.9079   54.1385 C   0  0  0  0  0  0  0  0  0  0  0  0
   67.8320   47.2175   54.6883 C   0  0  0  0  0  0  0  0  0  0  0  0
   67.9095   45.7389   54.3505 C   0  0  0  0  0  0  0  0  0  0  0  0
   68.1651   45.4913   52.9070 C   0  0  0  0  0  0  0  0  0  0  0  0
   68.3352   46.7185   52.0579 C   0  0  0  0  0  0  0  0  0  0  0  0
  7  8  2  0
  8  9  1  0
  8 10  1  0
  9  1  1  0
  1  2  2  0
  1  6  1  0
  2  3  1  0
  3  4  2  0
  4  5  1  0
  5 16  1  0
  5  6  2  0
 16 17  1  0
 17 18  2  0
 17 23  1  0
 18 19  1  0
 19 20  1  0
 20 21  2  0
 20 22  1  0
 22 23  2  0
 22 27  1  0
 23 24  1  0
 24 25  1  0
 25 26  1  0
 26 27  1  0
 10 11  2  0
 10 15  1  0
 11 12  1  0
 12 13  2  0
 13 14  1  0
 14 15  2  0
M  END
>  <minimizedAffinity>  (223) 
-9.42609

$$$$
cs_full_output_folder/data/smiles/5140.pdb
     RDKit          3D

 29 32  0  0  0  0  0  0  0  0999 V2000
   70.2737   45.0296   57.9614 C   0  0  0  0  0  0  0  0  0  0  0  0
   69.6655   45.9914   57.2311 C   0  0  0  0  0  0  0  0  0  0  0  0
   70.0638   47.3370   57.1617 C   0  0  0  0  0  0  0  0  0  0  0  0
   71.1529   47.7059   57.8889 C   0  0  0  0  0  0  0  0  0  0  0  0
   71.8214   46.7691   58.6581 C   0  0  0  0  0  0  0  0  0  0  0  0
   71.3886   45.4646   58.6907 C   0  0  0  0  0  0  0  0  0  0  0  0
   72.0837   44.5973   59.4599 F   0  0  0  0  0  0  0  0  0  0  0  0
   68.9443   43.7538   60.1371 O   0  0  0  0  0  0  0  0  0  0  0  0
   69.2780   43.0343   59.1528 C   0  0  0  0  0  0  0  0  0  0  0  0
   69.9348   43.6752   58.0799 N   0  0  0  0  0  0  0  0  0  0  0  0
   68.9825   41.6255   59.1643 N   0  0  0  0  0  0  0  0  0  0  0  0
   69.3619   40.7885   58.0773 C   0  0  0  0  0  0  0  0  0  0  0  0
   68.1846   40.7216   57.1001 C   0  0  0  0  0  0  0  0  0  0  0  0
   67.0430   41.5376   57.5533 C   0  0  0  0  0  0  0  0  0  0  0  0
   66.5335   41.6209   58.7020 N   0  0  0  0  0  0  0  0  0  0  0  0
   66.8164   41.0089   59.9716 C   0  0  0  0  0  0  0  0  0  0  0  0
   68.2742   41.2048   60.3589 C   0  0  0  0  0  0  0  0  0  0  0  0
   69.2835   48.2698   56.3426 C   0  0  0  0  0  0  0  0  0  0  0  0
   69.6200   48.2973   54.9123 C   0  0  0  0  0  0  0  0  0  0  0  0
   70.5713   49.1696   54.4531 N   0  0  0  0  0  0  0  0  0  0  0  0
   70.8812   49.2741   53.1835 N   0  0  0  0  0  0  0  0  0  0  0  0
   70.3033   48.5443   52.2208 C   0  0  0  0  0  0  0  0  0  0  0  0
   70.6424   48.6926   51.0324 O   0  0  0  0  0  0  0  0  0  0  0  0
   69.3338   47.6413   52.6060 C   0  0  0  0  0  0  0  0  0  0  0  0
   68.7160   46.8551   51.6604 C   0  0  0  0  0  0  0  0  0  0  0  0
   67.7583   45.9386   52.0272 C   0  0  0  0  0  0  0  0  0  0  0  0
   67.4191   45.8124   53.3672 C   0  0  0  0  0  0  0  0  0  0  0  0
   68.0415   46.6023   54.3015 C   0  0  0  0  0  0  0  0  0  0  0  0
   68.9968   47.5214   53.9545 C   0  0  0  0  0  0  0  0  0  0  0  0
  8  9  2  0
  9 10  1  0
  9 11  1  0
 10  1  1  0
  1  2  2  0
  1  6  1  0
  2  3  1  0
  3 18  1  0
  3  4  2  0
 18 19  1  0
 19 20  2  0
 19 29  1  0
 20 21  1  0
 21 22  1  0
 22 23  2  0
 22 24  1  0
 24 25  1  0
 24 29  2  0
 25 26  2  0
 26 27  1  0
 27 28  2  0
 28 29  1  0
  4  5  1  0
  5  6  2  0
  6  7  1  0
 11 12  1  0
 11 17  1  0
 12 13  1  0
 13 14  1  0
 14 15  2  0
 15 16  1  0
 16 17  1  0
M  END
>  <minimizedAffinity>  (224) 
-9.42461

$$$$
cs_full_output_folder/data/smiles/2438.pdb
     RDKit          3D

 28 31  0  0  0  0  0  0  0  0999 V2000
   71.4964   47.0365   58.8315 C   0  0  0  0  0  0  0  0  0  0  0  0
   70.7028   47.8315   58.0514 C   0  0  0  0  0  0  0  0  0  0  0  0
   69.8073   47.2568   57.1376 C   0  0  0  0  0  0  0  0  0  0  0  0
   69.6969   45.9042   56.9951 C   0  0  0  0  0  0  0  0  0  0  0  0
   70.5104   45.1104   57.7984 C   0  0  0  0  0  0  0  0  0  0  0  0
   71.3909   45.6623   58.6962 C   0  0  0  0  0  0  0  0  0  0  0  0
   72.1777   44.8501   59.4671 F   0  0  0  0  0  0  0  0  0  0  0  0
   72.0099   47.8046   60.9388 O   0  0  0  0  0  0  0  0  0  0  0  0
   72.4506   47.5613   59.7842 C   0  0  0  0  0  0  0  0  0  0  0  0
   73.8250   47.8184   59.5280 N   0  0  0  0  0  0  0  0  0  0  0  0
   74.6110   48.3445   60.6317 C   0  0  0  0  0  0  0  0  0  0  0  0
   75.8853   48.9973   60.2375 C   0  0  0  0  0  0  0  0  0  0  0  0
   75.7540   50.0693   59.1975 C   0  0  0  0  0  0  0  0  0  0  0  0
   75.7566   49.5069   57.7918 C   0  0  0  0  0  0  0  0  0  0  0  0
   74.4321   48.8495   57.4579 C   0  0  0  0  0  0  0  0  0  0  0  0
   74.3461   47.5350   58.2008 C   0  0  0  0  0  0  0  0  0  0  0  0
   69.0039   48.2258   56.3151 C   0  0  0  0  0  0  0  0  0  0  0  0
   69.4018   48.2497   54.8979 C   0  0  0  0  0  0  0  0  0  0  0  0
   70.3643   49.1444   54.4991 N   0  0  0  0  0  0  0  0  0  0  0  0
   70.7366   49.2615   53.2519 N   0  0  0  0  0  0  0  0  0  0  0  0
   70.2364   48.5431   52.2475 C   0  0  0  0  0  0  0  0  0  0  0  0
   70.6567   48.7279   51.0874 O   0  0  0  0  0  0  0  0  0  0  0  0
   69.2650   47.6190   52.5584 C   0  0  0  0  0  0  0  0  0  0  0  0
   68.7295   46.8399   51.5570 C   0  0  0  0  0  0  0  0  0  0  0  0
   67.7694   45.8980   51.8502 C   0  0  0  0  0  0  0  0  0  0  0  0
   67.3855   45.7798   53.1664 C   0  0  0  0  0  0  0  0  0  0  0  0
   67.9141   46.5578   54.1906 C   0  0  0  0  0  0  0  0  0  0  0  0
   68.8621   47.4873   53.8903 C   0  0  0  0  0  0  0  0  0  0  0  0
  8  9  2  0
  9  1  1  0
  9 10  1  0
  1  2  2  0
  1  6  1  0
  2  3  1  0
  3 17  1  0
  3  4  2  0
 17 18  1  0
 18 19  2  0
 18 28  1  0
 19 20  1  0
 20 21  1  0
 21 22  2  0
 21 23  1  0
 23 24  1  0
 23 28  2  0
 24 25  2  0
 25 26  1  0
 26 27  2  0
 27 28  1  0
  4  5  1  0
  5  6  2  0
  6  7  1  0
 10 11  1  0
 10 16  1  0
 11 12  1  0
 12 13  1  0
 13 14  1  0
 14 15  1  0
 15 16  1  0
M  END
>  <minimizedAffinity>  (225) 
-9.42257

$$$$
cs_full_output_folder/data/smiles/8650.pdb
     RDKit          3D

 25 27  0  0  0  0  0  0  0  0999 V2000
   70.6592   47.2239   57.4217 O   0  0  0  0  0  0  0  0  0  0  0  0
   69.5499   47.0580   56.8495 C   0  0  0  0  0  0  0  0  0  0  0  0
   69.0508   45.7294   56.8306 N   0  0  0  0  0  0  0  0  0  0  0  0
   69.7206   44.6577   57.4049 N   0  0  0  0  0  0  0  0  0  0  0  0
   69.2921   43.3402   57.0496 C   0  0  0  0  0  0  0  0  0  0  0  0
   68.3289   43.2104   56.2381 O   0  0  0  0  0  0  0  0  0  0  0  0
   69.9175   42.1528   57.5800 C   0  0  0  0  0  0  0  0  0  0  0  0
   71.2707   42.1189   57.8015 C   0  0  0  0  0  0  0  0  0  0  0  0
   71.8895   40.9794   58.3326 C   0  0  0  0  0  0  0  0  0  0  0  0
   71.1116   39.8747   58.6357 C   0  0  0  0  0  0  0  0  0  0  0  0
   71.8811   38.4354   59.3103 Cl  0  0  0  0  0  0  0  0  0  0  0  0
   69.7651   39.8946   58.4209 C   0  0  0  0  0  0  0  0  0  0  0  0
   69.1699   41.0455   57.8885 C   0  0  0  0  0  0  0  0  0  0  0  0
   68.9048   48.2433   56.2656 C   0  0  0  0  0  0  0  0  0  0  0  0
   69.3029   48.3461   54.8284 C   0  0  0  0  0  0  0  0  0  0  0  0
   70.1943   49.2649   54.4356 N   0  0  0  0  0  0  0  0  0  0  0  0
   70.6318   49.4401   53.2107 N   0  0  0  0  0  0  0  0  0  0  0  0
   70.1472   48.6290   52.2567 C   0  0  0  0  0  0  0  0  0  0  0  0
   70.5825   48.8197   51.0977 O   0  0  0  0  0  0  0  0  0  0  0  0
   69.2245   47.6521   52.5642 C   0  0  0  0  0  0  0  0  0  0  0  0
   68.7477   46.8592   51.5570 C   0  0  0  0  0  0  0  0  0  0  0  0
   67.8135   45.8939   51.8575 C   0  0  0  0  0  0  0  0  0  0  0  0
   67.3786   45.7392   53.1443 C   0  0  0  0  0  0  0  0  0  0  0  0
   67.8562   46.5399   54.1802 C   0  0  0  0  0  0  0  0  0  0  0  0
   68.7943   47.5055   53.8640 C   0  0  0  0  0  0  0  0  0  0  0  0
  1  2  2  0
  2 14  1  0
  2  3  1  0
 14 15  1  0
 15 16  2  0
 15 25  1  0
 16 17  1  0
 17 18  1  0
 18 19  2  0
 18 20  1  0
 20 21  1  0
 20 25  2  0
 21 22  2  0
 22 23  1  0
 23 24  2  0
 24 25  1  0
  3  4  1  0
  4  5  1  0
  5  6  2  0
  5  7  1  0
  7  8  2  0
  7 13  1  0
  8  9  1  0
  9 10  2  0
 10 11  1  0
 10 12  1  0
 12 13  2  0
M  END
>  <minimizedAffinity>  (226) 
-9.42230

$$$$
cs_full_output_folder/data/smiles/3035.pdb
     RDKit          3D

 29 32  0  0  0  0  0  0  0  0999 V2000
   70.8053   45.7400   58.1561 C   0  0  0  0  0  0  0  0  0  0  0  0
   69.9464   46.4423   57.3499 C   0  0  0  0  0  0  0  0  0  0  0  0
   70.0285   47.8231   57.1233 C   0  0  0  0  0  0  0  0  0  0  0  0
   71.0357   48.5083   57.7509 C   0  0  0  0  0  0  0  0  0  0  0  0
   71.9117   47.8279   58.5654 C   0  0  0  0  0  0  0  0  0  0  0  0
   71.8021   46.4459   58.7715 C   0  0  0  0  0  0  0  0  0  0  0  0
   72.6901   45.8227   59.5945 F   0  0  0  0  0  0  0  0  0  0  0  0
   71.4845   43.4905   57.8546 O   0  0  0  0  0  0  0  0  0  0  0  0
   70.5949   44.3125   58.2824 C   0  0  0  0  0  0  0  0  0  0  0  0
   69.4713   43.6976   58.8478 N   0  0  0  0  0  0  0  0  0  0  0  0
   69.3164   42.2476   58.9422 C   0  0  1  0  0  0  0  0  0  0  0  0
   68.5520   41.8352   60.1552 C   0  0  0  0  0  0  0  0  0  0  0  0
   67.1737   41.2924   59.8079 C   0  0  0  0  0  0  0  0  0  0  0  0
   67.2566   40.1041   58.8912 C   0  0  0  0  0  0  0  0  0  0  0  0
   68.1274   40.3954   57.7170 C   0  0  2  0  0  0  0  0  0  0  0  0
   69.2468   39.5902   57.6408 F   0  0  0  0  0  0  0  0  0  0  0  0
   68.5618   41.8329   57.6953 C   0  0  0  0  0  0  0  0  0  0  0  0
   69.0113   48.4767   56.2332 C   0  0  0  0  0  0  0  0  0  0  0  0
   69.3436   48.4205   54.8117 C   0  0  0  0  0  0  0  0  0  0  0  0
   70.2261   49.3607   54.3586 N   0  0  0  0  0  0  0  0  0  0  0  0
   70.5986   49.4778   53.1070 N   0  0  0  0  0  0  0  0  0  0  0  0
   70.1169   48.6517   52.1623 C   0  0  0  0  0  0  0  0  0  0  0  0
   70.4941   48.7889   50.9553 O   0  0  0  0  0  0  0  0  0  0  0  0
   69.2204   47.6725   52.5386 C   0  0  0  0  0  0  0  0  0  0  0  0
   68.7243   46.8109   51.6024 C   0  0  0  0  0  0  0  0  0  0  0  0
   67.8412   45.8224   51.9744 C   0  0  0  0  0  0  0  0  0  0  0  0
   67.4754   45.7339   53.3199 C   0  0  0  0  0  0  0  0  0  0  0  0
   67.9773   46.6064   54.2590 C   0  0  0  0  0  0  0  0  0  0  0  0
   68.8482   47.5738   53.8665 C   0  0  0  0  0  0  0  0  0  0  0  0
  8  9  2  0
  9 10  1  0
  9  1  1  0
 11 10  1  6
 11 12  1  0
 11 17  1  0
 12 13  1  0
 13 14  1  0
 14 15  1  0
 15 16  1  1
 15 17  1  0
  1  2  2  0
  1  6  1  0
  2  3  1  0
  3 18  1  0
  3  4  2  0
 18 19  1  0
 19 20  2  0
 19 29  1  0
 20 21  1  0
 21 22  1  0
 22 23  2  0
 22 24  1  0
 24 25  1  0
 24 29  2  0
 25 26  2  0
 26 27  1  0
 27 28  2  0
 28 29  1  0
  4  5  1  0
  5  6  2  0
  6  7  1  0
M  END
>  <minimizedAffinity>  (227) 
-9.42159

$$$$
cs_full_output_folder/data/smiles/1532.pdb
     RDKit          3D

 29 32  0  0  0  0  0  0  0  0999 V2000
   71.5094   47.0264   58.8486 C   0  0  0  0  0  0  0  0  0  0  0  0
   70.6775   47.8333   58.0912 C   0  0  0  0  0  0  0  0  0  0  0  0
   69.7874   47.3223   57.1712 C   0  0  0  0  0  0  0  0  0  0  0  0
   69.7607   45.9491   57.0377 C   0  0  0  0  0  0  0  0  0  0  0  0
   70.5881   45.1459   57.7923 C   0  0  0  0  0  0  0  0  0  0  0  0
   71.4798   45.6569   58.7132 C   0  0  0  0  0  0  0  0  0  0  0  0
   72.2891   44.8393   59.4448 F   0  0  0  0  0  0  0  0  0  0  0  0
   73.0340   50.9665   57.8186 O   0  0  0  0  0  0  0  0  0  0  0  0
   73.9823   50.3317   58.2320 C   0  0  0  0  0  0  0  0  0  0  0  0
   74.5576   50.8080   59.5102 C   0  0  0  0  0  0  0  0  0  0  0  0
   75.4287   49.7328   60.1519 C   0  0  0  0  0  0  0  0  0  0  0  0
   74.4960   48.6170   60.5344 C   0  0  0  0  0  0  0  0  0  0  0  0
   73.7592   48.0554   59.4361 N   0  0  0  0  0  0  0  0  0  0  0  0
   72.4324   47.6285   59.8151 C   0  0  0  0  0  0  0  0  0  0  0  0
   72.0145   47.7556   60.9873 O   0  0  0  0  0  0  0  0  0  0  0  0
   74.1463   47.8600   58.0708 C   0  0  0  0  0  0  0  0  0  0  0  0
   74.4293   49.1837   57.4126 C   0  0  0  0  0  0  0  0  0  0  0  0
   68.8895   48.1917   56.3493 C   0  0  0  0  0  0  0  0  0  0  0  0
   69.3784   48.3268   54.9616 C   0  0  0  0  0  0  0  0  0  0  0  0
   70.3265   49.2266   54.6380 N   0  0  0  0  0  0  0  0  0  0  0  0
   70.7613   49.3428   53.4012 N   0  0  0  0  0  0  0  0  0  0  0  0
   70.2973   48.5898   52.4118 C   0  0  0  0  0  0  0  0  0  0  0  0
   70.7243   48.7144   51.2341 O   0  0  0  0  0  0  0  0  0  0  0  0
   69.3205   47.6473   52.6821 C   0  0  0  0  0  0  0  0  0  0  0  0
   68.8521   46.8824   51.6554 C   0  0  0  0  0  0  0  0  0  0  0  0
   67.8770   45.9360   51.8925 C   0  0  0  0  0  0  0  0  0  0  0  0
   67.3942   45.7856   53.1854 C   0  0  0  0  0  0  0  0  0  0  0  0
   67.8685   46.5613   54.2389 C   0  0  0  0  0  0  0  0  0  0  0  0
   68.8432   47.5056   53.9894 C   0  0  0  0  0  0  0  0  0  0  0  0
  8  9  2  0
  9 10  1  0
  9 17  1  0
 10 11  1  0
 11 12  1  0
 12 13  1  0
 13 14  1  0
 13 16  1  0
 14 15  2  0
 14  1  1  0
  1  2  2  0
  1  6  1  0
  2  3  1  0
  3 18  1  0
  3  4  2  0
 18 19  1  0
 19 20  2  0
 19 29  1  0
 20 21  1  0
 21 22  1  0
 22 23  2  0
 22 24  1  0
 24 25  1  0
 24 29  2  0
 25 26  2  0
 26 27  1  0
 27 28  2  0
 28 29  1  0
  4  5  1  0
  5  6  2  0
  6  7  1  0
 16 17  1  0
M  END
>  <minimizedAffinity>  (228) 
-9.42101

$$$$
cs_full_output_folder/data/smiles/806.pdb
     RDKit          3D

 27 28  0  0  0  0  0  0  0  0999 V2000
   68.6799   42.4681   57.2861 C   0  0  0  0  0  0  0  0  0  0  0  0
   70.2815   42.6780   57.4306 S   0  0  0  0  0  0  0  0  0  0  0  0
   67.3679   41.1412   58.9356 C   0  0  0  0  0  0  0  0  0  0  0  0
   67.2418   42.1995   59.6414 O   0  0  0  0  0  0  0  0  0  0  0  0
   68.0972   41.2599   57.7354 N   0  0  0  0  0  0  0  0  0  0  0  0
   65.5746   37.5610   60.4327 C   0  0  0  0  0  0  0  0  0  0  0  0
   66.5905   37.5198   59.5212 C   0  0  0  0  0  0  0  0  0  0  0  0
   67.1615   38.6782   59.0396 C   0  0  0  0  0  0  0  0  0  0  0  0
   66.7481   39.9300   59.4435 C   0  0  0  0  0  0  0  0  0  0  0  0
   65.7241   39.9660   60.3622 C   0  0  0  0  0  0  0  0  0  0  0  0
   65.1309   38.8005   60.8643 C   0  0  0  0  0  0  0  0  0  0  0  0
   66.0191   35.2403   61.1061 C   0  0  0  0  0  0  0  0  0  0  0  0
   64.9324   36.3057   60.9548 C   0  0  0  0  0  0  0  0  0  0  0  0
   64.3453   36.5311   62.3267 C   0  0  0  0  0  0  0  0  0  0  0  0
   67.8897   43.4649   56.7149 N   0  0  0  0  0  0  0  0  0  0  0  0
   67.9914   43.9914   55.4277 N   0  0  0  0  0  0  0  0  0  0  0  0
   68.2085   45.3469   55.1417 C   0  0  0  0  0  0  0  0  0  0  0  0
   68.3196   46.1166   56.1508 O   0  0  0  0  0  0  0  0  0  0  0  0
   68.3181   45.9588   53.8341 C   0  0  0  0  0  0  0  0  0  0  0  0
   67.5871   45.4863   52.7637 C   0  0  0  0  0  0  0  0  0  0  0  0
   67.6742   46.0403   51.4994 C   0  0  0  0  0  0  0  0  0  0  0  0
   68.5126   47.1120   51.2482 C   0  0  0  0  0  0  0  0  0  0  0  0
   69.2421   47.5797   52.3302 C   0  0  0  0  0  0  0  0  0  0  0  0
   69.1617   47.0376   53.5807 C   0  0  0  0  0  0  0  0  0  0  0  0
   70.1211   48.6717   52.1189 N   0  0  0  0  0  0  0  0  0  0  0  0
   69.9856   49.4515   51.1449 O   0  0  0  0  0  0  0  0  0  0  0  0
   71.1680   48.9426   52.9588 O   0  0  0  0  0  0  0  0  0  0  0  0
 12 13  1  0
 13 14  1  0
 13  6  1  0
  6  7  2  0
  6 11  1  0
  7  8  1  0
  8  9  2  0
  9  3  1  0
  9 10  1  0
  3  4  2  0
  3  5  1  0
  5  1  1  0
  1  2  2  0
  1 15  1  0
 15 16  1  0
 16 17  1  0
 17 18  2  0
 17 19  1  0
 19 20  2  0
 19 24  1  0
 20 21  1  0
 21 22  2  0
 22 23  1  0
 23 25  1  0
 23 24  2  0
 25 26  2  0
 25 27  1  0
 10 11  2  0
M  CHG  2  25   1  27  -1
M  END
>  <minimizedAffinity>  (229) 
-9.41875

$$$$
cs_full_output_folder/data/smiles/9085.pdb
     RDKit          3D

 29 32  0  0  0  0  0  0  0  0999 V2000
   71.4436   47.3070   58.8774 C   0  0  0  0  0  0  0  0  0  0  0  0
   70.6309   48.0267   58.0538 C   0  0  0  0  0  0  0  0  0  0  0  0
   69.7717   47.4347   57.1185 C   0  0  0  0  0  0  0  0  0  0  0  0
   69.7808   46.0682   57.0642 C   0  0  0  0  0  0  0  0  0  0  0  0
   70.5959   45.2791   57.8887 C   0  0  0  0  0  0  0  0  0  0  0  0
   71.4144   45.9181   58.7826 C   0  0  0  0  0  0  0  0  0  0  0  0
   72.2374   45.2208   59.6219 F   0  0  0  0  0  0  0  0  0  0  0  0
   75.6323   46.5652   59.7765 C   0  0  0  0  0  0  0  0  0  0  0  0
   75.9160   47.8991   59.0845 C   0  0  0  0  0  0  0  0  0  0  0  0
   77.2745   47.8576   58.6930 O   0  0  0  0  0  0  0  0  0  0  0  0
   75.1055   48.0583   57.8429 C   0  0  0  0  0  0  0  0  0  0  0  0
   73.8442   48.8849   58.0307 C   0  0  0  0  0  0  0  0  0  0  0  0
   73.4625   48.6835   59.4316 N   0  0  0  0  0  0  0  0  0  0  0  0
   72.3477   47.9384   59.8503 C   0  0  0  0  0  0  0  0  0  0  0  0
   72.1424   47.8242   61.0819 O   0  0  0  0  0  0  0  0  0  0  0  0
   74.3449   49.3423   60.3935 C   0  0  0  0  0  0  0  0  0  0  0  0
   75.7760   49.0021   60.0881 C   0  0  0  0  0  0  0  0  0  0  0  0
   68.9145   48.3192   56.2584 C   0  0  0  0  0  0  0  0  0  0  0  0
   69.3166   48.3400   54.8472 C   0  0  0  0  0  0  0  0  0  0  0  0
   70.2110   49.2849   54.4232 N   0  0  0  0  0  0  0  0  0  0  0  0
   70.5967   49.4548   53.1975 N   0  0  0  0  0  0  0  0  0  0  0  0
   70.1160   48.6693   52.2111 C   0  0  0  0  0  0  0  0  0  0  0  0
   70.5012   48.8468   51.0188 O   0  0  0  0  0  0  0  0  0  0  0  0
   69.2125   47.6835   52.5207 C   0  0  0  0  0  0  0  0  0  0  0  0
   68.7222   46.8528   51.5251 C   0  0  0  0  0  0  0  0  0  0  0  0
   67.8357   45.8695   51.9088 C   0  0  0  0  0  0  0  0  0  0  0  0
   67.4278   45.6864   53.2128 C   0  0  0  0  0  0  0  0  0  0  0  0
   67.9381   46.5312   54.1621 C   0  0  0  0  0  0  0  0  0  0  0  0
   68.8223   47.5313   53.8479 C   0  0  0  0  0  0  0  0  0  0  0  0
  8  9  1  0
  9 10  1  0
  9 11  1  0
  9 17  1  0
 11 12  1  0
 12 13  1  0
 13 14  1  0
 13 16  1  0
 14 15  2  0
 14  1  1  0
  1  2  2  0
  1  6  1  0
  2  3  1  0
  3 18  1  0
  3  4  2  0
 18 19  1  0
 19 20  2  0
 19 29  1  0
 20 21  1  0
 21 22  1  0
 22 23  2  0
 22 24  1  0
 24 25  1  0
 24 29  2  0
 25 26  2  0
 26 27  1  0
 27 28  2  0
 28 29  1  0
  4  5  1  0
  5  6  2  0
  6  7  1  0
 16 17  1  0
M  END
>  <minimizedAffinity>  (230) 
-9.41774

$$$$
cs_full_output_folder/data/smiles/1550.pdb
     RDKit          3D

 29 32  0  0  0  0  0  0  0  0999 V2000
   71.6247   47.1104   59.0181 C   0  0  0  0  0  0  0  0  0  0  0  0
   70.6477   47.7261   58.2547 C   0  0  0  0  0  0  0  0  0  0  0  0
   69.8124   47.0383   57.4037 C   0  0  0  0  0  0  0  0  0  0  0  0
   69.9952   45.6540   57.3406 C   0  0  0  0  0  0  0  0  0  0  0  0
   70.9651   45.0272   58.0960 C   0  0  0  0  0  0  0  0  0  0  0  0
   71.7832   45.7441   58.9367 C   0  0  0  0  0  0  0  0  0  0  0  0
   72.7492   45.1390   59.6933 F   0  0  0  0  0  0  0  0  0  0  0  0
   76.9090   51.1540   59.0065 O   0  0  0  0  0  0  0  0  0  0  0  0
   75.9569   50.3377   59.0062 C   0  0  0  0  0  0  0  0  0  0  0  0
   74.8633   50.6731   59.9291 C   0  0  0  0  0  0  0  0  0  0  0  0
   74.2769   49.3772   60.4412 C   0  0  0  0  0  0  0  0  0  0  0  0
   73.5589   48.6751   59.3814 N   0  0  0  0  0  0  0  0  0  0  0  0
   72.4915   47.9058   59.9135 C   0  0  0  0  0  0  0  0  0  0  0  0
   72.2043   47.8394   61.1411 O   0  0  0  0  0  0  0  0  0  0  0  0
   73.7121   48.6141   57.9712 C   0  0  0  0  0  0  0  0  0  0  0  0
   75.1038   48.4577   57.4739 C   0  0  0  0  0  0  0  0  0  0  0  0
   76.1006   49.2578   58.1332 N   0  0  0  0  0  0  0  0  0  0  0  0
   68.7733   47.7097   56.5813 C   0  0  0  0  0  0  0  0  0  0  0  0
   69.2705   48.0313   55.2321 C   0  0  0  0  0  0  0  0  0  0  0  0
   70.1782   49.0159   55.0103 N   0  0  0  0  0  0  0  0  0  0  0  0
   70.6603   49.3425   53.8468 N   0  0  0  0  0  0  0  0  0  0  0  0
   70.2456   48.6720   52.7578 C   0  0  0  0  0  0  0  0  0  0  0  0
   70.7247   49.0029   51.6337 O   0  0  0  0  0  0  0  0  0  0  0  0
   69.3309   47.6613   52.8741 C   0  0  0  0  0  0  0  0  0  0  0  0
   68.8960   46.9682   51.7650 C   0  0  0  0  0  0  0  0  0  0  0  0
   67.9683   45.9484   51.8854 C   0  0  0  0  0  0  0  0  0  0  0  0
   67.4653   45.6091   53.1088 C   0  0  0  0  0  0  0  0  0  0  0  0
   67.8960   46.3015   54.2449 C   0  0  0  0  0  0  0  0  0  0  0  0
   68.8226   47.3210   54.1294 C   0  0  0  0  0  0  0  0  0  0  0  0
  8  9  2  0
  9 10  1  0
  9 17  1  0
 10 11  1  0
 11 12  1  0
 12 13  1  0
 12 15  1  0
 13 14  2  0
 13  1  1  0
  1  2  2  0
  1  6  1  0
  2  3  1  0
  3 18  1  0
  3  4  2  0
 18 19  1  0
 19 20  2  0
 19 29  1  0
 20 21  1  0
 21 22  1  0
 22 23  2  0
 22 24  1  0
 24 25  1  0
 24 29  2  0
 25 26  2  0
 26 27  1  0
 27 28  2  0
 28 29  1  0
  4  5  1  0
  5  6  2  0
  6  7  1  0
 15 16  1  0
 16 17  1  0
M  END
>  <minimizedAffinity>  (231) 
-9.41316

$$$$
cs_full_output_folder/data/smiles/1692.pdb
     RDKit          3D

 28 31  0  0  0  0  0  0  0  0999 V2000
   71.3568   51.9341   55.5268 C   0  0  1  0  0  0  0  0  0  0  0  0
   70.1481   51.5720   56.2541 C   0  0  0  0  0  0  0  0  0  0  0  0
   70.1347   50.9079   57.4611 C   0  0  0  0  0  0  0  0  0  0  0  0
   68.8918   50.6365   58.0288 C   0  0  0  0  0  0  0  0  0  0  0  0
   67.7002   50.9928   57.4553 C   0  0  0  0  0  0  0  0  0  0  0  0
   66.4956   50.7254   58.0147 F   0  0  0  0  0  0  0  0  0  0  0  0
   67.7273   51.6550   56.2531 C   0  0  0  0  0  0  0  0  0  0  0  0
   68.9214   51.9359   55.6711 C   0  0  0  0  0  0  0  0  0  0  0  0
   68.9155   52.6003   54.4664 F   0  0  0  0  0  0  0  0  0  0  0  0
   72.2955   52.8030   56.1854 N   0  0  0  0  0  0  0  0  0  0  0  0
   71.4794   53.8889   56.8009 C   0  0  0  0  0  0  0  0  0  0  0  0
   72.2850   54.2408   58.0619 C   0  0  0  0  0  0  0  0  0  0  0  0
   73.7619   54.3234   57.6749 C   0  0  0  0  0  0  0  0  0  0  0  0
   73.8640   54.6115   56.1695 C   0  0  0  0  0  0  0  0  0  0  0  0
   73.2189   53.4911   55.3490 C   0  0  0  0  0  0  0  0  0  0  0  0
   71.9986   50.8078   54.7481 C   0  0  0  0  0  0  0  0  0  0  0  0
   70.2730   50.2191   52.6520 O   0  0  0  0  0  0  0  0  0  0  0  0
   70.2983   49.3693   53.5761 C   0  0  0  0  0  0  0  0  0  0  0  0
   71.1627   49.6345   54.6580 N   0  0  0  0  0  0  0  0  0  0  0  0
   69.4524   48.1863   53.4791 C   0  0  0  0  0  0  0  0  0  0  0  0
   69.0804   47.4165   54.5564 C   0  0  0  0  0  0  0  0  0  0  0  0
   68.2635   46.2914   54.3841 C   0  0  0  0  0  0  0  0  0  0  0  0
   67.8019   45.9128   53.1435 C   0  0  0  0  0  0  0  0  0  0  0  0
   67.0201   44.8965   52.7119 N   0  0  0  0  0  0  0  0  0  0  0  0
   66.8961   45.0143   51.3990 N   0  0  0  0  0  0  0  0  0  0  0  0
   67.5802   46.0845   50.9645 C   0  0  0  0  0  0  0  0  0  0  0  0
   68.1701   46.6786   52.0630 C   0  0  0  0  0  0  0  0  0  0  0  0
   68.9812   47.7927   52.2450 C   0  0  0  0  0  0  0  0  0  0  0  0
 17 18  2  0
 18 19  1  0
 18 20  1  0
 19 16  1  0
  1 16  1  1
  1  2  1  0
  1 10  1  0
  2  3  2  0
  2  8  1  0
  3  4  1  0
  4  5  2  0
  5  6  1  0
  5  7  1  0
  7  8  2  0
  8  9  1  0
 10 11  1  0
 10 15  1  0
 11 12  1  0
 12 13  1  0
 13 14  1  0
 14 15  1  0
 20 21  2  0
 20 28  1  0
 21 22  1  0
 22 23  2  0
 23 24  1  0
 23 27  1  0
 24 25  1  0
 25 26  2  0
 26 27  1  0
 27 28  2  0
M  CHG  1  10   1
M  END
>  <minimizedAffinity>  (232) 
-9.41194

$$$$
cs_full_output_folder/data/smiles/4290.pdb
     RDKit          3D

 27 29  0  0  0  0  0  0  0  0999 V2000
   71.4427   44.4417   58.6097 C   0  0  0  0  0  0  0  0  0  0  0  0
   70.6661   43.7340   59.3532 C   0  0  0  0  0  0  0  0  0  0  0  0
   70.7161   42.3208   59.3658 C   0  0  0  0  0  0  0  0  0  0  0  0
   71.7289   41.7212   58.4531 C   0  0  0  0  0  0  0  0  0  0  0  0
   72.4768   42.5461   57.7427 C   0  0  0  0  0  0  0  0  0  0  0  0
   72.3979   43.9909   57.7528 C   0  0  0  0  0  0  0  0  0  0  0  0
   71.1043   46.2346   58.6701 S   0  0  0  0  0  0  0  0  0  0  0  0
   72.0696   46.9177   57.8006 O   0  0  0  0  0  0  0  0  0  0  0  0
   71.2458   46.5807   60.1323 O   0  0  0  0  0  0  0  0  0  0  0  0
   69.5086   46.3384   58.1611 O   0  0  0  0  0  0  0  0  0  0  0  0
   69.2739   45.6466   57.0534 N   0  0  0  0  0  0  0  0  0  0  0  0
   67.2894   45.2986   52.5560 N   0  0  0  0  0  0  0  0  0  0  0  0
   67.8990   46.0495   53.5578 C   0  0  0  0  0  0  0  0  0  0  0  0
   68.3868   47.3759   53.3349 C   0  0  0  0  0  0  0  0  0  0  0  0
   69.0633   48.0558   54.2700 C   0  0  0  0  0  0  0  0  0  0  0  0
   69.3691   47.5724   55.5271 C   0  0  0  0  0  0  0  0  0  0  0  0
   68.8898   46.2303   55.7794 C   0  0  0  0  0  0  0  0  0  0  0  0
   68.2235   45.5965   54.8451 C   0  0  0  0  0  0  0  0  0  0  0  0
   71.6394   40.3514   58.4684 C   0  0  0  0  0  0  0  0  0  0  0  0
   71.5776   39.1566   58.4944 C   0  0  0  0  0  0  0  0  0  0  0  0
   71.4759   37.6348   58.5435 C   0  0  0  0  0  0  0  0  0  0  0  0
   70.8512   36.9472   59.5252 C   0  0  0  0  0  0  0  0  0  0  0  0
   71.0168   35.5310   59.5781 C   0  0  0  0  0  0  0  0  0  0  0  0
   71.7884   34.9376   58.6523 C   0  0  0  0  0  0  0  0  0  0  0  0
   71.9482   33.5400   58.7650 F   0  0  0  0  0  0  0  0  0  0  0  0
   72.4335   35.5788   57.6477 C   0  0  0  0  0  0  0  0  0  0  0  0
   72.2766   36.9572   57.5862 C   0  0  0  0  0  0  0  0  0  0  0  0
 12 13  1  0
 13 14  2  0
 13 18  1  0
 14 15  1  0
 15 16  2  0
 16 17  1  0
 17 11  1  0
 17 18  2  0
 11 10  1  0
 10  7  1  0
  7  8  2  0
  7  9  2  0
  7  1  1  0
  1  2  2  0
  1  6  1  0
  2  3  1  0
  3  4  2  0
  4 19  1  0
  4  5  1  0
 19 20  3  0
 20 21  1  0
 21 22  2  0
 21 27  1  0
 22 23  1  0
 23 24  2  0
 24 25  1  0
 24 26  1  0
 26 27  2  0
  5  6  2  0
M  END
>  <minimizedAffinity>  (233) 
-9.40817

$$$$
cs_full_output_folder/data/smiles/4433.pdb
     RDKit          3D

 28 32  0  0  0  0  0  0  0  0999 V2000
   70.6731   46.3100   58.4678 C   0  0  0  0  0  0  0  0  0  0  0  0
   69.8230   46.8480   57.5480 C   0  0  0  0  0  0  0  0  0  0  0  0
   69.7870   48.2177   57.2573 C   0  0  0  0  0  0  0  0  0  0  0  0
   70.6541   49.0130   57.9470 C   0  0  0  0  0  0  0  0  0  0  0  0
   71.5367   48.4949   58.8954 C   0  0  0  0  0  0  0  0  0  0  0  0
   71.5366   47.1449   59.1463 C   0  0  0  0  0  0  0  0  0  0  0  0
   72.3919   46.6047   60.0715 F   0  0  0  0  0  0  0  0  0  0  0  0
   69.7251   44.3307   59.3348 O   0  0  0  0  0  0  0  0  0  0  0  0
   70.7030   44.8862   58.7616 C   0  0  0  0  0  0  0  0  0  0  0  0
   71.8386   44.1108   58.4033 N   0  0  0  0  0  0  0  0  0  0  0  0
   73.1080   44.3924   57.7546 C   0  0  0  0  0  0  0  0  0  0  0  0
   73.6655   43.2224   58.4864 C   0  0  0  0  0  0  0  0  0  0  0  0
   74.7581   42.4468   57.8968 C   0  0  0  0  0  0  0  0  0  0  0  0
   75.6799   43.0296   58.9803 C   0  0  0  0  0  0  0  0  0  0  0  0
   74.4026   43.4268   59.7375 C   0  0  0  0  0  0  0  0  0  0  0  0
   72.2808   42.7318   58.4962 C   0  0  0  0  0  0  0  0  0  0  0  0
   68.8291   48.7653   56.2789 C   0  0  0  0  0  0  0  0  0  0  0  0
   69.3268   48.6915   54.8640 C   0  0  0  0  0  0  0  0  0  0  0  0
   70.2250   49.6110   54.4357 N   0  0  0  0  0  0  0  0  0  0  0  0
   70.6403   49.5874   53.2007 N   0  0  0  0  0  0  0  0  0  0  0  0
   70.2292   48.6873   52.2885 C   0  0  0  0  0  0  0  0  0  0  0  0
   70.6426   48.6848   51.1050 O   0  0  0  0  0  0  0  0  0  0  0  0
   69.3166   47.7206   52.6512 C   0  0  0  0  0  0  0  0  0  0  0  0
   68.8885   46.7843   51.7440 C   0  0  0  0  0  0  0  0  0  0  0  0
   67.9833   45.8152   52.1340 C   0  0  0  0  0  0  0  0  0  0  0  0
   67.5294   45.8148   53.4308 C   0  0  0  0  0  0  0  0  0  0  0  0
   67.9708   46.7660   54.3328 C   0  0  0  0  0  0  0  0  0  0  0  0
   68.8758   47.7524   53.9802 C   0  0  0  0  0  0  0  0  0  0  0  0
  8  9  2  0
  9  1  1  0
  9 10  1  0
  1  2  2  0
  1  6  1  0
  2  3  1  0
  3 17  1  0
  3  4  2  0
 17 18  1  0
 18 19  2  0
 18 28  1  0
 19 20  1  0
 20 21  1  0
 21 22  2  0
 21 23  1  0
 23 24  1  0
 23 28  2  0
 24 25  2  0
 25 26  1  0
 26 27  2  0
 27 28  1  0
  4  5  1  0
  5  6  2  0
  6  7  1  0
 10 11  1  0
 10 16  1  0
 11 12  1  0
 12 13  1  0
 12 15  1  0
 12 16  1  0
 13 14  1  0
 14 15  1  0
M  END
>  <minimizedAffinity>  (234) 
-9.40611

$$$$
cs_full_output_folder/data/smiles/8371.pdb
     RDKit          3D

 28 31  0  0  0  0  0  0  0  0999 V2000
   71.4219   47.2245   58.8195 C   0  0  0  0  0  0  0  0  0  0  0  0
   71.5289   45.8593   58.7217 C   0  0  0  0  0  0  0  0  0  0  0  0
   70.7147   45.1138   57.8736 C   0  0  0  0  0  0  0  0  0  0  0  0
   69.7901   45.7748   57.1261 C   0  0  0  0  0  0  0  0  0  0  0  0
   69.6592   47.1573   57.2043 C   0  0  0  0  0  0  0  0  0  0  0  0
   70.4861   47.8491   58.0573 C   0  0  0  0  0  0  0  0  0  0  0  0
   73.8795   51.1498   58.8018 C   0  0  0  0  0  0  0  0  0  0  0  0
   74.9055   50.5310   59.7324 C   0  0  0  0  0  0  0  0  0  0  0  0
   74.1830   49.3596   60.3869 C   0  0  0  0  0  0  0  0  0  0  0  0
   73.3994   48.7231   59.3536 N   0  0  0  0  0  0  0  0  0  0  0  0
   72.3139   47.9283   59.7325 C   0  0  0  0  0  0  0  0  0  0  0  0
   72.0761   47.8031   60.9837 O   0  0  0  0  0  0  0  0  0  0  0  0
   73.6870   48.8701   57.9475 C   0  0  0  0  0  0  0  0  0  0  0  0
   73.9119   50.3042   57.5454 C   0  0  0  0  0  0  0  0  0  0  0  0
   72.9898   53.0181   57.9372 C   0  0  0  0  0  0  0  0  0  0  0  0
   74.1063   52.4760   58.5675 O   0  0  0  0  0  0  0  0  0  0  0  0
   68.6425   47.7700   56.3472 C   0  0  0  0  0  0  0  0  0  0  0  0
   69.1306   48.0577   54.9646 C   0  0  0  0  0  0  0  0  0  0  0  0
   70.0182   49.0592   54.7503 N   0  0  0  0  0  0  0  0  0  0  0  0
   70.4501   49.3179   53.5295 N   0  0  0  0  0  0  0  0  0  0  0  0
   70.0521   48.6290   52.4518 C   0  0  0  0  0  0  0  0  0  0  0  0
   70.4987   48.9211   51.3130 O   0  0  0  0  0  0  0  0  0  0  0  0
   69.1397   47.5828   52.5826 C   0  0  0  0  0  0  0  0  0  0  0  0
   68.7126   46.8535   51.4836 C   0  0  0  0  0  0  0  0  0  0  0  0
   67.8117   45.8294   51.6694 C   0  0  0  0  0  0  0  0  0  0  0  0
   67.3672   45.5685   52.9476 C   0  0  0  0  0  0  0  0  0  0  0  0
   67.7925   46.2914   54.0316 C   0  0  0  0  0  0  0  0  0  0  0  0
   68.7005   47.3303   53.8775 C   0  0  0  0  0  0  0  0  0  0  0  0
 15 16  1  0
 16  7  1  0
  7  8  1  0
  7 14  1  0
  8  9  1  0
  9 10  1  0
 10 11  1  0
 10 13  1  0
 11 12  2  0
 11  1  1  0
  1  2  2  0
  1  6  1  0
  2  3  1  0
  3  4  2  0
  4  5  1  0
  5 17  1  0
  5  6  2  0
 17 18  1  0
 18 19  2  0
 18 28  1  0
 19 20  1  0
 20 21  1  0
 21 22  2  0
 21 23  1  0
 23 24  1  0
 23 28  2  0
 24 25  2  0
 25 26  1  0
 26 27  2  0
 27 28  1  0
 13 14  1  0
M  END
>  <minimizedAffinity>  (235) 
-9.40580

$$$$
cs_full_output_folder/data/smiles/179.pdb
     RDKit          3D

 28 31  0  0  0  0  0  0  0  0999 V2000
   73.6686   50.5674   56.2390 C   0  0  0  0  0  0  0  0  0  0  0  0
   72.9098   51.5281   55.6490 C   0  0  0  0  0  0  0  0  0  0  0  0
   71.5123   51.4259   55.5699 C   0  0  0  0  0  0  0  0  0  0  0  0
   70.8250   50.3601   56.0760 C   0  0  0  0  0  0  0  0  0  0  0  0
   71.6416   49.3873   56.6771 C   0  0  0  0  0  0  0  0  0  0  0  0
   72.9688   49.5013   56.7442 N   0  0  0  0  0  0  0  0  0  0  0  0
   75.5421   49.3269   54.4703 O   0  0  0  0  0  0  0  0  0  0  0  0
   75.9676   49.9448   55.4934 C   0  0  0  0  0  0  0  0  0  0  0  0
   75.0827   50.5508   56.3648 N   0  0  0  0  0  0  0  0  0  0  0  0
   77.4327   49.9765   55.6950 C   0  0  0  0  0  0  0  0  0  0  0  0
   78.0251   51.0232   56.3909 C   0  0  0  0  0  0  0  0  0  0  0  0
   79.3872   51.0856   56.6002 C   0  0  0  0  0  0  0  0  0  0  0  0
   80.2120   50.0966   56.1185 C   0  0  0  0  0  0  0  0  0  0  0  0
   79.6377   49.0563   55.4287 C   0  0  0  0  0  0  0  0  0  0  0  0
   78.2547   48.9966   55.2178 C   0  0  0  0  0  0  0  0  0  0  0  0
   69.3547   50.1539   56.0321 C   0  0  0  0  0  0  0  0  0  0  0  0
   68.9645   48.8020   55.7077 C   0  0  0  0  0  0  0  0  0  0  0  0
   68.5567   48.0070   56.7348 N   0  0  0  0  0  0  0  0  0  0  0  0
   68.2221   46.7250   56.5502 N   0  0  0  0  0  0  0  0  0  0  0  0
   68.2787   46.1747   55.3332 C   0  0  0  0  0  0  0  0  0  0  0  0
   67.9544   44.9564   55.2026 O   0  0  0  0  0  0  0  0  0  0  0  0
   68.6807   46.9169   54.2510 C   0  0  0  0  0  0  0  0  0  0  0  0
   69.0267   48.2551   54.4579 C   0  0  0  0  0  0  0  0  0  0  0  0
   69.4017   49.0776   53.3238 C   0  0  0  0  0  0  0  0  0  0  0  0
   69.8361   48.3187   52.0817 C   0  0  0  0  0  0  0  0  0  0  0  0
   68.8984   47.1794   51.7734 C   0  0  0  0  0  0  0  0  0  0  0  0
   68.7323   46.2612   52.9388 C   0  0  2  0  0  0  0  0  0  0  0  0
   67.6311   45.4382   52.7185 O   0  0  0  0  0  0  0  0  0  0  0  0
  7  8  2  0
  8  9  1  0
  8 10  1  0
  9  1  1  0
  1  2  2  0
  1  6  1  0
  2  3  1  0
  3  4  2  0
  4 16  1  0
  4  5  1  0
 16 17  1  0
 17 18  2  0
 17 23  1  0
 18 19  1  0
 19 20  1  0
 20 21  2  0
 20 22  1  0
 22 23  2  0
 22 27  1  0
 23 24  1  0
 24 25  1  0
 25 26  1  0
 26 27  1  0
 27 28  1  6
  5  6  2  0
 10 11  2  0
 10 15  1  0
 11 12  1  0
 12 13  2  0
 13 14  1  0
 14 15  2  0
M  END
>  <minimizedAffinity>  (236) 
-9.40177

$$$$
cs_full_output_folder/data/smiles/643.pdb
     RDKit          3D

 27 30  0  0  0  0  0  0  0  0999 V2000
   71.1934   47.2658   58.5550 C   0  0  0  0  0  0  0  0  0  0  0  0
   71.0583   45.8675   58.5339 C   0  0  0  0  0  0  0  0  0  0  0  0
   70.2343   45.2307   57.6410 C   0  0  0  0  0  0  0  0  0  0  0  0
   69.5314   46.0487   56.7478 C   0  0  0  0  0  0  0  0  0  0  0  0
   69.6176   47.3583   56.7186 N   0  0  0  0  0  0  0  0  0  0  0  0
   70.4590   47.9551   57.6370 C   0  0  0  0  0  0  0  0  0  0  0  0
   70.5229   49.1941   57.5950 O   0  0  0  0  0  0  0  0  0  0  0  0
   74.1261   49.0539   60.3353 C   0  0  0  0  0  0  0  0  0  0  0  0
   73.2989   48.5052   59.2451 N   0  0  0  0  0  0  0  0  0  0  0  0
   72.0829   47.8392   59.5242 C   0  0  0  0  0  0  0  0  0  0  0  0
   71.7663   47.7493   60.7602 O   0  0  0  0  0  0  0  0  0  0  0  0
   70.0698   43.7899   57.5830 C   0  0  0  0  0  0  0  0  0  0  0  0
   71.0877   43.0513   57.4355 O   0  0  0  0  0  0  0  0  0  0  0  0
   68.8198   43.1353   57.6809 N   0  0  0  0  0  0  0  0  0  0  0  0
   68.6748   41.6901   57.6244 C   0  0  0  0  0  0  0  0  0  0  0  0
   67.2272   41.2539   57.8840 C   0  0  0  0  0  0  0  0  0  0  0  0
   67.9049   41.0645   56.5068 C   0  0  0  0  0  0  0  0  0  0  0  0
   68.8927   48.2113   55.7990 C   0  0  0  0  0  0  0  0  0  0  0  0
   68.7416   47.5151   54.5036 C   0  0  0  0  0  0  0  0  0  0  0  0
   67.8698   46.4456   54.3406 C   0  0  0  0  0  0  0  0  0  0  0  0
   67.6549   45.7939   53.1483 C   0  0  0  0  0  0  0  0  0  0  0  0
   68.3471   46.2274   52.0437 C   0  0  0  0  0  0  0  0  0  0  0  0
   69.2335   47.2970   52.1662 C   0  0  0  0  0  0  0  0  0  0  0  0
   70.0375   47.8905   51.2663 N   0  0  0  0  0  0  0  0  0  0  0  0
   70.7161   48.8490   51.8502 N   0  0  0  0  0  0  0  0  0  0  0  0
   70.3739   48.9039   53.1371 C   0  0  0  0  0  0  0  0  0  0  0  0
   69.4365   47.9396   53.3750 C   0  0  0  0  0  0  0  0  0  0  0  0
  8  9  1  0
  9 10  1  0
 10 11  2  0
 10  1  1  0
  1  2  2  0
  1  6  1  0
  2  3  1  0
  3 12  1  0
  3  4  2  0
 12 13  2  0
 12 14  1  0
 14 15  1  0
 15 16  1  0
 15 17  1  0
 16 17  1  0
  4  5  1  0
  5 18  1  0
  5  6  1  0
 18 19  1  0
 19 20  2  0
 19 27  1  0
 20 21  1  0
 21 22  2  0
 22 23  1  0
 23 24  1  0
 23 27  2  0
 24 25  1  0
 25 26  2  0
 26 27  1  0
  6  7  2  0
M  END
>  <minimizedAffinity>  (237) 
-9.39880

$$$$
cs_full_output_folder/data/smiles/4466.pdb
     RDKit          3D

 29 32  0  0  0  0  0  0  0  0999 V2000
   70.0117   47.2249   57.6906 C   0  0  0  0  0  0  0  0  0  0  0  0
   70.0460   45.8298   57.5702 C   0  0  0  0  0  0  0  0  0  0  0  0
   70.8945   45.0557   58.3191 C   0  0  0  0  0  0  0  0  0  0  0  0
   71.7255   45.6989   59.2083 C   0  0  0  0  0  0  0  0  0  0  0  0
   72.5870   44.9714   59.9751 F   0  0  0  0  0  0  0  0  0  0  0  0
   71.7148   47.0686   59.3500 C   0  0  0  0  0  0  0  0  0  0  0  0
   70.8523   47.8052   58.5823 C   0  0  0  0  0  0  0  0  0  0  0  0
   72.6276   47.7181   60.3176 C   0  0  0  0  0  0  0  0  0  0  0  0
   72.3678   47.5554   61.5379 O   0  0  0  0  0  0  0  0  0  0  0  0
   73.7446   48.4895   59.9016 N   0  0  0  0  0  0  0  0  0  0  0  0
   74.5193   49.0439   60.9607 C   0  0  0  0  0  0  0  0  0  0  0  0
   74.7752   50.5109   60.8615 C   0  0  0  0  0  0  0  0  0  0  0  0
   75.0114   51.0153   59.5079 C   0  0  0  0  0  0  0  0  0  0  0  0
   75.1984   50.5076   58.3585 N   0  0  0  0  0  0  0  0  0  0  0  0
   75.2316   49.1040   58.0550 C   0  0  0  0  0  0  0  0  0  0  0  0
   73.8700   48.5553   58.4574 C   0  0  0  0  0  0  0  0  0  0  0  0
   69.0165   47.9532   56.8282 C   0  0  0  0  0  0  0  0  0  0  0  0
   69.4055   47.2554   50.7438 N   0  0  0  0  0  0  0  0  0  0  0  0
   68.9673   46.9575   52.0536 C   0  0  0  0  0  0  0  0  0  0  0  0
   68.0776   45.9145   52.2936 C   0  0  0  0  0  0  0  0  0  0  0  0
   67.6433   45.6130   53.5591 C   0  0  0  0  0  0  0  0  0  0  0  0
   68.1267   46.3887   54.5888 C   0  0  0  0  0  0  0  0  0  0  0  0
   69.0202   47.4482   54.4036 C   0  0  0  0  0  0  0  0  0  0  0  0
   69.4869   48.1879   55.4607 C   0  0  0  0  0  0  0  0  0  0  0  0
   70.3645   49.1797   55.1664 N   0  0  0  0  0  0  0  0  0  0  0  0
   70.7496   49.4239   53.9304 N   0  0  0  0  0  0  0  0  0  0  0  0
   70.3248   48.7367   52.8741 C   0  0  0  0  0  0  0  0  0  0  0  0
   70.6751   48.9508   51.6963 O   0  0  0  0  0  0  0  0  0  0  0  0
   69.4281   47.7086   53.1015 C   0  0  0  0  0  0  0  0  0  0  0  0
 18 19  1  0
 19 20  2  0
 19 29  1  0
 20 21  1  0
 21 22  2  0
 22 23  1  0
 23 24  1  0
 23 29  2  0
 24 17  1  0
 24 25  2  0
 17  1  1  0
  1  2  2  0
  1  7  1  0
  2  3  1  0
  3  4  2  0
  4  5  1  0
  4  6  1  0
  6  8  1  0
  6  7  2  0
  8  9  2  0
  8 10  1  0
 10 11  1  0
 10 16  1  0
 11 12  1  0
 12 13  1  0
 13 14  2  0
 14 15  1  0
 15 16  1  0
 25 26  1  0
 26 27  1  0
 27 28  2  0
 27 29  1  0
M  END
>  <minimizedAffinity>  (238) 
-9.39736

$$$$
cs_full_output_folder/data/smiles/2327.pdb
     RDKit          3D

 28 31  0  0  0  0  0  0  0  0999 V2000
   71.8236   46.3335   58.3922 C   0  0  0  0  0  0  0  0  0  0  0  0
   72.7908   47.2824   58.5933 C   0  0  0  0  0  0  0  0  0  0  0  0
   72.5738   48.6202   58.2645 C   0  0  0  0  0  0  0  0  0  0  0  0
   71.3387   48.9479   57.7293 C   0  0  0  0  0  0  0  0  0  0  0  0
   70.3665   48.0053   57.5261 C   0  0  0  0  0  0  0  0  0  0  0  0
   70.6435   46.7292   57.8655 N   0  0  0  0  0  0  0  0  0  0  0  0
   72.0908   44.9238   58.7388 C   0  0  0  0  0  0  0  0  0  0  0  0
   69.5718   44.0246   59.5509 O   0  0  0  0  0  0  0  0  0  0  0  0
   70.0580   43.5295   58.4976 C   0  0  0  0  0  0  0  0  0  0  0  0
   71.3233   43.9509   58.0481 N   0  0  0  0  0  0  0  0  0  0  0  0
   69.2512   42.5283   57.8030 C   0  0  0  0  0  0  0  0  0  0  0  0
   68.4461   42.8676   56.7452 C   0  0  0  0  0  0  0  0  0  0  0  0
   67.6961   41.8942   56.1094 C   0  0  0  0  0  0  0  0  0  0  0  0
   67.7281   40.5802   56.5035 C   0  0  0  0  0  0  0  0  0  0  0  0
   68.5467   40.2766   57.5686 C   0  0  0  0  0  0  0  0  0  0  0  0
   69.3016   41.2267   58.2159 C   0  0  0  0  0  0  0  0  0  0  0  0
   69.0613   48.4009   56.9432 C   0  0  0  0  0  0  0  0  0  0  0  0
   68.7349   47.5467   55.7960 C   0  0  0  0  0  0  0  0  0  0  0  0
   68.0447   46.3907   56.0666 N   0  0  0  0  0  0  0  0  0  0  0  0
   67.7309   45.5845   55.0690 N   0  0  0  0  0  0  0  0  0  0  0  0
   68.0580   45.8465   53.7982 C   0  0  0  0  0  0  0  0  0  0  0  0
   67.7195   45.0242   52.9153 O   0  0  0  0  0  0  0  0  0  0  0  0
   68.7638   47.0121   53.4537 C   0  0  0  0  0  0  0  0  0  0  0  0
   69.0896   47.8525   54.5004 C   0  0  0  0  0  0  0  0  0  0  0  0
   69.8314   49.1182   54.2840 C   0  0  0  0  0  0  0  0  0  0  0  0
   69.5598   49.5458   52.8265 C   0  0  0  0  0  0  0  0  0  0  0  0
   70.1150   48.4003   52.0045 C   0  0  0  0  0  0  0  0  0  0  0  0
   69.1080   47.2939   52.0533 C   0  0  0  0  0  0  0  0  0  0  0  0
  8  9  2  0
  9 10  1  0
  9 11  1  0
 10  7  1  0
  7  1  1  0
  1  2  2  0
  1  6  1  0
  2  3  1  0
  3  4  2  0
  4  5  1  0
  5 17  1  0
  5  6  2  0
 17 18  1  0
 18 19  2  0
 18 24  1  0
 19 20  1  0
 20 21  1  0
 21 22  2  0
 21 23  1  0
 23 24  2  0
 23 28  1  0
 24 25  1  0
 25 26  1  0
 26 27  1  0
 27 28  1  0
 11 12  2  0
 11 16  1  0
 12 13  1  0
 13 14  2  0
 14 15  1  0
 15 16  2  0
M  END
>  <minimizedAffinity>  (239) 
-9.39691

$$$$
cs_full_output_folder/data/smiles/64.pdb
     RDKit          3D

 27 29  0  0  0  0  0  0  0  0999 V2000
   70.2860   49.6217   54.0565 C   0  0  0  0  0  0  0  0  0  0  0  0
   69.8328   49.0156   55.2292 C   0  0  0  0  0  0  0  0  0  0  0  0
   69.0873   47.8949   55.2887 N   0  0  0  0  0  0  0  0  0  0  0  0
   68.7594   47.3118   54.0968 C   0  0  0  0  0  0  0  0  0  0  0  0
   68.0188   46.1575   54.1230 C   0  0  0  0  0  0  0  0  0  0  0  0
   67.6362   45.4684   52.9620 C   0  0  0  0  0  0  0  0  0  0  0  0
   68.0454   46.0107   51.7566 C   0  0  0  0  0  0  0  0  0  0  0  0
   68.7902   47.1683   51.7443 C   0  0  0  0  0  0  0  0  0  0  0  0
   69.1600   47.8351   52.8894 C   0  0  0  0  0  0  0  0  0  0  0  0
   69.9272   48.9981   52.8830 C   0  0  0  0  0  0  0  0  0  0  0  0
   70.2865   49.4662   51.7820 O   0  0  0  0  0  0  0  0  0  0  0  0
   71.0754   50.8409   54.0992 C   0  0  0  0  0  0  0  0  0  0  0  0
   70.7889   51.7918   53.3484 O   0  0  0  0  0  0  0  0  0  0  0  0
   72.2075   50.9590   55.0177 C   0  0  0  0  0  0  0  0  0  0  0  0
   73.4960   51.2020   54.3197 C   0  0  0  0  0  0  0  0  0  0  0  0
   74.0085   50.2985   53.6578 O   0  0  0  0  0  0  0  0  0  0  0  0
   75.0674   52.7257   55.2432 O   0  0  0  0  0  0  0  0  0  0  0  0
   74.1308   52.4934   54.4305 C   0  0  0  0  0  0  0  0  0  0  0  0
   73.7145   53.5440   53.6217 O   0  0  0  0  0  0  0  0  0  0  0  0
   68.7018   47.4113   56.5683 C   0  0  0  0  0  0  0  0  0  0  0  0
   69.7489   46.7091   57.3362 C   0  0  0  0  0  0  0  0  0  0  0  0
   70.5845   47.4308   58.1876 C   0  0  0  0  0  0  0  0  0  0  0  0
   71.5482   46.8383   58.9606 C   0  0  0  0  0  0  0  0  0  0  0  0
   71.7357   45.4702   58.9289 C   0  0  0  0  0  0  0  0  0  0  0  0
   70.9375   44.7222   58.1083 C   0  0  0  0  0  0  0  0  0  0  0  0
   69.9632   45.3492   57.3292 C   0  0  0  0  0  0  0  0  0  0  0  0
   69.2008   44.5574   56.5358 F   0  0  0  0  0  0  0  0  0  0  0  0
 17 18  2  0
 18 19  1  0
 18 15  1  0
 15 16  2  0
 15 14  1  0
 14 12  1  0
 12 13  2  0
 12  1  1  0
  1  2  2  0
  1 10  1  0
  2  3  1  0
  3 20  1  0
  3  4  1  0
 20 21  1  0
 21 22  2  0
 21 26  1  0
 22 23  1  0
 23 24  2  0
 24 25  1  0
 25 26  2  0
 26 27  1  0
  4  5  1  0
  4  9  2  0
  5  6  2  0
  6  7  1  0
  7  8  2  0
  8  9  1  0
  9 10  1  0
 10 11  2  0
M  END
>  <minimizedAffinity>  (240) 
-9.39528

$$$$
cs_full_output_folder/data/smiles/1384.pdb
     RDKit          3D

 27 29  0  0  0  0  0  0  0  0999 V2000
   68.4242   44.5100   56.0173 N   0  0  0  0  0  0  0  0  0  0  0  0
   69.0506   43.7406   57.0167 C   0  0  0  0  0  0  0  0  0  0  0  0
   69.7610   44.4206   57.8396 O   0  0  0  0  0  0  0  0  0  0  0  0
   68.9716   42.3049   57.1958 C   0  0  0  0  0  0  0  0  0  0  0  0
   67.9983   41.4710   56.5992 C   0  0  0  0  0  0  0  0  0  0  0  0
   68.2399   40.2214   57.0045 N   0  0  0  0  0  0  0  0  0  0  0  0
   69.2831   40.1868   57.8064 N   0  0  0  0  0  0  0  0  0  0  0  0
   69.7464   41.4658   57.9347 C   0  0  0  0  0  0  0  0  0  0  0  0
   70.9169   41.7691   58.7708 C   0  0  0  0  0  0  0  0  0  0  0  0
   69.7818   39.0054   58.4071 C   0  0  0  0  0  0  0  0  0  0  0  0
   69.0754   38.3966   59.4331 C   0  0  0  0  0  0  0  0  0  0  0  0
   69.4897   37.2616   60.0454 C   0  0  0  0  0  0  0  0  0  0  0  0
   70.6722   36.6773   59.6331 C   0  0  0  0  0  0  0  0  0  0  0  0
   71.1698   35.2151   60.4445 Cl  0  0  0  0  0  0  0  0  0  0  0  0
   71.4062   37.2624   58.6061 C   0  0  0  0  0  0  0  0  0  0  0  0
   70.9599   38.4155   58.0038 C   0  0  0  0  0  0  0  0  0  0  0  0
   68.5464   45.9452   55.8551 C   0  0  0  0  0  0  0  0  0  0  0  0
   69.3174   47.6580   52.5827 C   0  0  0  0  0  0  0  0  0  0  0  0
   68.5876   46.9312   51.6956 C   0  0  0  0  0  0  0  0  0  0  0  0
   67.8254   45.8608   52.1573 C   0  0  0  0  0  0  0  0  0  0  0  0
   67.8217   45.5560   53.4979 C   0  0  0  0  0  0  0  0  0  0  0  0
   68.5677   46.2958   54.4293 C   0  0  0  0  0  0  0  0  0  0  0  0
   69.2949   47.3298   53.9390 C   0  0  0  0  0  0  0  0  0  0  0  0
   70.1547   48.7767   52.1478 C   0  0  0  0  0  0  0  0  0  0  0  0
   70.0077   49.2835   51.0144 O   0  0  0  0  0  0  0  0  0  0  0  0
   70.7893   50.3936   53.8064 C   0  0  0  0  0  0  0  0  0  0  0  0
   71.1368   49.3049   52.9789 O   0  0  0  0  0  0  0  0  0  0  0  0
 26 27  1  0
 27 24  1  0
 24 25  2  0
 24 18  1  0
 18 19  2  0
 18 23  1  0
 19 20  1  0
 20 21  2  0
 21 22  1  0
 22 17  1  0
 22 23  2  0
 17  1  1  0
  1  2  1  0
  2  3  2  0
  2  4  1  0
  4  5  1  0
  4  8  2  0
  5  6  2  0
  6  7  1  0
  7 10  1  0
  7  8  1  0
 10 11  2  0
 10 16  1  0
 11 12  1  0
 12 13  2  0
 13 14  1  0
 13 15  1  0
 15 16  2  0
  8  9  1  0
M  END
>  <minimizedAffinity>  (241) 
-9.39450

$$$$
cs_full_output_folder/data/smiles/7154.pdb
     RDKit          3D

 29 32  0  0  0  0  0  0  0  0999 V2000
   71.5425   46.9697   58.9168 C   0  0  0  0  0  0  0  0  0  0  0  0
   71.4398   45.6181   58.8132 C   0  0  0  0  0  0  0  0  0  0  0  0
   70.5637   45.0786   57.9000 C   0  0  0  0  0  0  0  0  0  0  0  0
   69.7983   45.8995   57.0994 C   0  0  0  0  0  0  0  0  0  0  0  0
   69.8949   47.3033   57.1972 C   0  0  0  0  0  0  0  0  0  0  0  0
   70.7611   47.8068   58.1002 C   0  0  0  0  0  0  0  0  0  0  0  0
   74.9602   49.9537   58.5223 C   0  0  0  0  0  0  0  0  0  0  0  0
   75.2010   49.7491   59.9827 C   0  0  0  0  0  0  0  0  0  0  0  0
   74.7608   48.3970   60.4666 C   0  0  0  0  0  0  0  0  0  0  0  0
   73.8133   47.8196   59.5010 N   0  0  0  0  0  0  0  0  0  0  0  0
   72.4747   47.5423   59.8739 C   0  0  0  0  0  0  0  0  0  0  0  0
   72.0781   47.7861   61.0274 O   0  0  0  0  0  0  0  0  0  0  0  0
   74.3424   47.5565   58.1832 C   0  0  0  0  0  0  0  0  0  0  0  0
   75.1349   48.7193   57.7066 C   0  0  0  0  0  0  0  0  0  0  0  0
   73.1291   50.8008   56.8662 C   0  0  0  0  0  0  0  0  0  0  0  0
   73.6815   50.6450   58.2251 C   0  0  0  0  0  0  0  0  0  0  0  0
   73.0653   51.1026   59.1636 O   0  0  0  0  0  0  0  0  0  0  0  0
   69.0553   48.1134   56.3240 C   0  0  0  0  0  0  0  0  0  0  0  0
   69.4910   48.1883   54.9106 C   0  0  0  0  0  0  0  0  0  0  0  0
   70.4554   49.0747   54.5227 N   0  0  0  0  0  0  0  0  0  0  0  0
   70.8325   49.2423   53.2814 N   0  0  0  0  0  0  0  0  0  0  0  0
   70.3013   48.5506   52.2580 C   0  0  0  0  0  0  0  0  0  0  0  0
   70.6726   48.7197   51.0578 O   0  0  0  0  0  0  0  0  0  0  0  0
   69.3108   47.6264   52.5856 C   0  0  0  0  0  0  0  0  0  0  0  0
   68.7294   46.8543   51.5912 C   0  0  0  0  0  0  0  0  0  0  0  0
   67.7610   45.9063   51.8778 C   0  0  0  0  0  0  0  0  0  0  0  0
   67.3685   45.7291   53.1808 C   0  0  0  0  0  0  0  0  0  0  0  0
   67.9449   46.4948   54.1598 C   0  0  0  0  0  0  0  0  0  0  0  0
   68.9199   47.4553   53.9015 C   0  0  0  0  0  0  0  0  0  0  0  0
 15 16  1  0
 16 17  2  0
 16  7  1  0
  7  8  1  0
  7 14  1  0
  8  9  1  0
  9 10  1  0
 10 11  1  0
 10 13  1  0
 11 12  2  0
 11  1  1  0
  1  2  2  0
  1  6  1  0
  2  3  1  0
  3  4  2  0
  4  5  1  0
  5 18  1  0
  5  6  2  0
 18 19  1  0
 19 20  2  0
 19 29  1  0
 20 21  1  0
 21 22  1  0
 22 23  2  0
 22 24  1  0
 24 25  1  0
 24 29  2  0
 25 26  2  0
 26 27  1  0
 27 28  2  0
 28 29  1  0
 13 14  1  0
M  END
>  <minimizedAffinity>  (242) 
-9.38708

$$$$
cs_full_output_folder/data/smiles/1992.pdb
     RDKit          3D

 25 26  0  0  0  0  0  0  0  0999 V2000
   70.2956   49.2647   52.4587 S   0  0  0  0  0  0  0  0  0  0  0  0
   70.3565   48.9064   50.9769 O   0  0  0  0  0  0  0  0  0  0  0  0
   71.7104   49.1407   53.0231 O   0  0  0  0  0  0  0  0  0  0  0  0
   69.3714   48.0189   53.2380 C   0  0  0  0  0  0  0  0  0  0  0  0
   69.2553   47.9985   54.6256 C   0  0  0  0  0  0  0  0  0  0  0  0
   69.8896   48.9855   55.3353 F   0  0  0  0  0  0  0  0  0  0  0  0
   68.5303   47.0239   55.2515 C   0  0  0  0  0  0  0  0  0  0  0  0
   68.4508   47.0526   56.6187 F   0  0  0  0  0  0  0  0  0  0  0  0
   67.9017   46.0454   54.5386 C   0  0  0  0  0  0  0  0  0  0  0  0
   68.0056   46.0487   53.1578 C   0  0  0  0  0  0  0  0  0  0  0  0
   67.3769   45.0701   52.4424 F   0  0  0  0  0  0  0  0  0  0  0  0
   68.7314   47.0252   52.5264 C   0  0  0  0  0  0  0  0  0  0  0  0
   68.8143   47.0003   51.1653 F   0  0  0  0  0  0  0  0  0  0  0  0
   69.7494   50.8431   52.6617 N   0  0  0  0  0  0  0  0  0  0  0  0
   71.2894   52.6919   55.4934 C   0  0  0  0  0  0  0  0  0  0  0  0
   71.1233   51.9017   54.3478 C   0  0  0  0  0  0  0  0  0  0  0  0
   69.8832   51.6243   53.8321 C   0  0  0  0  0  0  0  0  0  0  0  0
   68.7311   52.1362   54.4533 C   0  0  0  0  0  0  0  0  0  0  0  0
   68.8860   52.9109   55.5761 C   0  0  0  0  0  0  0  0  0  0  0  0
   70.1421   53.1796   56.0801 C   0  0  0  0  0  0  0  0  0  0  0  0
   70.3243   53.9506   57.2000 F   0  0  0  0  0  0  0  0  0  0  0  0
   74.5861   54.4348   56.2764 N   0  0  0  0  0  0  0  0  0  0  0  0
   73.3053   54.1613   55.7382 C   0  0  0  0  0  0  0  0  0  0  0  0
   72.7274   54.9824   54.9466 O   0  0  0  0  0  0  0  0  0  0  0  0
   72.5735   52.9789   56.0260 N   0  0  0  0  0  0  0  0  0  0  0  0
 22 23  1  0
 23 24  2  0
 23 25  1  0
 25 15  1  0
 15 16  2  0
 15 20  1  0
 16 17  1  0
 17 14  1  0
 17 18  2  0
 14  1  1  0
  1  2  2  0
  1  3  2  0
  1  4  1  0
  4  5  2  0
  4 12  1  0
  5  6  1  0
  5  7  1  0
  7  8  1  0
  7  9  2  0
  9 10  1  0
 10 11  1  0
 10 12  2  0
 12 13  1  0
 18 19  1  0
 19 20  2  0
 20 21  1  0
M  END
>  <minimizedAffinity>  (243) 
-9.38696

$$$$
cs_full_output_folder/data/smiles/4164.pdb
     RDKit          3D

 29 32  0  0  0  0  0  0  0  0999 V2000
   71.5013   46.8499   58.8355 C   0  0  0  0  0  0  0  0  0  0  0  0
   70.7047   47.6451   58.0464 C   0  0  0  0  0  0  0  0  0  0  0  0
   69.7734   47.1685   57.1304 C   0  0  0  0  0  0  0  0  0  0  0  0
   69.6572   45.8096   57.0204 C   0  0  0  0  0  0  0  0  0  0  0  0
   70.4425   44.9415   57.7967 C   0  0  0  0  0  0  0  0  0  0  0  0
   71.3464   45.4834   58.6869 C   0  0  0  0  0  0  0  0  0  0  0  0
   72.0879   44.6314   59.4192 F   0  0  0  0  0  0  0  0  0  0  0  0
   74.3367   46.9706   58.2381 C   0  0  0  0  0  0  0  0  0  0  0  0
   73.8468   47.4566   59.4998 N   0  0  0  0  0  0  0  0  0  0  0  0
   72.4668   47.3952   59.7839 C   0  0  0  0  0  0  0  0  0  0  0  0
   72.0021   47.8191   60.8953 O   0  0  0  0  0  0  0  0  0  0  0  0
   74.7773   47.9986   60.4538 C   0  0  0  0  0  0  0  0  0  0  0  0
   75.0462   49.4207   60.0358 C   0  0  0  0  0  0  0  0  0  0  0  0
   76.1427   49.8691   59.3263 C   0  0  0  0  0  0  0  0  0  0  0  0
   76.0450   51.2164   59.1331 N   0  0  0  0  0  0  0  0  0  0  0  0
   74.8975   51.5738   59.7225 C   0  0  0  0  0  0  0  0  0  0  0  0
   74.2860   50.5087   60.2690 N   0  0  0  0  0  0  0  0  0  0  0  0
   68.9494   48.1305   56.3510 C   0  0  0  0  0  0  0  0  0  0  0  0
   69.3402   48.2428   54.9339 C   0  0  0  0  0  0  0  0  0  0  0  0
   70.2986   49.1539   54.5881 N   0  0  0  0  0  0  0  0  0  0  0  0
   70.7357   49.2968   53.3596 N   0  0  0  0  0  0  0  0  0  0  0  0
   70.2692   48.5519   52.3455 C   0  0  0  0  0  0  0  0  0  0  0  0
   70.7027   48.7037   51.1735 O   0  0  0  0  0  0  0  0  0  0  0  0
   69.3022   47.6102   52.6018 C   0  0  0  0  0  0  0  0  0  0  0  0
   68.7975   46.8396   51.5797 C   0  0  0  0  0  0  0  0  0  0  0  0
   67.8204   45.9103   51.8484 C   0  0  0  0  0  0  0  0  0  0  0  0
   67.3676   45.7690   53.1372 C   0  0  0  0  0  0  0  0  0  0  0  0
   67.8804   46.5418   54.1378 C   0  0  0  0  0  0  0  0  0  0  0  0
   68.8569   47.4796   53.9118 C   0  0  0  0  0  0  0  0  0  0  0  0
  8  9  1  0
  9 12  1  0
  9 10  1  0
 12 13  1  0
 13 14  2  0
 13 17  1  0
 14 15  1  0
 15 16  1  0
 16 17  2  0
 10 11  2  0
 10  1  1  0
  1  2  2  0
  1  6  1  0
  2  3  1  0
  3 18  1  0
  3  4  2  0
 18 19  1  0
 19 20  2  0
 19 29  1  0
 20 21  1  0
 21 22  1  0
 22 23  2  0
 22 24  1  0
 24 25  1  0
 24 29  2  0
 25 26  2  0
 26 27  1  0
 27 28  2  0
 28 29  1  0
  4  5  1  0
  5  6  2  0
  6  7  1  0
M  CHG  1  17   1
M  END
>  <minimizedAffinity>  (244) 
-9.38685

$$$$
cs_full_output_folder/data/smiles/60.pdb
     RDKit          3D

 27 30  0  0  0  0  0  0  0  0999 V2000
   70.8915   47.5406   58.4220 C   0  0  0  0  0  0  0  0  0  0  0  0
   70.8219   45.8277   58.3928 C   0  0  0  0  0  0  0  0  0  0  0  0
   70.0957   45.2006   57.5283 C   0  0  0  0  0  0  0  0  0  0  0  0
   69.3088   45.7720   56.5567 C   0  0  0  0  0  0  0  0  0  0  0  0
   69.3466   47.1596   56.5705 N   0  0  0  0  0  0  0  0  0  0  0  0
   70.1263   47.6044   57.4974 C   0  0  0  0  0  0  0  0  0  0  0  0
   70.0756   49.0669   57.3544 O   0  0  0  0  0  0  0  0  0  0  0  0
   73.2763   47.3192   61.5423 C   0  0  0  0  0  0  0  0  0  0  0  0
   71.9861   47.1935   60.8222 N   0  0  0  0  0  0  0  0  0  0  0  0
   71.8237   47.4636   59.5503 C   0  0  0  0  0  0  0  0  0  0  0  0
   73.0462   47.8544   58.9894 O   0  0  0  0  0  0  0  0  0  0  0  0
   70.0648   43.6966   57.5932 C   0  0  0  0  0  0  0  0  0  0  0  0
   71.1169   43.0626   57.4746 O   0  0  0  0  0  0  0  0  0  0  0  0
   68.8376   43.0348   57.7938 N   0  0  0  0  0  0  0  0  0  0  0  0
   68.7861   41.5838   57.8862 C   0  0  0  0  0  0  0  0  0  0  0  0
   67.3433   41.1044   58.2589 C   0  0  0  0  0  0  0  0  0  0  0  0
   67.9887   40.8053   56.9112 C   0  0  0  0  0  0  0  0  0  0  0  0
   68.4570   47.8731   55.6996 C   0  0  0  0  0  0  0  0  0  0  0  0
   68.5992   47.2890   54.3066 C   0  0  0  0  0  0  0  0  0  0  0  0
   67.7506   46.2517   53.9392 C   0  0  0  0  0  0  0  0  0  0  0  0
   67.6882   45.8161   52.6045 C   0  0  0  0  0  0  0  0  0  0  0  0
   68.4475   46.3844   51.6334 C   0  0  0  0  0  0  0  0  0  0  0  0
   69.2952   47.4087   52.0005 C   0  0  0  0  0  0  0  0  0  0  0  0
   70.1544   48.0942   51.2429 N   0  0  0  0  0  0  0  0  0  0  0  0
   70.7810   48.9496   52.0300 N   0  0  0  0  0  0  0  0  0  0  0  0
   70.3432   48.8350   53.2855 C   0  0  0  0  0  0  0  0  0  0  0  0
   69.3711   47.8554   53.3339 C   0  0  0  0  0  0  0  0  0  0  0  0
  8  9  1  0
  9 10  1  0
 10 11  2  0
 10  1  1  0
  1  2  2  0
  1  6  1  0
  2  3  1  0
  3 12  1  0
  3  4  2  0
 12 13  2  0
 12 14  1  0
 14 15  1  0
 15 16  1  0
 15 17  1  0
 16 17  1  0
  4  5  1  0
  5 18  1  0
  5  6  1  0
 18 19  1  0
 19 20  2  0
 19 27  1  0
 20 21  1  0
 21 22  2  0
 22 23  1  0
 23 24  1  0
 23 27  2  0
 24 25  1  0
 25 26  2  0
 26 27  1  0
  6  7  2  0
M  END
>  <minimizedAffinity>  (245) 
-9.38593

$$$$
cs_full_output_folder/data/smiles/6826.pdb
     RDKit          3D

 29 33  0  0  0  0  0  0  0  0999 V2000
   71.8440   47.3427   58.5113 C   0  0  0  0  0  0  0  0  0  0  0  0
   70.9419   48.0649   57.7676 C   0  0  0  0  0  0  0  0  0  0  0  0
   69.8890   47.4890   57.0550 C   0  0  0  0  0  0  0  0  0  0  0  0
   69.7749   46.1318   57.1218 C   0  0  0  0  0  0  0  0  0  0  0  0
   70.6476   45.3461   57.8509 C   0  0  0  0  0  0  0  0  0  0  0  0
   71.6648   45.9755   58.5300 C   0  0  0  0  0  0  0  0  0  0  0  0
   72.5144   45.1769   59.2440 F   0  0  0  0  0  0  0  0  0  0  0  0
   72.3325   47.5479   61.5208 O   0  0  0  0  0  0  0  0  0  0  0  0
   73.0472   48.0469   60.6594 C   0  0  0  0  0  0  0  0  0  0  0  0
   74.2621   48.9094   60.9348 C   0  0  0  0  0  0  0  0  0  0  0  0
   74.4437   49.6289   59.6004 C   0  0  1  0  0  0  0  0  0  0  0  0
   75.7092   50.2978   59.3514 C   0  0  0  0  0  0  0  0  0  0  0  0
   76.4234   49.9273   58.1300 C   0  0  0  0  0  0  0  0  0  0  0  0
   76.0515   48.9944   57.2903 C   0  0  0  0  0  0  0  0  0  0  0  0
   74.8178   48.2882   57.6129 C   0  0  0  0  0  0  0  0  0  0  0  0
   74.0968   48.5610   58.6527 C   0  0  0  0  0  0  0  0  0  0  0  0
   72.9077   47.9376   59.2291 N   0  0  0  0  0  0  0  0  0  0  0  0
   68.9827   48.4046   56.3177 C   0  0  0  0  0  0  0  0  0  0  0  0
   69.3337   48.4564   54.9027 C   0  0  0  0  0  0  0  0  0  0  0  0
   70.2437   49.3925   54.4773 N   0  0  0  0  0  0  0  0  0  0  0  0
   70.6567   49.4959   53.2427 N   0  0  0  0  0  0  0  0  0  0  0  0
   70.2010   48.6703   52.2963 C   0  0  0  0  0  0  0  0  0  0  0  0
   70.5929   48.7548   51.0838 O   0  0  0  0  0  0  0  0  0  0  0  0
   69.2772   47.6869   52.6136 C   0  0  0  0  0  0  0  0  0  0  0  0
   68.8002   46.8475   51.6385 C   0  0  0  0  0  0  0  0  0  0  0  0
   67.8769   45.8953   51.9794 C   0  0  0  0  0  0  0  0  0  0  0  0
   67.4447   45.7944   53.2838 C   0  0  0  0  0  0  0  0  0  0  0  0
   67.9433   46.6559   54.2531 C   0  0  0  0  0  0  0  0  0  0  0  0
   68.8648   47.6118   53.9331 C   0  0  0  0  0  0  0  0  0  0  0  0
  8  9  2  0
  9 10  1  0
  9 17  1  0
 11 10  1  1
 11 12  1  0
 11 16  1  0
 12 13  1  0
 13 14  2  0
 14 15  1  0
 15 16  2  0
 16 17  1  0
 17  1  1  0
  1  2  2  0
  1  6  1  0
  2  3  1  0
  3 18  1  0
  3  4  2  0
 18 19  1  0
 19 20  2  0
 19 29  1  0
 20 21  1  0
 21 22  1  0
 22 23  2  0
 22 24  1  0
 24 25  1  0
 24 29  2  0
 25 26  2  0
 26 27  1  0
 27 28  2  0
 28 29  1  0
  4  5  1  0
  5  6  2  0
  6  7  1  0
M  END
>  <minimizedAffinity>  (246) 
-9.38574

$$$$
cs_full_output_folder/data/smiles/2586.pdb
     RDKit          3D

 27 30  0  0  0  0  0  0  0  0999 V2000
   70.0956   48.2881   57.0673 C   0  0  0  0  0  0  0  0  0  0  0  0
   71.3649   48.7243   57.3604 C   0  0  0  0  0  0  0  0  0  0  0  0
   72.1950   47.9456   58.1766 C   0  0  0  0  0  0  0  0  0  0  0  0
   71.7482   46.7514   58.6854 C   0  0  0  0  0  0  0  0  0  0  0  0
   70.4547   46.2720   58.4084 C   0  0  0  0  0  0  0  0  0  0  0  0
   69.6910   47.0697   57.6097 C   0  0  0  0  0  0  0  0  0  0  0  0
   69.1455   49.0348   56.2047 C   0  0  0  0  0  0  0  0  0  0  0  0
   70.6363   48.4493   50.9862 O   0  0  0  0  0  0  0  0  0  0  0  0
   70.2695   48.5613   52.2061 C   0  0  0  0  0  0  0  0  0  0  0  0
   70.8206   49.4981   52.9831 N   0  0  0  0  0  0  0  0  0  0  0  0
   70.4494   49.6213   54.2385 N   0  0  0  0  0  0  0  0  0  0  0  0
   69.5013   48.8129   54.8012 C   0  0  0  0  0  0  0  0  0  0  0  0
   68.9238   47.8497   54.0344 C   0  0  0  0  0  0  0  0  0  0  0  0
   69.2912   47.6889   52.6973 C   0  0  0  0  0  0  0  0  0  0  0  0
   68.7491   46.6922   51.7682 C   0  0  0  0  0  0  0  0  0  0  0  0
   67.7021   45.8547   52.4401 C   0  0  0  0  0  0  0  0  0  0  0  0
   68.0394   45.6146   53.8922 C   0  0  0  0  0  0  0  0  0  0  0  0
   67.9095   46.9607   54.6319 C   0  0  0  0  0  0  0  0  0  0  0  0
   70.0294   45.0302   58.9395 N   0  0  0  0  0  0  0  0  0  0  0  0
   70.5184   43.4842   58.4139 S   0  0  0  0  0  0  0  0  0  0  0  0
   70.8492   42.6286   59.6298 O   0  0  0  0  0  0  0  0  0  0  0  0
   71.7984   43.5581   57.5997 O   0  0  0  0  0  0  0  0  0  0  0  0
   69.3596   42.6028   57.4970 C   0  0  0  0  0  0  0  0  0  0  0  0
   68.4810   42.9973   56.5865 C   0  0  0  0  0  0  0  0  0  0  0  0
   67.6416   42.0392   56.2906 C   0  0  0  0  0  0  0  0  0  0  0  0
   67.9211   40.9357   56.9394 C   0  0  0  0  0  0  0  0  0  0  0  0
   69.1324   41.2100   57.5600 O   0  0  0  0  0  0  0  0  0  0  0  0
  8  9  2  0
  9 10  1  0
  9 14  1  0
 10 11  1  0
 11 12  2  0
 12  7  1  0
 12 13  1  0
  7  1  1  0
  1  2  2  0
  1  6  1  0
  2  3  1  0
  3  4  2  0
  4  5  1  0
  5 19  1  0
  5  6  2  0
 19 20  1  0
 20 21  2  0
 20 22  2  0
 20 23  1  0
 23 24  2  0
 23 27  1  0
 24 25  2  0
 25 26  2  0
 26 27  1  0
 13 14  2  0
 13 18  1  0
 14 15  1  0
 15 16  1  0
 16 17  1  0
 17 18  1  0
M  END
>  <minimizedAffinity>  (247) 
-9.38572

$$$$
cs_full_output_folder/data/smiles/448.pdb
     RDKit          3D

 27 28  0  0  0  0  0  0  0  0999 V2000
   69.5479   42.8833   57.5674 C   0  0  0  0  0  0  0  0  0  0  0  0
   70.5023   42.7092   56.7994 O   0  0  0  0  0  0  0  0  0  0  0  0
   68.4189   43.5844   57.0671 N   0  0  0  0  0  0  0  0  0  0  0  0
   68.4419   44.0413   55.7390 N   0  0  0  0  0  0  0  0  0  0  0  0
   68.3655   45.4048   55.3946 C   0  0  0  0  0  0  0  0  0  0  0  0
   68.2726   46.2308   56.3571 O   0  0  0  0  0  0  0  0  0  0  0  0
   68.3842   45.9338   54.0372 C   0  0  0  0  0  0  0  0  0  0  0  0
   67.5897   45.4225   53.0360 C   0  0  0  0  0  0  0  0  0  0  0  0
   67.6256   45.9470   51.7400 C   0  0  0  0  0  0  0  0  0  0  0  0
   68.4601   46.9894   51.4385 C   0  0  0  0  0  0  0  0  0  0  0  0
   69.2658   47.5188   52.4219 C   0  0  0  0  0  0  0  0  0  0  0  0
   69.2109   46.9866   53.6816 C   0  0  0  0  0  0  0  0  0  0  0  0
   70.1265   48.6051   52.0802 N   0  0  0  0  0  0  0  0  0  0  0  0
   69.9934   49.2789   51.0618 O   0  0  0  0  0  0  0  0  0  0  0  0
   71.1551   48.9058   52.9411 O   0  0  0  0  0  0  0  0  0  0  0  0
   69.6205   42.3633   58.9505 C   0  0  0  0  0  0  0  0  0  0  0  0
   71.2673   41.9006   59.4830 S   0  0  0  0  0  0  0  0  0  0  0  0
   72.4844   37.6163   58.5657 C   0  0  0  0  0  0  0  0  0  0  0  0
   71.2532   38.1234   58.1979 C   0  0  0  0  0  0  0  0  0  0  0  0
   70.8471   39.4165   58.4557 C   0  0  0  0  0  0  0  0  0  0  0  0
   71.7265   40.2419   59.1168 C   0  0  0  0  0  0  0  0  0  0  0  0
   72.9777   39.7555   59.4999 C   0  0  0  0  0  0  0  0  0  0  0  0
   73.3407   38.4547   59.2213 C   0  0  0  0  0  0  0  0  0  0  0  0
   74.1385   35.7718   58.6771 C   0  0  0  0  0  0  0  0  0  0  0  0
   72.7731   36.2109   58.2190 C   0  0  0  0  0  0  0  0  0  0  0  0
   71.7439   35.2500   58.7853 C   0  0  0  0  0  0  0  0  0  0  0  0
   72.7335   36.0573   56.7067 C   0  0  0  0  0  0  0  0  0  0  0  0
 24 25  1  0
 25 26  1  0
 25 27  1  0
 25 18  1  0
 18 19  2  0
 18 23  1  0
 19 20  1  0
 20 21  2  0
 21 17  1  0
 21 22  1  0
 17 16  1  0
 16  1  1  0
  1  2  2  0
  1  3  1  0
  3  4  1  0
  4  5  1  0
  5  6  2  0
  5  7  1  0
  7  8  2  0
  7 12  1  0
  8  9  1  0
  9 10  2  0
 10 11  1  0
 11 13  1  0
 11 12  2  0
 13 14  2  0
 13 15  1  0
 22 23  2  0
M  CHG  2  13   1  15  -1
M  END
>  <minimizedAffinity>  (248) 
-9.38297

$$$$
cs_full_output_folder/data/smiles/399.pdb
     RDKit          3D

 26 28  0  0  0  0  0  0  0  0999 V2000
   70.3316   39.6715   58.6327 C   0  0  0  0  0  0  0  0  0  0  0  0
   70.8461   40.9474   58.5410 C   0  0  0  0  0  0  0  0  0  0  0  0
   70.1973   41.9265   57.8032 C   0  0  0  0  0  0  0  0  0  0  0  0
   69.0210   41.6789   57.1323 C   0  0  0  0  0  0  0  0  0  0  0  0
   68.4950   40.4082   57.2137 C   0  0  0  0  0  0  0  0  0  0  0  0
   69.1544   39.4361   57.9562 C   0  0  0  0  0  0  0  0  0  0  0  0
   67.3002   40.4288   56.4448 N   0  0  0  0  0  0  0  0  0  0  0  0
   67.0666   41.7050   55.8748 C   0  0  0  0  0  0  0  0  0  0  0  0
   66.0877   42.0959   55.1212 N   0  0  0  0  0  0  0  0  0  0  0  0
   68.1648   42.5374   56.3015 C   0  0  0  0  0  0  0  0  0  0  0  0
   68.3324   43.7788   56.0019 N   0  0  0  0  0  0  0  0  0  0  0  0
   71.8978   39.2516   60.4576 C   0  0  0  0  0  0  0  0  0  0  0  0
   71.0158   38.6012   59.4243 C   0  0  0  0  0  0  0  0  0  0  0  0
   71.7698   37.6915   58.5027 C   0  0  0  0  0  0  0  0  0  0  0  0
   69.9793   37.7772   60.1572 C   0  0  0  0  0  0  0  0  0  0  0  0
   67.4698   44.5326   55.2026 N   0  0  0  0  0  0  0  0  0  0  0  0
   68.0756   45.6567   54.5578 C   0  0  0  0  0  0  0  0  0  0  0  0
   68.1162   45.8517   53.2053 C   0  0  0  0  0  0  0  0  0  0  0  0
   68.7023   46.9560   52.6195 C   0  0  0  0  0  0  0  0  0  0  0  0
   69.2707   47.9021   53.4227 C   0  0  0  0  0  0  0  0  0  0  0  0
   69.2455   47.7345   54.7823 C   0  0  0  0  0  0  0  0  0  0  0  0
   68.6498   46.6135   55.3588 C   0  0  0  0  0  0  0  0  0  0  0  0
   70.0508   49.3409   52.8020 S   0  0  0  0  0  0  0  0  0  0  0  0
   69.9084   49.4458   51.0862 N   0  0  0  0  0  0  0  0  0  0  0  0
   69.4121   50.5567   53.4021 O   0  0  0  0  0  0  0  0  0  0  0  0
   71.4925   49.3180   53.1936 O   0  0  0  0  0  0  0  0  0  0  0  0
 12 13  1  0
 13 14  1  0
 13 15  1  0
 13  1  1  0
  1  2  2  0
  1  6  1  0
  2  3  1  0
  3  4  2  0
  4  5  1  0
  4 10  1  0
  5  6  2  0
  5  7  1  0
  7  8  1  0
  8  9  2  0
  8 10  1  0
 10 11  2  0
 11 16  1  0
 16 17  1  0
 17 18  2  0
 17 22  1  0
 18 19  1  0
 19 20  2  0
 20 23  1  0
 20 21  1  0
 23 24  1  0
 23 25  2  0
 23 26  2  0
 21 22  2  0
M  CHG  1   9   1
M  END
>  <minimizedAffinity>  (249) 
-9.38277

$$$$
cs_full_output_folder/data/smiles/6394.pdb
     RDKit          3D

 29 33  0  0  0  0  0  0  0  0999 V2000
   71.4876   47.3385   58.7084 C   0  0  0  0  0  0  0  0  0  0  0  0
   70.5946   48.0061   57.9126 C   0  0  0  0  0  0  0  0  0  0  0  0
   69.6836   47.3487   57.0963 C   0  0  0  0  0  0  0  0  0  0  0  0
   69.6744   45.9845   57.0832 C   0  0  0  0  0  0  0  0  0  0  0  0
   70.5545   45.2779   57.8669 C   0  0  0  0  0  0  0  0  0  0  0  0
   71.4664   45.9635   58.6837 C   0  0  0  0  0  0  0  0  0  0  0  0
   72.3123   45.2489   59.4372 F   0  0  0  0  0  0  0  0  0  0  0  0
   72.1680   47.9919   60.8156 O   0  0  0  0  0  0  0  0  0  0  0  0
   72.4511   47.9962   59.5699 C   0  0  0  0  0  0  0  0  0  0  0  0
   73.6308   48.6101   59.1034 N   0  0  0  0  0  0  0  0  0  0  0  0
   74.0253   48.6534   57.7053 C   0  0  0  0  0  0  0  0  0  0  0  0
   75.0429   49.7271   57.7276 C   0  0  2  0  0  0  0  0  0  0  0  0
   76.2165   49.6757   56.8556 C   0  0  0  0  0  0  0  0  0  0  0  0
   77.2240   50.4030   57.6547 N   0  0  0  0  0  0  0  0  0  0  0  0
   76.7594   50.3580   59.0486 C   0  0  0  0  0  0  0  0  0  0  0  0
   75.7760   49.2816   59.0283 C   0  0  1  0  0  0  0  0  0  0  0  0
   74.6158   49.2873   59.9235 C   0  0  0  0  0  0  0  0  0  0  0  0
   68.7726   48.1573   56.2476 C   0  0  0  0  0  0  0  0  0  0  0  0
   69.2212   48.2572   54.8469 C   0  0  0  0  0  0  0  0  0  0  0  0
   70.1328   49.2194   54.4863 N   0  0  0  0  0  0  0  0  0  0  0  0
   70.5356   49.3860   53.2499 N   0  0  0  0  0  0  0  0  0  0  0  0
   70.1003   48.6413   52.2251 C   0  0  0  0  0  0  0  0  0  0  0  0
   70.5197   48.8452   51.0590 O   0  0  0  0  0  0  0  0  0  0  0  0
   69.1810   47.6465   52.4917 C   0  0  0  0  0  0  0  0  0  0  0  0
   68.7198   46.8545   51.4707 C   0  0  0  0  0  0  0  0  0  0  0  0
   67.8057   45.8367   51.7061 C   0  0  0  0  0  0  0  0  0  0  0  0
   67.4075   45.6891   53.0156 C   0  0  0  0  0  0  0  0  0  0  0  0
   67.8516   46.4644   54.0477 C   0  0  0  0  0  0  0  0  0  0  0  0
   68.7640   47.4828   53.8144 C   0  0  0  0  0  0  0  0  0  0  0  0
  8  9  2  0
  9  1  1  0
  9 10  1  0
  1  2  2  0
  1  6  1  0
  2  3  1  0
  3 18  1  0
  3  4  2  0
 18 19  1  0
 19 20  2  0
 19 29  1  0
 20 21  1  0
 21 22  1  0
 22 23  2  0
 22 24  1  0
 24 25  1  0
 24 29  2  0
 25 26  2  0
 26 27  1  0
 27 28  2  0
 28 29  1  0
  4  5  1  0
  5  6  2  0
  6  7  1  0
 10 11  1  0
 10 17  1  0
 12 11  1  6
 12 13  1  0
 12 16  1  0
 13 14  1  0
 14 15  1  0
 16 15  1  1
 16 17  1  0
M  CHG  1  14   1
M  END
>  <minimizedAffinity>  (250) 
-9.38100

$$$$
cs_full_output_folder/data/smiles/4535.pdb
     RDKit          3D

 29 32  0  0  0  0  0  0  0  0999 V2000
   70.2977   46.8187   58.0632 C   0  0  0  0  0  0  0  0  0  0  0  0
   71.3428   46.9025   58.9607 C   0  0  0  0  0  0  0  0  0  0  0  0
   72.0326   48.0043   59.2004 N   0  0  0  0  0  0  0  0  0  0  0  0
   71.7269   49.1303   58.5494 C   0  0  0  0  0  0  0  0  0  0  0  0
   70.6987   49.1224   57.6428 C   0  0  0  0  0  0  0  0  0  0  0  0
   69.9553   47.9595   57.3750 C   0  0  0  0  0  0  0  0  0  0  0  0
   71.4961   44.4165   57.7111 O   0  0  0  0  0  0  0  0  0  0  0  0
   70.2210   44.3572   57.7037 C   0  0  0  0  0  0  0  0  0  0  0  0
   69.5705   45.6004   57.8852 N   0  0  0  0  0  0  0  0  0  0  0  0
   69.5972   43.0717   57.5197 C   0  0  0  0  0  0  0  0  0  0  0  0
   70.0853   41.9968   58.2668 C   0  0  0  0  0  0  0  0  0  0  0  0
   69.5698   40.7242   58.1958 C   0  0  0  0  0  0  0  0  0  0  0  0
   68.5133   40.4441   57.3568 C   0  0  0  0  0  0  0  0  0  0  0  0
   67.9838   39.1931   57.2695 F   0  0  0  0  0  0  0  0  0  0  0  0
   68.0167   41.4822   56.6135 C   0  0  0  0  0  0  0  0  0  0  0  0
   68.5504   42.7774   56.6927 C   0  0  0  0  0  0  0  0  0  0  0  0
   68.0214   43.7517   55.9315 F   0  0  0  0  0  0  0  0  0  0  0  0
   68.8463   48.0655   56.4305 C   0  0  0  0  0  0  0  0  0  0  0  0
   69.1683   48.3976   55.0284 C   0  0  0  0  0  0  0  0  0  0  0  0
   69.5952   49.6641   54.7269 N   0  0  0  0  0  0  0  0  0  0  0  0
   69.8724   50.0053   53.4972 N   0  0  0  0  0  0  0  0  0  0  0  0
   69.7525   49.1327   52.4753 C   0  0  0  0  0  0  0  0  0  0  0  0
   70.0271   49.4828   51.2751 O   0  0  0  0  0  0  0  0  0  0  0  0
   69.3321   47.8480   52.7013 C   0  0  0  0  0  0  0  0  0  0  0  0
   69.0375   47.4892   54.0262 C   0  0  0  0  0  0  0  0  0  0  0  0
   68.6413   46.0650   54.1638 C   0  0  0  0  0  0  0  0  0  0  0  0
   67.4495   45.8574   53.2643 C   0  0  0  0  0  0  0  0  0  0  0  0
   67.7681   46.2203   51.8288 C   0  0  0  0  0  0  0  0  0  0  0  0
   69.1554   46.8097   51.6617 C   0  0  0  0  0  0  0  0  0  0  0  0
  7  8  2  0
  8  9  1  0
  8 10  1  0
  9  1  1  0
  1  2  2  0
  1  6  1  0
  2  3  1  0
  3  4  2  0
  4  5  1  0
  5  6  2  0
  6 18  1  0
 18 19  1  0
 19 20  2  0
 19 25  1  0
 20 21  1  0
 21 22  1  0
 22 23  2  0
 22 24  1  0
 24 25  2  0
 24 29  1  0
 25 26  1  0
 26 27  1  0
 27 28  1  0
 28 29  1  0
 10 11  2  0
 10 16  1  0
 11 12  1  0
 12 13  2  0
 13 14  1  0
 13 15  1  0
 15 16  2  0
 16 17  1  0
M  END
>  <minimizedAffinity>  (251) 
-9.37992

$$$$
cs_full_output_folder/data/smiles/4181.pdb
     RDKit          3D

 28 31  0  0  0  0  0  0  0  0999 V2000
   71.4468   47.1174   58.9204 C   0  0  0  0  0  0  0  0  0  0  0  0
   70.6268   47.9189   58.1380 C   0  0  0  0  0  0  0  0  0  0  0  0
   69.7683   47.4300   57.1861 C   0  0  0  0  0  0  0  0  0  0  0  0
   69.7231   46.0375   57.0009 C   0  0  0  0  0  0  0  0  0  0  0  0
   70.5193   45.2110   57.7559 C   0  0  0  0  0  0  0  0  0  0  0  0
   71.3632   45.7588   58.6984 C   0  0  0  0  0  0  0  0  0  0  0  0
   72.1244   44.9101   59.4148 F   0  0  0  0  0  0  0  0  0  0  0  0
   72.0402   47.5675   61.1333 O   0  0  0  0  0  0  0  0  0  0  0  0
   72.3452   47.6844   59.9213 C   0  0  0  0  0  0  0  0  0  0  0  0
   73.5406   48.3553   59.5484 N   0  0  0  0  0  0  0  0  0  0  0  0
   74.4486   48.9235   60.5228 C   0  0  0  0  0  0  0  0  0  0  0  0
   74.6021   50.3839   60.2757 C   0  0  0  0  0  0  0  0  0  0  0  0
   74.2833   50.7909   58.8904 C   0  0  0  0  0  0  0  0  0  0  0  0
   73.9792   49.9804   57.9059 C   0  0  0  0  0  0  0  0  0  0  0  0
   73.6992   50.4368   56.6598 F   0  0  0  0  0  0  0  0  0  0  0  0
   73.9409   48.5224   58.1668 C   0  0  0  0  0  0  0  0  0  0  0  0
   68.8860   48.2790   56.3196 C   0  0  0  0  0  0  0  0  0  0  0  0
   69.2982   48.3111   54.9111 C   0  0  0  0  0  0  0  0  0  0  0  0
   70.2239   49.2517   54.5511 N   0  0  0  0  0  0  0  0  0  0  0  0
   70.6371   49.3961   53.3117 N   0  0  0  0  0  0  0  0  0  0  0  0
   70.1957   48.6452   52.2953 C   0  0  0  0  0  0  0  0  0  0  0  0
   70.5997   48.7949   51.1148 O   0  0  0  0  0  0  0  0  0  0  0  0
   69.2568   47.6698   52.5838 C   0  0  0  0  0  0  0  0  0  0  0  0
   68.7661   46.8510   51.5888 C   0  0  0  0  0  0  0  0  0  0  0  0
   67.8374   45.8743   51.8995 C   0  0  0  0  0  0  0  0  0  0  0  0
   67.4112   45.7323   53.2125 C   0  0  0  0  0  0  0  0  0  0  0  0
   67.9070   46.5552   54.2008 C   0  0  0  0  0  0  0  0  0  0  0  0
   68.8175   47.5180   53.9127 C   0  0  0  0  0  0  0  0  0  0  0  0
  8  9  2  0
  9  1  1  0
  9 10  1  0
  1  2  2  0
  1  6  1  0
  2  3  1  0
  3 17  1  0
  3  4  2  0
 17 18  1  0
 18 19  2  0
 18 28  1  0
 19 20  1  0
 20 21  1  0
 21 22  2  0
 21 23  1  0
 23 24  1  0
 23 28  2  0
 24 25  2  0
 25 26  1  0
 26 27  2  0
 27 28  1  0
  4  5  1  0
  5  6  2  0
  6  7  1  0
 10 11  1  0
 10 16  1  0
 11 12  1  0
 12 13  1  0
 13 14  2  0
 14 15  1  0
 14 16  1  0
M  END
>  <minimizedAffinity>  (252) 
-9.37860

$$$$
cs_full_output_folder/data/smiles/1804.pdb
     RDKit          3D

 28 32  0  0  0  0  0  0  0  0999 V2000
   71.4058   47.1632   58.7824 C   0  0  0  0  0  0  0  0  0  0  0  0
   70.5306   47.9152   57.9966 C   0  0  0  0  0  0  0  0  0  0  0  0
   69.6815   47.2990   57.1037 C   0  0  0  0  0  0  0  0  0  0  0  0
   69.7350   45.9244   57.0202 C   0  0  0  0  0  0  0  0  0  0  0  0
   70.5889   45.1605   57.7828 C   0  0  0  0  0  0  0  0  0  0  0  0
   71.4269   45.7893   58.6668 C   0  0  0  0  0  0  0  0  0  0  0  0
   72.2818   45.0365   59.4323 F   0  0  0  0  0  0  0  0  0  0  0  0
   72.0159   47.8047   60.9544 O   0  0  0  0  0  0  0  0  0  0  0  0
   72.2876   47.8502   59.7142 C   0  0  0  0  0  0  0  0  0  0  0  0
   73.4189   48.5497   59.2367 N   0  0  0  0  0  0  0  0  0  0  0  0
   73.6849   48.5723   57.8202 C   0  0  0  0  0  0  0  0  0  0  0  0
   75.2060   48.4786   57.6662 C   0  0  0  0  0  0  0  0  0  0  0  0
   75.7878   49.7433   58.2060 C   0  0  2  0  0  0  0  0  0  0  0  0
   76.7167   49.7470   59.3603 C   0  0  0  0  0  0  0  0  0  0  0  0
   75.2394   50.1743   59.4903 C   0  0  2  0  0  0  0  0  0  0  0  0
   74.2878   49.2262   60.1549 C   0  0  0  0  0  0  0  0  0  0  0  0
   68.7628   48.1276   56.2826 C   0  0  0  0  0  0  0  0  0  0  0  0
   69.2810   48.3300   54.9191 C   0  0  0  0  0  0  0  0  0  0  0  0
   70.1975   49.2619   54.5960 N   0  0  0  0  0  0  0  0  0  0  0  0
   70.6347   49.4046   53.3435 N   0  0  0  0  0  0  0  0  0  0  0  0
   70.2007   48.6406   52.3289 C   0  0  0  0  0  0  0  0  0  0  0  0
   70.5997   48.7587   51.1446 O   0  0  0  0  0  0  0  0  0  0  0  0
   69.2568   47.6609   52.5940 C   0  0  0  0  0  0  0  0  0  0  0  0
   68.7887   46.8575   51.5751 C   0  0  0  0  0  0  0  0  0  0  0  0
   67.8498   45.8828   51.8383 C   0  0  0  0  0  0  0  0  0  0  0  0
   67.4098   45.7493   53.1316 C   0  0  0  0  0  0  0  0  0  0  0  0
   67.8780   46.5510   54.1487 C   0  0  0  0  0  0  0  0  0  0  0  0
   68.8164   47.5310   53.9057 C   0  0  0  0  0  0  0  0  0  0  0  0
  8  9  2  0
  9  1  1  0
  9 10  1  0
  1  2  2  0
  1  6  1  0
  2  3  1  0
  3 17  1  0
  3  4  2  0
 17 18  1  0
 18 19  2  0
 18 28  1  0
 19 20  1  0
 20 21  1  0
 21 22  2  0
 21 23  1  0
 23 24  1  0
 23 28  2  0
 24 25  2  0
 25 26  1  0
 26 27  2  0
 27 28  1  0
  4  5  1  0
  5  6  2  0
  6  7  1  0
 10 11  1  0
 10 16  1  0
 11 12  1  0
 13 12  1  1
 13 14  1  0
 13 15  1  0
 15 14  1  1
 15 16  1  0
M  END
>  <minimizedAffinity>  (253) 
-9.37404

$$$$
cs_full_output_folder/data/smiles/2228.pdb
     RDKit          3D

 29 33  0  0  0  0  0  0  0  0999 V2000
   69.8244   46.2903   57.2261 C   0  0  0  0  0  0  0  0  0  0  0  0
   70.9022   46.7153   57.7657 O   0  0  0  0  0  0  0  0  0  0  0  0
   69.6630   44.8920   57.1238 N   0  0  0  0  0  0  0  0  0  0  0  0
   70.6218   43.9318   57.5734 C   0  0  0  0  0  0  0  0  0  0  0  0
   71.9215   44.2888   57.8589 C   0  0  0  0  0  0  0  0  0  0  0  0
   72.8461   43.3420   58.3070 C   0  0  0  0  0  0  0  0  0  0  0  0
   72.4988   42.0164   58.4814 C   0  0  0  0  0  0  0  0  0  0  0  0
   73.1771   40.9255   58.8930 N   0  0  0  0  0  0  0  0  0  0  0  0
   72.3755   39.8342   58.8962 C   0  0  0  0  0  0  0  0  0  0  0  0
   72.5671   38.5060   59.2230 C   0  0  0  0  0  0  0  0  0  0  0  0
   71.5426   37.5905   59.1303 C   0  0  0  0  0  0  0  0  0  0  0  0
   70.3150   38.0448   58.6993 C   0  0  0  0  0  0  0  0  0  0  0  0
   70.1273   39.3712   58.3729 C   0  0  0  0  0  0  0  0  0  0  0  0
   71.1395   40.3025   58.4587 C   0  0  0  0  0  0  0  0  0  0  0  0
   71.1991   41.6554   58.1970 C   0  0  0  0  0  0  0  0  0  0  0  0
   70.2818   42.5990   57.7519 C   0  0  0  0  0  0  0  0  0  0  0  0
   68.8548   47.3015   56.7648 C   0  0  0  0  0  0  0  0  0  0  0  0
   71.2131   50.8281   54.2955 C   0  0  0  0  0  0  0  0  0  0  0  0
   70.3970   49.6068   54.2864 N   0  0  0  0  0  0  0  0  0  0  0  0
   70.0293   49.0590   55.4309 N   0  0  0  0  0  0  0  0  0  0  0  0
   69.2844   47.9469   55.4985 C   0  0  0  0  0  0  0  0  0  0  0  0
   68.8860   47.3530   54.3179 C   0  0  0  0  0  0  0  0  0  0  0  0
   68.1102   46.1900   54.2992 C   0  0  0  0  0  0  0  0  0  0  0  0
   67.7135   45.5943   53.1219 C   0  0  0  0  0  0  0  0  0  0  0  0
   68.0987   46.1668   51.9323 C   0  0  0  0  0  0  0  0  0  0  0  0
   68.8549   47.3000   51.9354 C   0  0  0  0  0  0  0  0  0  0  0  0
   69.2545   47.9018   53.1207 C   0  0  0  0  0  0  0  0  0  0  0  0
   70.0216   49.0466   53.1220 C   0  0  0  0  0  0  0  0  0  0  0  0
   70.3503   49.5359   52.0084 O   0  0  0  0  0  0  0  0  0  0  0  0
 18 19  1  0
 19 20  1  0
 19 28  1  0
 20 21  2  0
 21 17  1  0
 21 22  1  0
 17  1  1  0
  1  2  2  0
  1  3  1  0
  3  4  1  0
  4  5  2  0
  4 16  1  0
  5  6  1  0
  6  7  2  0
  7  8  1  0
  7 15  1  0
  8  9  1  0
  9 10  1  0
  9 14  2  0
 10 11  2  0
 11 12  1  0
 12 13  2  0
 13 14  1  0
 14 15  1  0
 15 16  2  0
 22 23  1  0
 22 27  2  0
 23 24  2  0
 24 25  1  0
 25 26  2  0
 26 27  1  0
 27 28  1  0
 28 29  2  0
M  END
>  <minimizedAffinity>  (254) 
-9.37389

$$$$
cs_full_output_folder/data/smiles/653.pdb
     RDKit          3D

 27 30  0  0  0  0  0  0  0  0999 V2000
   71.4194   47.3318   58.8656 C   0  0  0  0  0  0  0  0  0  0  0  0
   70.5881   48.1362   58.1228 C   0  0  0  0  0  0  0  0  0  0  0  0
   69.7504   47.5993   57.2003 C   0  0  0  0  0  0  0  0  0  0  0  0
   69.7482   46.2227   57.0204 C   0  0  0  0  0  0  0  0  0  0  0  0
   70.5757   45.4122   57.7592 C   0  0  0  0  0  0  0  0  0  0  0  0
   71.4261   45.9817   58.6993 C   0  0  0  0  0  0  0  0  0  0  0  0
   72.2134   45.1265   59.3892 F   0  0  0  0  0  0  0  0  0  0  0  0
   74.3295   51.1272   57.3568 O   0  0  0  0  0  0  0  0  0  0  0  0
   74.3063   50.3637   58.2989 C   0  0  0  0  0  0  0  0  0  0  0  0
   74.5989   50.5921   59.7427 C   0  0  0  0  0  0  0  0  0  0  0  0
   74.4504   49.2018   60.3784 C   0  0  0  0  0  0  0  0  0  0  0  0
   73.4912   48.6151   59.4935 N   0  0  0  0  0  0  0  0  0  0  0  0
   72.3459   47.8870   59.8620 C   0  0  0  0  0  0  0  0  0  0  0  0
   72.0782   47.6879   61.0821 O   0  0  0  0  0  0  0  0  0  0  0  0
   73.9415   48.9154   58.1605 C   0  0  0  0  0  0  0  0  0  0  0  0
   68.8099   48.3564   56.3181 C   0  0  0  0  0  0  0  0  0  0  0  0
   69.2700   48.3556   54.9335 C   0  0  0  0  0  0  0  0  0  0  0  0
   70.2037   49.2876   54.5671 N   0  0  0  0  0  0  0  0  0  0  0  0
   70.6390   49.4174   53.3422 N   0  0  0  0  0  0  0  0  0  0  0  0
   70.2093   48.6478   52.3391 C   0  0  0  0  0  0  0  0  0  0  0  0
   70.6210   48.7667   51.1577 O   0  0  0  0  0  0  0  0  0  0  0  0
   69.2639   47.6721   52.6043 C   0  0  0  0  0  0  0  0  0  0  0  0
   68.8055   46.8448   51.6028 C   0  0  0  0  0  0  0  0  0  0  0  0
   67.8808   45.8765   51.9116 C   0  0  0  0  0  0  0  0  0  0  0  0
   67.4427   45.7561   53.1966 C   0  0  0  0  0  0  0  0  0  0  0  0
   67.9120   46.5958   54.1954 C   0  0  0  0  0  0  0  0  0  0  0  0
   68.8230   47.5581   53.9072 C   0  0  0  0  0  0  0  0  0  0  0  0
  8  9  2  0
  9 10  1  0
  9 15  1  0
 10 11  1  0
 11 12  1  0
 12 13  1  0
 12 15  1  0
 13 14  2  0
 13  1  1  0
  1  2  2  0
  1  6  1  0
  2  3  1  0
  3 16  1  0
  3  4  2  0
 16 17  1  0
 17 18  2  0
 17 27  1  0
 18 19  1  0
 19 20  1  0
 20 21  2  0
 20 22  1  0
 22 23  1  0
 22 27  2  0
 23 24  2  0
 24 25  1  0
 25 26  2  0
 26 27  1  0
  4  5  1  0
  5  6  2  0
  6  7  1  0
M  END
>  <minimizedAffinity>  (255) 
-9.37386

$$$$
cs_full_output_folder/data/smiles/6369.pdb
     RDKit          3D

 28 31  0  0  0  0  0  0  0  0999 V2000
   70.4549   45.4183   57.7729 C   0  0  0  0  0  0  0  0  0  0  0  0
   69.6815   46.3332   57.0439 C   0  0  0  0  0  0  0  0  0  0  0  0
   69.8066   47.6985   57.1198 C   0  0  0  0  0  0  0  0  0  0  0  0
   70.7379   48.2169   57.9534 C   0  0  0  0  0  0  0  0  0  0  0  0
   71.5320   47.3760   58.7006 C   0  0  0  0  0  0  0  0  0  0  0  0
   71.3845   46.0023   58.6040 C   0  0  0  0  0  0  0  0  0  0  0  0
   72.1968   45.2250   59.3612 F   0  0  0  0  0  0  0  0  0  0  0  0
   68.9776   43.3955   57.5342 N   0  0  0  0  0  0  0  0  0  0  0  0
   70.2357   44.0010   57.6097 C   0  0  0  0  0  0  0  0  0  0  0  0
   71.2420   43.2397   57.5257 O   0  0  0  0  0  0  0  0  0  0  0  0
   67.5727   41.2924   58.9272 C   0  0  1  0  0  0  0  0  0  0  0  0
   67.3861   41.5119   57.4447 C   0  0  0  0  0  0  0  0  0  0  0  0
   68.8249   41.9428   57.3700 C   0  0  2  0  0  0  0  0  0  0  0  0
   69.0643   41.2396   58.6881 C   0  0  0  0  0  0  0  0  0  0  0  0
   66.4235   42.0746   60.7723 C   0  0  0  0  0  0  0  0  0  0  0  0
   67.2654   42.3977   59.7233 O   0  0  0  0  0  0  0  0  0  0  0  0
   68.8834   48.4670   56.2342 C   0  0  0  0  0  0  0  0  0  0  0  0
   69.2635   48.5031   54.8313 C   0  0  0  0  0  0  0  0  0  0  0  0
   70.1618   49.4287   54.4511 N   0  0  0  0  0  0  0  0  0  0  0  0
   70.6384   49.5478   53.2282 N   0  0  0  0  0  0  0  0  0  0  0  0
   70.2179   48.7038   52.2828 C   0  0  0  0  0  0  0  0  0  0  0  0
   70.6193   48.7375   51.0807 O   0  0  0  0  0  0  0  0  0  0  0  0
   69.2928   47.7258   52.6051 C   0  0  0  0  0  0  0  0  0  0  0  0
   68.8367   46.8460   51.6305 C   0  0  0  0  0  0  0  0  0  0  0  0
   67.9070   45.8744   51.9292 C   0  0  0  0  0  0  0  0  0  0  0  0
   67.4421   45.7981   53.2207 C   0  0  0  0  0  0  0  0  0  0  0  0
   67.8638   46.6425   54.2116 C   0  0  0  0  0  0  0  0  0  0  0  0
   68.8025   47.6167   53.8962 C   0  0  0  0  0  0  0  0  0  0  0  0
 15 16  1  0
 11 16  1  1
 11 12  1  0
 11 14  1  0
 12 13  1  0
 13  8  1  1
 13 14  1  0
  8  9  1  0
  9 10  2  0
  9  1  1  0
  1  2  2  0
  1  6  1  0
  2  3  1  0
  3 17  1  0
  3  4  2  0
 17 18  1  0
 18 19  2  0
 18 28  1  0
 19 20  1  0
 20 21  1  0
 21 22  2  0
 21 23  1  0
 23 24  1  0
 23 28  2  0
 24 25  2  0
 25 26  1  0
 26 27  2  0
 27 28  1  0
  4  5  1  0
  5  6  2  0
  6  7  1  0
M  END
>  <minimizedAffinity>  (256) 
-9.36920

$$$$
cs_full_output_folder/data/smiles/4819.pdb
     RDKit          3D

 28 31  0  0  0  0  0  0  0  0999 V2000
   71.4040   46.8661   58.8576 C   0  0  0  0  0  0  0  0  0  0  0  0
   70.6294   47.6780   58.0773 C   0  0  0  0  0  0  0  0  0  0  0  0
   69.7655   47.2515   57.0984 C   0  0  0  0  0  0  0  0  0  0  0  0
   69.6691   45.8742   56.8822 C   0  0  0  0  0  0  0  0  0  0  0  0
   70.4486   45.0228   57.6588 C   0  0  0  0  0  0  0  0  0  0  0  0
   71.3067   45.4617   58.6341 C   0  0  0  0  0  0  0  0  0  0  0  0
   72.0431   44.5983   59.3980 F   0  0  0  0  0  0  0  0  0  0  0  0
   71.8554   47.4447   61.0522 O   0  0  0  0  0  0  0  0  0  0  0  0
   72.2340   47.4006   59.8712 C   0  0  0  0  0  0  0  0  0  0  0  0
   73.6486   47.9557   59.5458 N   0  0  0  0  0  0  0  0  0  0  0  0
   73.7728   47.7259   58.1470 C   0  0  0  0  0  0  0  0  0  0  0  0
   74.1958   49.2501   57.3047 C   0  0  0  0  0  0  0  0  0  0  0  0
   74.3364   49.5635   58.5426 C   0  0  0  0  0  0  0  0  0  0  0  0
   74.4259   49.7759   59.3877 S   0  0  0  0  0  0  0  0  0  0  0  0
   74.5665   50.1093   60.7967 C   0  0  0  0  0  0  0  0  0  0  0  0
   74.1391   48.3656   60.9213 C   0  0  0  0  0  0  0  0  0  0  0  0
   68.9762   48.2714   56.3597 C   0  0  0  0  0  0  0  0  0  0  0  0
   69.4048   48.2261   54.9436 C   0  0  0  0  0  0  0  0  0  0  0  0
   70.3812   49.1313   54.6242 N   0  0  0  0  0  0  0  0  0  0  0  0
   70.8041   49.2941   53.3445 N   0  0  0  0  0  0  0  0  0  0  0  0
   70.2558   48.5621   52.3971 C   0  0  0  0  0  0  0  0  0  0  0  0
   70.6882   48.7634   51.1852 O   0  0  0  0  0  0  0  0  0  0  0  0
   69.2922   47.6350   52.5960 C   0  0  0  0  0  0  0  0  0  0  0  0
   68.7573   46.8659   51.6190 C   0  0  0  0  0  0  0  0  0  0  0  0
   67.8010   45.9246   51.9019 C   0  0  0  0  0  0  0  0  0  0  0  0
   67.3711   45.7719   53.2482 C   0  0  0  0  0  0  0  0  0  0  0  0
   67.9319   46.5627   54.1918 C   0  0  0  0  0  0  0  0  0  0  0  0
   68.8753   47.4938   53.9438 C   0  0  0  0  0  0  0  0  0  0  0  0
  8  9  2  0
  9  1  1  0
  9 10  1  0
  1  2  2  0
  1  6  1  0
  2  3  1  0
  3 17  1  0
  3  4  2  0
 17 18  1  0
 18 19  2  0
 18 28  1  0
 19 20  1  0
 20 21  1  0
 21 22  2  0
 21 23  1  0
 23 24  1  0
 23 28  2  0
 24 25  2  0
 25 26  1  0
 26 27  2  0
 27 28  1  0
  4  5  1  0
  5  6  2  0
  6  7  1  0
 10 11  1  0
 10 16  1  0
 11 12  1  0
 12 13  1  0
 13 14  3  0
 14 15  1  0
 15 16  1  0
M  END
>  <minimizedAffinity>  (257) 
-9.36567

$$$$
cs_full_output_folder/data/smiles/6783.pdb
     RDKit          3D

 25 27  0  0  0  0  0  0  0  0999 V2000
   70.6721   47.0358   57.4084 O   0  0  0  0  0  0  0  0  0  0  0  0
   69.5660   46.8377   56.8399 C   0  0  0  0  0  0  0  0  0  0  0  0
   69.0578   45.5410   56.7986 N   0  0  0  0  0  0  0  0  0  0  0  0
   69.7834   44.4823   57.3834 N   0  0  0  0  0  0  0  0  0  0  0  0
   69.4822   43.1302   57.1679 C   0  0  0  0  0  0  0  0  0  0  0  0
   68.4916   42.8945   56.3995 O   0  0  0  0  0  0  0  0  0  0  0  0
   70.2162   42.0110   57.7554 C   0  0  0  0  0  0  0  0  0  0  0  0
   71.5637   42.0375   57.9915 C   0  0  0  0  0  0  0  0  0  0  0  0
   72.2323   40.9700   58.5501 C   0  0  0  0  0  0  0  0  0  0  0  0
   71.5232   39.8133   58.8930 C   0  0  0  0  0  0  0  0  0  0  0  0
   70.1676   39.7698   58.6635 C   0  0  0  0  0  0  0  0  0  0  0  0
   69.2786   38.3259   59.0932 Cl  0  0  0  0  0  0  0  0  0  0  0  0
   69.5349   40.8612   58.1005 C   0  0  0  0  0  0  0  0  0  0  0  0
   68.8744   48.0094   56.2463 C   0  0  0  0  0  0  0  0  0  0  0  0
   69.2914   48.1873   54.8321 C   0  0  0  0  0  0  0  0  0  0  0  0
   70.1913   49.1385   54.5289 N   0  0  0  0  0  0  0  0  0  0  0  0
   70.5902   49.3640   53.2944 N   0  0  0  0  0  0  0  0  0  0  0  0
   70.1264   48.6585   52.2487 C   0  0  0  0  0  0  0  0  0  0  0  0
   70.5151   48.8828   51.0688 O   0  0  0  0  0  0  0  0  0  0  0  0
   69.2047   47.6723   52.4935 C   0  0  0  0  0  0  0  0  0  0  0  0
   68.7145   46.9292   51.4524 C   0  0  0  0  0  0  0  0  0  0  0  0
   67.7996   45.9412   51.7097 C   0  0  0  0  0  0  0  0  0  0  0  0
   67.3860   45.7082   53.0016 C   0  0  0  0  0  0  0  0  0  0  0  0
   67.8756   46.4571   54.0747 C   0  0  0  0  0  0  0  0  0  0  0  0
   68.7874   47.4394   53.8025 C   0  0  0  0  0  0  0  0  0  0  0  0
  1  2  2  0
  2 14  1  0
  2  3  1  0
 14 15  1  0
 15 16  2  0
 15 25  1  0
 16 17  1  0
 17 18  1  0
 18 19  2  0
 18 20  1  0
 20 21  1  0
 20 25  2  0
 21 22  2  0
 22 23  1  0
 23 24  2  0
 24 25  1  0
  3  4  1  0
  4  5  1  0
  5  6  2  0
  5  7  1  0
  7  8  2  0
  7 13  1  0
  8  9  1  0
  9 10  2  0
 10 11  1  0
 11 12  1  0
 11 13  2  0
M  END
>  <minimizedAffinity>  (258) 
-9.35973

$$$$
cs_full_output_folder/data/smiles/856.pdb
     RDKit          3D

 27 30  0  0  0  0  0  0  0  0999 V2000
   71.0258   46.0096   58.2823 C   0  0  0  0  0  0  0  0  0  0  0  0
   70.0634   46.5367   57.4056 C   0  0  0  0  0  0  0  0  0  0  0  0
   69.8559   47.8664   57.2736 C   0  0  0  0  0  0  0  0  0  0  0  0
   70.6390   48.7139   58.0446 C   0  0  0  0  0  0  0  0  0  0  0  0
   71.5914   48.2226   58.9129 C   0  0  0  0  0  0  0  0  0  0  0  0
   71.7839   46.8661   59.0298 C   0  0  0  0  0  0  0  0  0  0  0  0
   72.7242   46.3786   59.8861 F   0  0  0  0  0  0  0  0  0  0  0  0
   69.3860   41.6505   57.8274 C   0  0  0  0  0  0  0  0  0  0  0  0
   70.5575   42.2779   58.5823 C   0  0  1  0  0  0  0  0  0  0  0  0
   71.7613   42.3810   57.6982 C   0  0  0  0  0  0  0  0  0  0  0  0
   72.2357   43.7893   57.8674 C   0  0  0  0  0  0  0  0  0  0  0  0
   73.3953   44.2577   57.6207 O   0  0  0  0  0  0  0  0  0  0  0  0
   71.1756   44.5886   58.3663 N   0  0  0  0  0  0  0  0  0  0  0  0
   70.2572   43.6711   58.9939 C   0  0  0  0  0  0  0  0  0  0  0  0
   69.3262   44.0109   59.7842 O   0  0  0  0  0  0  0  0  0  0  0  0
   68.8490   48.4505   56.3805 C   0  0  0  0  0  0  0  0  0  0  0  0
   69.3054   48.3840   55.0118 C   0  0  0  0  0  0  0  0  0  0  0  0
   70.2636   49.2947   54.6481 N   0  0  0  0  0  0  0  0  0  0  0  0
   70.7288   49.3862   53.4179 N   0  0  0  0  0  0  0  0  0  0  0  0
   70.2930   48.5892   52.4327 C   0  0  0  0  0  0  0  0  0  0  0  0
   70.7484   48.6844   51.2420 O   0  0  0  0  0  0  0  0  0  0  0  0
   69.3241   47.6331   52.6983 C   0  0  0  0  0  0  0  0  0  0  0  0
   68.8608   46.7843   51.7231 C   0  0  0  0  0  0  0  0  0  0  0  0
   67.9176   45.8438   52.0376 C   0  0  0  0  0  0  0  0  0  0  0  0
   67.4487   45.7659   53.3339 C   0  0  0  0  0  0  0  0  0  0  0  0
   67.9081   46.6181   54.3300 C   0  0  0  0  0  0  0  0  0  0  0  0
   68.8527   47.5635   54.0157 C   0  0  0  0  0  0  0  0  0  0  0  0
  9  8  1  6
  9 10  1  0
  9 14  1  0
 10 11  1  0
 11 12  2  0
 11 13  1  0
 13  1  1  0
 13 14  1  0
  1  2  2  0
  1  6  1  0
  2  3  1  0
  3 16  1  0
  3  4  2  0
 16 17  1  0
 17 18  2  0
 17 27  1  0
 18 19  1  0
 19 20  1  0
 20 21  2  0
 20 22  1  0
 22 23  1  0
 22 27  2  0
 23 24  2  0
 24 25  1  0
 25 26  2  0
 26 27  1  0
  4  5  1  0
  5  6  2  0
  6  7  1  0
 14 15  2  0
M  END
>  <minimizedAffinity>  (259) 
-9.35966

$$$$
cs_full_output_folder/data/smiles/2485.pdb
     RDKit          3D

 29 32  0  0  0  0  0  0  0  0999 V2000
   70.8149   46.0278   58.2402 C   0  0  0  0  0  0  0  0  0  0  0  0
   69.8470   46.6499   57.4985 C   0  0  0  0  0  0  0  0  0  0  0  0
   69.9507   47.9779   57.1374 C   0  0  0  0  0  0  0  0  0  0  0  0
   71.0347   48.6906   57.5241 C   0  0  0  0  0  0  0  0  0  0  0  0
   72.0276   48.0924   58.2727 C   0  0  0  0  0  0  0  0  0  0  0  0
   71.9134   46.7420   58.6344 C   0  0  0  0  0  0  0  0  0  0  0  0
   72.9279   46.2336   59.3745 F   0  0  0  0  0  0  0  0  0  0  0  0
   69.6812   44.0403   59.3714 N   0  0  0  0  0  0  0  0  0  0  0  0
   70.6484   44.6307   58.5658 C   0  0  0  0  0  0  0  0  0  0  0  0
   71.4800   43.8199   58.0657 O   0  0  0  0  0  0  0  0  0  0  0  0
   65.6988   41.8945   61.2841 C   0  0  0  0  0  0  0  0  0  0  0  0
   67.0388   42.2706   60.6899 C   0  0  1  0  0  0  0  0  0  0  0  0
   68.1519   42.0599   61.6974 C   0  0  0  0  0  0  0  0  0  0  0  0
   69.4913   42.2646   61.0858 C   0  0  0  0  0  0  0  0  0  0  0  0
   69.5643   42.6286   59.6611 C   0  0  1  0  0  0  0  0  0  0  0  0
   68.4983   42.0739   58.7704 C   0  0  0  0  0  0  0  0  0  0  0  0
   67.3968   41.3544   59.5256 C   0  0  0  0  0  0  0  0  0  0  0  0
   68.8423   48.5482   56.2935 C   0  0  0  0  0  0  0  0  0  0  0  0
   69.2357   48.5791   54.8753 C   0  0  0  0  0  0  0  0  0  0  0  0
   70.0941   49.5402   54.4207 N   0  0  0  0  0  0  0  0  0  0  0  0
   70.5010   49.5720   53.1704 N   0  0  0  0  0  0  0  0  0  0  0  0
   70.1323   48.6995   52.2413 C   0  0  0  0  0  0  0  0  0  0  0  0
   70.5399   48.7574   51.0542 O   0  0  0  0  0  0  0  0  0  0  0  0
   69.2621   47.6910   52.6123 C   0  0  0  0  0  0  0  0  0  0  0  0
   68.8412   46.7695   51.6787 C   0  0  0  0  0  0  0  0  0  0  0  0
   67.9603   45.7698   52.0448 C   0  0  0  0  0  0  0  0  0  0  0  0
   67.5193   45.7122   53.3331 C   0  0  0  0  0  0  0  0  0  0  0  0
   67.9510   46.6422   54.2564 C   0  0  0  0  0  0  0  0  0  0  0  0
   68.8294   47.6560   53.9394 C   0  0  0  0  0  0  0  0  0  0  0  0
 12 11  1  1
 12 13  1  0
 12 17  1  0
 13 14  1  0
 14 15  1  0
 15  8  1  1
 15 16  1  0
  8  9  1  0
  9 10  2  0
  9  1  1  0
  1  2  2  0
  1  6  1  0
  2  3  1  0
  3 18  1  0
  3  4  2  0
 18 19  1  0
 19 20  2  0
 19 29  1  0
 20 21  1  0
 21 22  1  0
 22 23  2  0
 22 24  1  0
 24 25  1  0
 24 29  2  0
 25 26  2  0
 26 27  1  0
 27 28  2  0
 28 29  1  0
  4  5  1  0
  5  6  2  0
  6  7  1  0
 16 17  1  0
M  END
>  <minimizedAffinity>  (260) 
-9.35966

$$$$
cs_full_output_folder/data/smiles/6458.pdb
     RDKit          3D

 28 31  0  0  0  0  0  0  0  0999 V2000
   75.0106   35.3825   53.6740 C   0  0  0  0  0  0  0  0  0  0  0  0
   73.6486   35.3935   53.8161 C   0  0  0  0  0  0  0  0  0  0  0  0
   73.0294   35.1883   55.0519 C   0  0  0  0  0  0  0  0  0  0  0  0
   73.7781   34.9700   56.1580 C   0  0  0  0  0  0  0  0  0  0  0  0
   75.1779   34.9542   56.0349 C   0  0  0  0  0  0  0  0  0  0  0  0
   75.7770   35.1612   54.7900 C   0  0  0  0  0  0  0  0  0  0  0  0
   75.6053   33.3771   51.9507 O   0  0  0  0  0  0  0  0  0  0  0  0
   75.8976   34.5404   51.5010 C   0  0  0  0  0  0  0  0  0  0  0  0
   75.5877   35.5940   52.3992 N   0  0  0  0  0  0  0  0  0  0  0  0
   76.4865   34.7061   50.1892 C   0  0  0  0  0  0  0  0  0  0  0  0
   76.0320   34.0089   49.0773 C   0  0  0  0  0  0  0  0  0  0  0  0
   76.5852   34.1589   47.8233 C   0  0  0  0  0  0  0  0  0  0  0  0
   77.6368   35.0290   47.6326 C   0  0  0  0  0  0  0  0  0  0  0  0
   78.1673   35.1607   46.3883 F   0  0  0  0  0  0  0  0  0  0  0  0
   78.1122   35.7365   48.7154 C   0  0  0  0  0  0  0  0  0  0  0  0
   77.5355   35.5698   49.9830 C   0  0  0  0  0  0  0  0  0  0  0  0
   73.1913   34.7277   57.5150 C   0  0  0  0  0  0  0  0  0  0  0  0
   72.3144   35.7996   57.9863 C   0  0  0  0  0  0  0  0  0  0  0  0
   72.3763   37.0181   57.3588 N   0  0  0  0  0  0  0  0  0  0  0  0
   71.6586   38.0563   57.7254 N   0  0  0  0  0  0  0  0  0  0  0  0
   70.7980   38.0185   58.7499 C   0  0  0  0  0  0  0  0  0  0  0  0
   70.1216   39.0414   59.0757 O   0  0  0  0  0  0  0  0  0  0  0  0
   70.6690   36.8273   59.4411 C   0  0  0  0  0  0  0  0  0  0  0  0
   69.7871   36.7277   60.5016 C   0  0  0  0  0  0  0  0  0  0  0  0
   69.6382   35.5334   61.1982 C   0  0  0  0  0  0  0  0  0  0  0  0
   70.4131   34.4683   60.7741 C   0  0  0  0  0  0  0  0  0  0  0  0
   71.2869   34.5879   59.7157 C   0  0  0  0  0  0  0  0  0  0  0  0
   71.4345   35.7489   59.0365 C   0  0  0  0  0  0  0  0  0  0  0  0
  7  8  2  0
  8  9  1  0
  8 10  1  0
  9  1  1  0
  1  2  2  0
  1  6  1  0
  2  3  1  0
  3  4  2  0
  4 17  1  0
  4  5  1  0
 17 18  1  0
 18 19  2  0
 18 28  1  0
 19 20  1  0
 20 21  1  0
 21 22  2  0
 21 23  1  0
 23 24  1  0
 23 28  2  0
 24 25  2  0
 25 26  1  0
 26 27  2  0
 27 28  1  0
  5  6  2  0
 10 11  2  0
 10 16  1  0
 11 12  1  0
 12 13  2  0
 13 14  1  0
 13 15  1  0
 15 16  2  0
M  END
>  <minimizedAffinity>  (261) 
-9.35843

$$$$
cs_full_output_folder/data/smiles/5266.pdb
     RDKit          3D

 27 30  0  0  0  0  0  0  0  0999 V2000
   71.7232   47.2437   58.8759 C   0  0  0  0  0  0  0  0  0  0  0  0
   71.5824   45.8890   58.7326 C   0  0  0  0  0  0  0  0  0  0  0  0
   70.6600   45.3120   57.8850 C   0  0  0  0  0  0  0  0  0  0  0  0
   69.8497   46.1499   57.1565 C   0  0  0  0  0  0  0  0  0  0  0  0
   69.9480   47.5423   57.2612 C   0  0  0  0  0  0  0  0  0  0  0  0
   70.8959   48.0511   58.1305 C   0  0  0  0  0  0  0  0  0  0  0  0
   72.3015   48.0288   60.9733 O   0  0  0  0  0  0  0  0  0  0  0  0
   72.6838   47.8517   59.7629 C   0  0  0  0  0  0  0  0  0  0  0  0
   73.9765   48.2543   59.4190 N   0  0  0  0  0  0  0  0  0  0  0  0
   74.8157   48.8462   60.4349 C   0  0  0  0  0  0  0  0  0  0  0  0
   74.5655   50.3130   60.4162 C   0  0  0  0  0  0  0  0  0  0  0  0
   74.2775   50.9260   59.1333 C   0  0  0  0  0  0  0  0  0  0  0  0
   74.4715   50.5030   57.9639 N   0  0  0  0  0  0  0  0  0  0  0  0
   75.0274   49.3078   57.4895 C   0  0  0  0  0  0  0  0  0  0  0  0
   74.3828   48.0615   58.0572 C   0  0  0  0  0  0  0  0  0  0  0  0
   69.0520   48.3453   56.4110 C   0  0  0  0  0  0  0  0  0  0  0  0
   69.4235   48.3878   54.9806 C   0  0  0  0  0  0  0  0  0  0  0  0
   70.3761   49.2834   54.5618 N   0  0  0  0  0  0  0  0  0  0  0  0
   70.7813   49.3666   53.3133 N   0  0  0  0  0  0  0  0  0  0  0  0
   70.2853   48.5712   52.3456 C   0  0  0  0  0  0  0  0  0  0  0  0
   70.7131   48.6932   51.1545 O   0  0  0  0  0  0  0  0  0  0  0  0
   69.3228   47.6426   52.6767 C   0  0  0  0  0  0  0  0  0  0  0  0
   68.7982   46.8250   51.6998 C   0  0  0  0  0  0  0  0  0  0  0  0
   67.8316   45.9044   52.0317 C   0  0  0  0  0  0  0  0  0  0  0  0
   67.4181   45.8372   53.3574 C   0  0  0  0  0  0  0  0  0  0  0  0
   67.9371   46.6484   54.3348 C   0  0  0  0  0  0  0  0  0  0  0  0
   68.9041   47.5692   54.0139 C   0  0  0  0  0  0  0  0  0  0  0  0
  7  8  2  0
  8  1  1  0
  8  9  1  0
  1  2  2  0
  1  6  1  0
  2  3  1  0
  3  4  2  0
  4  5  1  0
  5 16  1  0
  5  6  2  0
 16 17  1  0
 17 18  2  0
 17 27  1  0
 18 19  1  0
 19 20  1  0
 20 21  2  0
 20 22  1  0
 22 23  1  0
 22 27  2  0
 23 24  2  0
 24 25  1  0
 25 26  2  0
 26 27  1  0
  9 10  1  0
  9 15  1  0
 10 11  1  0
 11 12  1  0
 12 13  2  0
 13 14  1  0
 14 15  1  0
M  END
>  <minimizedAffinity>  (262) 
-9.35765

$$$$
cs_full_output_folder/data/smiles/8774.pdb
     RDKit          3D

 28 31  0  0  0  0  0  0  0  0999 V2000
   71.3225   46.8366   58.8761 C   0  0  0  0  0  0  0  0  0  0  0  0
   70.4377   47.5534   58.0847 C   0  0  0  0  0  0  0  0  0  0  0  0
   69.6410   46.9726   57.1415 C   0  0  0  0  0  0  0  0  0  0  0  0
   69.7239   45.6001   56.9722 C   0  0  0  0  0  0  0  0  0  0  0  0
   70.5910   44.8659   57.7428 C   0  0  0  0  0  0  0  0  0  0  0  0
   71.3969   45.4736   58.6989 C   0  0  0  0  0  0  0  0  0  0  0  0
   72.2576   44.7318   59.4597 F   0  0  0  0  0  0  0  0  0  0  0  0
   77.1647   49.7226   59.1010 C   0  0  0  0  0  0  0  0  0  0  0  0
   75.6745   49.7399   58.8276 C   0  0  0  0  0  0  0  0  0  0  0  0
   75.2148   48.4585   58.1615 C   0  0  0  0  0  0  0  0  0  0  0  0
   73.6810   48.5233   58.1506 C   0  0  0  0  0  0  0  0  0  0  0  0
   73.2745   48.3045   59.5163 N   0  0  0  0  0  0  0  0  0  0  0  0
   72.1617   47.5100   59.8808 C   0  0  0  0  0  0  0  0  0  0  0  0
   71.8377   47.3394   61.0680 O   0  0  0  0  0  0  0  0  0  0  0  0
   74.0474   48.9322   60.5618 C   0  0  0  0  0  0  0  0  0  0  0  0
   74.8764   50.0822   60.0414 C   0  0  0  0  0  0  0  0  0  0  0  0
   68.7118   47.7865   56.3013 C   0  0  0  0  0  0  0  0  0  0  0  0
   69.1395   47.9995   54.9342 C   0  0  0  0  0  0  0  0  0  0  0  0
   70.0213   49.0036   54.6797 N   0  0  0  0  0  0  0  0  0  0  0  0
   70.4411   49.3019   53.4734 N   0  0  0  0  0  0  0  0  0  0  0  0
   70.0308   48.6317   52.3756 C   0  0  0  0  0  0  0  0  0  0  0  0
   70.4596   48.9488   51.2161 O   0  0  0  0  0  0  0  0  0  0  0  0
   69.1378   47.6024   52.5626 C   0  0  0  0  0  0  0  0  0  0  0  0
   68.7090   46.8937   51.4665 C   0  0  0  0  0  0  0  0  0  0  0  0
   67.8153   45.8432   51.6584 C   0  0  0  0  0  0  0  0  0  0  0  0
   67.3581   45.5037   52.9135 C   0  0  0  0  0  0  0  0  0  0  0  0
   67.8117   46.2402   53.9825 C   0  0  0  0  0  0  0  0  0  0  0  0
   68.6958   47.2906   53.8510 C   0  0  0  0  0  0  0  0  0  0  0  0
  8  9  1  0
  9 10  1  0
  9 16  1  0
 10 11  1  0
 11 12  1  0
 12 13  1  0
 12 15  1  0
 13 14  2  0
 13  1  1  0
  1  2  2  0
  1  6  1  0
  2  3  1  0
  3 17  1  0
  3  4  2  0
 17 18  1  0
 18 19  2  0
 18 28  1  0
 19 20  1  0
 20 21  1  0
 21 22  2  0
 21 23  1  0
 23 24  1  0
 23 28  2  0
 24 25  2  0
 25 26  1  0
 26 27  2  0
 27 28  1  0
  4  5  1  0
  5  6  2  0
  6  7  1  0
 15 16  1  0
M  END
>  <minimizedAffinity>  (263) 
-9.35688

$$$$
cs_full_output_folder/data/smiles/8267.pdb
     RDKit          3D

 27 30  0  0  0  0  0  0  0  0999 V2000
   71.4821   47.1620   58.9085 C   0  0  0  0  0  0  0  0  0  0  0  0
   71.4535   45.7652   58.7925 C   0  0  0  0  0  0  0  0  0  0  0  0
   70.6020   45.1846   57.8788 C   0  0  0  0  0  0  0  0  0  0  0  0
   69.7690   45.9645   57.0692 C   0  0  0  0  0  0  0  0  0  0  0  0
   69.7715   47.3253   57.1573 C   0  0  0  0  0  0  0  0  0  0  0  0
   70.6542   47.8944   58.1027 C   0  0  0  0  0  0  0  0  0  0  0  0
   72.0956   47.7470   61.0735 O   0  0  0  0  0  0  0  0  0  0  0  0
   72.4119   47.7339   59.8482 C   0  0  0  0  0  0  0  0  0  0  0  0
   73.6426   48.2702   59.4502 N   0  0  0  0  0  0  0  0  0  0  0  0
   73.9629   48.2308   58.0498 C   0  0  0  0  0  0  0  0  0  0  0  0
   74.4463   49.5469   57.5157 C   0  0  0  0  0  0  0  0  0  0  0  0
   73.7341   50.7490   58.0328 C   0  0  0  0  0  0  0  0  0  0  0  0
   73.6433   50.8243   59.4699 N   0  0  0  0  0  0  0  0  0  0  0  0
   74.7928   50.2541   60.1338 C   0  0  0  0  0  0  0  0  0  0  0  0
   74.4687   48.8196   60.5157 C   0  0  0  0  0  0  0  0  0  0  0  0
   68.9603   48.2468   56.3271 C   0  0  0  0  0  0  0  0  0  0  0  0
   69.4132   48.2926   54.9219 C   0  0  0  0  0  0  0  0  0  0  0  0
   70.3760   49.1827   54.5314 N   0  0  0  0  0  0  0  0  0  0  0  0
   70.7546   49.2933   53.2835 N   0  0  0  0  0  0  0  0  0  0  0  0
   70.2325   48.5458   52.2866 C   0  0  0  0  0  0  0  0  0  0  0  0
   70.6713   48.7379   51.1247 O   0  0  0  0  0  0  0  0  0  0  0  0
   69.2624   47.6239   52.5832 C   0  0  0  0  0  0  0  0  0  0  0  0
   68.7382   46.8287   51.5948 C   0  0  0  0  0  0  0  0  0  0  0  0
   67.7882   45.8719   51.8785 C   0  0  0  0  0  0  0  0  0  0  0  0
   67.3850   45.7470   53.1977 C   0  0  0  0  0  0  0  0  0  0  0  0
   67.9191   46.5551   54.1806 C   0  0  0  0  0  0  0  0  0  0  0  0
   68.8695   47.5171   53.9070 C   0  0  0  0  0  0  0  0  0  0  0  0
  7  8  2  0
  8  1  1  0
  8  9  1  0
  1  2  2  0
  1  6  1  0
  2  3  1  0
  3  4  2  0
  4  5  1  0
  5 16  1  0
  5  6  2  0
 16 17  1  0
 17 18  2  0
 17 27  1  0
 18 19  1  0
 19 20  1  0
 20 21  2  0
 20 22  1  0
 22 23  1  0
 22 27  2  0
 23 24  2  0
 24 25  1  0
 25 26  2  0
 26 27  1  0
  9 10  1  0
  9 15  1  0
 10 11  1  0
 11 12  1  0
 12 13  1  0
 13 14  1  0
 14 15  1  0
M  CHG  1  13   1
M  END
>  <minimizedAffinity>  (264) 
-9.35557

$$$$
cs_full_output_folder/data/smiles/980.pdb
     RDKit          3D

 29 32  0  0  0  0  0  0  0  0999 V2000
   68.8107   45.9537   55.4266 C   0  0  0  0  0  0  0  0  0  0  0  0
   69.2604   46.9606   56.2516 C   0  0  0  0  0  0  0  0  0  0  0  0
   69.4335   48.2632   55.7929 C   0  0  0  0  0  0  0  0  0  0  0  0
   69.1643   48.6020   54.5036 C   0  0  0  0  0  0  0  0  0  0  0  0
   68.7118   47.5994   53.6598 C   0  0  0  0  0  0  0  0  0  0  0  0
   68.5444   46.3149   54.1256 C   0  0  0  0  0  0  0  0  0  0  0  0
   68.1000   45.3877   53.2420 F   0  0  0  0  0  0  0  0  0  0  0  0
   68.2640   40.6982   57.5319 N   0  0  0  0  0  0  0  0  0  0  0  0
   68.3933   42.0058   57.0003 C   0  0  0  0  0  0  0  0  0  0  0  0
   69.3189   42.8909   57.5043 C   0  0  0  0  0  0  0  0  0  0  0  0
   69.4405   44.1604   56.9835 C   0  0  0  0  0  0  0  0  0  0  0  0
   68.6327   44.5967   55.9298 C   0  0  0  0  0  0  0  0  0  0  0  0
   67.7075   43.7062   55.4294 C   0  0  0  0  0  0  0  0  0  0  0  0
   67.5888   42.4328   55.9536 C   0  0  0  0  0  0  0  0  0  0  0  0
   66.6342   41.5344   55.4224 N   0  0  0  0  0  0  0  0  0  0  0  0
   67.0221   40.4726   54.9198 O   0  0  0  0  0  0  0  0  0  0  0  0
   65.2976   41.8195   55.4571 O   0  0  0  0  0  0  0  0  0  0  0  0
   69.2951   49.9602   53.9060 C   0  0  0  0  0  0  0  0  0  0  0  0
   70.5821   50.6032   54.2226 C   0  0  0  0  0  0  0  0  0  0  0  0
   71.7463   50.0352   53.7674 N   0  0  0  0  0  0  0  0  0  0  0  0
   72.9260   50.5716   53.9663 N   0  0  0  0  0  0  0  0  0  0  0  0
   73.1112   51.7189   54.6297 C   0  0  0  0  0  0  0  0  0  0  0  0
   74.2425   52.2429   54.8252 O   0  0  0  0  0  0  0  0  0  0  0  0
   71.9844   52.3533   55.1213 C   0  0  0  0  0  0  0  0  0  0  0  0
   72.1334   53.5400   55.8268 C   0  0  0  0  0  0  0  0  0  0  0  0
   71.0057   54.1442   56.3177 C   0  0  0  0  0  0  0  0  0  0  0  0
   69.7629   53.5877   56.1160 C   0  0  0  0  0  0  0  0  0  0  0  0
   69.6082   52.4080   55.4151 C   0  0  0  0  0  0  0  0  0  0  0  0
   70.7229   51.7811   54.9105 C   0  0  0  0  0  0  0  0  0  0  0  0
  8  9  1  0
  9 10  2  0
  9 14  1  0
 10 11  1  0
 11 12  2  0
 12  1  1  0
 12 13  1  0
  1  2  2  0
  1  6  1  0
  2  3  1  0
  3  4  2  0
  4 18  1  0
  4  5  1  0
 18 19  1  0
 19 20  2  0
 19 29  1  0
 20 21  1  0
 21 22  1  0
 22 23  2  0
 22 24  1  0
 24 25  1  0
 24 29  2  0
 25 26  2  0
 26 27  1  0
 27 28  2  0
 28 29  1  0
  5  6  2  0
  6  7  1  0
 13 14  2  0
 14 15  1  0
 15 16  2  0
 15 17  1  0
M  CHG  2  15   1  17  -1
M  END
>  <minimizedAffinity>  (265) 
-9.35511

$$$$
cs_full_output_folder/data/smiles/887.pdb
     RDKit          3D

 26 28  0  0  0  0  0  0  0  0999 V2000
   71.0713   41.9859   58.5377 C   0  0  0  0  0  0  0  0  0  0  0  0
   69.8121   41.6814   57.8185 C   0  0  0  0  0  0  0  0  0  0  0  0
   69.0712   42.5954   57.1131 C   0  0  0  0  0  0  0  0  0  0  0  0
   67.9974   41.8893   56.6126 C   0  0  0  0  0  0  0  0  0  0  0  0
   68.1128   40.6038   57.0150 N   0  0  0  0  0  0  0  0  0  0  0  0
   69.2282   40.4724   57.7578 N   0  0  0  0  0  0  0  0  0  0  0  0
   69.6924   39.2796   58.3693 C   0  0  0  0  0  0  0  0  0  0  0  0
   68.8869   38.6663   59.3267 C   0  0  0  0  0  0  0  0  0  0  0  0
   69.2882   37.5093   59.9531 C   0  0  0  0  0  0  0  0  0  0  0  0
   70.4911   36.8961   59.6747 C   0  0  0  0  0  0  0  0  0  0  0  0
   70.8708   35.7521   60.3033 F   0  0  0  0  0  0  0  0  0  0  0  0
   71.2994   37.5001   58.7213 C   0  0  0  0  0  0  0  0  0  0  0  0
   70.8933   38.6705   58.0881 C   0  0  0  0  0  0  0  0  0  0  0  0
   69.3299   44.0273   56.9148 C   0  0  0  0  0  0  0  0  0  0  0  0
   70.3171   44.5754   57.4399 O   0  0  0  0  0  0  0  0  0  0  0  0
   68.4500   44.7837   56.1220 N   0  0  0  0  0  0  0  0  0  0  0  0
   68.6160   46.1877   55.8852 C   0  0  0  0  0  0  0  0  0  0  0  0
   68.5715   46.4335   54.4239 C   0  0  0  0  0  0  0  0  0  0  0  0
   67.8364   45.6095   53.6161 C   0  0  0  0  0  0  0  0  0  0  0  0
   67.7993   45.8095   52.2254 C   0  0  0  0  0  0  0  0  0  0  0  0
   68.5136   46.8531   51.6736 C   0  0  0  0  0  0  0  0  0  0  0  0
   69.2580   47.6935   52.4728 C   0  0  0  0  0  0  0  0  0  0  0  0
   69.2754   47.4716   53.8329 C   0  0  0  0  0  0  0  0  0  0  0  0
   69.9906   48.7694   51.8334 C   0  0  0  0  0  0  0  0  0  0  0  0
   69.8913   50.0830   52.4007 N   0  0  0  0  0  0  0  0  0  0  0  0
   70.6866   48.5806   50.8266 O   0  0  0  0  0  0  0  0  0  0  0  0
  1  2  1  0
  2  3  2  0
  2  6  1  0
  3 14  1  0
  3  4  1  0
 14 15  2  0
 14 16  1  0
 16 17  1  0
 17 18  1  0
 18 19  2  0
 18 23  1  0
 19 20  1  0
 20 21  2  0
 21 22  1  0
 22 24  1  0
 22 23  2  0
 24 25  1  0
 24 26  2  0
  4  5  2  0
  5  6  1  0
  6  7  1  0
  7  8  2  0
  7 13  1  0
  8  9  1  0
  9 10  2  0
 10 11  1  0
 10 12  1  0
 12 13  2  0
M  END
>  <minimizedAffinity>  (266) 
-9.35427

$$$$
cs_full_output_folder/data/smiles/5517.pdb
     RDKit          3D

 29 32  0  0  0  0  0  0  0  0999 V2000
   71.5010   47.0006   58.8316 C   0  0  0  0  0  0  0  0  0  0  0  0
   71.4237   45.6320   58.6947 C   0  0  0  0  0  0  0  0  0  0  0  0
   70.5286   45.0534   57.7924 C   0  0  0  0  0  0  0  0  0  0  0  0
   69.7357   45.8914   57.0516 C   0  0  0  0  0  0  0  0  0  0  0  0
   69.7862   47.2915   57.1638 C   0  0  0  0  0  0  0  0  0  0  0  0
   70.6817   47.8082   58.0649 C   0  0  0  0  0  0  0  0  0  0  0  0
   77.6711   50.1976   56.9208 C   0  0  0  0  0  0  0  0  0  0  0  0
   77.4479   49.5743   58.2429 C   0  0  0  0  0  0  0  0  0  0  0  0
   78.3932   49.7004   59.0800 O   0  0  0  0  0  0  0  0  0  0  0  0
   76.2611   48.8722   58.5839 N   0  0  0  0  0  0  0  0  0  0  0  0
   76.1532   48.3013   59.9214 C   0  0  0  0  0  0  0  0  0  0  0  0
   74.6900   48.4616   60.3452 C   0  0  0  0  0  0  0  0  0  0  0  0
   73.8025   47.8615   59.3804 N   0  0  0  0  0  0  0  0  0  0  0  0
   72.4553   47.6101   59.7736 C   0  0  0  0  0  0  0  0  0  0  0  0
   72.0196   47.8874   60.9151 O   0  0  0  0  0  0  0  0  0  0  0  0
   74.3099   47.5433   58.0671 C   0  0  0  0  0  0  0  0  0  0  0  0
   75.1841   48.7245   57.6287 C   0  0  0  0  0  0  0  0  0  0  0  0
   68.9546   48.1398   56.3220 C   0  0  0  0  0  0  0  0  0  0  0  0
   69.3518   48.2980   54.9283 C   0  0  0  0  0  0  0  0  0  0  0  0
   70.2677   49.2539   54.5519 N   0  0  0  0  0  0  0  0  0  0  0  0
   70.6663   49.4110   53.3097 N   0  0  0  0  0  0  0  0  0  0  0  0
   70.2248   48.6610   52.2932 C   0  0  0  0  0  0  0  0  0  0  0  0
   70.5928   48.7942   51.1001 O   0  0  0  0  0  0  0  0  0  0  0  0
   69.3037   47.6831   52.5998 C   0  0  0  0  0  0  0  0  0  0  0  0
   68.8130   46.8909   51.5857 C   0  0  0  0  0  0  0  0  0  0  0  0
   67.8861   45.9234   51.9004 C   0  0  0  0  0  0  0  0  0  0  0  0
   67.4306   45.7159   53.1833 C   0  0  0  0  0  0  0  0  0  0  0  0
   67.9353   46.5180   54.1805 C   0  0  0  0  0  0  0  0  0  0  0  0
   68.8654   47.5032   53.9305 C   0  0  0  0  0  0  0  0  0  0  0  0
  7  8  1  0
  8  9  2  0
  8 10  1  0
 10 11  1  0
 10 17  1  0
 11 12  1  0
 12 13  1  0
 13 14  1  0
 13 16  1  0
 14 15  2  0
 14  1  1  0
  1  2  2  0
  1  6  1  0
  2  3  1  0
  3  4  2  0
  4  5  1  0
  5 18  1  0
  5  6  2  0
 18 19  1  0
 19 20  2  0
 19 29  1  0
 20 21  1  0
 21 22  1  0
 22 23  2  0
 22 24  1  0
 24 25  1  0
 24 29  2  0
 25 26  2  0
 26 27  1  0
 27 28  2  0
 28 29  1  0
 16 17  1  0
M  END
>  <minimizedAffinity>  (267) 
-9.35083

$$$$
cs_full_output_folder/data/smiles/337.pdb
     RDKit          3D

 27 30  0  0  0  0  0  0  0  0999 V2000
   73.7617   50.1257   56.6538 C   0  0  0  0  0  0  0  0  0  0  0  0
   73.0393   49.2425   57.4170 C   0  0  0  0  0  0  0  0  0  0  0  0
   71.6488   49.1582   57.2540 C   0  0  0  0  0  0  0  0  0  0  0  0
   70.9860   49.9341   56.3528 C   0  0  0  0  0  0  0  0  0  0  0  0
   71.7678   50.8137   55.6031 C   0  0  0  0  0  0  0  0  0  0  0  0
   73.0984   50.8858   55.7681 N   0  0  0  0  0  0  0  0  0  0  0  0
   75.5440   49.4084   54.6640 O   0  0  0  0  0  0  0  0  0  0  0  0
   76.0601   49.8730   55.7366 C   0  0  0  0  0  0  0  0  0  0  0  0
   75.1859   50.2513   56.7785 N   0  0  0  0  0  0  0  0  0  0  0  0
   77.5031   49.9729   55.7896 C   0  0  0  0  0  0  0  0  0  0  0  0
   78.3447   49.0312   55.2618 C   0  0  0  0  0  0  0  0  0  0  0  0
   79.7083   49.1680   55.3344 C   0  0  0  0  0  0  0  0  0  0  0  0
   80.2524   50.2440   55.9332 N   0  0  0  0  0  0  0  0  0  0  0  0
   79.4735   51.1908   56.4643 C   0  0  0  0  0  0  0  0  0  0  0  0
   78.0853   51.0606   56.3952 C   0  0  0  0  0  0  0  0  0  0  0  0
   69.5285   49.9063   56.1110 C   0  0  0  0  0  0  0  0  0  0  0  0
   69.1417   48.5429   55.7251 C   0  0  0  0  0  0  0  0  0  0  0  0
   68.9305   47.6114   56.7016 N   0  0  0  0  0  0  0  0  0  0  0  0
   68.5368   46.3826   56.4274 N   0  0  0  0  0  0  0  0  0  0  0  0
   68.3226   45.9847   55.1626 C   0  0  0  0  0  0  0  0  0  0  0  0
   67.9462   44.8208   54.8658 O   0  0  0  0  0  0  0  0  0  0  0  0
   68.5130   46.8584   54.1287 C   0  0  0  0  0  0  0  0  0  0  0  0
   68.9326   48.1594   54.4459 C   0  0  0  0  0  0  0  0  0  0  0  0
   69.1731   49.0723   53.3079 C   0  0  0  0  0  0  0  0  0  0  0  0
   70.0373   48.3091   52.2990 C   0  0  0  0  0  0  0  0  0  0  0  0
   69.4966   46.9810   51.9242 C   0  0  0  0  0  0  0  0  0  0  0  0
   68.3004   46.5552   52.7009 C   0  0  0  0  0  0  0  0  0  0  0  0
  7  8  2  0
  8  9  1  0
  8 10  1  0
  9  1  1  0
  1  2  2  0
  1  6  1  0
  2  3  1  0
  3  4  2  0
  4 16  1  0
  4  5  1  0
 16 17  1  0
 17 18  2  0
 17 23  1  0
 18 19  1  0
 19 20  1  0
 20 21  2  0
 20 22  1  0
 22 23  2  0
 22 27  1  0
 23 24  1  0
 24 25  1  0
 25 26  1  0
 26 27  1  0
  5  6  2  0
 10 11  2  0
 10 15  1  0
 11 12  1  0
 12 13  2  0
 13 14  1  0
 14 15  2  0
M  END
>  <minimizedAffinity>  (268) 
-9.34780

$$$$
cs_full_output_folder/data/smiles/3228.pdb
     RDKit          3D

 28 29  0  0  0  0  0  0  0  0999 V2000
   70.2847   43.4984   57.6927 C   0  0  0  0  0  0  0  0  0  0  0  0
   71.1250   44.5369   58.7439 S   0  0  0  0  0  0  0  0  0  0  0  0
   70.1709   41.1215   58.5818 C   0  0  0  0  0  0  0  0  0  0  0  0
   69.1343   41.3747   59.2336 O   0  0  0  0  0  0  0  0  0  0  0  0
   70.7224   42.1646   57.8268 N   0  0  0  0  0  0  0  0  0  0  0  0
   71.9476   37.1844   58.7520 C   0  0  0  0  0  0  0  0  0  0  0  0
   72.7185   38.3572   58.7076 C   0  0  0  0  0  0  0  0  0  0  0  0
   72.1094   39.5913   58.6616 C   0  0  0  0  0  0  0  0  0  0  0  0
   70.7321   39.7686   58.6523 C   0  0  0  0  0  0  0  0  0  0  0  0
   69.9980   38.6170   58.6947 C   0  0  0  0  0  0  0  0  0  0  0  0
   70.5837   37.3666   58.7422 C   0  0  0  0  0  0  0  0  0  0  0  0
   73.9911   35.9126   59.4400 C   0  0  0  0  0  0  0  0  0  0  0  0
   72.6418   35.8976   58.8167 C   0  0  0  0  0  0  0  0  0  0  0  0
   71.8013   34.8496   59.5489 C   0  0  0  0  0  0  0  0  0  0  0  0
   72.7735   35.3888   57.3658 C   0  0  0  0  0  0  0  0  0  0  0  0
   69.2636   44.0658   56.8811 C   0  0  0  0  0  0  0  0  0  0  0  0
   69.0146   45.1457   56.4772 N   0  0  0  0  0  0  0  0  0  0  0  0
   68.4826   46.2113   55.8857 C   0  0  0  0  0  0  0  0  0  0  0  0
   67.8448   47.1152   56.5354 O   0  0  0  0  0  0  0  0  0  0  0  0
   68.5721   46.4566   54.4280 C   0  0  0  0  0  0  0  0  0  0  0  0
   67.7886   45.7268   53.5601 C   0  0  0  0  0  0  0  0  0  0  0  0
   67.8467   45.9893   52.1960 C   0  0  0  0  0  0  0  0  0  0  0  0
   68.6920   46.9829   51.7010 C   0  0  0  0  0  0  0  0  0  0  0  0
   69.4827   47.7206   52.5548 C   0  0  0  0  0  0  0  0  0  0  0  0
   69.3896   47.4235   53.8964 C   0  0  0  0  0  0  0  0  0  0  0  0
   70.3307   48.7389   52.0823 N   0  0  0  0  0  0  0  0  0  0  0  0
   70.0998   49.2693   50.9930 O   0  0  0  0  0  0  0  0  0  0  0  0
   71.4025   49.1273   52.8205 O   0  0  0  0  0  0  0  0  0  0  0  0
 12 13  1  0
 13 14  1  0
 13 15  1  0
 13  6  1  0
  6  7  2  0
  6 11  1  0
  7  8  1  0
  8  9  2  0
  9  3  1  0
  9 10  1  0
  3  4  2  0
  3  5  1  0
  5  1  1  0
  1  2  2  0
  1 16  1  0
 16 17  2  0
 17 18  1  0
 18 19  2  0
 18 20  1  0
 20 21  2  0
 20 25  1  0
 21 22  1  0
 22 23  2  0
 23 24  1  0
 24 26  1  0
 24 25  2  0
 26 27  2  0
 26 28  1  0
 10 11  2  0
M  CHG  2  26   1  28  -1
M  END
>  <minimizedAffinity>  (269) 
-9.34744

$$$$
cs_full_output_folder/data/smiles/8219.pdb
     RDKit          3D

 28 31  0  0  0  0  0  0  0  0999 V2000
   68.5814   46.3024   54.4467 C   0  0  0  0  0  0  0  0  0  0  0  0
   69.1820   47.4737   53.9587 C   0  0  0  0  0  0  0  0  0  0  0  0
   69.1489   47.8552   52.6473 C   0  0  0  0  0  0  0  0  0  0  0  0
   68.4601   46.9811   51.7874 C   0  0  0  0  0  0  0  0  0  0  0  0
   67.8594   45.8247   52.2250 C   0  0  0  0  0  0  0  0  0  0  0  0
   67.9298   45.4998   53.5627 C   0  0  0  0  0  0  0  0  0  0  0  0
   67.3423   44.3607   54.0429 F   0  0  0  0  0  0  0  0  0  0  0  0
   68.3101   44.9452   56.3179 O   0  0  0  0  0  0  0  0  0  0  0  0
   68.6657   46.0451   55.8721 C   0  0  0  0  0  0  0  0  0  0  0  0
   69.1664   47.0854   56.7462 C   0  0  0  0  0  0  0  0  0  0  0  0
   68.5682   48.3481   56.7856 C   0  0  0  0  0  0  0  0  0  0  0  0
   69.0542   49.3224   57.6441 C   0  0  0  0  0  0  0  0  0  0  0  0
   70.1381   49.0727   58.4805 C   0  0  0  0  0  0  0  0  0  0  0  0
   70.6865   47.8521   58.4141 N   0  0  0  0  0  0  0  0  0  0  0  0
   70.2437   46.8920   57.6007 C   0  0  0  0  0  0  0  0  0  0  0  0
   70.8472   45.6574   57.5833 F   0  0  0  0  0  0  0  0  0  0  0  0
   69.7757   49.0902   52.1071 C   0  0  0  0  0  0  0  0  0  0  0  0
   70.5974   49.8313   53.0693 C   0  0  0  0  0  0  0  0  0  0  0  0
   71.9263   49.6130   53.1379 N   0  0  0  0  0  0  0  0  0  0  0  0
   72.7305   50.2987   53.9334 N   0  0  0  0  0  0  0  0  0  0  0  0
   72.2853   51.2713   54.7406 C   0  0  0  0  0  0  0  0  0  0  0  0
   73.0509   51.9314   55.5023 O   0  0  0  0  0  0  0  0  0  0  0  0
   70.9169   51.5368   54.7123 C   0  0  0  0  0  0  0  0  0  0  0  0
   70.4122   52.5024   55.5365 C   0  0  0  0  0  0  0  0  0  0  0  0
   69.0588   52.7782   55.5575 C   0  0  0  0  0  0  0  0  0  0  0  0
   68.2403   52.0382   54.7115 C   0  0  0  0  0  0  0  0  0  0  0  0
   68.7378   51.0726   53.8832 C   0  0  0  0  0  0  0  0  0  0  0  0
   70.0810   50.8145   53.8762 C   0  0  0  0  0  0  0  0  0  0  0  0
  8  9  2  0
  9  1  1  0
  9 10  1  0
  1  2  2  0
  1  6  1  0
  2  3  1  0
  3 17  1  0
  3  4  2  0
 17 18  1  0
 18 19  2  0
 18 28  1  0
 19 20  1  0
 20 21  1  0
 21 22  2  0
 21 23  1  0
 23 24  1  0
 23 28  2  0
 24 25  2  0
 25 26  1  0
 26 27  2  0
 27 28  1  0
  4  5  1  0
  5  6  2  0
  6  7  1  0
 10 11  2  0
 10 15  1  0
 11 12  1  0
 12 13  2  0
 13 14  1  0
 14 15  2  0
 15 16  1  0
M  END
>  <minimizedAffinity>  (270) 
-9.34709

$$$$
cs_full_output_folder/data/smiles/630.pdb
     RDKit          3D

 27 30  0  0  0  0  0  0  0  0999 V2000
   70.7869   46.0017   58.3596 C   0  0  0  0  0  0  0  0  0  0  0  0
   69.8594   46.6417   57.5433 C   0  0  0  0  0  0  0  0  0  0  0  0
   70.0398   47.9537   57.2189 C   0  0  0  0  0  0  0  0  0  0  0  0
   71.1275   48.6588   57.6887 C   0  0  0  0  0  0  0  0  0  0  0  0
   72.0508   48.0454   58.4931 C   0  0  0  0  0  0  0  0  0  0  0  0
   71.8587   46.6964   58.8200 C   0  0  0  0  0  0  0  0  0  0  0  0
   72.8209   46.1571   59.6249 F   0  0  0  0  0  0  0  0  0  0  0  0
   74.9266   42.8741   58.2492 C   0  0  0  0  0  0  0  0  0  0  0  0
   73.5624   42.5820   57.6833 C   0  0  1  0  0  0  0  0  0  0  0  0
   72.8487   41.6570   58.6466 C   0  0  0  0  0  0  0  0  0  0  0  0
   71.4383   42.2025   58.7205 C   0  0  0  0  0  0  0  0  0  0  0  0
   71.5384   43.5989   58.3713 N   0  0  0  0  0  0  0  0  0  0  0  0
   70.6231   44.5992   58.7430 C   0  0  0  0  0  0  0  0  0  0  0  0
   69.6181   44.2363   59.4451 O   0  0  0  0  0  0  0  0  0  0  0  0
   72.7258   43.8357   57.5775 C   0  0  0  0  0  0  0  0  0  0  0  0
   69.1077   48.6736   56.3398 C   0  0  0  0  0  0  0  0  0  0  0  0
   69.5071   48.5533   54.9449 C   0  0  0  0  0  0  0  0  0  0  0  0
   70.4690   49.4182   54.4880 N   0  0  0  0  0  0  0  0  0  0  0  0
   70.8424   49.4120   53.2354 N   0  0  0  0  0  0  0  0  0  0  0  0
   70.3291   48.5797   52.3275 C   0  0  0  0  0  0  0  0  0  0  0  0
   70.7100   48.5919   51.1077 O   0  0  0  0  0  0  0  0  0  0  0  0
   69.3529   47.6649   52.6904 C   0  0  0  0  0  0  0  0  0  0  0  0
   68.8287   46.7752   51.7751 C   0  0  0  0  0  0  0  0  0  0  0  0
   67.8854   45.8670   52.1957 C   0  0  0  0  0  0  0  0  0  0  0  0
   67.4903   45.8740   53.5299 C   0  0  0  0  0  0  0  0  0  0  0  0
   68.0144   46.7623   54.4296 C   0  0  0  0  0  0  0  0  0  0  0  0
   68.9595   47.6830   54.0375 C   0  0  0  0  0  0  0  0  0  0  0  0
  9  8  1  1
  9 10  1  0
  9 15  1  0
 10 11  1  0
 11 12  1  0
 12 13  1  0
 12 15  1  0
 13 14  2  0
 13  1  1  0
  1  2  2  0
  1  6  1  0
  2  3  1  0
  3 16  1  0
  3  4  2  0
 16 17  1  0
 17 18  2  0
 17 27  1  0
 18 19  1  0
 19 20  1  0
 20 21  2  0
 20 22  1  0
 22 23  1  0
 22 27  2  0
 23 24  2  0
 24 25  1  0
 25 26  2  0
 26 27  1  0
  4  5  1  0
  5  6  2  0
  6  7  1  0
M  END
>  <minimizedAffinity>  (271) 
-9.34491

$$$$
cs_full_output_folder/data/smiles/367.pdb
     RDKit          3D

 24 26  0  0  0  0  0  0  0  0999 V2000
   69.5843   51.1643   54.4760 C   0  0  0  0  0  0  0  0  0  0  0  0
   68.4570   50.8627   55.2171 C   0  0  0  0  0  0  0  0  0  0  0  0
   68.4195   51.2930   56.5456 C   0  0  0  0  0  0  0  0  0  0  0  0
   66.9985   50.9223   57.5126 Cl  0  0  0  0  0  0  0  0  0  0  0  0
   69.4619   51.9946   57.1102 C   0  0  0  0  0  0  0  0  0  0  0  0
   70.5712   52.2716   56.3186 C   0  0  0  0  0  0  0  0  0  0  0  0
   70.6449   51.8644   55.0047 C   0  0  0  0  0  0  0  0  0  0  0  0
   69.6628   50.7843   53.1388 N   0  0  0  0  0  0  0  0  0  0  0  0
   70.0777   49.2861   51.0075 O   0  0  0  0  0  0  0  0  0  0  0  0
   70.1115   49.2609   52.5215 S   0  0  0  0  0  0  0  0  0  0  0  0
   71.5935   49.0343   52.8482 O   0  0  0  0  0  0  0  0  0  0  0  0
   69.2454   47.9084   53.1544 C   0  0  0  0  0  0  0  0  0  0  0  0
   69.1984   47.7065   54.5150 C   0  0  0  0  0  0  0  0  0  0  0  0
   68.5403   46.6653   55.1238 C   0  0  0  0  0  0  0  0  0  0  0  0
   67.8857   45.7679   54.2859 C   0  0  0  0  0  0  0  0  0  0  0  0
   67.9032   45.9265   52.9233 C   0  0  0  0  0  0  0  0  0  0  0  0
   67.2519   45.0286   52.1536 F   0  0  0  0  0  0  0  0  0  0  0  0
   68.5796   46.9897   52.3634 C   0  0  0  0  0  0  0  0  0  0  0  0
   71.8426   52.1758   54.2109 C   0  0  0  0  0  0  0  0  0  0  0  0
   73.0119   51.3801   54.5854 N   0  0  0  0  0  0  0  0  0  0  0  0
   73.5962   51.2258   55.7828 C   0  0  0  0  0  0  0  0  0  0  0  0
   74.6967   50.3781   55.6791 C   0  0  0  0  0  0  0  0  0  0  0  0
   74.7321   50.0445   54.3810 N   0  0  0  0  0  0  0  0  0  0  0  0
   73.7445   50.6332   53.7415 N   0  0  0  0  0  0  0  0  0  0  0  0
  9 10  2  0
 10 11  2  0
 10  8  1  0
 10 12  1  0
  8  1  1  0
  1  2  2  0
  1  7  1  0
  2  3  1  0
  3  4  1  0
  3  5  2  0
  5  6  1  0
  6  7  2  0
  7 19  1  0
 19 20  1  0
 20 21  1  0
 20 24  1  0
 21 22  2  0
 22 23  1  0
 23 24  2  0
 12 13  2  0
 12 18  1  0
 13 14  1  0
 14 15  2  0
 15 16  1  0
 16 17  1  0
 16 18  2  0
M  END
>  <minimizedAffinity>  (272) 
-9.34268

$$$$
cs_full_output_folder/data/smiles/138.pdb
     RDKit          3D

 27 29  0  0  0  0  0  0  0  0999 V2000
   68.4403   45.9959   54.1960 C   0  0  0  0  0  0  0  0  0  0  0  0
   67.8696   45.6374   52.9961 C   0  0  0  0  0  0  0  0  0  0  0  0
   68.0173   46.4088   51.8562 C   0  0  0  0  0  0  0  0  0  0  0  0
   68.7514   47.5601   51.9288 C   0  0  0  0  0  0  0  0  0  0  0  0
   69.3451   47.9673   53.1045 C   0  0  0  0  0  0  0  0  0  0  0  0
   69.1693   47.1653   54.2123 C   0  0  0  0  0  0  0  0  0  0  0  0
   67.8451   43.8498   55.4065 N   0  0  0  0  0  0  0  0  0  0  0  0
   68.2838   45.1816   55.3955 C   0  0  0  0  0  0  0  0  0  0  0  0
   68.5596   45.6930   56.5303 O   0  0  0  0  0  0  0  0  0  0  0  0
   67.5097   41.1064   55.4659 O   0  0  0  0  0  0  0  0  0  0  0  0
   67.5330   41.6846   56.5834 C   0  0  0  0  0  0  0  0  0  0  0  0
   67.7023   43.0851   56.5798 N   0  0  0  0  0  0  0  0  0  0  0  0
   67.3834   40.8706   57.7871 C   0  0  0  0  0  0  0  0  0  0  0  0
   68.0091   39.6411   57.8985 C   0  0  0  0  0  0  0  0  0  0  0  0
   67.8963   38.8409   59.0144 C   0  0  0  0  0  0  0  0  0  0  0  0
   67.1353   39.2437   60.0916 C   0  0  0  0  0  0  0  0  0  0  0  0
   66.5043   40.4660   59.9995 C   0  0  0  0  0  0  0  0  0  0  0  0
   66.6231   41.2721   58.8641 C   0  0  0  0  0  0  0  0  0  0  0  0
   70.2605   49.4282   53.1396 S   0  0  0  0  0  0  0  0  0  0  0  0
   71.7351   49.1931   52.8483 O   0  0  0  0  0  0  0  0  0  0  0  0
   69.7729   50.3260   52.0139 O   0  0  0  0  0  0  0  0  0  0  0  0
   70.1442   50.3018   54.5877 N   0  0  0  0  0  0  0  0  0  0  0  0
   71.1599   51.2551   54.7700 C   0  0  0  0  0  0  0  0  0  0  0  0
   70.8534   52.4628   55.5570 C   0  0  0  0  0  0  0  0  0  0  0  0
   69.4303   52.9026   55.5662 C   0  0  0  0  0  0  0  0  0  0  0  0
   68.5406   52.0629   54.6791 C   0  0  0  0  0  0  0  0  0  0  0  0
   68.8447   50.6198   55.0229 C   0  0  0  0  0  0  0  0  0  0  0  0
 10 11  2  0
 11 12  1  0
 11 13  1  0
 12  7  1  0
  7  8  1  0
  8  9  2  0
  8  1  1  0
  1  2  2  0
  1  6  1  0
  2  3  1  0
  3  4  2  0
  4  5  1  0
  5 19  1  0
  5  6  2  0
 19 20  2  0
 19 21  2  0
 19 22  1  0
 22 23  1  0
 22 27  1  0
 23 24  1  0
 24 25  1  0
 25 26  1  0
 26 27  1  0
 13 14  2  0
 13 18  1  0
 14 15  1  0
 15 16  2  0
 16 17  1  0
 17 18  2  0
M  END
>  <minimizedAffinity>  (273) 
-9.34200

$$$$
cs_full_output_folder/data/smiles/530.pdb
     RDKit          3D

 27 30  0  0  0  0  0  0  0  0999 V2000
   71.6382   47.8245   58.7213 C   0  0  0  0  0  0  0  0  0  0  0  0
   70.6846   48.0445   57.8496 C   0  0  0  0  0  0  0  0  0  0  0  0
   70.2982   49.3202   57.2077 C   0  0  0  0  0  0  0  0  0  0  0  0
   68.7764   49.2465   57.4058 C   0  0  0  0  0  0  0  0  0  0  0  0
   68.4497   47.7716   57.3096 C   0  0  2  0  0  0  0  0  0  0  0  0
   69.7597   47.0418   57.3001 C   0  0  0  0  0  0  0  0  0  0  0  0
   72.5494   48.8764   59.2485 C   0  0  0  0  0  0  0  0  0  0  0  0
   75.5497   49.2189   56.9869 C   0  0  0  0  0  0  0  0  0  0  0  0
   76.5157   48.4757   57.6545 C   0  0  0  0  0  0  0  0  0  0  0  0
   76.1570   47.8748   58.8406 C   0  0  0  0  0  0  0  0  0  0  0  0
   74.8766   48.0219   59.3250 C   0  0  0  0  0  0  0  0  0  0  0  0
   73.9142   48.7590   58.6673 C   0  0  0  0  0  0  0  0  0  0  0  0
   74.2758   49.3592   57.4812 C   0  0  0  0  0  0  0  0  0  0  0  0
   74.6242   50.0994   54.4200 N   0  0  0  0  0  0  0  0  0  0  0  0
   76.0016   49.9836   55.4796 S   0  0  0  0  0  0  0  0  0  0  0  0
   76.5871   51.3432   55.6860 O   0  0  0  0  0  0  0  0  0  0  0  0
   77.0229   49.1501   54.7512 O   0  0  0  0  0  0  0  0  0  0  0  0
   67.6424   47.5160   56.1662 N   0  0  0  0  0  0  0  0  0  0  0  0
   68.2141   47.4024   54.8808 C   0  0  0  0  0  0  0  0  0  0  0  0
   68.0118   46.2428   54.1145 C   0  0  0  0  0  0  0  0  0  0  0  0
   68.5494   46.1054   52.8582 C   0  0  0  0  0  0  0  0  0  0  0  0
   69.3138   47.0940   52.2796 C   0  0  0  0  0  0  0  0  0  0  0  0
   69.9471   47.2066   51.0785 N   0  0  0  0  0  0  0  0  0  0  0  0
   70.5505   48.3957   51.0422 N   0  0  0  0  0  0  0  0  0  0  0  0
   70.3064   49.0491   52.2172 C   0  0  0  0  0  0  0  0  0  0  0  0
   69.5244   48.2396   53.0124 C   0  0  0  0  0  0  0  0  0  0  0  0
   68.9832   48.3723   54.2735 C   0  0  0  0  0  0  0  0  0  0  0  0
 14 15  1  0
 15 16  2  0
 15 17  2  0
 15  8  1  0
  8  9  2  0
  8 13  1  0
  9 10  1  0
 10 11  2  0
 11 12  1  0
 12  7  1  0
 12 13  2  0
  7  1  1  0
  1  2  2  0
  2  3  1  0
  2  6  1  0
  3  4  1  0
  4  5  1  0
  5 18  1  6
  5  6  1  0
 18 19  1  0
 19 20  2  0
 19 27  1  0
 20 21  1  0
 21 22  2  0
 22 23  1  0
 22 26  1  0
 23 24  1  0
 24 25  2  0
 25 26  1  0
 26 27  2  0
M  END
>  <minimizedAffinity>  (274) 
-9.34106

$$$$
cs_full_output_folder/data/smiles/3916.pdb
     RDKit          3D

 29 32  0  0  0  0  0  0  0  0999 V2000
   71.5160   47.2020   58.9605 C   0  0  0  0  0  0  0  0  0  0  0  0
   70.6565   47.9238   58.1716 C   0  0  0  0  0  0  0  0  0  0  0  0
   69.8218   47.3429   57.2090 C   0  0  0  0  0  0  0  0  0  0  0  0
   69.8934   45.9854   57.0769 C   0  0  0  0  0  0  0  0  0  0  0  0
   70.7631   45.2228   57.8682 C   0  0  0  0  0  0  0  0  0  0  0  0
   71.5629   45.8342   58.7993 C   0  0  0  0  0  0  0  0  0  0  0  0
   72.4215   45.1083   59.5855 F   0  0  0  0  0  0  0  0  0  0  0  0
   72.0987   47.6339   61.1581 O   0  0  0  0  0  0  0  0  0  0  0  0
   72.3711   47.8718   59.9610 C   0  0  0  0  0  0  0  0  0  0  0  0
   73.4268   48.7265   59.6042 N   0  0  0  0  0  0  0  0  0  0  0  0
   73.7289   48.9832   58.2283 C   0  0  0  0  0  0  0  0  0  0  0  0
   74.7530   48.0434   57.6828 C   0  0  0  0  0  0  0  0  0  0  0  0
   75.8023   47.6205   58.6789 C   0  0  0  0  0  0  0  0  0  0  0  0
   76.2899   48.7302   59.5527 C   0  0  1  0  0  0  0  0  0  0  0  0
   76.2894   49.9345   58.9177 F   0  0  0  0  0  0  0  0  0  0  0  0
   75.5508   48.8013   60.8674 C   0  0  0  0  0  0  0  0  0  0  0  0
   74.1613   49.3159   60.7341 C   0  0  0  0  0  0  0  0  0  0  0  0
   68.9021   48.2196   56.4130 C   0  0  0  0  0  0  0  0  0  0  0  0
   69.2819   48.3378   54.9983 C   0  0  0  0  0  0  0  0  0  0  0  0
   70.2017   49.2890   54.6249 N   0  0  0  0  0  0  0  0  0  0  0  0
   70.6328   49.4308   53.3924 N   0  0  0  0  0  0  0  0  0  0  0  0
   70.2057   48.6513   52.3920 C   0  0  0  0  0  0  0  0  0  0  0  0
   70.6173   48.7812   51.2015 O   0  0  0  0  0  0  0  0  0  0  0  0
   69.2790   47.6633   52.6576 C   0  0  0  0  0  0  0  0  0  0  0  0
   68.7912   46.8409   51.6705 C   0  0  0  0  0  0  0  0  0  0  0  0
   67.8604   45.8763   51.9452 C   0  0  0  0  0  0  0  0  0  0  0  0
   67.4348   45.7682   53.2622 C   0  0  0  0  0  0  0  0  0  0  0  0
   67.9137   46.5822   54.2592 C   0  0  0  0  0  0  0  0  0  0  0  0
   68.8369   47.5331   53.9763 C   0  0  0  0  0  0  0  0  0  0  0  0
  8  9  2  0
  9  1  1  0
  9 10  1  0
  1  2  2  0
  1  6  1  0
  2  3  1  0
  3 18  1  0
  3  4  2  0
 18 19  1  0
 19 20  2  0
 19 29  1  0
 20 21  1  0
 21 22  1  0
 22 23  2  0
 22 24  1  0
 24 25  1  0
 24 29  2  0
 25 26  2  0
 26 27  1  0
 27 28  2  0
 28 29  1  0
  4  5  1  0
  5  6  2  0
  6  7  1  0
 10 11  1  0
 10 17  1  0
 11 12  1  0
 12 13  1  0
 13 14  1  0
 14 15  1  6
 14 16  1  0
 16 17  1  0
M  END
>  <minimizedAffinity>  (275) 
-9.34046

$$$$
cs_full_output_folder/data/smiles/4792.pdb
     RDKit          3D

 28 31  0  0  0  0  0  0  0  0999 V2000
   71.5554   47.1603   58.8447 C   0  0  0  0  0  0  0  0  0  0  0  0
   71.6156   45.7816   58.8480 C   0  0  0  0  0  0  0  0  0  0  0  0
   70.8015   45.0323   58.0389 C   0  0  0  0  0  0  0  0  0  0  0  0
   69.8881   45.6943   57.1870 C   0  0  0  0  0  0  0  0  0  0  0  0
   69.1398   44.8962   56.3553 F   0  0  0  0  0  0  0  0  0  0  0  0
   69.7869   47.0336   57.1462 C   0  0  0  0  0  0  0  0  0  0  0  0
   70.6544   47.7414   58.0045 C   0  0  0  0  0  0  0  0  0  0  0  0
   72.0929   47.9117   60.9745 O   0  0  0  0  0  0  0  0  0  0  0  0
   72.3972   47.9643   59.7634 C   0  0  0  0  0  0  0  0  0  0  0  0
   73.4778   48.7327   59.2832 N   0  0  0  0  0  0  0  0  0  0  0  0
   73.7882   48.7686   57.8772 C   0  0  0  0  0  0  0  0  0  0  0  0
   75.2468   48.4071   57.6916 C   0  0  0  0  0  0  0  0  0  0  0  0
   75.5122   47.2771   58.6558 C   0  0  0  0  0  0  0  0  0  0  0  0
   75.4975   47.3972   59.9046 N   0  0  0  0  0  0  0  0  0  0  0  0
   75.2671   48.4644   60.8342 C   0  0  0  0  0  0  0  0  0  0  0  0
   74.2349   49.4407   60.3047 C   0  0  0  0  0  0  0  0  0  0  0  0
   68.7791   47.8281   56.4070 C   0  0  0  0  0  0  0  0  0  0  0  0
   69.1551   47.9825   55.0082 C   0  0  0  0  0  0  0  0  0  0  0  0
   70.0406   49.0134   54.7446 N   0  0  0  0  0  0  0  0  0  0  0  0
   70.4392   49.3189   53.5342 N   0  0  0  0  0  0  0  0  0  0  0  0
   70.0426   48.6819   52.4305 C   0  0  0  0  0  0  0  0  0  0  0  0
   70.4362   48.9880   51.2592 O   0  0  0  0  0  0  0  0  0  0  0  0
   69.1497   47.6318   52.6163 C   0  0  0  0  0  0  0  0  0  0  0  0
   68.7054   46.9290   51.5198 C   0  0  0  0  0  0  0  0  0  0  0  0
   67.8173   45.8727   51.7033 C   0  0  0  0  0  0  0  0  0  0  0  0
   67.4024   45.5501   52.9745 C   0  0  0  0  0  0  0  0  0  0  0  0
   67.8711   46.2784   54.0466 C   0  0  0  0  0  0  0  0  0  0  0  0
   68.7382   47.3208   53.9018 C   0  0  0  0  0  0  0  0  0  0  0  0
  8  9  2  0
  9  1  1  0
  9 10  1  0
  1  2  2  0
  1  7  1  0
  2  3  1  0
  3  4  2  0
  4  5  1  0
  4  6  1  0
  6 17  1  0
  6  7  2  0
 17 18  1  0
 18 19  2  0
 18 28  1  0
 19 20  1  0
 20 21  1  0
 21 22  2  0
 21 23  1  0
 23 24  1  0
 23 28  2  0
 24 25  2  0
 25 26  1  0
 26 27  2  0
 27 28  1  0
 10 11  1  0
 10 16  1  0
 11 12  1  0
 12 13  1  0
 13 14  2  0
 14 15  1  0
 15 16  1  0
M  END
>  <minimizedAffinity>  (276) 
-9.33947

$$$$
cs_full_output_folder/data/smiles/6555.pdb
     RDKit          3D

 29 32  0  0  0  0  0  0  0  0999 V2000
   70.5698   45.7502   58.3468 C   0  0  0  0  0  0  0  0  0  0  0  0
   69.6590   46.4333   57.5114 C   0  0  0  0  0  0  0  0  0  0  0  0
   69.7176   47.7451   57.2638 C   0  0  0  0  0  0  0  0  0  0  0  0
   70.7374   48.4829   57.8685 C   0  0  0  0  0  0  0  0  0  0  0  0
   71.6374   47.8542   58.6851 C   0  0  0  0  0  0  0  0  0  0  0  0
   71.5533   46.4820   58.9258 C   0  0  0  0  0  0  0  0  0  0  0  0
   72.4785   45.9290   59.7655 F   0  0  0  0  0  0  0  0  0  0  0  0
   69.6254   43.7448   59.5005 N   0  0  0  0  0  0  0  0  0  0  0  0
   70.4258   44.3258   58.5237 C   0  0  0  0  0  0  0  0  0  0  0  0
   71.0744   43.5406   57.7393 O   0  0  0  0  0  0  0  0  0  0  0  0
   68.1987   43.8727   63.0622 N   0  0  0  0  0  0  0  0  0  0  0  0
   68.4649   42.6557   62.2826 C   0  0  1  0  0  0  0  0  0  0  0  0
   67.6244   42.7089   61.0678 C   0  0  0  0  0  0  0  0  0  0  0  0
   68.0960   41.9431   59.8909 C   0  0  0  0  0  0  0  0  0  0  0  0
   69.5331   42.2863   59.6137 C   0  0  2  0  0  0  0  0  0  0  0  0
   70.3369   41.8645   60.8042 C   0  0  0  0  0  0  0  0  0  0  0  0
   69.9391   42.5964   62.0513 C   0  0  0  0  0  0  0  0  0  0  0  0
   68.8070   48.5391   56.3758 C   0  0  0  0  0  0  0  0  0  0  0  0
   69.2248   48.5455   54.9683 C   0  0  0  0  0  0  0  0  0  0  0  0
   70.1280   49.4914   54.5539 N   0  0  0  0  0  0  0  0  0  0  0  0
   70.5874   49.5380   53.3174 N   0  0  0  0  0  0  0  0  0  0  0  0
   70.2157   48.6756   52.3730 C   0  0  0  0  0  0  0  0  0  0  0  0
   70.6617   48.7257   51.1880 O   0  0  0  0  0  0  0  0  0  0  0  0
   69.3116   47.6935   52.7039 C   0  0  0  0  0  0  0  0  0  0  0  0
   68.8633   46.7654   51.7877 C   0  0  0  0  0  0  0  0  0  0  0  0
   67.9486   45.7881   52.1109 C   0  0  0  0  0  0  0  0  0  0  0  0
   67.4662   45.7374   53.3973 C   0  0  0  0  0  0  0  0  0  0  0  0
   67.9288   46.6838   54.3147 C   0  0  0  0  0  0  0  0  0  0  0  0
   68.8314   47.6489   53.9996 C   0  0  0  0  0  0  0  0  0  0  0  0
 12 11  1  1
 12 13  1  0
 12 17  1  0
 13 14  1  0
 14 15  1  0
 15  8  1  1
 15 16  1  0
  8  9  1  0
  9 10  2  0
  9  1  1  0
  1  2  2  0
  1  6  1  0
  2  3  1  0
  3 18  1  0
  3  4  2  0
 18 19  1  0
 19 20  2  0
 19 29  1  0
 20 21  1  0
 21 22  1  0
 22 23  2  0
 22 24  1  0
 24 25  1  0
 24 29  2  0
 25 26  2  0
 26 27  1  0
 27 28  2  0
 28 29  1  0
  4  5  1  0
  5  6  2  0
  6  7  1  0
 16 17  1  0
M  CHG  1  11   1
M  END
>  <minimizedAffinity>  (277) 
-9.33853

$$$$
cs_full_output_folder/data/smiles/5320.pdb
     RDKit          3D

 27 30  0  0  0  0  0  0  0  0999 V2000
   70.7117   46.1402   58.5316 C   0  0  0  0  0  0  0  0  0  0  0  0
   69.9060   46.7320   57.5916 C   0  0  0  0  0  0  0  0  0  0  0  0
   69.9116   48.1407   57.4017 C   0  0  0  0  0  0  0  0  0  0  0  0
   70.7249   48.9252   58.1544 C   0  0  0  0  0  0  0  0  0  0  0  0
   71.5559   48.3241   59.1194 C   0  0  0  0  0  0  0  0  0  0  0  0
   71.5317   46.9467   59.2868 C   0  0  0  0  0  0  0  0  0  0  0  0
   72.3243   46.3452   60.2135 F   0  0  0  0  0  0  0  0  0  0  0  0
   69.7101   44.1848   59.3410 O   0  0  0  0  0  0  0  0  0  0  0  0
   70.7093   44.6945   58.7652 C   0  0  0  0  0  0  0  0  0  0  0  0
   71.7902   43.8711   58.3638 N   0  0  0  0  0  0  0  0  0  0  0  0
   72.9138   44.4948   57.7098 C   0  0  0  0  0  0  0  0  0  0  0  0
   74.1769   43.8973   58.2163 C   0  0  0  0  0  0  0  0  0  0  0  0
   74.1513   42.3964   58.1486 C   0  0  0  0  0  0  0  0  0  0  0  0
   73.0020   41.7984   58.9102 C   0  0  0  0  0  0  0  0  0  0  0  0
   71.6945   42.4595   58.6326 C   0  0  0  0  0  0  0  0  0  0  0  0
   68.9930   48.6629   56.3731 C   0  0  0  0  0  0  0  0  0  0  0  0
   69.4670   48.5662   54.9828 C   0  0  0  0  0  0  0  0  0  0  0  0
   70.4317   49.4237   54.5182 N   0  0  0  0  0  0  0  0  0  0  0  0
   70.8471   49.4336   53.2730 N   0  0  0  0  0  0  0  0  0  0  0  0
   70.3389   48.5908   52.3705 C   0  0  0  0  0  0  0  0  0  0  0  0
   70.7450   48.6156   51.1869 O   0  0  0  0  0  0  0  0  0  0  0  0
   69.3514   47.6768   52.7471 C   0  0  0  0  0  0  0  0  0  0  0  0
   68.8544   46.7813   51.7887 C   0  0  0  0  0  0  0  0  0  0  0  0
   67.9013   45.8643   52.1851 C   0  0  0  0  0  0  0  0  0  0  0  0
   67.4975   45.8824   53.4999 C   0  0  0  0  0  0  0  0  0  0  0  0
   67.9910   46.7629   54.4269 C   0  0  0  0  0  0  0  0  0  0  0  0
   68.9428   47.6922   54.0556 C   0  0  0  0  0  0  0  0  0  0  0  0
  8  9  2  0
  9  1  1  0
  9 10  1  0
  1  2  2  0
  1  6  1  0
  2  3  1  0
  3 16  1  0
  3  4  2  0
 16 17  1  0
 17 18  2  0
 17 27  1  0
 18 19  1  0
 19 20  1  0
 20 21  2  0
 20 22  1  0
 22 23  1  0
 22 27  2  0
 23 24  2  0
 24 25  1  0
 25 26  2  0
 26 27  1  0
  4  5  1  0
  5  6  2  0
  6  7  1  0
 10 11  1  0
 10 15  1  0
 11 12  1  0
 12 13  1  0
 13 14  1  0
 14 15  1  0
M  END
>  <minimizedAffinity>  (278) 
-9.33850

$$$$
cs_full_output_folder/data/smiles/2608.pdb
     RDKit          3D

 29 32  0  0  0  0  0  0  0  0999 V2000
   70.9828   45.8870   58.1356 C   0  0  0  0  0  0  0  0  0  0  0  0
   71.7817   46.7266   58.8569 C   0  0  0  0  0  0  0  0  0  0  0  0
   71.5672   48.1164   58.8902 C   0  0  0  0  0  0  0  0  0  0  0  0
   70.5335   48.6753   58.1873 C   0  0  0  0  0  0  0  0  0  0  0  0
   69.7166   47.8698   57.4556 C   0  0  0  0  0  0  0  0  0  0  0  0
   69.9436   46.4845   57.4320 C   0  0  0  0  0  0  0  0  0  0  0  0
   70.4119   43.4863   58.7207 C   0  0  0  0  0  0  0  0  0  0  0  0
   69.4936   43.8954   59.5118 O   0  0  0  0  0  0  0  0  0  0  0  0
   71.1212   44.4739   58.0661 N   0  0  0  0  0  0  0  0  0  0  0  0
   71.2900   37.7696   58.4904 C   0  0  0  0  0  0  0  0  0  0  0  0
   71.0190   39.2323   58.5297 C   0  0  0  0  0  0  0  0  0  0  0  0
   72.0349   40.1125   58.8009 C   0  0  0  0  0  0  0  0  0  0  0  0
   71.8245   41.4702   58.8560 C   0  0  0  0  0  0  0  0  0  0  0  0
   70.5573   42.0404   58.6378 C   0  0  0  0  0  0  0  0  0  0  0  0
   69.5497   41.1506   58.3673 C   0  0  0  0  0  0  0  0  0  0  0  0
   68.2751   41.6238   58.1399 O   0  0  0  0  0  0  0  0  0  0  0  0
   69.7761   39.7619   58.3124 C   0  0  0  0  0  0  0  0  0  0  0  0
   68.5723   48.3186   56.6486 C   0  0  0  0  0  0  0  0  0  0  0  0
   68.9738   48.5495   55.2487 C   0  0  0  0  0  0  0  0  0  0  0  0
   69.4534   49.7822   54.8655 N   0  0  0  0  0  0  0  0  0  0  0  0
   69.7836   50.0410   53.6190 N   0  0  0  0  0  0  0  0  0  0  0  0
   69.6978   49.1699   52.5976 C   0  0  0  0  0  0  0  0  0  0  0  0
   70.0759   49.5181   51.2529 N   0  0  0  0  0  0  0  0  0  0  0  0
   69.2262   47.9174   52.9072 C   0  0  0  0  0  0  0  0  0  0  0  0
   68.8756   47.6406   54.2362 C   0  0  0  0  0  0  0  0  0  0  0  0
   68.4291   46.2491   54.4587 C   0  0  0  0  0  0  0  0  0  0  0  0
   67.3275   45.9954   53.4564 C   0  0  0  0  0  0  0  0  0  0  0  0
   67.9659   45.9151   52.0872 C   0  0  0  0  0  0  0  0  0  0  0  0
   69.0839   46.8760   51.8631 C   0  0  0  0  0  0  0  0  0  0  0  0
 10 11  1  0
 11 12  2  0
 11 17  1  0
 12 13  1  0
 13 14  2  0
 14  7  1  0
 14 15  1  0
  7  8  2  0
  7  9  1  0
  9  1  1  0
  1  2  2  0
  1  6  1  0
  2  3  1  0
  3  4  2  0
  4  5  1  0
  5 18  1  0
  5  6  2  0
 18 19  1  0
 19 20  2  0
 19 25  1  0
 20 21  1  0
 21 22  2  0
 22 23  1  0
 22 24  1  0
 24 25  2  0
 24 29  1  0
 25 26  1  0
 26 27  1  0
 27 28  1  0
 28 29  1  0
 15 16  1  0
 15 17  2  0
M  END
>  <minimizedAffinity>  (279) 
-9.33732

$$$$
cs_full_output_folder/data/smiles/2117.pdb
     RDKit          3D

 28 31  0  0  0  0  0  0  0  0999 V2000
   71.4047   47.2846   58.9303 C   0  0  0  0  0  0  0  0  0  0  0  0
   70.5527   47.9757   58.1052 C   0  0  0  0  0  0  0  0  0  0  0  0
   69.7401   47.3469   57.1529 C   0  0  0  0  0  0  0  0  0  0  0  0
   69.7725   45.9941   57.0187 C   0  0  0  0  0  0  0  0  0  0  0  0
   70.6347   45.2831   57.8522 C   0  0  0  0  0  0  0  0  0  0  0  0
   71.4326   45.9079   58.7864 C   0  0  0  0  0  0  0  0  0  0  0  0
   72.2565   45.1937   59.5786 F   0  0  0  0  0  0  0  0  0  0  0  0
   72.1385   47.6876   61.1590 O   0  0  0  0  0  0  0  0  0  0  0  0
   72.2610   47.9149   59.9326 C   0  0  0  0  0  0  0  0  0  0  0  0
   73.2586   48.8118   59.4998 N   0  0  0  0  0  0  0  0  0  0  0  0
   74.1153   49.4489   60.4621 C   0  0  0  0  0  0  0  0  0  0  0  0
   75.0115   50.4889   59.7889 C   0  0  0  0  0  0  0  0  0  0  0  0
   75.6870   49.8473   58.5971 C   0  0  0  0  0  0  0  0  0  0  0  0
   74.8750   49.1744   57.8011 C   0  0  0  0  0  0  0  0  0  0  0  0
   75.3607   48.5590   56.7070 F   0  0  0  0  0  0  0  0  0  0  0  0
   73.4300   49.1006   58.1014 C   0  0  0  0  0  0  0  0  0  0  0  0
   68.8391   48.1788   56.3303 C   0  0  0  0  0  0  0  0  0  0  0  0
   69.2362   48.3306   54.9347 C   0  0  0  0  0  0  0  0  0  0  0  0
   70.1323   49.2963   54.6042 N   0  0  0  0  0  0  0  0  0  0  0  0
   70.5643   49.4398   53.3616 N   0  0  0  0  0  0  0  0  0  0  0  0
   70.1641   48.6653   52.3448 C   0  0  0  0  0  0  0  0  0  0  0  0
   70.6054   48.8408   51.1761 O   0  0  0  0  0  0  0  0  0  0  0  0
   69.2503   47.6656   52.6265 C   0  0  0  0  0  0  0  0  0  0  0  0
   68.8224   46.8747   51.5888 C   0  0  0  0  0  0  0  0  0  0  0  0
   67.8980   45.8886   51.8597 C   0  0  0  0  0  0  0  0  0  0  0  0
   67.4226   45.7063   53.1343 C   0  0  0  0  0  0  0  0  0  0  0  0
   67.8660   46.5114   54.1584 C   0  0  0  0  0  0  0  0  0  0  0  0
   68.7935   47.5138   53.9415 C   0  0  0  0  0  0  0  0  0  0  0  0
  8  9  2  0
  9  1  1  0
  9 10  1  0
  1  2  2  0
  1  6  1  0
  2  3  1  0
  3 17  1  0
  3  4  2  0
 17 18  1  0
 18 19  2  0
 18 28  1  0
 19 20  1  0
 20 21  1  0
 21 22  2  0
 21 23  1  0
 23 24  1  0
 23 28  2  0
 24 25  2  0
 25 26  1  0
 26 27  2  0
 27 28  1  0
  4  5  1  0
  5  6  2  0
  6  7  1  0
 10 11  1  0
 10 16  1  0
 11 12  1  0
 12 13  1  0
 13 14  2  0
 14 15  1  0
 14 16  1  0
M  END
>  <minimizedAffinity>  (280) 
-9.33525

$$$$
cs_full_output_folder/data/smiles/1139.pdb
     RDKit          3D

 27 28  0  0  0  0  0  0  0  0999 V2000
   69.0429   42.5774   58.7708 N   0  0  0  0  0  0  0  0  0  0  0  0
   69.1330   43.1119   57.4788 C   0  0  0  0  0  0  0  0  0  0  0  0
   70.2372   43.2972   56.9094 O   0  0  0  0  0  0  0  0  0  0  0  0
   67.9803   43.4892   56.7036 N   0  0  0  0  0  0  0  0  0  0  0  0
   68.0933   44.0219   55.4141 N   0  0  0  0  0  0  0  0  0  0  0  0
   68.2007   45.4006   55.1513 C   0  0  0  0  0  0  0  0  0  0  0  0
   68.1943   46.1810   56.1468 O   0  0  0  0  0  0  0  0  0  0  0  0
   68.3197   45.9820   53.8189 C   0  0  0  0  0  0  0  0  0  0  0  0
   67.5838   45.5026   52.7571 C   0  0  0  0  0  0  0  0  0  0  0  0
   67.7185   46.0778   51.4948 C   0  0  0  0  0  0  0  0  0  0  0  0
   68.5885   47.1358   51.2882 C   0  0  0  0  0  0  0  0  0  0  0  0
   69.3277   47.6219   52.3434 C   0  0  0  0  0  0  0  0  0  0  0  0
   69.1701   47.0343   53.5598 C   0  0  0  0  0  0  0  0  0  0  0  0
   70.2225   48.7140   52.1148 N   0  0  0  0  0  0  0  0  0  0  0  0
   70.0669   49.3471   51.0515 O   0  0  0  0  0  0  0  0  0  0  0  0
   71.2010   49.0552   53.0077 O   0  0  0  0  0  0  0  0  0  0  0  0
   70.1865   42.1941   59.5717 C   0  0  0  0  0  0  0  0  0  0  0  0
   71.6005   38.3074   58.4936 C   0  0  0  0  0  0  0  0  0  0  0  0
   70.2539   38.5028   58.7118 C   0  0  0  0  0  0  0  0  0  0  0  0
   69.8313   39.7664   59.0603 C   0  0  0  0  0  0  0  0  0  0  0  0
   70.7187   40.8404   59.1978 C   0  0  0  0  0  0  0  0  0  0  0  0
   72.0568   40.6250   58.9760 C   0  0  0  0  0  0  0  0  0  0  0  0
   72.4779   39.3573   58.6263 C   0  0  0  0  0  0  0  0  0  0  0  0
   73.3667   36.6872   58.7061 N   0  0  0  0  0  0  0  0  0  0  0  0
   72.0894   36.9479   58.1145 C   0  0  0  0  0  0  0  0  0  0  0  0
   71.1457   35.9841   58.4757 F   0  0  0  0  0  0  0  0  0  0  0  0
   72.2125   36.8724   56.7428 F   0  0  0  0  0  0  0  0  0  0  0  0
 24 25  1  0
 25 26  1  0
 25 27  1  0
 25 18  1  0
 18 19  2  0
 18 23  1  0
 19 20  1  0
 20 21  2  0
 21 17  1  0
 21 22  1  0
 17  1  1  0
  1  2  1  0
  2  3  2  0
  2  4  1  0
  4  5  1  0
  5  6  1  0
  6  7  2  0
  6  8  1  0
  8  9  2  0
  8 13  1  0
  9 10  1  0
 10 11  2  0
 11 12  1  0
 12 14  1  0
 12 13  2  0
 14 15  2  0
 14 16  1  0
 22 23  2  0
M  CHG  3  14   1  16  -1  24   1
M  END
>  <minimizedAffinity>  (281) 
-9.33465

$$$$
cs_full_output_folder/data/smiles/8121.pdb
     RDKit          3D

 28 31  0  0  0  0  0  0  0  0999 V2000
   71.3354   46.8884   58.9008 C   0  0  0  0  0  0  0  0  0  0  0  0
   71.3776   45.5099   58.6618 C   0  0  0  0  0  0  0  0  0  0  0  0
   70.5665   44.9608   57.7114 C   0  0  0  0  0  0  0  0  0  0  0  0
   69.7162   45.7374   56.9892 C   0  0  0  0  0  0  0  0  0  0  0  0
   69.6229   47.1273   57.1771 C   0  0  0  0  0  0  0  0  0  0  0  0
   70.4508   47.6289   58.1367 C   0  0  0  0  0  0  0  0  0  0  0  0
   77.0116   49.8391   57.9440 C   0  0  0  0  0  0  0  0  0  0  0  0
   76.0918   49.1431   58.8275 N   0  0  1  0  0  0  0  0  0  0  0  0
   75.3068   50.1480   59.4965 C   0  0  0  0  0  0  0  0  0  0  0  0
   75.0108   49.6330   60.8758 C   0  0  0  0  0  0  0  0  0  0  0  0
   74.0797   48.4863   60.9537 C   0  0  0  0  0  0  0  0  0  0  0  0
   73.4456   48.0814   59.7160 N   0  0  0  0  0  0  0  0  0  0  0  0
   72.2043   47.4261   59.9221 C   0  0  0  0  0  0  0  0  0  0  0  0
   71.7989   47.2840   61.1226 O   0  0  0  0  0  0  0  0  0  0  0  0
   73.8374   48.2208   58.3563 C   0  0  0  0  0  0  0  0  0  0  0  0
   75.3066   48.2362   58.0765 C   0  0  0  0  0  0  0  0  0  0  0  0
   68.6627   47.8972   56.3401 C   0  0  0  0  0  0  0  0  0  0  0  0
   69.0590   48.1127   54.9579 C   0  0  0  0  0  0  0  0  0  0  0  0
   69.9549   49.1139   54.6868 N   0  0  0  0  0  0  0  0  0  0  0  0
   70.4270   49.3511   53.4878 N   0  0  0  0  0  0  0  0  0  0  0  0
   70.0834   48.6336   52.3909 C   0  0  0  0  0  0  0  0  0  0  0  0
   70.5551   48.8849   51.2563 O   0  0  0  0  0  0  0  0  0  0  0  0
   69.1740   47.6012   52.5955 C   0  0  0  0  0  0  0  0  0  0  0  0
   68.7475   46.8375   51.5212 C   0  0  0  0  0  0  0  0  0  0  0  0
   67.8199   45.8173   51.6875 C   0  0  0  0  0  0  0  0  0  0  0  0
   67.3446   45.6060   52.9771 C   0  0  0  0  0  0  0  0  0  0  0  0
   67.7744   46.3703   54.0440 C   0  0  0  0  0  0  0  0  0  0  0  0
   68.6856   47.3640   53.8611 C   0  0  0  0  0  0  0  0  0  0  0  0
  8  7  1  6
  8  9  1  0
  8 16  1  0
  9 10  1  0
 10 11  1  0
 11 12  1  0
 12 13  1  0
 12 15  1  0
 13 14  2  0
 13  1  1  0
  1  2  2  0
  1  6  1  0
  2  3  1  0
  3  4  2  0
  4  5  1  0
  5 17  1  0
  5  6  2  0
 17 18  1  0
 18 19  2  0
 18 28  1  0
 19 20  1  0
 20 21  1  0
 21 22  2  0
 21 23  1  0
 23 24  1  0
 23 28  2  0
 24 25  2  0
 25 26  1  0
 26 27  2  0
 27 28  1  0
 15 16  1  0
M  CHG  1   8   1
M  END
>  <minimizedAffinity>  (282) 
-9.33421

$$$$
cs_full_output_folder/data/smiles/185.pdb
     RDKit          3D

 25 27  0  0  0  0  0  0  0  0999 V2000
   70.3208   39.3848   58.6965 C   0  0  0  0  0  0  0  0  0  0  0  0
   70.9200   40.6265   58.7082 C   0  0  0  0  0  0  0  0  0  0  0  0
   70.3750   41.7075   58.0463 C   0  0  0  0  0  0  0  0  0  0  0  0
   69.1930   41.5916   57.3386 C   0  0  0  0  0  0  0  0  0  0  0  0
   68.5899   40.3504   57.3254 C   0  0  0  0  0  0  0  0  0  0  0  0
   69.1416   39.2662   57.9908 C   0  0  0  0  0  0  0  0  0  0  0  0
   67.4136   40.5057   56.5391 N   0  0  0  0  0  0  0  0  0  0  0  0
   67.2729   41.8242   56.0637 C   0  0  0  0  0  0  0  0  0  0  0  0
   66.3690   42.3344   55.3455 O   0  0  0  0  0  0  0  0  0  0  0  0
   68.4197   42.5597   56.5678 C   0  0  0  0  0  0  0  0  0  0  0  0
   68.6628   43.8125   56.3525 N   0  0  0  0  0  0  0  0  0  0  0  0
   71.8128   38.6531   60.5496 C   0  0  0  0  0  0  0  0  0  0  0  0
   70.9131   38.2144   59.4129 C   0  0  0  0  0  0  0  0  0  0  0  0
   69.8121   37.3602   60.0216 C   0  0  0  0  0  0  0  0  0  0  0  0
   71.7399   37.3974   58.4666 C   0  0  0  0  0  0  0  0  0  0  0  0
   67.8246   44.6252   55.5863 N   0  0  0  0  0  0  0  0  0  0  0  0
   68.2872   45.6935   54.7741 C   0  0  0  0  0  0  0  0  0  0  0  0
   68.1832   45.6214   53.3940 C   0  0  0  0  0  0  0  0  0  0  0  0
   68.6141   46.6239   52.5500 C   0  0  0  0  0  0  0  0  0  0  0  0
   69.1718   47.7446   53.1293 C   0  0  0  0  0  0  0  0  0  0  0  0
   69.2883   47.8442   54.5037 C   0  0  0  0  0  0  0  0  0  0  0  0
   68.8434   46.8157   55.3112 C   0  0  0  0  0  0  0  0  0  0  0  0
   69.7202   49.0201   52.0607 S   0  0  0  0  0  0  0  0  0  0  0  0
   70.5066   50.0334   52.8462 O   0  0  0  0  0  0  0  0  0  0  0  0
   70.5416   48.4388   50.9406 O   0  0  0  0  0  0  0  0  0  0  0  0
 12 13  1  0
 13 14  1  0
 13 15  1  0
 13  1  1  0
  1  2  2  0
  1  6  1  0
  2  3  1  0
  3  4  2  0
  4  5  1  0
  4 10  1  0
  5  6  2  0
  5  7  1  0
  7  8  1  0
  8  9  2  0
  8 10  1  0
 10 11  2  0
 11 16  1  0
 16 17  1  0
 17 18  2  0
 17 22  1  0
 18 19  1  0
 19 20  2  0
 20 23  1  0
 20 21  1  0
 23 24  2  0
 23 25  2  0
 21 22  2  0
M  END
>  <minimizedAffinity>  (283) 
-9.33330

$$$$
cs_full_output_folder/data/smiles/563.pdb
     RDKit          3D

 25 27  0  0  0  0  0  0  0  0999 V2000
   69.7520   39.2363   58.6283 C   0  0  0  0  0  0  0  0  0  0  0  0
   70.3760   40.4633   58.7099 C   0  0  0  0  0  0  0  0  0  0  0  0
   69.9167   41.5793   58.0140 C   0  0  0  0  0  0  0  0  0  0  0  0
   68.8083   41.4960   57.2090 C   0  0  0  0  0  0  0  0  0  0  0  0
   68.1777   40.2726   57.1219 C   0  0  0  0  0  0  0  0  0  0  0  0
   68.6351   39.1651   57.8130 C   0  0  0  0  0  0  0  0  0  0  0  0
   67.0760   40.4812   56.2291 N   0  0  0  0  0  0  0  0  0  0  0  0
   67.0185   41.8015   55.7704 C   0  0  0  0  0  0  0  0  0  0  0  0
   66.2162   42.3736   54.9886 O   0  0  0  0  0  0  0  0  0  0  0  0
   68.1368   42.5033   56.3882 C   0  0  0  0  0  0  0  0  0  0  0  0
   68.4436   43.7502   56.2256 N   0  0  0  0  0  0  0  0  0  0  0  0
   69.6642   37.6295   60.4695 C   0  0  0  0  0  0  0  0  0  0  0  0
   70.2264   38.0494   59.3573 C   0  0  0  0  0  0  0  0  0  0  0  0
   71.3744   37.3099   58.8107 C   0  0  0  0  0  0  0  0  0  0  0  0
   67.6979   44.5927   55.4008 N   0  0  0  0  0  0  0  0  0  0  0  0
   68.2458   45.7230   54.7478 C   0  0  0  0  0  0  0  0  0  0  0  0
   68.8315   46.7308   55.4733 C   0  0  0  0  0  0  0  0  0  0  0  0
   69.3681   47.8372   54.8335 C   0  0  0  0  0  0  0  0  0  0  0  0
   69.3438   47.9832   53.4680 C   0  0  0  0  0  0  0  0  0  0  0  0
   68.7568   46.9748   52.7296 C   0  0  0  0  0  0  0  0  0  0  0  0
   68.2247   45.8763   53.3703 C   0  0  0  0  0  0  0  0  0  0  0  0
   70.0409   49.4086   52.7215 S   0  0  0  0  0  0  0  0  0  0  0  0
   69.2606   50.8446   53.2647 N   0  0  0  0  0  0  0  0  0  0  0  0
   69.9915   49.3128   51.2433 O   0  0  0  0  0  0  0  0  0  0  0  0
   71.4805   49.4871   53.1996 O   0  0  0  0  0  0  0  0  0  0  0  0
 12 13  2  0
 13 14  1  0
 13  1  1  0
  1  2  2  0
  1  6  1  0
  2  3  1  0
  3  4  2  0
  4  5  1  0
  4 10  1  0
  5  6  2  0
  5  7  1  0
  7  8  1  0
  8  9  2  0
  8 10  1  0
 10 11  2  0
 11 15  1  0
 15 16  1  0
 16 17  2  0
 16 21  1  0
 17 18  1  0
 18 19  2  0
 19 22  1  0
 19 20  1  0
 22 23  1  0
 22 24  2  0
 22 25  2  0
 20 21  2  0
M  END
>  <minimizedAffinity>  (284) 
-9.33293

$$$$
cs_full_output_folder/data/smiles/825.pdb
     RDKit          3D

 29 32  0  0  0  0  0  0  0  0999 V2000
   71.6227   47.2297   58.9177 C   0  0  0  0  0  0  0  0  0  0  0  0
   70.7801   47.9121   58.0713 C   0  0  0  0  0  0  0  0  0  0  0  0
   69.9118   47.2692   57.1746 C   0  0  0  0  0  0  0  0  0  0  0  0
   69.9041   45.9122   57.1413 C   0  0  0  0  0  0  0  0  0  0  0  0
   70.7300   45.1831   57.9701 C   0  0  0  0  0  0  0  0  0  0  0  0
   71.5665   45.8359   58.8358 C   0  0  0  0  0  0  0  0  0  0  0  0
   72.3916   45.1475   59.6652 F   0  0  0  0  0  0  0  0  0  0  0  0
   72.1847   47.8969   61.0664 O   0  0  0  0  0  0  0  0  0  0  0  0
   72.5212   47.8764   59.8545 C   0  0  0  0  0  0  0  0  0  0  0  0
   73.7456   48.4782   59.4728 N   0  0  0  0  0  0  0  0  0  0  0  0
   74.5058   49.0787   60.5505 C   0  0  0  0  0  0  0  0  0  0  0  0
   75.7502   48.2378   60.7728 C   0  0  0  0  0  0  0  0  0  0  0  0
   76.0508   47.4245   59.5352 C   0  0  0  0  0  0  0  0  0  0  0  0
   76.5120   48.3515   58.4369 C   0  0  2  0  0  0  0  0  0  0  0  0
   77.2869   49.3378   59.0138 F   0  0  0  0  0  0  0  0  0  0  0  0
   75.3662   48.9596   57.6754 C   0  0  0  0  0  0  0  0  0  0  0  0
   74.0259   48.3857   58.0513 C   0  0  0  0  0  0  0  0  0  0  0  0
   69.1017   48.1690   56.3441 C   0  0  0  0  0  0  0  0  0  0  0  0
   69.5008   48.2216   54.9227 C   0  0  0  0  0  0  0  0  0  0  0  0
   70.4666   49.1119   54.5281 N   0  0  0  0  0  0  0  0  0  0  0  0
   70.8377   49.2572   53.2739 N   0  0  0  0  0  0  0  0  0  0  0  0
   70.2912   48.5365   52.2816 C   0  0  0  0  0  0  0  0  0  0  0  0
   70.6633   48.6953   51.0843 O   0  0  0  0  0  0  0  0  0  0  0  0
   69.3158   47.6238   52.6097 C   0  0  0  0  0  0  0  0  0  0  0  0
   68.7656   46.8722   51.5971 C   0  0  0  0  0  0  0  0  0  0  0  0
   67.8013   45.9453   51.9382 C   0  0  0  0  0  0  0  0  0  0  0  0
   67.3949   45.7709   53.2440 C   0  0  0  0  0  0  0  0  0  0  0  0
   67.9548   46.5319   54.2552 C   0  0  0  0  0  0  0  0  0  0  0  0
   68.9226   47.4679   53.9354 C   0  0  0  0  0  0  0  0  0  0  0  0
  8  9  2  0
  9  1  1  0
  9 10  1  0
  1  2  2  0
  1  6  1  0
  2  3  1  0
  3 18  1  0
  3  4  2  0
 18 19  1  0
 19 20  2  0
 19 29  1  0
 20 21  1  0
 21 22  1  0
 22 23  2  0
 22 24  1  0
 24 25  1  0
 24 29  2  0
 25 26  2  0
 26 27  1  0
 27 28  2  0
 28 29  1  0
  4  5  1  0
  5  6  2  0
  6  7  1  0
 10 11  1  0
 10 17  1  0
 11 12  1  0
 12 13  1  0
 13 14  1  0
 14 15  1  1
 14 16  1  0
 16 17  1  0
M  END
>  <minimizedAffinity>  (285) 
-9.33291

$$$$
cs_full_output_folder/data/smiles/2781.pdb
     RDKit          3D

 29 32  0  0  0  0  0  0  0  0999 V2000
   71.7063   47.1415   58.8662 C   0  0  0  0  0  0  0  0  0  0  0  0
   70.9315   47.9671   58.0928 C   0  0  0  0  0  0  0  0  0  0  0  0
   69.9786   47.5065   57.2106 C   0  0  0  0  0  0  0  0  0  0  0  0
   69.8061   46.1596   57.1102 C   0  0  0  0  0  0  0  0  0  0  0  0
   70.5856   45.2834   57.8920 C   0  0  0  0  0  0  0  0  0  0  0  0
   71.5253   45.7749   58.7598 C   0  0  0  0  0  0  0  0  0  0  0  0
   72.3019   44.9625   59.5347 F   0  0  0  0  0  0  0  0  0  0  0  0
   74.2718   50.3932   61.4275 N   0  0  0  0  0  0  0  0  0  0  0  0
   75.1164   49.8154   60.4504 C   0  0  2  0  0  0  0  0  0  0  0  0
   74.8426   50.3643   59.0889 C   0  0  0  0  0  0  0  0  0  0  0  0
   75.6903   49.6318   58.0483 C   0  0  0  0  0  0  0  0  0  0  0  0
   74.8855   48.6243   57.2880 C   0  0  0  0  0  0  0  0  0  0  0  0
   74.4985   47.4454   58.1190 C   0  0  0  0  0  0  0  0  0  0  0  0
   74.0801   47.8091   59.4633 N   0  0  0  0  0  0  0  0  0  0  0  0
   72.7137   47.6515   59.7984 C   0  0  0  0  0  0  0  0  0  0  0  0
   72.3405   47.9639   60.9536 O   0  0  0  0  0  0  0  0  0  0  0  0
   74.9487   48.3157   60.4874 C   0  0  0  0  0  0  0  0  0  0  0  0
   69.2259   48.4880   56.4213 C   0  0  0  0  0  0  0  0  0  0  0  0
   69.5805   48.4161   55.0177 C   0  0  0  0  0  0  0  0  0  0  0  0
   70.5579   49.2586   54.5651 N   0  0  0  0  0  0  0  0  0  0  0  0
   70.9206   49.3135   53.2945 N   0  0  0  0  0  0  0  0  0  0  0  0
   70.3506   48.5402   52.3537 C   0  0  0  0  0  0  0  0  0  0  0  0
   70.7402   48.6392   51.1555 O   0  0  0  0  0  0  0  0  0  0  0  0
   69.3569   47.6615   52.7265 C   0  0  0  0  0  0  0  0  0  0  0  0
   68.7796   46.8549   51.7750 C   0  0  0  0  0  0  0  0  0  0  0  0
   67.8020   45.9696   52.1613 C   0  0  0  0  0  0  0  0  0  0  0  0
   67.4339   45.9179   53.4851 C   0  0  0  0  0  0  0  0  0  0  0  0
   68.0189   46.7294   54.4231 C   0  0  0  0  0  0  0  0  0  0  0  0
   68.9976   47.6260   54.0653 C   0  0  0  0  0  0  0  0  0  0  0  0
  9  8  1  1
  9 10  1  0
  9 17  1  0
 10 11  1  0
 11 12  1  0
 12 13  1  0
 13 14  1  0
 14 15  1  0
 14 17  1  0
 15 16  2  0
 15  1  1  0
  1  2  2  0
  1  6  1  0
  2  3  1  0
  3 18  1  0
  3  4  2  0
 18 19  1  0
 19 20  2  0
 19 29  1  0
 20 21  1  0
 21 22  1  0
 22 23  2  0
 22 24  1  0
 24 25  1  0
 24 29  2  0
 25 26  2  0
 26 27  1  0
 27 28  2  0
 28 29  1  0
  4  5  1  0
  5  6  2  0
  6  7  1  0
M  CHG  1   8   1
M  END
>  <minimizedAffinity>  (286) 
-9.33179

$$$$
cs_full_output_folder/data/smiles/4350.pdb
     RDKit          3D

 29 33  0  0  0  0  0  0  0  0999 V2000
   70.7157   46.1740   58.4072 C   0  0  0  0  0  0  0  0  0  0  0  0
   69.8339   46.7200   57.5148 C   0  0  0  0  0  0  0  0  0  0  0  0
   69.8430   48.1096   57.2552 C   0  0  0  0  0  0  0  0  0  0  0  0
   70.7413   48.8984   57.9063 C   0  0  0  0  0  0  0  0  0  0  0  0
   71.6385   48.3635   58.8100 C   0  0  0  0  0  0  0  0  0  0  0  0
   71.6073   46.9952   59.0458 C   0  0  0  0  0  0  0  0  0  0  0  0
   72.5041   46.4754   59.9459 F   0  0  0  0  0  0  0  0  0  0  0  0
   69.7328   44.2580   59.3234 O   0  0  0  0  0  0  0  0  0  0  0  0
   70.7312   44.7635   58.6868 C   0  0  0  0  0  0  0  0  0  0  0  0
   71.7527   43.8820   58.3186 N   0  0  0  0  0  0  0  0  0  0  0  0
   71.8263   42.4884   58.5688 C   0  0  0  0  0  0  0  0  0  0  0  0
   73.2854   42.2352   58.7092 C   0  0  0  0  0  0  0  0  0  0  0  0
   74.2605   41.3992   59.1694 N   0  0  0  0  0  0  0  0  0  0  0  0
   75.4616   41.9106   58.8869 C   0  0  0  0  0  0  0  0  0  0  0  0
   75.2502   43.0666   58.2491 N   0  0  0  0  0  0  0  0  0  0  0  0
   73.9404   43.3038   58.1197 C   0  0  0  0  0  0  0  0  0  0  0  0
   72.9278   44.2530   57.5996 C   0  0  0  0  0  0  0  0  0  0  0  0
   68.8493   48.5940   56.2966 C   0  0  0  0  0  0  0  0  0  0  0  0
   69.3248   48.5390   54.8939 C   0  0  0  0  0  0  0  0  0  0  0  0
   70.2361   49.4599   54.4537 N   0  0  0  0  0  0  0  0  0  0  0  0
   70.6619   49.5128   53.2103 N   0  0  0  0  0  0  0  0  0  0  0  0
   70.2151   48.6496   52.2918 C   0  0  0  0  0  0  0  0  0  0  0  0
   70.6506   48.7343   51.0984 O   0  0  0  0  0  0  0  0  0  0  0  0
   69.3034   47.6966   52.6523 C   0  0  0  0  0  0  0  0  0  0  0  0
   68.8499   46.7949   51.7251 C   0  0  0  0  0  0  0  0  0  0  0  0
   67.9424   45.8081   52.0596 C   0  0  0  0  0  0  0  0  0  0  0  0
   67.4971   45.7529   53.3710 C   0  0  0  0  0  0  0  0  0  0  0  0
   67.9534   46.6649   54.3154 C   0  0  0  0  0  0  0  0  0  0  0  0
   68.8549   47.6404   53.9641 C   0  0  0  0  0  0  0  0  0  0  0  0
  8  9  2  0
  9  1  1  0
  9 10  1  0
  1  2  2  0
  1  6  1  0
  2  3  1  0
  3 18  1  0
  3  4  2  0
 18 19  1  0
 19 20  2  0
 19 29  1  0
 20 21  1  0
 21 22  1  0
 22 23  2  0
 22 24  1  0
 24 25  1  0
 24 29  2  0
 25 26  2  0
 26 27  1  0
 27 28  2  0
 28 29  1  0
  4  5  1  0
  5  6  2  0
  6  7  1  0
 10 11  1  0
 10 17  1  0
 11 12  1  0
 12 13  1  0
 12 16  2  0
 13 14  2  0
 14 15  1  0
 15 16  1  0
 16 17  1  0
M  CHG  1  13   1
M  END
>  <minimizedAffinity>  (287) 
-9.33009

$$$$
cs_full_output_folder/data/smiles/4880.pdb
     RDKit          3D

 29 32  0  0  0  0  0  0  0  0999 V2000
   71.5972   47.1611   58.9767 C   0  0  0  0  0  0  0  0  0  0  0  0
   70.7554   47.9377   58.1749 C   0  0  0  0  0  0  0  0  0  0  0  0
   69.8941   47.4237   57.2475 C   0  0  0  0  0  0  0  0  0  0  0  0
   69.8847   46.0259   57.1225 C   0  0  0  0  0  0  0  0  0  0  0  0
   70.6942   45.2201   57.8883 C   0  0  0  0  0  0  0  0  0  0  0  0
   71.5447   45.7983   58.8110 C   0  0  0  0  0  0  0  0  0  0  0  0
   72.3734   45.0462   59.6019 F   0  0  0  0  0  0  0  0  0  0  0  0
   74.5772   49.0247   60.5412 C   0  0  0  0  0  0  0  0  0  0  0  0
   73.7062   48.4010   59.5339 N   0  0  0  0  0  0  0  0  0  0  0  0
   72.5000   47.7881   59.9436 C   0  0  0  0  0  0  0  0  0  0  0  0
   72.2112   47.7919   61.1816 O   0  0  0  0  0  0  0  0  0  0  0  0
   74.1698   48.4614   58.1703 C   0  0  0  0  0  0  0  0  0  0  0  0
   73.8335   49.7603   57.5122 C   0  0  0  0  0  0  0  0  0  0  0  0
   72.9001   50.0007   56.5260 C   0  0  0  0  0  0  0  0  0  0  0  0
   72.9165   51.3412   56.1891 C   0  0  0  0  0  0  0  0  0  0  0  0
   73.8698   51.9020   56.9856 N   0  0  0  0  0  0  0  0  0  0  0  0
   74.3895   50.9617   57.7469 N   0  0  0  0  0  0  0  0  0  0  0  0
   68.9832   48.2150   56.3609 C   0  0  0  0  0  0  0  0  0  0  0  0
   69.4297   48.2953   54.9671 C   0  0  0  0  0  0  0  0  0  0  0  0
   70.3679   49.2040   54.5861 N   0  0  0  0  0  0  0  0  0  0  0  0
   70.7541   49.3479   53.3383 N   0  0  0  0  0  0  0  0  0  0  0  0
   70.2582   48.6122   52.3355 C   0  0  0  0  0  0  0  0  0  0  0  0
   70.6183   48.7420   51.1387 O   0  0  0  0  0  0  0  0  0  0  0  0
   69.2949   47.6567   52.6394 C   0  0  0  0  0  0  0  0  0  0  0  0
   68.7553   46.8574   51.6718 C   0  0  0  0  0  0  0  0  0  0  0  0
   67.8139   45.8912   51.9298 C   0  0  0  0  0  0  0  0  0  0  0  0
   67.4236   45.7523   53.2409 C   0  0  0  0  0  0  0  0  0  0  0  0
   67.9440   46.5403   54.2513 C   0  0  0  0  0  0  0  0  0  0  0  0
   68.8942   47.5150   53.9743 C   0  0  0  0  0  0  0  0  0  0  0  0
  8  9  1  0
  9 12  1  0
  9 10  1  0
 12 13  1  0
 13 14  1  0
 13 17  2  0
 14 15  2  0
 15 16  1  0
 16 17  1  0
 10 11  2  0
 10  1  1  0
  1  2  2  0
  1  6  1  0
  2  3  1  0
  3 18  1  0
  3  4  2  0
 18 19  1  0
 19 20  2  0
 19 29  1  0
 20 21  1  0
 21 22  1  0
 22 23  2  0
 22 24  1  0
 24 25  1  0
 24 29  2  0
 25 26  2  0
 26 27  1  0
 27 28  2  0
 28 29  1  0
  4  5  1  0
  5  6  2  0
  6  7  1  0
M  END
>  <minimizedAffinity>  (288) 
-9.32993

$$$$
cs_full_output_folder/data/smiles/3717.pdb
     RDKit          3D

 26 28  0  0  0  0  0  0  0  0999 V2000
   68.1226   44.0871   55.7155 N   0  0  0  0  0  0  0  0  0  0  0  0
   68.8356   43.4392   56.7721 C   0  0  0  0  0  0  0  0  0  0  0  0
   69.5980   44.2477   57.4602 O   0  0  0  0  0  0  0  0  0  0  0  0
   68.8053   42.0486   57.1292 C   0  0  0  0  0  0  0  0  0  0  0  0
   67.7629   41.2017   56.7074 C   0  0  0  0  0  0  0  0  0  0  0  0
   68.0364   39.9844   57.1733 N   0  0  0  0  0  0  0  0  0  0  0  0
   69.1852   39.9778   57.8687 N   0  0  0  0  0  0  0  0  0  0  0  0
   69.6494   41.2509   57.8343 C   0  0  0  0  0  0  0  0  0  0  0  0
   70.8952   41.7310   58.4919 C   0  0  0  0  0  0  0  0  0  0  0  0
   69.7864   38.8458   58.4792 C   0  0  0  0  0  0  0  0  0  0  0  0
   70.9706   38.3105   58.0234 C   0  0  0  0  0  0  0  0  0  0  0  0
   71.5026   37.1734   58.6351 C   0  0  0  0  0  0  0  0  0  0  0  0
   70.8642   36.5639   59.6979 C   0  0  0  0  0  0  0  0  0  0  0  0
   71.5597   35.1176   60.4515 Cl  0  0  0  0  0  0  0  0  0  0  0  0
   69.6857   37.0942   60.1523 C   0  0  0  0  0  0  0  0  0  0  0  0
   69.1577   38.2349   59.5375 C   0  0  0  0  0  0  0  0  0  0  0  0
   68.2613   45.5078   55.4732 C   0  0  0  0  0  0  0  0  0  0  0  0
   69.0897   47.6138   52.5139 C   0  0  0  0  0  0  0  0  0  0  0  0
   68.3986   46.9925   51.4688 C   0  0  0  0  0  0  0  0  0  0  0  0
   67.6919   45.8598   51.7718 C   0  0  0  0  0  0  0  0  0  0  0  0
   67.6613   45.3476   53.0621 C   0  0  0  0  0  0  0  0  0  0  0  0
   68.3390   45.9543   54.0837 C   0  0  0  0  0  0  0  0  0  0  0  0
   69.0697   47.1224   53.7746 C   0  0  0  0  0  0  0  0  0  0  0  0
   70.0244   49.9113   53.1946 C   0  0  0  0  0  0  0  0  0  0  0  0
   69.8217   48.8515   52.2189 C   0  0  0  0  0  0  0  0  0  0  0  0
   70.3000   49.0188   51.0447 O   0  0  0  0  0  0  0  0  0  0  0  0
 24 25  1  0
 25 26  2  0
 25 18  1  0
 18 19  2  0
 18 23  1  0
 19 20  1  0
 20 21  2  0
 21 22  1  0
 22 17  1  0
 22 23  2  0
 17  1  1  0
  1  2  1  0
  2  3  2  0
  2  4  1  0
  4  5  1  0
  4  8  2  0
  5  6  2  0
  6  7  1  0
  7 10  1  0
  7  8  1  0
 10 11  2  0
 10 16  1  0
 11 12  1  0
 12 13  2  0
 13 14  1  0
 13 15  1  0
 15 16  2  0
  8  9  1  0
M  END
>  <minimizedAffinity>  (289) 
-9.32960

$$$$
cs_full_output_folder/data/smiles/2019.pdb
     RDKit          3D

 29 32  0  0  0  0  0  0  0  0999 V2000
   71.4538   47.2612   58.8687 C   0  0  0  0  0  0  0  0  0  0  0  0
   70.5850   47.9524   58.0157 C   0  0  0  0  0  0  0  0  0  0  0  0
   69.7463   47.3361   57.1287 C   0  0  0  0  0  0  0  0  0  0  0  0
   69.7313   45.9370   57.0449 C   0  0  0  0  0  0  0  0  0  0  0  0
   70.5822   45.2616   57.8815 C   0  0  0  0  0  0  0  0  0  0  0  0
   71.4289   45.8882   58.7753 C   0  0  0  0  0  0  0  0  0  0  0  0
   72.2417   45.1594   59.5715 F   0  0  0  0  0  0  0  0  0  0  0  0
   77.0008   48.4867   58.1822 C   0  0  0  0  0  0  0  0  0  0  0  0
   76.0850   49.4223   58.7505 N   0  0  2  0  0  0  0  0  0  0  0  0
   75.7182   49.1633   60.1130 C   0  0  0  0  0  0  0  0  0  0  0  0
   74.2496   49.4424   60.3665 C   0  0  0  0  0  0  0  0  0  0  0  0
   73.4136   48.7679   59.3854 N   0  0  0  0  0  0  0  0  0  0  0  0
   72.3273   47.9618   59.7949 C   0  0  0  0  0  0  0  0  0  0  0  0
   72.0834   47.8264   61.0204 O   0  0  0  0  0  0  0  0  0  0  0  0
   73.7696   48.9841   57.9998 C   0  0  2  0  0  0  0  0  0  0  0  0
   73.9713   47.8360   57.2742 O   0  0  0  0  0  0  0  0  0  0  0  0
   75.0133   49.8397   57.9030 C   0  0  0  0  0  0  0  0  0  0  0  0
   68.8661   48.0990   56.2485 C   0  0  0  0  0  0  0  0  0  0  0  0
   69.3341   48.2638   54.8542 C   0  0  0  0  0  0  0  0  0  0  0  0
   70.2383   49.2060   54.5313 N   0  0  0  0  0  0  0  0  0  0  0  0
   70.6251   49.3846   53.2963 N   0  0  0  0  0  0  0  0  0  0  0  0
   70.1540   48.6524   52.2844 C   0  0  0  0  0  0  0  0  0  0  0  0
   70.5273   48.8252   51.0929 O   0  0  0  0  0  0  0  0  0  0  0  0
   69.2391   47.6836   52.5510 C   0  0  0  0  0  0  0  0  0  0  0  0
   68.7485   46.9040   51.5070 C   0  0  0  0  0  0  0  0  0  0  0  0
   67.8318   45.9024   51.7247 C   0  0  0  0  0  0  0  0  0  0  0  0
   67.4160   45.7017   53.0165 C   0  0  0  0  0  0  0  0  0  0  0  0
   67.9083   46.4823   54.0561 C   0  0  0  0  0  0  0  0  0  0  0  0
   68.8161   47.4796   53.8590 C   0  0  0  0  0  0  0  0  0  0  0  0
  9  8  1  6
  9 10  1  0
  9 17  1  0
 10 11  1  0
 11 12  1  0
 12 13  1  0
 12 15  1  0
 13 14  2  0
 13  1  1  0
  1  2  2  0
  1  6  1  0
  2  3  1  0
  3 18  1  0
  3  4  2  0
 18 19  1  0
 19 20  2  0
 19 29  1  0
 20 21  1  0
 21 22  1  0
 22 23  2  0
 22 24  1  0
 24 25  1  0
 24 29  2  0
 25 26  2  0
 26 27  1  0
 27 28  2  0
 28 29  1  0
  4  5  1  0
  5  6  2  0
  6  7  1  0
 15 16  1  1
 15 17  1  0
M  CHG  1   9   1
M  END
>  <minimizedAffinity>  (290) 
-9.32955

$$$$
cs_full_output_folder/data/smiles/4837.pdb
     RDKit          3D

 29 32  0  0  0  0  0  0  0  0999 V2000
   68.5227   46.2553   54.4847 C   0  0  0  0  0  0  0  0  0  0  0  0
   69.1216   47.4188   54.0170 C   0  0  0  0  0  0  0  0  0  0  0  0
   69.1193   47.8107   52.7208 C   0  0  0  0  0  0  0  0  0  0  0  0
   68.4616   46.9631   51.8166 C   0  0  0  0  0  0  0  0  0  0  0  0
   67.8606   45.8153   52.2172 C   0  0  0  0  0  0  0  0  0  0  0  0
   67.8912   45.4578   53.5663 C   0  0  0  0  0  0  0  0  0  0  0  0
   67.2914   44.3117   53.9656 F   0  0  0  0  0  0  0  0  0  0  0  0
   68.6056   44.7228   56.2447 O   0  0  0  0  0  0  0  0  0  0  0  0
   68.5745   45.9330   55.9227 C   0  0  0  0  0  0  0  0  0  0  0  0
   68.5879   46.8633   56.9057 O   0  0  0  0  0  0  0  0  0  0  0  0
   68.2308   48.2113   56.8674 C   0  0  0  0  0  0  0  0  0  0  0  0
   69.3104   49.0534   57.4165 C   0  0  0  0  0  0  0  0  0  0  0  0
   69.0648   50.1997   58.1549 C   0  0  0  0  0  0  0  0  0  0  0  0
   70.0784   50.9698   58.6708 C   0  0  0  0  0  0  0  0  0  0  0  0
   71.3721   50.6163   58.4620 N   0  0  0  0  0  0  0  0  0  0  0  0
   71.6526   49.5133   57.7510 C   0  0  0  0  0  0  0  0  0  0  0  0
   70.6440   48.7345   57.2306 C   0  0  0  0  0  0  0  0  0  0  0  0
   69.7327   49.0534   52.1693 C   0  0  0  0  0  0  0  0  0  0  0  0
   70.4955   49.8394   53.1249 C   0  0  0  0  0  0  0  0  0  0  0  0
   71.8420   49.6191   53.2218 N   0  0  0  0  0  0  0  0  0  0  0  0
   72.6534   50.2650   53.9961 N   0  0  0  0  0  0  0  0  0  0  0  0
   72.2047   51.2468   54.7967 C   0  0  0  0  0  0  0  0  0  0  0  0
   73.0373   51.8394   55.5270 O   0  0  0  0  0  0  0  0  0  0  0  0
   70.8798   51.5361   54.7682 C   0  0  0  0  0  0  0  0  0  0  0  0
   70.3676   52.5197   55.5738 C   0  0  0  0  0  0  0  0  0  0  0  0
   69.0247   52.8363   55.5825 C   0  0  0  0  0  0  0  0  0  0  0  0
   68.1911   52.1184   54.7405 C   0  0  0  0  0  0  0  0  0  0  0  0
   68.6951   51.1259   53.9265 C   0  0  0  0  0  0  0  0  0  0  0  0
   70.0210   50.8365   53.9361 C   0  0  0  0  0  0  0  0  0  0  0  0
  8  9  2  0
  9 10  1  0
  9  1  1  0
 10 11  1  0
 11 12  1  0
 12 13  2  0
 12 17  1  0
 13 14  1  0
 14 15  2  0
 15 16  1  0
 16 17  2  0
  1  2  2  0
  1  6  1  0
  2  3  1  0
  3 18  1  0
  3  4  2  0
 18 19  1  0
 19 20  2  0
 19 29  1  0
 20 21  1  0
 21 22  1  0
 22 23  2  0
 22 24  1  0
 24 25  1  0
 24 29  2  0
 25 26  2  0
 26 27  1  0
 27 28  2  0
 28 29  1  0
  4  5  1  0
  5  6  2  0
  6  7  1  0
M  END
>  <minimizedAffinity>  (291) 
-9.32600

$$$$
cs_full_output_folder/data/smiles/3117.pdb
     RDKit          3D

 25 27  0  0  0  0  0  0  0  0999 V2000
   68.4883   44.5658   55.8885 N   0  0  0  0  0  0  0  0  0  0  0  0
   69.0341   43.8791   57.0009 C   0  0  0  0  0  0  0  0  0  0  0  0
   69.6345   44.5437   57.8723 O   0  0  0  0  0  0  0  0  0  0  0  0
   68.9276   42.4331   57.1731 C   0  0  0  0  0  0  0  0  0  0  0  0
   67.9694   41.5927   56.6055 C   0  0  0  0  0  0  0  0  0  0  0  0
   68.2207   40.3327   57.0133 N   0  0  0  0  0  0  0  0  0  0  0  0
   69.2799   40.3063   57.8076 N   0  0  0  0  0  0  0  0  0  0  0  0
   69.7162   41.5755   57.9124 C   0  0  0  0  0  0  0  0  0  0  0  0
   71.1017   42.0901   58.8555 Cl  0  0  0  0  0  0  0  0  0  0  0  0
   69.7966   39.1184   58.4018 C   0  0  0  0  0  0  0  0  0  0  0  0
   69.0989   38.3632   59.3240 C   0  0  0  0  0  0  0  0  0  0  0  0
   69.6348   37.2108   59.8826 C   0  0  0  0  0  0  0  0  0  0  0  0
   70.8958   36.7713   59.5359 C   0  0  0  0  0  0  0  0  0  0  0  0
   71.5970   37.5185   58.6174 C   0  0  0  0  0  0  0  0  0  0  0  0
   71.0589   38.6622   58.0668 C   0  0  0  0  0  0  0  0  0  0  0  0
   68.5538   45.9848   55.6548 C   0  0  0  0  0  0  0  0  0  0  0  0
   69.2807   47.7232   52.4216 C   0  0  0  0  0  0  0  0  0  0  0  0
   69.3200   47.4063   53.7687 C   0  0  0  0  0  0  0  0  0  0  0  0
   68.5594   46.3677   54.2262 C   0  0  0  0  0  0  0  0  0  0  0  0
   67.7819   45.6789   53.3126 C   0  0  0  0  0  0  0  0  0  0  0  0
   67.7803   46.0331   51.9991 C   0  0  0  0  0  0  0  0  0  0  0  0
   68.5255   47.0510   51.5480 N   0  0  0  0  0  0  0  0  0  0  0  0
   71.2128   49.2103   52.8019 N   0  0  0  0  0  0  0  0  0  0  0  0
   70.1092   48.8373   51.9921 C   0  0  0  0  0  0  0  0  0  0  0  0
   69.9049   49.4856   50.9511 O   0  0  0  0  0  0  0  0  0  0  0  0
 23 24  1  0
 24 25  2  0
 24 17  1  0
 17 18  2  0
 17 22  1  0
 18 19  1  0
 19 16  1  0
 19 20  2  0
 16  1  1  0
  1  2  1  0
  2  3  2  0
  2  4  1  0
  4  5  1  0
  4  8  2  0
  5  6  2  0
  6  7  1  0
  7 10  1  0
  7  8  1  0
 10 11  2  0
 10 15  1  0
 11 12  1  0
 12 13  2  0
 13 14  1  0
 14 15  2  0
  8  9  1  0
 20 21  1  0
 21 22  2  0
M  END
>  <minimizedAffinity>  (292) 
-9.32409

$$$$
cs_full_output_folder/data/smiles/4185.pdb
     RDKit          3D

 26 27  0  0  0  0  0  0  0  0999 V2000
   70.7192   45.9484   58.5027 C   0  0  0  0  0  0  0  0  0  0  0  0
   71.6365   47.0278   59.3047 S   0  0  0  0  0  0  0  0  0  0  0  0
   70.4140   43.5430   58.9339 C   0  0  0  0  0  0  0  0  0  0  0  0
   69.4199   43.8896   59.6380 O   0  0  0  0  0  0  0  0  0  0  0  0
   71.1322   44.5961   58.3140 N   0  0  0  0  0  0  0  0  0  0  0  0
   71.3668   39.3883   58.4788 C   0  0  0  0  0  0  0  0  0  0  0  0
   70.0741   39.8544   58.4828 C   0  0  0  0  0  0  0  0  0  0  0  0
   69.7704   41.1853   58.6283 C   0  0  0  0  0  0  0  0  0  0  0  0
   70.7828   42.1400   58.7823 C   0  0  0  0  0  0  0  0  0  0  0  0
   72.0725   41.6737   58.7778 C   0  0  0  0  0  0  0  0  0  0  0  0
   72.3687   40.3159   58.6291 C   0  0  0  0  0  0  0  0  0  0  0  0
   70.7918   37.1265   59.2895 C   0  0  0  0  0  0  0  0  0  0  0  0
   71.6257   37.9353   58.3165 C   0  0  0  0  0  0  0  0  0  0  0  0
   69.4760   46.3824   57.9829 N   0  0  0  0  0  0  0  0  0  0  0  0
   69.4158   46.7476   56.6339 N   0  0  0  0  0  0  0  0  0  0  0  0
   68.7130   45.9552   55.6986 C   0  0  0  0  0  0  0  0  0  0  0  0
   68.1536   44.9225   56.1298 O   0  0  0  0  0  0  0  0  0  0  0  0
   68.6330   46.3083   54.2930 C   0  0  0  0  0  0  0  0  0  0  0  0
   67.8124   45.6721   53.4113 C   0  0  0  0  0  0  0  0  0  0  0  0
   67.7678   46.0419   52.0761 C   0  0  0  0  0  0  0  0  0  0  0  0
   68.5486   47.0638   51.5900 C   0  0  0  0  0  0  0  0  0  0  0  0
   69.3840   47.7134   52.4773 C   0  0  0  0  0  0  0  0  0  0  0  0
   69.4265   47.3429   53.8115 C   0  0  0  0  0  0  0  0  0  0  0  0
   70.2055   48.7789   51.9992 N   0  0  0  0  0  0  0  0  0  0  0  0
   69.8991   49.4399   50.9906 O   0  0  0  0  0  0  0  0  0  0  0  0
   71.3686   49.1093   52.6474 O   0  0  0  0  0  0  0  0  0  0  0  0
 12 13  1  0
 13  6  1  0
  6  7  2  0
  6 11  1  0
  7  8  1  0
  8  9  2  0
  9  3  1  0
  9 10  1  0
  3  4  2  0
  3  5  1  0
  5  1  1  0
  1  2  2  0
  1 14  1  0
 14 15  1  0
 15 16  1  0
 16 17  2  0
 16 18  1  0
 18 19  2  0
 18 23  1  0
 19 20  1  0
 20 21  2  0
 21 22  1  0
 22 24  1  0
 22 23  2  0
 24 25  2  0
 24 26  1  0
 10 11  2  0
M  CHG  2  24   1  26  -1
M  END
>  <minimizedAffinity>  (293) 
-9.32407

$$$$
cs_full_output_folder/data/smiles/152.pdb
     RDKit          3D

 27 30  0  0  0  0  0  0  0  0999 V2000
   73.8459   50.1279   56.6494 C   0  0  0  0  0  0  0  0  0  0  0  0
   73.0868   49.2525   57.3929 C   0  0  0  0  0  0  0  0  0  0  0  0
   71.7156   49.1589   57.2557 C   0  0  0  0  0  0  0  0  0  0  0  0
   71.0601   49.9804   56.3291 C   0  0  0  0  0  0  0  0  0  0  0  0
   71.8507   50.8360   55.6096 C   0  0  0  0  0  0  0  0  0  0  0  0
   73.1961   50.9056   55.7667 N   0  0  0  0  0  0  0  0  0  0  0  0
   75.6593   49.3967   54.6928 O   0  0  0  0  0  0  0  0  0  0  0  0
   76.1653   49.8777   55.7499 C   0  0  0  0  0  0  0  0  0  0  0  0
   75.2553   50.2564   56.7597 N   0  0  0  0  0  0  0  0  0  0  0  0
   77.6049   49.9910   55.8197 C   0  0  0  0  0  0  0  0  0  0  0  0
   78.1972   51.0922   56.3829 C   0  0  0  0  0  0  0  0  0  0  0  0
   79.5812   51.2243   56.4632 C   0  0  0  0  0  0  0  0  0  0  0  0
   80.3944   50.2266   55.9653 C   0  0  0  0  0  0  0  0  0  0  0  0
   79.8185   49.1149   55.3967 C   0  0  0  0  0  0  0  0  0  0  0  0
   78.4400   49.0093   55.3305 C   0  0  0  0  0  0  0  0  0  0  0  0
   69.5944   49.8610   56.1483 C   0  0  0  0  0  0  0  0  0  0  0  0
   69.1183   48.5585   55.7090 C   0  0  0  0  0  0  0  0  0  0  0  0
   68.6673   47.6998   56.6721 N   0  0  0  0  0  0  0  0  0  0  0  0
   68.2125   46.4981   56.3720 N   0  0  0  0  0  0  0  0  0  0  0  0
   68.1700   46.0548   55.1092 C   0  0  0  0  0  0  0  0  0  0  0  0
   67.7289   44.8957   54.8345 O   0  0  0  0  0  0  0  0  0  0  0  0
   68.6113   46.8688   54.0698 C   0  0  0  0  0  0  0  0  0  0  0  0
   69.0884   48.1453   54.4126 C   0  0  0  0  0  0  0  0  0  0  0  0
   69.4907   49.0514   53.3465 C   0  0  0  0  0  0  0  0  0  0  0  0
   69.7234   48.4485   52.0030 C   0  0  0  0  0  0  0  0  0  0  0  0
   69.1776   47.1062   51.7589 C   0  0  0  0  0  0  0  0  0  0  0  0
   68.6717   46.3877   52.7176 C   0  0  0  0  0  0  0  0  0  0  0  0
  7  8  2  0
  8  9  1  0
  8 10  1  0
  9  1  1  0
  1  2  2  0
  1  6  1  0
  2  3  1  0
  3  4  2  0
  4 16  1  0
  4  5  1  0
 16 17  1  0
 17 18  2  0
 17 23  1  0
 18 19  1  0
 19 20  1  0
 20 21  2  0
 20 22  1  0
 22 23  2  0
 22 27  1  0
 23 24  1  0
 24 25  1  0
 25 26  1  0
 26 27  2  0
  5  6  2  0
 10 11  2  0
 10 15  1  0
 11 12  1  0
 12 13  2  0
 13 14  1  0
 14 15  2  0
M  END
>  <minimizedAffinity>  (294) 
-9.31884

$$$$
cs_full_output_folder/data/smiles/2573.pdb
     RDKit          3D

 28 31  0  0  0  0  0  0  0  0999 V2000
   71.5490   47.2172   58.9580 C   0  0  0  0  0  0  0  0  0  0  0  0
   70.6185   47.9472   58.1876 C   0  0  0  0  0  0  0  0  0  0  0  0
   69.7807   47.3727   57.2850 C   0  0  0  0  0  0  0  0  0  0  0  0
   69.8923   45.9769   57.1573 C   0  0  0  0  0  0  0  0  0  0  0  0
   70.7859   45.2345   57.8913 C   0  0  0  0  0  0  0  0  0  0  0  0
   71.6100   45.8688   58.7894 C   0  0  0  0  0  0  0  0  0  0  0  0
   72.5171   45.1992   59.5498 F   0  0  0  0  0  0  0  0  0  0  0  0
   73.8518   50.5365   56.1245 C   0  0  0  0  0  0  0  0  0  0  0  0
   73.7695   50.3423   57.6302 C   0  0  1  0  0  0  0  0  0  0  0  0
   73.6211   48.8728   57.9733 C   0  0  0  0  0  0  0  0  0  0  0  0
   73.4219   48.7724   59.4052 N   0  0  0  0  0  0  0  0  0  0  0  0
   72.3908   47.9385   59.8941 C   0  0  0  0  0  0  0  0  0  0  0  0
   72.2123   47.8275   61.1176 O   0  0  0  0  0  0  0  0  0  0  0  0
   74.2761   49.5262   60.2846 C   0  0  0  0  0  0  0  0  0  0  0  0
   74.7997   50.7925   59.7012 C   0  0  0  0  0  0  0  0  0  0  0  0
   74.9748   50.7923   58.2761 N   0  0  0  0  0  0  0  0  0  0  0  0
   68.7752   48.0633   56.4510 C   0  0  0  0  0  0  0  0  0  0  0  0
   69.2296   48.1197   55.0738 C   0  0  0  0  0  0  0  0  0  0  0  0
   70.1930   49.0570   54.8004 N   0  0  0  0  0  0  0  0  0  0  0  0
   70.6788   49.2780   53.5997 N   0  0  0  0  0  0  0  0  0  0  0  0
   70.2494   48.5835   52.5406 C   0  0  0  0  0  0  0  0  0  0  0  0
   70.7096   48.7859   51.3675 O   0  0  0  0  0  0  0  0  0  0  0  0
   69.2882   47.6255   52.7170 C   0  0  0  0  0  0  0  0  0  0  0  0
   68.8232   46.8676   51.6703 C   0  0  0  0  0  0  0  0  0  0  0  0
   67.8629   45.8845   51.8640 C   0  0  0  0  0  0  0  0  0  0  0  0
   67.3907   45.6929   53.1479 C   0  0  0  0  0  0  0  0  0  0  0  0
   67.8428   46.4387   54.2009 C   0  0  0  0  0  0  0  0  0  0  0  0
   68.7929   47.4121   54.0020 C   0  0  0  0  0  0  0  0  0  0  0  0
  9  8  1  6
  9 10  1  0
  9 16  1  0
 10 11  1  0
 11 12  1  0
 11 14  1  0
 12 13  2  0
 12  1  1  0
  1  2  2  0
  1  6  1  0
  2  3  1  0
  3 17  1  0
  3  4  2  0
 17 18  1  0
 18 19  2  0
 18 28  1  0
 19 20  1  0
 20 21  1  0
 21 22  2  0
 21 23  1  0
 23 24  1  0
 23 28  2  0
 24 25  2  0
 25 26  1  0
 26 27  2  0
 27 28  1  0
  4  5  1  0
  5  6  2  0
  6  7  1  0
 14 15  1  0
 15 16  1  0
M  CHG  1  16   1
M  END
>  <minimizedAffinity>  (295) 
-9.31712

$$$$
cs_full_output_folder/data/smiles/9174.pdb
     RDKit          3D

 25 27  0  0  0  0  0  0  0  0999 V2000
   70.0908   49.1817   52.5111 S   0  0  0  0  0  0  0  0  0  0  0  0
   71.5216   49.2184   53.0427 O   0  0  0  0  0  0  0  0  0  0  0  0
   70.2469   48.9456   51.0271 O   0  0  0  0  0  0  0  0  0  0  0  0
   69.3195   47.8295   53.2363 C   0  0  0  0  0  0  0  0  0  0  0  0
   68.6502   46.9070   52.4368 C   0  0  0  0  0  0  0  0  0  0  0  0
   68.6123   47.0807   51.0894 F   0  0  0  0  0  0  0  0  0  0  0  0
   68.0196   45.8143   52.9593 C   0  0  0  0  0  0  0  0  0  0  0  0
   67.3679   44.9154   52.1753 F   0  0  0  0  0  0  0  0  0  0  0  0
   68.0682   45.6511   54.3298 C   0  0  0  0  0  0  0  0  0  0  0  0
   67.4657   44.5922   54.9218 F   0  0  0  0  0  0  0  0  0  0  0  0
   68.7208   46.5501   55.1254 C   0  0  0  0  0  0  0  0  0  0  0  0
   68.7661   46.3842   56.4830 F   0  0  0  0  0  0  0  0  0  0  0  0
   69.3565   47.6471   54.6238 C   0  0  0  0  0  0  0  0  0  0  0  0
   70.0163   48.5657   55.3641 F   0  0  0  0  0  0  0  0  0  0  0  0
   69.3237   50.6924   52.7933 N   0  0  0  0  0  0  0  0  0  0  0  0
   73.9097   52.9283   54.1731 O   0  0  0  0  0  0  0  0  0  0  0  0
   72.7118   52.7208   54.5332 C   0  0  0  0  0  0  0  0  0  0  0  0
   72.0966   53.1163   55.6603 N   0  0  0  0  0  0  0  0  0  0  0  0
   70.8407   52.6469   55.5664 C   0  0  0  0  0  0  0  0  0  0  0  0
   69.7871   52.7652   56.4478 C   0  0  0  0  0  0  0  0  0  0  0  0
   68.5901   52.1803   56.0978 C   0  0  0  0  0  0  0  0  0  0  0  0
   68.4171   51.4822   54.8951 C   0  0  0  0  0  0  0  0  0  0  0  0
   69.4624   51.3672   54.0273 C   0  0  0  0  0  0  0  0  0  0  0  0
   70.6793   51.9626   54.3826 C   0  0  0  0  0  0  0  0  0  0  0  0
   71.8503   52.0210   53.7599 N   0  0  0  0  0  0  0  0  0  0  0  0
 16 17  2  0
 17 18  1  0
 17 25  1  0
 18 19  1  0
 19 20  2  0
 19 24  1  0
 20 21  1  0
 21 22  2  0
 22 23  1  0
 23 15  1  0
 23 24  2  0
 15  1  1  0
  1  2  2  0
  1  3  2  0
  1  4  1  0
  4  5  2  0
  4 13  1  0
  5  6  1  0
  5  7  1  0
  7  8  1  0
  7  9  2  0
  9 10  1  0
  9 11  1  0
 11 12  1  0
 11 13  2  0
 13 14  1  0
 24 25  1  0
M  CHG  1  18   1
M  END
>  <minimizedAffinity>  (296) 
-9.31661

$$$$
cs_full_output_folder/data/smiles/5466.pdb
     RDKit          3D

 28 31  0  0  0  0  0  0  0  0999 V2000
   70.6909   44.9734   58.0189 C   0  0  0  0  0  0  0  0  0  0  0  0
   71.9669   45.2446   58.5000 C   0  0  0  0  0  0  0  0  0  0  0  0
   72.4479   46.5358   58.5576 C   0  0  0  0  0  0  0  0  0  0  0  0
   71.6976   47.6165   58.1458 C   0  0  0  0  0  0  0  0  0  0  0  0
   70.4297   47.3612   57.6664 C   0  0  0  0  0  0  0  0  0  0  0  0
   69.9491   46.0614   57.6107 C   0  0  0  0  0  0  0  0  0  0  0  0
   71.7659   42.4911   59.3652 O   0  0  0  0  0  0  0  0  0  0  0  0
   70.7598   42.5127   58.6148 C   0  0  0  0  0  0  0  0  0  0  0  0
   69.9871   41.3070   58.3104 C   0  0  0  0  0  0  0  0  0  0  0  0
   70.1200   39.9924   58.7019 C   0  0  0  0  0  0  0  0  0  0  0  0
   69.2507   39.0126   58.2744 C   0  0  0  0  0  0  0  0  0  0  0  0
   68.2190   39.3911   57.4263 C   0  0  0  0  0  0  0  0  0  0  0  0
   68.0924   40.7129   57.0386 C   0  0  0  0  0  0  0  0  0  0  0  0
   68.9684   41.6987   57.4691 C   0  0  0  0  0  0  0  0  0  0  0  0
   69.0812   43.1337   57.2330 C   0  0  0  0  0  0  0  0  0  0  0  0
   68.3052   43.7981   56.5099 O   0  0  0  0  0  0  0  0  0  0  0  0
   70.2062   43.6392   57.9547 N   0  0  0  0  0  0  0  0  0  0  0  0
   69.6138   48.5034   57.2060 C   0  0  0  0  0  0  0  0  0  0  0  0
   68.4306   48.0179   56.4270 C   0  0  0  0  0  0  0  0  0  0  0  0
   68.7209   47.7603   54.9993 C   0  0  0  0  0  0  0  0  0  0  0  0
   69.5731   48.5730   54.2897 C   0  0  0  0  0  0  0  0  0  0  0  0
   69.8530   48.3326   52.9430 C   0  0  0  0  0  0  0  0  0  0  0  0
   70.7171   49.1744   52.2654 O   0  0  0  0  0  0  0  0  0  0  0  0
   69.2609   47.2589   52.3172 C   0  0  0  0  0  0  0  0  0  0  0  0
   69.5479   47.0277   50.9711 O   0  0  0  0  0  0  0  0  0  0  0  0
   68.4095   46.4400   53.0094 C   0  0  0  0  0  0  0  0  0  0  0  0
   67.8191   45.3549   52.3532 O   0  0  0  0  0  0  0  0  0  0  0  0
   68.1464   46.6958   54.3397 C   0  0  0  0  0  0  0  0  0  0  0  0
  7  8  2  0
  8  9  1  0
  8 17  1  0
  9 10  2  0
  9 14  1  0
 10 11  1  0
 11 12  2  0
 12 13  1  0
 13 14  2  0
 14 15  1  0
 15 16  2  0
 15 17  1  0
 17  1  1  0
  1  2  2  0
  1  6  1  0
  2  3  1  0
  3  4  2  0
  4  5  1  0
  5 18  1  0
  5  6  2  0
 18 19  1  0
 19 20  1  0
 20 21  2  0
 20 28  1  0
 21 22  1  0
 22 23  1  0
 22 24  2  0
 24 25  1  0
 24 26  1  0
 26 27  1  0
 26 28  2  0
M  END
>  <minimizedAffinity>  (297) 
-9.31642

$$$$
cs_full_output_folder/data/smiles/1621.pdb
     RDKit          3D

 29 32  0  0  0  0  0  0  0  0999 V2000
   71.4489   44.8872   58.2796 C   0  0  0  0  0  0  0  0  0  0  0  0
   72.2598   45.6352   59.0860 C   0  0  0  0  0  0  0  0  0  0  0  0
   72.0561   47.0081   59.2606 C   0  0  0  0  0  0  0  0  0  0  0  0
   70.9881   47.5821   58.5759 C   0  0  0  0  0  0  0  0  0  0  0  0
   70.1491   46.8438   57.7507 C   0  0  0  0  0  0  0  0  0  0  0  0
   70.4107   45.5244   57.6337 C   0  0  0  0  0  0  0  0  0  0  0  0
   70.1464   42.9952   59.7198 O   0  0  0  0  0  0  0  0  0  0  0  0
   70.9310   42.5128   58.8241 C   0  0  0  0  0  0  0  0  0  0  0  0
   71.6082   43.4944   58.0733 N   0  0  0  0  0  0  0  0  0  0  0  0
   71.0173   41.0796   58.7033 C   0  0  0  0  0  0  0  0  0  0  0  0
   69.8479   40.3219   58.5432 C   0  0  0  0  0  0  0  0  0  0  0  0
   69.8711   38.9561   58.4136 C   0  0  0  0  0  0  0  0  0  0  0  0
   71.0458   38.2409   58.4320 C   0  0  0  0  0  0  0  0  0  0  0  0
   71.0784   36.8885   58.3048 F   0  0  0  0  0  0  0  0  0  0  0  0
   72.2049   38.9603   58.5873 C   0  0  0  0  0  0  0  0  0  0  0  0
   72.1766   40.3565   58.7196 C   0  0  0  0  0  0  0  0  0  0  0  0
   73.3570   40.9894   58.8747 F   0  0  0  0  0  0  0  0  0  0  0  0
   69.0708   47.5602   57.0473 C   0  0  0  0  0  0  0  0  0  0  0  0
   68.7322   46.9856   55.7529 C   0  0  0  0  0  0  0  0  0  0  0  0
   68.0735   45.7950   55.7564 N   0  0  0  0  0  0  0  0  0  0  0  0
   67.7492   45.1686   54.6426 N   0  0  0  0  0  0  0  0  0  0  0  0
   68.0643   45.6963   53.4536 C   0  0  0  0  0  0  0  0  0  0  0  0
   67.7272   45.0466   52.4029 O   0  0  0  0  0  0  0  0  0  0  0  0
   68.7313   46.8979   53.3561 C   0  0  0  0  0  0  0  0  0  0  0  0
   69.0603   47.5383   54.5512 C   0  0  0  0  0  0  0  0  0  0  0  0
   69.7280   48.8300   54.4877 C   0  0  0  0  0  0  0  0  0  0  0  0
   70.4449   49.0584   53.1685 C   0  0  0  0  0  0  0  0  0  0  0  0
   69.4992   48.7964   52.0124 C   0  0  0  0  0  0  0  0  0  0  0  0
   69.0326   47.3844   52.0113 C   0  0  0  0  0  0  0  0  0  0  0  0
  7  8  2  0
  8  9  1  0
  8 10  1  0
  9  1  1  0
  1  2  2  0
  1  6  1  0
  2  3  1  0
  3  4  2  0
  4  5  1  0
  5 18  1  0
  5  6  2  0
 18 19  1  0
 19 20  2  0
 19 25  1  0
 20 21  1  0
 21 22  1  0
 22 23  2  0
 22 24  1  0
 24 25  2  0
 24 29  1  0
 25 26  1  0
 26 27  1  0
 27 28  1  0
 28 29  1  0
 10 11  2  0
 10 16  1  0
 11 12  1  0
 12 13  2  0
 13 14  1  0
 13 15  1  0
 15 16  2  0
 16 17  1  0
M  END
>  <minimizedAffinity>  (298) 
-9.31546

$$$$
cs_full_output_folder/data/smiles/3332.pdb
     RDKit          3D

 29 32  0  0  0  0  0  0  0  0999 V2000
   71.4233   47.2976   58.7773 C   0  0  0  0  0  0  0  0  0  0  0  0
   70.5683   47.9785   57.9677 C   0  0  0  0  0  0  0  0  0  0  0  0
   69.6690   47.3693   57.0790 C   0  0  0  0  0  0  0  0  0  0  0  0
   69.6764   46.0043   57.0490 C   0  0  0  0  0  0  0  0  0  0  0  0
   70.5278   45.2521   57.8539 C   0  0  0  0  0  0  0  0  0  0  0  0
   71.3859   45.9082   58.7048 C   0  0  0  0  0  0  0  0  0  0  0  0
   72.2009   45.1530   59.4746 F   0  0  0  0  0  0  0  0  0  0  0  0
   76.1424   47.8275   61.2906 C   0  0  0  0  0  0  0  0  0  0  0  0
   75.8223   48.7187   60.0839 C   0  0  1  0  0  0  0  0  0  0  0  0
   76.7323   49.7542   60.1166 F   0  0  0  0  0  0  0  0  0  0  0  0
   75.9889   47.8474   58.8581 C   0  0  0  0  0  0  0  0  0  0  0  0
   75.3620   48.5179   57.6404 C   0  0  0  0  0  0  0  0  0  0  0  0
   73.8722   48.6810   57.8290 C   0  0  0  0  0  0  0  0  0  0  0  0
   73.5243   48.6190   59.2369 N   0  0  0  0  0  0  0  0  0  0  0  0
   72.3424   47.9500   59.6870 C   0  0  0  0  0  0  0  0  0  0  0  0
   72.1086   47.9399   60.9218 O   0  0  0  0  0  0  0  0  0  0  0  0
   74.4337   49.2677   60.1617 C   0  0  0  0  0  0  0  0  0  0  0  0
   68.7981   48.2000   56.2128 C   0  0  0  0  0  0  0  0  0  0  0  0
   69.2581   48.3035   54.8128 C   0  0  0  0  0  0  0  0  0  0  0  0
   70.1726   49.2743   54.4759 N   0  0  0  0  0  0  0  0  0  0  0  0
   70.5728   49.4282   53.2291 N   0  0  0  0  0  0  0  0  0  0  0  0
   70.1047   48.6461   52.2422 C   0  0  0  0  0  0  0  0  0  0  0  0
   70.5292   48.8497   51.0766 O   0  0  0  0  0  0  0  0  0  0  0  0
   69.1789   47.6381   52.4873 C   0  0  0  0  0  0  0  0  0  0  0  0
   68.7296   46.8475   51.4562 C   0  0  0  0  0  0  0  0  0  0  0  0
   67.8237   45.8525   51.7556 C   0  0  0  0  0  0  0  0  0  0  0  0
   67.4028   45.6842   53.0595 C   0  0  0  0  0  0  0  0  0  0  0  0
   67.8647   46.4883   54.0786 C   0  0  0  0  0  0  0  0  0  0  0  0
   68.7702   47.4946   53.8189 C   0  0  0  0  0  0  0  0  0  0  0  0
  9  8  1  1
  9 10  1  0
  9 11  1  0
  9 17  1  0
 11 12  1  0
 12 13  1  0
 13 14  1  0
 14 15  1  0
 14 17  1  0
 15 16  2  0
 15  1  1  0
  1  2  2  0
  1  6  1  0
  2  3  1  0
  3 18  1  0
  3  4  2  0
 18 19  1  0
 19 20  2  0
 19 29  1  0
 20 21  1  0
 21 22  1  0
 22 23  2  0
 22 24  1  0
 24 25  1  0
 24 29  2  0
 25 26  2  0
 26 27  1  0
 27 28  2  0
 28 29  1  0
  4  5  1  0
  5  6  2  0
  6  7  1  0
M  END
>  <minimizedAffinity>  (299) 
-9.31399

$$$$
cs_full_output_folder/data/smiles/3337.pdb
     RDKit          3D

 29 32  0  0  0  0  0  0  0  0999 V2000
   71.3674   46.7332   58.8758 C   0  0  0  0  0  0  0  0  0  0  0  0
   70.6301   47.5954   58.1121 C   0  0  0  0  0  0  0  0  0  0  0  0
   69.7621   47.1375   57.1204 C   0  0  0  0  0  0  0  0  0  0  0  0
   69.6504   45.7861   56.9117 C   0  0  0  0  0  0  0  0  0  0  0  0
   70.3935   44.8870   57.6802 C   0  0  0  0  0  0  0  0  0  0  0  0
   71.2391   45.3798   58.6492 C   0  0  0  0  0  0  0  0  0  0  0  0
   71.9739   44.5321   59.4118 F   0  0  0  0  0  0  0  0  0  0  0  0
   75.7336   45.4020   58.9411 C   0  0  0  0  0  0  0  0  0  0  0  0
   76.1926   46.7955   59.3182 C   0  0  0  0  0  0  0  0  0  0  0  0
   77.5667   46.8746   59.2004 F   0  0  0  0  0  0  0  0  0  0  0  0
   75.6040   47.7515   58.3163 C   0  0  0  0  0  0  0  0  0  0  0  0
   74.0971   47.4651   58.2717 C   0  0  0  0  0  0  0  0  0  0  0  0
   73.5993   47.6250   59.6207 N   0  0  0  0  0  0  0  0  0  0  0  0
   72.2607   47.2617   59.8996 C   0  0  0  0  0  0  0  0  0  0  0  0
   71.8039   47.3897   61.0592 O   0  0  0  0  0  0  0  0  0  0  0  0
   74.5197   48.1531   60.6012 C   0  0  0  0  0  0  0  0  0  0  0  0
   75.7172   47.2062   60.6879 C   0  0  0  0  0  0  0  0  0  0  0  0
   68.9976   48.1100   56.2936 C   0  0  0  0  0  0  0  0  0  0  0  0
   69.3698   48.1700   54.8883 C   0  0  0  0  0  0  0  0  0  0  0  0
   70.3313   49.0850   54.5351 N   0  0  0  0  0  0  0  0  0  0  0  0
   70.7396   49.2698   53.3071 N   0  0  0  0  0  0  0  0  0  0  0  0
   70.2436   48.5624   52.2478 C   0  0  0  0  0  0  0  0  0  0  0  0
   70.6409   48.7465   51.0739 O   0  0  0  0  0  0  0  0  0  0  0  0
   69.2726   47.6317   52.5727 C   0  0  0  0  0  0  0  0  0  0  0  0
   68.7362   46.8717   51.5299 C   0  0  0  0  0  0  0  0  0  0  0  0
   67.7742   45.9229   51.8001 C   0  0  0  0  0  0  0  0  0  0  0  0
   67.3480   45.7291   53.0857 C   0  0  0  0  0  0  0  0  0  0  0  0
   67.8937   46.4978   54.1211 C   0  0  0  0  0  0  0  0  0  0  0  0
   68.8500   47.4431   53.8639 C   0  0  0  0  0  0  0  0  0  0  0  0
  8  9  1  0
  9 10  1  0
  9 11  1  0
  9 17  1  0
 11 12  1  0
 12 13  1  0
 13 14  1  0
 13 16  1  0
 14 15  2  0
 14  1  1  0
  1  2  2  0
  1  6  1  0
  2  3  1  0
  3 18  1  0
  3  4  2  0
 18 19  1  0
 19 20  2  0
 19 29  1  0
 20 21  1  0
 21 22  1  0
 22 23  2  0
 22 24  1  0
 24 25  1  0
 24 29  2  0
 25 26  2  0
 26 27  1  0
 27 28  2  0
 28 29  1  0
  4  5  1  0
  5  6  2  0
  6  7  1  0
 16 17  1  0
M  END
>  <minimizedAffinity>  (300) 
-9.31397

$$$$
cs_full_output_folder/data/smiles/1256.pdb
     RDKit          3D

 29 32  0  0  0  0  0  0  0  0999 V2000
   71.5105   47.2510   58.8807 C   0  0  0  0  0  0  0  0  0  0  0  0
   70.6440   47.9280   58.0693 C   0  0  0  0  0  0  0  0  0  0  0  0
   69.8044   47.2759   57.1609 C   0  0  0  0  0  0  0  0  0  0  0  0
   69.8676   45.9086   57.1014 C   0  0  0  0  0  0  0  0  0  0  0  0
   70.7409   45.1785   57.9142 C   0  0  0  0  0  0  0  0  0  0  0  0
   71.5386   45.8770   58.7832 C   0  0  0  0  0  0  0  0  0  0  0  0
   72.3896   45.1520   59.5751 F   0  0  0  0  0  0  0  0  0  0  0  0
   77.2926   49.4431   57.3768 C   0  0  0  0  0  0  0  0  0  0  0  0
   76.1329   49.2979   58.3618 C   0  0  1  0  0  0  0  0  0  0  0  0
   75.2814   48.1637   57.8621 C   0  0  0  0  0  0  0  0  0  0  0  0
   73.8189   48.5907   58.0418 C   0  0  0  0  0  0  0  0  0  0  0  0
   73.5810   48.5671   59.4714 N   0  0  0  0  0  0  0  0  0  0  0  0
   72.3982   47.8755   59.8323 C   0  0  0  0  0  0  0  0  0  0  0  0
   72.1052   47.8009   61.0559 O   0  0  0  0  0  0  0  0  0  0  0  0
   74.3990   49.1540   60.4862 C   0  0  0  0  0  0  0  0  0  0  0  0
   75.7920   48.6281   60.5583 C   0  0  0  0  0  0  0  0  0  0  0  0
   76.6527   49.1001   59.6096 O   0  0  0  0  0  0  0  0  0  0  0  0
   68.8570   48.0237   56.3224 C   0  0  0  0  0  0  0  0  0  0  0  0
   69.2443   48.2127   54.9267 C   0  0  0  0  0  0  0  0  0  0  0  0
   70.1527   49.1846   54.5881 N   0  0  0  0  0  0  0  0  0  0  0  0
   70.5718   49.3785   53.3625 N   0  0  0  0  0  0  0  0  0  0  0  0
   70.1460   48.6388   52.3217 C   0  0  0  0  0  0  0  0  0  0  0  0
   70.5686   48.8465   51.1392 O   0  0  0  0  0  0  0  0  0  0  0  0
   69.2308   47.6443   52.5939 C   0  0  0  0  0  0  0  0  0  0  0  0
   68.7757   46.8871   51.5519 C   0  0  0  0  0  0  0  0  0  0  0  0
   67.8534   45.8908   51.7613 C   0  0  0  0  0  0  0  0  0  0  0  0
   67.4054   45.6797   53.0465 C   0  0  0  0  0  0  0  0  0  0  0  0
   67.8507   46.4314   54.1156 C   0  0  0  0  0  0  0  0  0  0  0  0
   68.7800   47.4348   53.9058 C   0  0  0  0  0  0  0  0  0  0  0  0
  9  8  1  6
  9 10  1  0
  9 17  1  0
 10 11  1  0
 11 12  1  0
 12 13  1  0
 12 15  1  0
 13 14  2  0
 13  1  1  0
  1  2  2  0
  1  6  1  0
  2  3  1  0
  3 18  1  0
  3  4  2  0
 18 19  1  0
 19 20  2  0
 19 29  1  0
 20 21  1  0
 21 22  1  0
 22 23  2  0
 22 24  1  0
 24 25  1  0
 24 29  2  0
 25 26  2  0
 26 27  1  0
 27 28  2  0
 28 29  1  0
  4  5  1  0
  5  6  2  0
  6  7  1  0
 15 16  1  0
 16 17  1  0
M  END
>  <minimizedAffinity>  (301) 
-9.31082

$$$$
cs_full_output_folder/data/smiles/1174.pdb
     RDKit          3D

 25 27  0  0  0  0  0  0  0  0999 V2000
   67.7199   40.4010   58.0681 C   0  0  0  0  0  0  0  0  0  0  0  0
   68.9615   41.1824   57.8019 C   0  0  0  0  0  0  0  0  0  0  0  0
   69.0803   42.4218   57.2554 C   0  0  0  0  0  0  0  0  0  0  0  0
   70.4215   42.7801   57.4744 C   0  0  0  0  0  0  0  0  0  0  0  0
   71.0250   41.7292   58.1288 N   0  0  0  0  0  0  0  0  0  0  0  0
   70.1671   40.8074   58.2923 N   0  0  0  0  0  0  0  0  0  0  0  0
   70.3743   39.3383   58.6102 C   0  0  0  0  0  0  0  0  0  0  0  0
   69.6128   38.6022   59.4053 C   0  0  0  0  0  0  0  0  0  0  0  0
   69.9985   37.2413   59.5981 C   0  0  0  0  0  0  0  0  0  0  0  0
   71.1742   36.7037   58.9272 C   0  0  0  0  0  0  0  0  0  0  0  0
   71.5625   34.9930   59.1579 Cl  0  0  0  0  0  0  0  0  0  0  0  0
   71.8903   37.5287   58.1455 C   0  0  0  0  0  0  0  0  0  0  0  0
   71.4557   38.8490   58.0199 C   0  0  0  0  0  0  0  0  0  0  0  0
   68.1359   42.9865   56.2342 C   0  0  0  0  0  0  0  0  0  0  0  0
   67.3880   42.6507   55.4944 O   0  0  0  0  0  0  0  0  0  0  0  0
   68.3217   44.4344   56.2684 N   0  0  0  0  0  0  0  0  0  0  0  0
   68.1555   45.7091   55.8907 N   0  0  0  0  0  0  0  0  0  0  0  0
   68.3445   45.8247   54.4157 C   0  0  0  0  0  0  0  0  0  0  0  0
   67.7581   45.3573   53.4625 C   0  0  0  0  0  0  0  0  0  0  0  0
   67.5649   45.5819   52.0428 C   0  0  0  0  0  0  0  0  0  0  0  0
   68.4151   46.8530   51.8397 C   0  0  0  0  0  0  0  0  0  0  0  0
   68.9996   47.3028   52.7769 C   0  0  0  0  0  0  0  0  0  0  0  0
   69.2147   47.0739   54.1401 C   0  0  0  0  0  0  0  0  0  0  0  0
   69.6066   48.7114   52.3705 C   0  0  0  0  0  0  0  0  0  0  0  0
   70.1038   49.8180   52.0557 N   0  0  0  0  0  0  0  0  0  0  0  0
  1  2  1  0
  2  3  2  0
  2  6  1  0
  3 14  1  0
  3  4  1  0
 14 15  2  0
 14 16  1  0
 16 17  1  0
 17 18  1  0
 18 19  2  0
 18 23  1  0
 19 20  1  0
 20 21  2  0
 21 22  1  0
 22 24  1  0
 22 23  2  0
 24 25  3  0
  4  5  2  0
  5  6  1  0
  6  7  1  0
  7  8  2  0
  7 13  1  0
  8  9  1  0
  9 10  2  0
 10 11  1  0
 10 12  1  0
 12 13  2  0
M  END
>  <minimizedAffinity>  (302) 
-9.31004

$$$$
cs_full_output_folder/data/smiles/62.pdb
     RDKit          3D

 27 29  0  0  0  0  0  0  0  0999 V2000
   68.3261   45.8589   54.0942 C   0  0  0  0  0  0  0  0  0  0  0  0
   67.7737   45.4947   52.9099 C   0  0  0  0  0  0  0  0  0  0  0  0
   67.9426   46.3034   51.8089 C   0  0  0  0  0  0  0  0  0  0  0  0
   68.6747   47.4868   51.9077 C   0  0  0  0  0  0  0  0  0  0  0  0
   69.2469   47.8796   53.0989 C   0  0  0  0  0  0  0  0  0  0  0  0
   69.0587   47.0485   54.1793 C   0  0  0  0  0  0  0  0  0  0  0  0
   67.6984   43.7441   55.3572 N   0  0  0  0  0  0  0  0  0  0  0  0
   68.2043   45.0703   55.3159 C   0  0  0  0  0  0  0  0  0  0  0  0
   68.5543   45.5431   56.4407 O   0  0  0  0  0  0  0  0  0  0  0  0
   67.5445   41.0435   55.4552 O   0  0  0  0  0  0  0  0  0  0  0  0
   67.5237   41.6184   56.5826 C   0  0  0  0  0  0  0  0  0  0  0  0
   67.6035   43.0311   56.5619 N   0  0  0  0  0  0  0  0  0  0  0  0
   67.4218   40.8176   57.8238 C   0  0  0  0  0  0  0  0  0  0  0  0
   66.6942   41.2632   58.8998 C   0  0  0  0  0  0  0  0  0  0  0  0
   66.5946   40.5092   60.0765 C   0  0  0  0  0  0  0  0  0  0  0  0
   67.2496   39.2973   60.1327 C   0  0  0  0  0  0  0  0  0  0  0  0
   67.9793   38.8519   59.0501 C   0  0  0  0  0  0  0  0  0  0  0  0
   68.0527   39.6068   57.9323 C   0  0  0  0  0  0  0  0  0  0  0  0
   70.1530   49.3577   53.1938 S   0  0  0  0  0  0  0  0  0  0  0  0
   69.6963   50.3398   52.1274 O   0  0  0  0  0  0  0  0  0  0  0  0
   71.6258   49.1104   52.8990 O   0  0  0  0  0  0  0  0  0  0  0  0
   70.0512   50.1273   54.7038 N   0  0  0  0  0  0  0  0  0  0  0  0
   68.7468   50.6377   54.9827 C   0  0  0  0  0  0  0  0  0  0  0  0
   68.6274   52.1216   54.7646 C   0  0  0  0  0  0  0  0  0  0  0  0
   69.6797   52.9130   55.4584 C   0  0  0  0  0  0  0  0  0  0  0  0
   70.6754   51.9659   56.0930 C   0  0  0  0  0  0  0  0  0  0  0  0
   71.1280   51.0008   55.0171 C   0  0  0  0  0  0  0  0  0  0  0  0
 10 11  2  0
 11 12  1  0
 11 13  1  0
 12  7  1  0
  7  8  1  0
  8  9  2  0
  8  1  1  0
  1  2  2  0
  1  6  1  0
  2  3  1  0
  3  4  2  0
  4  5  1  0
  5 19  1  0
  5  6  2  0
 19 20  2  0
 19 21  2  0
 19 22  1  0
 22 23  1  0
 22 27  1  0
 23 24  1  0
 24 25  1  0
 25 26  1  0
 26 27  1  0
 13 14  2  0
 13 18  1  0
 14 15  1  0
 15 16  2  0
 16 17  1  0
 17 18  2  0
M  END
>  <minimizedAffinity>  (303) 
-9.30917

$$$$
cs_full_output_folder/data/smiles/1691.pdb
     RDKit          3D

 30 33  0  0  0  0  0  0  0  0999 V2000
   70.6234   44.5359   58.7318 C   0  0  0  0  0  0  0  0  0  0  0  0
   69.6704   44.0270   59.5824 N   0  0  0  0  0  0  0  0  0  0  0  0
   69.7579   42.8778   60.2014 N   0  0  0  0  0  0  0  0  0  0  0  0
   70.8190   42.0714   60.0564 C   0  0  0  0  0  0  0  0  0  0  0  0
   70.8618   40.9629   60.6777 O   0  0  0  0  0  0  0  0  0  0  0  0
   71.8215   42.5037   59.2227 C   0  0  0  0  0  0  0  0  0  0  0  0
   72.9220   41.6975   59.0518 C   0  0  0  0  0  0  0  0  0  0  0  0
   73.9335   42.1225   58.2135 C   0  0  0  0  0  0  0  0  0  0  0  0
   73.8431   43.3338   57.5589 C   0  0  0  0  0  0  0  0  0  0  0  0
   72.7348   44.1614   57.7218 C   0  0  0  0  0  0  0  0  0  0  0  0
   71.7256   43.7377   58.5582 C   0  0  0  0  0  0  0  0  0  0  0  0
   68.6708   42.4921   61.0613 C   0  0  0  0  0  0  0  0  0  0  0  0
   68.7092   42.6308   62.4159 C   0  0  0  0  0  0  0  0  0  0  0  0
   67.6164   42.2335   63.1820 C   0  0  0  0  0  0  0  0  0  0  0  0
   66.4764   41.6939   62.6062 C   0  0  0  0  0  0  0  0  0  0  0  0
   66.4386   41.5534   61.2349 C   0  0  0  0  0  0  0  0  0  0  0  0
   67.5220   41.9488   60.4878 C   0  0  0  0  0  0  0  0  0  0  0  0
   69.2914   46.0116   57.2091 N   0  0  0  0  0  0  0  0  0  0  0  0
   70.3915   45.8284   58.1106 C   0  0  0  0  0  0  0  0  0  0  0  0
   71.0921   46.8163   58.3036 O   0  0  0  0  0  0  0  0  0  0  0  0
   68.9395   47.2048   56.5331 C   0  0  0  0  0  0  0  0  0  0  0  0
   69.3608   48.0171   52.8703 C   0  0  0  0  0  0  0  0  0  0  0  0
   68.7273   46.9167   52.3322 C   0  0  0  0  0  0  0  0  0  0  0  0
   68.1726   45.9341   53.1122 C   0  0  0  0  0  0  0  0  0  0  0  0
   68.2376   46.0276   54.4949 C   0  0  0  0  0  0  0  0  0  0  0  0
   68.8629   47.1132   55.0587 C   0  0  0  0  0  0  0  0  0  0  0  0
   69.4113   48.0865   54.2377 C   0  0  0  0  0  0  0  0  0  0  0  0
   69.9341   50.4307   52.3211 N   0  0  0  0  0  0  0  0  0  0  0  0
   69.9464   49.0527   52.0115 C   0  0  0  0  0  0  0  0  0  0  0  0
   70.4871   48.6831   50.9447 O   0  0  0  0  0  0  0  0  0  0  0  0
 28 29  1  0
 29 30  2  0
 29 22  1  0
 22 23  2  0
 22 27  1  0
 23 24  1  0
 24 25  2  0
 25 26  1  0
 26 21  1  0
 26 27  2  0
 21 18  1  0
 18 19  1  0
 19 20  2  0
 19  1  1  0
  1  2  2  0
  1 11  1  0
  2  3  1  0
  3 12  1  0
  3  4  1  0
 12 13  2  0
 12 17  1  0
 13 14  1  0
 14 15  2  0
 15 16  1  0
 16 17  2  0
  4  5  2  0
  4  6  1  0
  6  7  1  0
  6 11  2  0
  7  8  2  0
  8  9  1  0
  9 10  2  0
 10 11  1  0
M  END
>  <minimizedAffinity>  (304) 
-9.30708

$$$$
cs_full_output_folder/data/smiles/911.pdb
     RDKit          3D

 25 27  0  0  0  0  0  0  0  0999 V2000
   70.3969   39.4034   58.8755 C   0  0  0  0  0  0  0  0  0  0  0  0
   71.1372   40.5589   58.7375 C   0  0  0  0  0  0  0  0  0  0  0  0
   70.6378   41.6667   58.0493 C   0  0  0  0  0  0  0  0  0  0  0  0
   69.3797   41.6385   57.4816 C   0  0  0  0  0  0  0  0  0  0  0  0
   68.6522   40.4734   57.6290 C   0  0  0  0  0  0  0  0  0  0  0  0
   69.1479   39.3778   58.3106 C   0  0  0  0  0  0  0  0  0  0  0  0
   67.4128   40.6987   56.9655 N   0  0  0  0  0  0  0  0  0  0  0  0
   67.4646   41.9104   56.1815 C   0  0  0  0  0  0  0  0  0  0  0  0
   68.6231   42.6292   56.7239 C   0  0  0  0  0  0  0  0  0  0  0  0
   68.9052   43.8958   56.5533 N   0  0  0  0  0  0  0  0  0  0  0  0
   71.0051   38.2866   59.6180 C   0  0  0  0  0  0  0  0  0  0  0  0
   71.2028   35.7960   59.7593 C   0  0  0  0  0  0  0  0  0  0  0  0
   71.0802   37.0077   58.8633 C   0  0  0  0  0  0  0  0  0  0  0  0
   72.3277   37.0586   58.0034 C   0  0  0  0  0  0  0  0  0  0  0  0
   68.0388   44.6714   55.7847 N   0  0  0  0  0  0  0  0  0  0  0  0
   68.4564   45.8567   55.1311 C   0  0  0  0  0  0  0  0  0  0  0  0
   68.9627   46.9123   55.8200 C   0  0  0  0  0  0  0  0  0  0  0  0
   69.3708   48.0704   55.1844 C   0  0  0  0  0  0  0  0  0  0  0  0
   69.2699   48.1765   53.8127 C   0  0  0  0  0  0  0  0  0  0  0  0
   68.7578   47.1183   53.0842 C   0  0  0  0  0  0  0  0  0  0  0  0
   68.3585   45.9766   53.7464 C   0  0  0  0  0  0  0  0  0  0  0  0
   69.7900   49.6519   53.0056 S   0  0  0  0  0  0  0  0  0  0  0  0
   69.7919   49.4520   51.3049 N   0  0  0  0  0  0  0  0  0  0  0  0
   68.8959   50.8005   53.3459 O   0  0  0  0  0  0  0  0  0  0  0  0
   71.1826   50.0199   53.4270 O   0  0  0  0  0  0  0  0  0  0  0  0
 12 13  1  0
 13 14  1  0
 13 11  1  0
 11  1  1  0
  1  2  2  0
  1  6  1  0
  2  3  1  0
  3  4  2  0
  4  5  1  0
  4  9  1  0
  5  6  2  0
  5  7  1  0
  7  8  1  0
  8  9  1  0
  9 10  2  0
 10 15  1  0
 15 16  1  0
 16 17  2  0
 16 21  1  0
 17 18  1  0
 18 19  2  0
 19 22  1  0
 19 20  1  0
 22 23  1  0
 22 24  2  0
 22 25  2  0
 20 21  2  0
M  END
>  <minimizedAffinity>  (305) 
-9.30373

$$$$
cs_full_output_folder/data/smiles/2170.pdb
     RDKit          3D

 25 27  0  0  0  0  0  0  0  0999 V2000
   70.2148   43.7351   58.4319 O   0  0  0  0  0  0  0  0  0  0  0  0
   69.4014   43.5378   57.4570 C   0  0  0  0  0  0  0  0  0  0  0  0
   69.0335   44.6462   56.6560 N   0  0  0  0  0  0  0  0  0  0  0  0
   68.9370   42.1784   57.2764 C   0  0  0  0  0  0  0  0  0  0  0  0
   67.9443   41.8940   56.3874 C   0  0  0  0  0  0  0  0  0  0  0  0
   67.5326   40.6005   56.2453 C   0  0  0  0  0  0  0  0  0  0  0  0
   68.0969   39.6278   56.9683 N   0  0  0  0  0  0  0  0  0  0  0  0
   69.0932   39.8613   57.8699 C   0  0  0  0  0  0  0  0  0  0  0  0
   69.5122   41.1633   58.0179 C   0  0  0  0  0  0  0  0  0  0  0  0
   69.6312   38.7237   58.5999 C   0  0  0  0  0  0  0  0  0  0  0  0
   70.8668   38.1904   58.2651 C   0  0  0  0  0  0  0  0  0  0  0  0
   71.4430   37.1257   58.8992 C   0  0  0  0  0  0  0  0  0  0  0  0
   70.7395   36.5490   59.9407 C   0  0  0  0  0  0  0  0  0  0  0  0
   69.5042   37.0554   60.3005 C   0  0  0  0  0  0  0  0  0  0  0  0
   68.9532   38.1442   59.6264 C   0  0  0  0  0  0  0  0  0  0  0  0
   69.5681   45.8847   56.9624 N   0  0  0  0  0  0  0  0  0  0  0  0
   68.8453   47.1842   56.1300 S   0  0  0  0  0  0  0  0  0  0  0  0
   67.4836   47.4067   56.7289 O   0  0  0  0  0  0  0  0  0  0  0  0
   69.6076   48.4826   56.3502 O   0  0  0  0  0  0  0  0  0  0  0  0
   68.6592   46.9423   54.4421 C   0  0  0  0  0  0  0  0  0  0  0  0
   67.9046   45.9406   53.8670 C   0  0  0  0  0  0  0  0  0  0  0  0
   67.8038   45.8120   52.5090 C   0  0  0  0  0  0  0  0  0  0  0  0
   68.4633   46.6950   51.6763 C   0  0  0  0  0  0  0  0  0  0  0  0
   69.2236   47.7051   52.2064 C   0  0  0  0  0  0  0  0  0  0  0  0
   69.3038   47.8052   53.5767 C   0  0  0  0  0  0  0  0  0  0  0  0
  1  2  2  0
  2  3  1  0
  2  4  1  0
  3 16  1  0
 16 17  1  0
 17 18  2  0
 17 19  2  0
 17 20  1  0
 20 21  2  0
 20 25  1  0
 21 22  1  0
 22 23  2  0
 23 24  1  0
 24 25  2  0
  4  5  2  0
  4  9  1  0
  5  6  1  0
  6  7  2  0
  7  8  1  0
  8 10  1  0
  8  9  2  0
 10 11  2  0
 10 15  1  0
 11 12  1  0
 12 13  2  0
 13 14  1  0
 14 15  2  0
M  END
>  <minimizedAffinity>  (306) 
-9.30356

$$$$
cs_full_output_folder/data/smiles/2612.pdb
     RDKit          3D

 27 30  0  0  0  0  0  0  0  0999 V2000
   70.2574   47.9788   57.1722 C   0  0  0  0  0  0  0  0  0  0  0  0
   71.5230   48.3755   57.6303 C   0  0  0  0  0  0  0  0  0  0  0  0
   72.2632   47.6190   58.5103 C   0  0  0  0  0  0  0  0  0  0  0  0
   71.7689   46.4199   58.9781 C   0  0  0  0  0  0  0  0  0  0  0  0
   70.5292   45.9890   58.5551 C   0  0  0  0  0  0  0  0  0  0  0  0
   69.8057   46.7820   57.6622 C   0  0  0  0  0  0  0  0  0  0  0  0
   69.5888   48.8729   56.2335 C   0  0  0  0  0  0  0  0  0  0  0  0
   70.6588   48.3975   50.8800 O   0  0  0  0  0  0  0  0  0  0  0  0
   70.4045   48.4973   52.1089 C   0  0  0  0  0  0  0  0  0  0  0  0
   71.1267   49.2725   52.9359 N   0  0  0  0  0  0  0  0  0  0  0  0
   70.8673   49.3843   54.2355 N   0  0  0  0  0  0  0  0  0  0  0  0
   69.8365   48.7122   54.8246 C   0  0  0  0  0  0  0  0  0  0  0  0
   69.0833   47.9166   54.0151 C   0  0  0  0  0  0  0  0  0  0  0  0
   69.3584   47.7985   52.6391 C   0  0  0  0  0  0  0  0  0  0  0  0
   68.4806   46.9021   51.8412 C   0  0  0  0  0  0  0  0  0  0  0  0
   68.3872   45.6127   52.6694 C   0  0  0  0  0  0  0  0  0  0  0  0
   67.5392   45.9430   53.8538 C   0  0  0  0  0  0  0  0  0  0  0  0
   67.9569   47.1627   54.5985 C   0  0  0  0  0  0  0  0  0  0  0  0
   70.0451   44.7645   59.0469 N   0  0  0  0  0  0  0  0  0  0  0  0
   70.4211   43.2521   58.3076 S   0  0  0  0  0  0  0  0  0  0  0  0
   71.7017   43.3125   57.5410 O   0  0  0  0  0  0  0  0  0  0  0  0
   70.6186   42.2286   59.4079 O   0  0  0  0  0  0  0  0  0  0  0  0
   69.0882   42.7678   57.2635 C   0  0  0  0  0  0  0  0  0  0  0  0
   68.6385   41.4721   57.1571 C   0  0  0  0  0  0  0  0  0  0  0  0
   67.6009   41.5114   56.2536 C   0  0  0  0  0  0  0  0  0  0  0  0
   67.4655   42.8228   55.8520 C   0  0  0  0  0  0  0  0  0  0  0  0
   68.3679   43.5120   56.4793 O   0  0  0  0  0  0  0  0  0  0  0  0
  8  9  2  0
  9 10  1  0
  9 14  1  0
 10 11  1  0
 11 12  2  0
 12  7  1  0
 12 13  1  0
  7  1  1  0
  1  2  2  0
  1  6  1  0
  2  3  1  0
  3  4  2  0
  4  5  1  0
  5 19  1  0
  5  6  2  0
 19 20  1  0
 20 21  2  0
 20 22  2  0
 20 23  1  0
 23 24  2  0
 23 27  1  0
 24 25  1  0
 25 26  2  0
 26 27  1  0
 13 14  2  0
 13 18  1  0
 14 15  1  0
 15 16  1  0
 16 17  1  0
 17 18  1  0
M  END
>  <minimizedAffinity>  (307) 
-9.30214

$$$$
cs_full_output_folder/data/smiles/2444.pdb
     RDKit          3D

 28 31  0  0  0  0  0  0  0  0999 V2000
   70.9338   46.6751   58.6406 C   0  0  0  0  0  0  0  0  0  0  0  0
   70.0161   47.0469   57.6762 C   0  0  0  0  0  0  0  0  0  0  0  0
   69.7822   48.3321   57.2686 C   0  0  0  0  0  0  0  0  0  0  0  0
   70.5623   49.3109   57.9106 C   0  0  0  0  0  0  0  0  0  0  0  0
   71.4910   48.9935   58.8776 C   0  0  0  0  0  0  0  0  0  0  0  0
   71.6721   47.6706   59.2387 C   0  0  0  0  0  0  0  0  0  0  0  0
   72.5824   47.3297   60.1913 F   0  0  0  0  0  0  0  0  0  0  0  0
   71.1263   45.2525   59.0245 C   0  0  1  0  0  0  0  0  0  0  0  0
   69.9029   44.7041   59.3790 O   0  0  0  0  0  0  0  0  0  0  0  0
   73.7816   41.3729   59.7391 C   0  0  0  0  0  0  0  0  0  0  0  0
   73.3739   42.4831   58.8403 C   0  0  0  0  0  0  0  0  0  0  0  0
   73.7374   43.7497   58.9885 C   0  0  0  0  0  0  0  0  0  0  0  0
   73.1998   44.6963   57.9517 C   0  0  0  0  0  0  0  0  0  0  0  0
   71.7658   44.5270   57.9442 N   0  0  1  0  0  0  0  0  0  0  0  0
   71.3198   43.1789   57.8080 C   0  0  0  0  0  0  0  0  0  0  0  0
   72.4914   42.1943   57.6767 C   0  0  0  0  0  0  0  0  0  0  0  0
   68.7904   48.7569   56.2465 C   0  0  0  0  0  0  0  0  0  0  0  0
   69.2420   48.6475   54.8703 C   0  0  0  0  0  0  0  0  0  0  0  0
   70.1421   49.5627   54.3884 N   0  0  0  0  0  0  0  0  0  0  0  0
   70.5793   49.5717   53.1604 N   0  0  0  0  0  0  0  0  0  0  0  0
   70.1827   48.6714   52.2452 C   0  0  0  0  0  0  0  0  0  0  0  0
   70.6168   48.6995   51.0703 O   0  0  0  0  0  0  0  0  0  0  0  0
   69.2814   47.7132   52.6387 C   0  0  0  0  0  0  0  0  0  0  0  0
   68.8612   46.7674   51.7281 C   0  0  0  0  0  0  0  0  0  0  0  0
   67.9697   45.7969   52.1103 C   0  0  0  0  0  0  0  0  0  0  0  0
   67.5262   45.8035   53.3946 C   0  0  0  0  0  0  0  0  0  0  0  0
   67.9503   46.7609   54.3204 C   0  0  0  0  0  0  0  0  0  0  0  0
   68.8315   47.7232   53.9447 C   0  0  0  0  0  0  0  0  0  0  0  0
 10 11  1  0
 11 12  2  0
 11 16  1  0
 12 13  1  0
 14 13  1  1
 14  8  1  0
 14 15  1  0
  8  9  1  6
  8  1  1  0
  1  2  2  0
  1  6  1  0
  2  3  1  0
  3 17  1  0
  3  4  2  0
 17 18  1  0
 18 19  2  0
 18 28  1  0
 19 20  1  0
 20 21  1  0
 21 22  2  0
 21 23  1  0
 23 24  1  0
 23 28  2  0
 24 25  2  0
 25 26  1  0
 26 27  2  0
 27 28  1  0
  4  5  1  0
  5  6  2  0
  6  7  1  0
 15 16  1  0
M  CHG  1  14   1
M  END
>  <minimizedAffinity>  (308) 
-9.29757

$$$$
cs_full_output_folder/data/smiles/6747.pdb
     RDKit          3D

 27 30  0  0  0  0  0  0  0  0999 V2000
   71.4992   47.4558   58.8389 C   0  0  0  0  0  0  0  0  0  0  0  0
   70.6152   48.1041   58.0159 C   0  0  0  0  0  0  0  0  0  0  0  0
   69.7548   47.4325   57.1377 C   0  0  0  0  0  0  0  0  0  0  0  0
   69.8074   46.0669   57.1076 C   0  0  0  0  0  0  0  0  0  0  0  0
   70.6987   45.3931   57.9372 C   0  0  0  0  0  0  0  0  0  0  0  0
   71.5344   46.0766   58.7925 C   0  0  0  0  0  0  0  0  0  0  0  0
   72.4122   45.4155   59.6091 F   0  0  0  0  0  0  0  0  0  0  0  0
   72.2643   48.0301   60.9709 O   0  0  0  0  0  0  0  0  0  0  0  0
   72.3900   48.2047   59.7515 C   0  0  0  0  0  0  0  0  0  0  0  0
   73.3694   49.1042   59.2656 N   0  0  0  0  0  0  0  0  0  0  0  0
   73.5265   49.3180   57.8461 C   0  0  0  0  0  0  0  0  0  0  0  0
   75.0226   49.2667   57.5615 C   0  0  0  0  0  0  0  0  0  0  0  0
   75.5493   50.4142   58.1939 O   0  0  0  0  0  0  0  0  0  0  0  0
   75.5769   50.1771   59.5519 C   0  0  0  0  0  0  0  0  0  0  0  0
   74.2389   49.8363   60.1550 C   0  0  0  0  0  0  0  0  0  0  0  0
   68.8572   48.2081   56.2680 C   0  0  0  0  0  0  0  0  0  0  0  0
   69.2529   48.2777   54.8619 C   0  0  0  0  0  0  0  0  0  0  0  0
   70.1537   49.2444   54.4830 N   0  0  0  0  0  0  0  0  0  0  0  0
   70.5469   49.4228   53.2608 N   0  0  0  0  0  0  0  0  0  0  0  0
   70.1045   48.6728   52.2548 C   0  0  0  0  0  0  0  0  0  0  0  0
   70.4864   48.8488   51.0758 O   0  0  0  0  0  0  0  0  0  0  0  0
   69.1870   47.6561   52.5093 C   0  0  0  0  0  0  0  0  0  0  0  0
   68.7186   46.8564   51.4889 C   0  0  0  0  0  0  0  0  0  0  0  0
   67.8146   45.8471   51.7827 C   0  0  0  0  0  0  0  0  0  0  0  0
   67.4284   45.6940   53.0952 C   0  0  0  0  0  0  0  0  0  0  0  0
   67.8981   46.4989   54.1224 C   0  0  0  0  0  0  0  0  0  0  0  0
   68.7927   47.4996   53.8344 C   0  0  0  0  0  0  0  0  0  0  0  0
  8  9  2  0
  9  1  1  0
  9 10  1  0
  1  2  2  0
  1  6  1  0
  2  3  1  0
  3 16  1  0
  3  4  2  0
 16 17  1  0
 17 18  2  0
 17 27  1  0
 18 19  1  0
 19 20  1  0
 20 21  2  0
 20 22  1  0
 22 23  1  0
 22 27  2  0
 23 24  2  0
 24 25  1  0
 25 26  2  0
 26 27  1  0
  4  5  1  0
  5  6  2  0
  6  7  1  0
 10 11  1  0
 10 15  1  0
 11 12  1  0
 12 13  1  0
 13 14  1  0
 14 15  1  0
M  END
>  <minimizedAffinity>  (309) 
-9.29727

$$$$
cs_full_output_folder/data/smiles/6988.pdb
     RDKit          3D

 28 31  0  0  0  0  0  0  0  0999 V2000
   71.4141   47.2479   58.9182 C   0  0  0  0  0  0  0  0  0  0  0  0
   70.5713   47.9710   58.1117 C   0  0  0  0  0  0  0  0  0  0  0  0
   69.7313   47.3816   57.1429 C   0  0  0  0  0  0  0  0  0  0  0  0
   69.7389   46.0308   56.9807 C   0  0  0  0  0  0  0  0  0  0  0  0
   70.5967   45.2863   57.8000 C   0  0  0  0  0  0  0  0  0  0  0  0
   71.4105   45.8783   58.7413 C   0  0  0  0  0  0  0  0  0  0  0  0
   72.2429   45.1510   59.5365 F   0  0  0  0  0  0  0  0  0  0  0  0
   73.7539   50.7623   58.5164 C   0  0  1  0  0  0  0  0  0  0  0  0
   74.6951   50.7173   59.7307 C   0  0  0  0  0  0  0  0  0  0  0  0
   74.2083   49.4845   60.4628 C   0  0  0  0  0  0  0  0  0  0  0  0
   73.3039   48.7951   59.5645 N   0  0  0  0  0  0  0  0  0  0  0  0
   72.2680   47.8891   59.9172 C   0  0  0  0  0  0  0  0  0  0  0  0
   72.0928   47.6388   61.1433 O   0  0  0  0  0  0  0  0  0  0  0  0
   73.7025   49.2518   58.2331 C   0  0  0  0  0  0  0  0  0  0  0  0
   71.7593   51.8063   57.9261 C   0  0  0  0  0  0  0  0  0  0  0  0
   72.4829   51.1423   58.8858 O   0  0  0  0  0  0  0  0  0  0  0  0
   68.8376   48.2721   56.3393 C   0  0  0  0  0  0  0  0  0  0  0  0
   69.2532   48.4067   54.9230 C   0  0  0  0  0  0  0  0  0  0  0  0
   70.1667   49.3573   54.5711 N   0  0  0  0  0  0  0  0  0  0  0  0
   70.6257   49.4927   53.3516 N   0  0  0  0  0  0  0  0  0  0  0  0
   70.1995   48.6766   52.3763 C   0  0  0  0  0  0  0  0  0  0  0  0
   70.6273   48.7891   51.1983 O   0  0  0  0  0  0  0  0  0  0  0  0
   69.2728   47.6827   52.6334 C   0  0  0  0  0  0  0  0  0  0  0  0
   68.8223   46.8545   51.6147 C   0  0  0  0  0  0  0  0  0  0  0  0
   67.8847   45.8946   51.9085 C   0  0  0  0  0  0  0  0  0  0  0  0
   67.4232   45.7904   53.2154 C   0  0  0  0  0  0  0  0  0  0  0  0
   67.8660   46.6037   54.2213 C   0  0  0  0  0  0  0  0  0  0  0  0
   68.8069   47.5695   53.9434 C   0  0  0  0  0  0  0  0  0  0  0  0
 15 16  1  0
  8 16  1  1
  8  9  1  0
  8 14  1  0
  9 10  1  0
 10 11  1  0
 11 12  1  0
 11 14  1  0
 12 13  2  0
 12  1  1  0
  1  2  2  0
  1  6  1  0
  2  3  1  0
  3 17  1  0
  3  4  2  0
 17 18  1  0
 18 19  2  0
 18 28  1  0
 19 20  1  0
 20 21  1  0
 21 22  2  0
 21 23  1  0
 23 24  1  0
 23 28  2  0
 24 25  2  0
 25 26  1  0
 26 27  2  0
 27 28  1  0
  4  5  1  0
  5  6  2  0
  6  7  1  0
M  END
>  <minimizedAffinity>  (310) 
-9.29454

$$$$
cs_full_output_folder/data/smiles/7608.pdb
     RDKit          3D

 27 30  0  0  0  0  0  0  0  0999 V2000
   71.5022   47.3441   58.9737 C   0  0  0  0  0  0  0  0  0  0  0  0
   71.5334   45.9795   58.8484 C   0  0  0  0  0  0  0  0  0  0  0  0
   70.7429   45.3543   57.9129 C   0  0  0  0  0  0  0  0  0  0  0  0
   69.9204   46.1534   57.1097 C   0  0  0  0  0  0  0  0  0  0  0  0
   69.8862   47.5178   57.2316 C   0  0  0  0  0  0  0  0  0  0  0  0
   70.6970   48.0952   58.1831 C   0  0  0  0  0  0  0  0  0  0  0  0
   72.2158   47.7506   61.2114 O   0  0  0  0  0  0  0  0  0  0  0  0
   72.3771   47.9424   60.0000 C   0  0  0  0  0  0  0  0  0  0  0  0
   73.4659   48.7838   59.5904 N   0  0  0  0  0  0  0  0  0  0  0  0
   74.2906   49.3470   60.6355 C   0  0  0  0  0  0  0  0  0  0  0  0
   75.6787   48.7946   60.6910 C   0  0  0  0  0  0  0  0  0  0  0  0
   75.8320   47.6060   59.7737 C   0  0  0  0  0  0  0  0  0  0  0  0
   75.9720   48.0515   58.3436 C   0  0  0  0  0  0  0  0  0  0  0  0
   74.6725   48.0559   57.6032 C   0  0  0  0  0  0  0  0  0  0  0  0
   73.6557   49.0014   58.1771 C   0  0  0  0  0  0  0  0  0  0  0  0
   68.9951   48.3832   56.3831 C   0  0  0  0  0  0  0  0  0  0  0  0
   69.3856   48.4144   54.9604 C   0  0  0  0  0  0  0  0  0  0  0  0
   70.2986   49.3590   54.5305 N   0  0  0  0  0  0  0  0  0  0  0  0
   70.6656   49.4678   53.2747 N   0  0  0  0  0  0  0  0  0  0  0  0
   70.1920   48.6803   52.3021 C   0  0  0  0  0  0  0  0  0  0  0  0
   70.5503   48.7955   51.1166 O   0  0  0  0  0  0  0  0  0  0  0  0
   69.2794   47.7106   52.6408 C   0  0  0  0  0  0  0  0  0  0  0  0
   68.7536   46.8475   51.6830 C   0  0  0  0  0  0  0  0  0  0  0  0
   67.8475   45.8690   52.0223 C   0  0  0  0  0  0  0  0  0  0  0  0
   67.4538   45.7415   53.3384 C   0  0  0  0  0  0  0  0  0  0  0  0
   67.9899   46.6098   54.2714 C   0  0  0  0  0  0  0  0  0  0  0  0
   68.8934   47.5985   53.9722 C   0  0  0  0  0  0  0  0  0  0  0  0
  7  8  2  0
  8  1  1  0
  8  9  1  0
  1  2  2  0
  1  6  1  0
  2  3  1  0
  3  4  2  0
  4  5  1  0
  5 16  1  0
  5  6  2  0
 16 17  1  0
 17 18  2  0
 17 27  1  0
 18 19  1  0
 19 20  1  0
 20 21  2  0
 20 22  1  0
 22 23  1  0
 22 27  2  0
 23 24  2  0
 24 25  1  0
 25 26  2  0
 26 27  1  0
  9 10  1  0
  9 15  1  0
 10 11  1  0
 11 12  1  0
 12 13  1  0
 13 14  1  0
 14 15  1  0
M  END
>  <minimizedAffinity>  (311) 
-9.29451

$$$$
cs_full_output_folder/data/smiles/545.pdb
     RDKit          3D

 27 29  0  0  0  0  0  0  0  0999 V2000
   68.4318   45.9916   54.2052 C   0  0  0  0  0  0  0  0  0  0  0  0
   67.9024   45.5510   52.9971 C   0  0  0  0  0  0  0  0  0  0  0  0
   67.9981   46.2321   51.8216 C   0  0  0  0  0  0  0  0  0  0  0  0
   68.6716   47.4453   51.8461 C   0  0  0  0  0  0  0  0  0  0  0  0
   69.2255   47.9533   52.9992 C   0  0  0  0  0  0  0  0  0  0  0  0
   69.0901   47.2012   54.1690 C   0  0  0  0  0  0  0  0  0  0  0  0
   67.8332   43.8670   55.4536 N   0  0  0  0  0  0  0  0  0  0  0  0
   68.2841   45.1979   55.4196 C   0  0  0  0  0  0  0  0  0  0  0  0
   68.5775   45.7279   56.5231 O   0  0  0  0  0  0  0  0  0  0  0  0
   67.5508   41.1932   55.4469 O   0  0  0  0  0  0  0  0  0  0  0  0
   67.5452   41.7026   56.6202 C   0  0  0  0  0  0  0  0  0  0  0  0
   67.6930   43.1063   56.6289 N   0  0  0  0  0  0  0  0  0  0  0  0
   67.3986   40.8743   57.7996 C   0  0  0  0  0  0  0  0  0  0  0  0
   67.9876   39.6363   57.8827 C   0  0  0  0  0  0  0  0  0  0  0  0
   67.8497   38.8390   59.0123 C   0  0  0  0  0  0  0  0  0  0  0  0
   67.1337   39.2617   60.0580 N   0  0  0  0  0  0  0  0  0  0  0  0
   66.5344   40.4802   60.0204 C   0  0  0  0  0  0  0  0  0  0  0  0
   66.6670   41.2928   58.8856 C   0  0  0  0  0  0  0  0  0  0  0  0
   70.0767   49.4939   53.0105 S   0  0  0  0  0  0  0  0  0  0  0  0
   71.5617   49.1764   52.9744 O   0  0  0  0  0  0  0  0  0  0  0  0
   69.7107   50.3277   51.8196 O   0  0  0  0  0  0  0  0  0  0  0  0
   69.7984   50.3480   54.4877 N   0  0  0  0  0  0  0  0  0  0  0  0
   71.0611   50.6578   55.0580 C   0  0  0  0  0  0  0  0  0  0  0  0
   71.0192   51.7212   56.1215 C   0  0  0  0  0  0  0  0  0  0  0  0
   70.2679   52.9536   55.6071 C   0  0  0  0  0  0  0  0  0  0  0  0
   68.8501   52.4584   55.3264 C   0  0  0  0  0  0  0  0  0  0  0  0
   68.9557   51.4607   54.2029 C   0  0  0  0  0  0  0  0  0  0  0  0
 10 11  2  0
 11 12  1  0
 11 13  1  0
 12  7  1  0
  7  8  1  0
  8  9  2  0
  8  1  1  0
  1  2  2  0
  1  6  1  0
  2  3  1  0
  3  4  2  0
  4  5  1  0
  5 19  1  0
  5  6  2  0
 19 20  2  0
 19 21  2  0
 19 22  1  0
 22 23  1  0
 22 27  1  0
 23 24  1  0
 24 25  1  0
 25 26  1  0
 26 27  1  0
 13 14  2  0
 13 18  1  0
 14 15  1  0
 15 16  2  0
 16 17  1  0
 17 18  2  0
M  END
>  <minimizedAffinity>  (312) 
-9.29386

$$$$
cs_full_output_folder/data/smiles/3202.pdb
     RDKit          3D

 28 31  0  0  0  0  0  0  0  0999 V2000
   69.7421   50.1902   57.1751 C   0  0  0  0  0  0  0  0  0  0  0  0
   68.6170   50.9044   57.6207 C   0  0  0  0  0  0  0  0  0  0  0  0
   67.7857   51.5390   56.7300 C   0  0  0  0  0  0  0  0  0  0  0  0
   68.0705   51.4641   55.3969 C   0  0  0  0  0  0  0  0  0  0  0  0
   69.1792   50.7644   54.8971 C   0  0  0  0  0  0  0  0  0  0  0  0
   69.9925   50.1400   55.8242 C   0  0  0  0  0  0  0  0  0  0  0  0
   70.5858   49.5049   58.1859 C   0  0  0  0  0  0  0  0  0  0  0  0
   70.3089   44.0091   57.9621 O   0  0  0  0  0  0  0  0  0  0  0  0
   70.3713   45.2588   58.0029 C   0  0  0  0  0  0  0  0  0  0  0  0
   69.4466   46.0691   57.4631 N   0  0  0  0  0  0  0  0  0  0  0  0
   69.5244   47.3835   57.5139 N   0  0  0  0  0  0  0  0  0  0  0  0
   70.5605   48.0448   58.1246 C   0  0  0  0  0  0  0  0  0  0  0  0
   71.5170   47.2609   58.6827 C   0  0  0  0  0  0  0  0  0  0  0  0
   71.4261   45.8577   58.6252 C   0  0  0  0  0  0  0  0  0  0  0  0
   72.5030   45.1011   59.2699 C   0  0  0  0  0  0  0  0  0  0  0  0
   72.6119   45.6405   60.7006 C   0  0  0  0  0  0  0  0  0  0  0  0
   72.7621   47.1388   60.7384 C   0  0  0  0  0  0  0  0  0  0  0  0
   72.7435   47.7520   59.3613 C   0  0  0  0  0  0  0  0  0  0  0  0
   69.4274   50.7048   53.5056 N   0  0  0  0  0  0  0  0  0  0  0  0
   69.9616   49.3640   52.6066 S   0  0  0  0  0  0  0  0  0  0  0  0
   71.4152   49.0831   52.9628 O   0  0  0  0  0  0  0  0  0  0  0  0
   69.9505   49.6361   51.1243 O   0  0  0  0  0  0  0  0  0  0  0  0
   69.1034   47.8812   52.9066 C   0  0  0  0  0  0  0  0  0  0  0  0
   68.7368   47.5144   54.1801 C   0  0  0  0  0  0  0  0  0  0  0  0
   68.0618   46.3459   54.3992 C   0  0  0  0  0  0  0  0  0  0  0  0
   67.7527   45.5422   53.3235 C   0  0  0  0  0  0  0  0  0  0  0  0
   68.1184   45.9144   52.0776 N   0  0  0  0  0  0  0  0  0  0  0  0
   68.7809   47.0572   51.8523 C   0  0  0  0  0  0  0  0  0  0  0  0
  8  9  2  0
  9 10  1  0
  9 14  1  0
 10 11  1  0
 11 12  2  0
 12  7  1  0
 12 13  1  0
  7  1  1  0
  1  2  2  0
  1  6  1  0
  2  3  1  0
  3  4  2  0
  4  5  1  0
  5 19  1  0
  5  6  2  0
 19 20  1  0
 20 21  2  0
 20 22  2  0
 20 23  1  0
 23 24  2  0
 23 28  1  0
 24 25  1  0
 25 26  2  0
 26 27  1  0
 27 28  2  0
 13 14  2  0
 13 18  1  0
 14 15  1  0
 15 16  1  0
 16 17  1  0
 17 18  1  0
M  END
>  <minimizedAffinity>  (313) 
-9.28742

$$$$
cs_full_output_folder/data/smiles/698.pdb
     RDKit          3D

 26 28  0  0  0  0  0  0  0  0999 V2000
   70.0049   41.6044   58.5635 C   0  0  0  0  0  0  0  0  0  0  0  0
   70.4270   40.5031   59.3134 C   0  0  0  0  0  0  0  0  0  0  0  0
   69.8682   39.2738   59.1116 C   0  0  0  0  0  0  0  0  0  0  0  0
   68.8816   39.1631   58.1489 C   0  0  0  0  0  0  0  0  0  0  0  0
   68.4561   40.2377   57.4044 C   0  0  0  0  0  0  0  0  0  0  0  0
   69.0197   41.4798   57.6085 C   0  0  0  0  0  0  0  0  0  0  0  0
   68.3809   42.4450   56.7313 C   0  0  0  0  0  0  0  0  0  0  0  0
   68.6175   43.7360   56.6065 N   0  0  0  0  0  0  0  0  0  0  0  0
   67.3841   41.6828   55.9772 C   0  0  0  0  0  0  0  0  0  0  0  0
   66.6240   42.1775   55.1097 O   0  0  0  0  0  0  0  0  0  0  0  0
   67.4462   40.3113   56.4092 N   0  0  0  0  0  0  0  0  0  0  0  0
   72.6727   42.5898   57.4842 C   0  0  0  0  0  0  0  0  0  0  0  0
   71.7919   43.3002   58.4336 C   0  0  0  0  0  0  0  0  0  0  0  0
   72.2730   44.6496   58.9069 C   0  0  0  0  0  0  0  0  0  0  0  0
   70.6492   42.8656   58.8915 C   0  0  0  0  0  0  0  0  0  0  0  0
   67.8496   44.4492   55.6808 N   0  0  0  0  0  0  0  0  0  0  0  0
   68.3195   45.5781   54.9769 C   0  0  0  0  0  0  0  0  0  0  0  0
   68.1933   45.7727   53.6309 C   0  0  0  0  0  0  0  0  0  0  0  0
   68.6867   46.9185   52.9922 C   0  0  0  0  0  0  0  0  0  0  0  0
   69.3258   47.9084   53.7068 C   0  0  0  0  0  0  0  0  0  0  0  0
   69.4566   47.7179   55.0682 C   0  0  0  0  0  0  0  0  0  0  0  0
   68.9708   46.5907   55.6923 C   0  0  0  0  0  0  0  0  0  0  0  0
   69.9424   49.3414   52.9108 S   0  0  0  0  0  0  0  0  0  0  0  0
   70.0101   49.0719   51.2034 N   0  0  0  0  0  0  0  0  0  0  0  0
   71.3470   49.6527   53.3808 O   0  0  0  0  0  0  0  0  0  0  0  0
   69.0939   50.5049   53.2731 O   0  0  0  0  0  0  0  0  0  0  0  0
 12 13  1  0
 13 14  1  0
 13 15  2  0
 15  1  1  0
  1  2  2  0
  1  6  1  0
  2  3  1  0
  3  4  2  0
  4  5  1  0
  5  6  2  0
  5 11  1  0
  6  7  1  0
  7  8  2  0
  7  9  1  0
  8 16  1  0
 16 17  1  0
 17 18  2  0
 17 22  1  0
 18 19  1  0
 19 20  2  0
 20 23  1  0
 20 21  1  0
 23 24  1  0
 23 25  2  0
 23 26  2  0
 21 22  2  0
  9 10  2  0
  9 11  1  0
M  END
>  <minimizedAffinity>  (314) 
-9.28715

$$$$
cs_full_output_folder/data/smiles/9466.pdb
     RDKit          3D

 29 32  0  0  0  0  0  0  0  0999 V2000
   68.4399   41.3314   58.4473 C   0  0  0  0  0  0  0  0  0  0  0  0
   69.4280   42.2050   58.0600 C   0  0  0  0  0  0  0  0  0  0  0  0
   69.2562   43.0763   56.9737 C   0  0  0  0  0  0  0  0  0  0  0  0
   68.0867   43.0896   56.2530 C   0  0  0  0  0  0  0  0  0  0  0  0
   67.0991   42.2203   56.6356 C   0  0  0  0  0  0  0  0  0  0  0  0
   67.2843   41.3759   57.6986 C   0  0  0  0  0  0  0  0  0  0  0  0
   68.6328   40.4183   59.6000 C   0  0  0  0  0  0  0  0  0  0  0  0
   70.3655   38.5826   59.7968 N   0  0  0  0  0  0  0  0  0  0  0  0
   69.2181   39.1378   59.1766 C   0  0  0  0  0  0  0  0  0  0  0  0
   68.7011   38.4938   58.2321 O   0  0  0  0  0  0  0  0  0  0  0  0
   72.9963   35.9185   56.5334 C   0  0  0  0  0  0  0  0  0  0  0  0
   72.1800   36.0260   57.7696 C   0  0  0  0  0  0  0  0  0  0  0  0
   71.9538   34.8712   58.4831 C   0  0  0  0  0  0  0  0  0  0  0  0
   71.2000   34.9645   59.6264 C   0  0  0  0  0  0  0  0  0  0  0  0
   70.6850   36.1648   60.0529 C   0  0  0  0  0  0  0  0  0  0  0  0
   70.9004   37.3380   59.3526 C   0  0  0  0  0  0  0  0  0  0  0  0
   71.6606   37.2282   58.2023 C   0  0  0  0  0  0  0  0  0  0  0  0
   67.9297   44.0365   55.1181 C   0  0  0  0  0  0  0  0  0  0  0  0
   68.3511   45.3965   55.3414 C   0  0  0  0  0  0  0  0  0  0  0  0
   68.7710   45.7414   56.5928 N   0  0  0  0  0  0  0  0  0  0  0  0
   69.2104   46.9377   56.9205 N   0  0  0  0  0  0  0  0  0  0  0  0
   69.2648   47.9213   55.9765 C   0  0  0  0  0  0  0  0  0  0  0  0
   69.6846   49.0783   56.2690 O   0  0  0  0  0  0  0  0  0  0  0  0
   68.8517   47.6143   54.7068 C   0  0  0  0  0  0  0  0  0  0  0  0
   68.3827   46.3335   54.3688 C   0  0  0  0  0  0  0  0  0  0  0  0
   67.9523   46.1940   52.9694 C   0  0  0  0  0  0  0  0  0  0  0  0
   69.1282   46.6289   52.1163 C   0  0  0  0  0  0  0  0  0  0  0  0
   69.7079   47.9571   52.5114 C   0  0  0  0  0  0  0  0  0  0  0  0
   68.8872   48.6186   53.6037 C   0  0  0  0  0  0  0  0  0  0  0  0
 11 12  1  0
 12 13  2  0
 12 17  1  0
 13 14  1  0
 14 15  2  0
 15 16  1  0
 16  8  1  0
 16 17  2  0
  8  9  1  0
  9 10  2  0
  9  7  1  0
  7  1  1  0
  1  2  2  0
  1  6  1  0
  2  3  1  0
  3  4  2  0
  4 18  1  0
  4  5  1  0
 18 19  1  0
 19 20  2  0
 19 25  1  0
 20 21  1  0
 21 22  1  0
 22 23  2  0
 22 24  1  0
 24 25  2  0
 24 29  1  0
 25 26  1  0
 26 27  1  0
 27 28  1  0
 28 29  1  0
  5  6  2  0
M  END
>  <minimizedAffinity>  (315) 
-9.28620

$$$$
cs_full_output_folder/data/smiles/4430.pdb
     RDKit          3D

 28 31  0  0  0  0  0  0  0  0999 V2000
   71.4653   47.1761   58.8783 C   0  0  0  0  0  0  0  0  0  0  0  0
   70.5922   47.8580   58.0699 C   0  0  0  0  0  0  0  0  0  0  0  0
   69.7497   47.1876   57.1701 C   0  0  0  0  0  0  0  0  0  0  0  0
   69.8347   45.8432   57.1340 C   0  0  0  0  0  0  0  0  0  0  0  0
   70.7095   45.1080   57.9409 C   0  0  0  0  0  0  0  0  0  0  0  0
   71.5157   45.8155   58.8074 C   0  0  0  0  0  0  0  0  0  0  0  0
   72.3643   45.0989   59.5884 F   0  0  0  0  0  0  0  0  0  0  0  0
   73.4784   52.2344   58.1861 C   0  0  0  0  0  0  0  0  0  0  0  0
   74.3853   51.1399   58.4358 N   0  0  0  0  0  0  0  0  0  0  0  0
   74.3181   50.0887   57.5107 C   0  0  0  0  0  0  0  0  0  0  0  0
   73.5418   48.8789   57.9152 C   0  0  0  0  0  0  0  0  0  0  0  0
   73.3624   48.7437   59.3304 N   0  0  0  0  0  0  0  0  0  0  0  0
   72.3260   47.8937   59.8000 C   0  0  0  0  0  0  0  0  0  0  0  0
   72.1613   47.7684   61.0642 O   0  0  0  0  0  0  0  0  0  0  0  0
   74.2101   49.4513   60.2404 C   0  0  0  0  0  0  0  0  0  0  0  0
   74.4488   50.8621   59.8140 C   0  0  0  0  0  0  0  0  0  0  0  0
   68.8499   47.9526   56.2947 C   0  0  0  0  0  0  0  0  0  0  0  0
   69.3179   48.1077   54.9047 C   0  0  0  0  0  0  0  0  0  0  0  0
   70.2700   49.0341   54.5970 N   0  0  0  0  0  0  0  0  0  0  0  0
   70.7069   49.2624   53.3780 N   0  0  0  0  0  0  0  0  0  0  0  0
   70.2234   48.5698   52.3342 C   0  0  0  0  0  0  0  0  0  0  0  0
   70.6484   48.7982   51.1778 O   0  0  0  0  0  0  0  0  0  0  0  0
   69.2472   47.6021   52.5597 C   0  0  0  0  0  0  0  0  0  0  0  0
   68.7538   46.8834   51.5202 C   0  0  0  0  0  0  0  0  0  0  0  0
   67.7979   45.9078   51.7029 C   0  0  0  0  0  0  0  0  0  0  0  0
   67.3625   45.6928   52.9949 C   0  0  0  0  0  0  0  0  0  0  0  0
   67.8503   46.4106   54.0601 C   0  0  0  0  0  0  0  0  0  0  0  0
   68.7967   47.3756   53.8651 C   0  0  0  0  0  0  0  0  0  0  0  0
  8  9  1  0
  9 10  1  0
  9 16  1  0
 10 11  1  0
 11 12  1  0
 12 13  1  0
 12 15  1  0
 13 14  2  0
 13  1  1  0
  1  2  2  0
  1  6  1  0
  2  3  1  0
  3 17  1  0
  3  4  2  0
 17 18  1  0
 18 19  2  0
 18 28  1  0
 19 20  1  0
 20 21  1  0
 21 22  2  0
 21 23  1  0
 23 24  1  0
 23 28  2  0
 24 25  2  0
 25 26  1  0
 26 27  2  0
 27 28  1  0
  4  5  1  0
  5  6  2  0
  6  7  1  0
 15 16  1  0
M  CHG  1   9   1
M  END
>  <minimizedAffinity>  (316) 
-9.28528

$$$$
cs_full_output_folder/data/smiles/8649.pdb
     RDKit          3D

 27 29  0  0  0  0  0  0  0  0999 V2000
   70.0063   46.2737   57.9688 N   0  0  0  0  0  0  0  0  0  0  0  0
   69.2620   46.3792   56.7542 C   0  0  0  0  0  0  0  0  0  0  0  0
   68.5358   45.3964   56.4725 O   0  0  0  0  0  0  0  0  0  0  0  0
   70.7919   44.0324   58.4795 C   0  0  0  0  0  0  0  0  0  0  0  0
   71.6216   44.1913   57.5427 O   0  0  0  0  0  0  0  0  0  0  0  0
   69.8952   45.1242   58.7542 N   0  0  0  0  0  0  0  0  0  0  0  0
   70.7683   42.7719   59.2385 C   0  0  0  0  0  0  0  0  0  0  0  0
   71.0289   39.9523   59.6478 C   0  0  0  0  0  0  0  0  0  0  0  0
   69.9937   40.4451   58.7369 C   0  0  0  0  0  0  0  0  0  0  0  0
   69.1731   39.5382   58.1002 C   0  0  0  0  0  0  0  0  0  0  0  0
   68.1879   39.9596   57.2410 C   0  0  0  0  0  0  0  0  0  0  0  0
   68.0580   41.3337   57.0445 C   0  0  0  0  0  0  0  0  0  0  0  0
   68.8777   42.2327   57.6809 C   0  0  0  0  0  0  0  0  0  0  0  0
   69.8667   41.8227   58.5424 C   0  0  0  0  0  0  0  0  0  0  0  0
   69.3562   47.5967   55.8859 C   0  0  0  0  0  0  0  0  0  0  0  0
   68.5332   48.6755   56.4890 C   0  0  0  0  0  0  0  0  0  0  0  0
   67.4756   48.4316   57.3433 C   0  0  0  0  0  0  0  0  0  0  0  0
   66.7383   49.4839   57.8843 C   0  0  0  0  0  0  0  0  0  0  0  0
   67.0246   50.7953   57.5981 C   0  0  0  0  0  0  0  0  0  0  0  0
   68.0836   51.0506   56.7431 C   0  0  0  0  0  0  0  0  0  0  0  0
   68.8140   50.0123   56.2062 C   0  0  0  0  0  0  0  0  0  0  0  0
   69.0217   47.3289   54.4849 C   0  0  0  0  0  0  0  0  0  0  0  0
   69.6107   48.0156   53.4575 C   0  0  0  0  0  0  0  0  0  0  0  0
   69.2726   47.7389   52.1562 C   0  0  0  0  0  0  0  0  0  0  0  0
   68.3435   46.7809   51.8237 C   0  0  0  0  0  0  0  0  0  0  0  0
   67.7538   46.0939   52.8625 C   0  0  0  0  0  0  0  0  0  0  0  0
   68.0918   46.3681   54.1807 C   0  0  0  0  0  0  0  0  0  0  0  0
  8  9  1  0
  9 10  2  0
  9 14  1  0
 10 11  1  0
 11 12  2  0
 12 13  1  0
 13 14  2  0
 14  7  1  0
  7  4  1  0
  4  5  2  0
  4  6  1  0
  6  1  1  0
  1  2  1  0
  2  3  2  0
  2 15  1  0
 15 16  1  0
 15 22  1  0
 16 17  2  0
 16 21  1  0
 17 18  1  0
 18 19  2  0
 19 20  1  0
 20 21  2  0
 22 23  2  0
 22 27  1  0
 23 24  1  0
 24 25  2  0
 25 26  1  0
 26 27  2  0
M  END
>  <minimizedAffinity>  (317) 
-9.28275

$$$$
cs_full_output_folder/data/smiles/8323.pdb
     RDKit          3D

 26 28  0  0  0  0  0  0  0  0999 V2000
   70.9837   41.7144   58.5408 C   0  0  0  0  0  0  0  0  0  0  0  0
   69.7157   41.2685   57.8651 C   0  0  0  0  0  0  0  0  0  0  0  0
   68.8871   42.1454   57.1959 C   0  0  0  0  0  0  0  0  0  0  0  0
   67.8516   41.3538   56.7284 C   0  0  0  0  0  0  0  0  0  0  0  0
   68.0887   40.0874   57.1180 N   0  0  0  0  0  0  0  0  0  0  0  0
   69.2190   40.0130   57.8115 N   0  0  0  0  0  0  0  0  0  0  0  0
   69.8137   38.8508   58.3937 C   0  0  0  0  0  0  0  0  0  0  0  0
   70.9954   38.3375   57.8991 C   0  0  0  0  0  0  0  0  0  0  0  0
   71.5891   37.2104   58.4471 C   0  0  0  0  0  0  0  0  0  0  0  0
   71.0179   36.5529   59.5149 C   0  0  0  0  0  0  0  0  0  0  0  0
   71.7787   35.1219   60.2028 Cl  0  0  0  0  0  0  0  0  0  0  0  0
   69.8377   37.0583   60.0155 C   0  0  0  0  0  0  0  0  0  0  0  0
   69.2467   38.1903   59.4611 C   0  0  0  0  0  0  0  0  0  0  0  0
   69.0864   43.5881   57.0285 C   0  0  0  0  0  0  0  0  0  0  0  0
   69.8213   44.2213   57.8240 O   0  0  0  0  0  0  0  0  0  0  0  0
   68.4709   44.3209   55.9822 N   0  0  0  0  0  0  0  0  0  0  0  0
   68.6004   45.7212   55.7325 C   0  0  0  0  0  0  0  0  0  0  0  0
   68.5121   46.1099   54.3038 C   0  0  0  0  0  0  0  0  0  0  0  0
   67.7228   45.4880   53.3756 C   0  0  0  0  0  0  0  0  0  0  0  0
   67.6987   45.9208   52.0614 C   0  0  0  0  0  0  0  0  0  0  0  0
   68.4726   46.9903   51.6636 C   0  0  0  0  0  0  0  0  0  0  0  0
   69.2798   47.6399   52.5745 C   0  0  0  0  0  0  0  0  0  0  0  0
   69.2809   47.1865   53.8694 C   0  0  0  0  0  0  0  0  0  0  0  0
   70.1041   48.7752   52.1659 C   0  0  0  0  0  0  0  0  0  0  0  0
   70.3844   48.9202   50.9466 O   0  0  0  0  0  0  0  0  0  0  0  0
   70.5671   49.6695   53.0993 O   0  0  0  0  0  0  0  0  0  0  0  0
  1  2  1  0
  2  3  2  0
  2  6  1  0
  3 14  1  0
  3  4  1  0
 14 15  2  0
 14 16  1  0
 16 17  1  0
 17 18  1  0
 18 19  2  0
 18 23  1  0
 19 20  1  0
 20 21  2  0
 21 22  1  0
 22 24  1  0
 22 23  2  0
 24 25  2  0
 24 26  1  0
  4  5  2  0
  5  6  1  0
  6  7  1  0
  7  8  2  0
  7 13  1  0
  8  9  1  0
  9 10  2  0
 10 11  1  0
 10 12  1  0
 12 13  2  0
M  END
>  <minimizedAffinity>  (318) 
-9.28148

$$$$
cs_full_output_folder/data/smiles/5815.pdb
     RDKit          3D

 28 31  0  0  0  0  0  0  0  0999 V2000
   68.7641   46.4378   54.9459 C   0  0  0  0  0  0  0  0  0  0  0  0
   69.2497   47.6080   54.3904 C   0  0  0  0  0  0  0  0  0  0  0  0
   69.0756   47.8689   53.0483 C   0  0  0  0  0  0  0  0  0  0  0  0
   68.4113   46.9286   52.3087 C   0  0  0  0  0  0  0  0  0  0  0  0
   67.9178   45.7554   52.8380 C   0  0  0  0  0  0  0  0  0  0  0  0
   68.0996   45.5037   54.1962 C   0  0  0  0  0  0  0  0  0  0  0  0
   67.6371   44.3583   54.7588 F   0  0  0  0  0  0  0  0  0  0  0  0
   68.9803   46.2244   56.4108 C   0  0  0  0  0  0  0  0  0  0  0  0
   71.1917   47.0591   58.0958 N   0  0  0  0  0  0  0  0  0  0  0  0
   70.3108   47.8789   57.6810 C   0  0  0  0  0  0  0  0  0  0  0  0
   70.5840   49.3251   57.7662 C   0  0  0  0  0  0  0  0  0  0  0  0
   69.4181   50.1801   58.1124 C   0  0  0  0  0  0  0  0  0  0  0  0
   68.1477   49.8033   57.3850 C   0  0  0  0  0  0  0  0  0  0  0  0
   67.9657   48.3397   57.3178 C   0  0  0  0  0  0  0  0  0  0  0  0
   66.8080   47.8782   57.4352 O   0  0  0  0  0  0  0  0  0  0  0  0
   69.0649   47.4576   57.1246 N   0  0  0  0  0  0  0  0  0  0  0  0
   69.6077   49.0936   52.4078 C   0  0  0  0  0  0  0  0  0  0  0  0
   70.4535   49.9315   53.2294 C   0  0  0  0  0  0  0  0  0  0  0  0
   71.7749   49.6259   53.2549 N   0  0  0  0  0  0  0  0  0  0  0  0
   72.6540   50.2692   53.9852 N   0  0  0  0  0  0  0  0  0  0  0  0
   72.2898   51.2968   54.7724 C   0  0  0  0  0  0  0  0  0  0  0  0
   73.1028   51.9348   55.4851 O   0  0  0  0  0  0  0  0  0  0  0  0
   70.9467   51.6450   54.7755 C   0  0  0  0  0  0  0  0  0  0  0  0
   70.5287   52.6981   55.5588 C   0  0  0  0  0  0  0  0  0  0  0  0
   69.1994   53.0684   55.5683 C   0  0  0  0  0  0  0  0  0  0  0  0
   68.2692   52.3911   54.7953 C   0  0  0  0  0  0  0  0  0  0  0  0
   68.6630   51.3418   54.0112 C   0  0  0  0  0  0  0  0  0  0  0  0
   70.0044   50.9617   53.9976 C   0  0  0  0  0  0  0  0  0  0  0  0
  9 10  2  0
 10 11  1  0
 10 16  1  0
 11 12  1  0
 12 13  1  0
 13 14  1  0
 14 15  2  0
 14 16  1  0
 16  8  1  0
  8  1  1  0
  1  2  2  0
  1  6  1  0
  2  3  1  0
  3 17  1  0
  3  4  2  0
 17 18  1  0
 18 19  2  0
 18 28  1  0
 19 20  1  0
 20 21  1  0
 21 22  2  0
 21 23  1  0
 23 24  1  0
 23 28  2  0
 24 25  2  0
 25 26  1  0
 26 27  2  0
 27 28  1  0
  4  5  1  0
  5  6  2  0
  6  7  1  0
M  CHG  1   9   1
M  END
>  <minimizedAffinity>  (319) 
-9.28063

$$$$
cs_full_output_folder/data/smiles/3373.pdb
     RDKit          3D

 28 31  0  0  0  0  0  0  0  0999 V2000
   70.0821   44.8648   57.7020 C   0  0  0  0  0  0  0  0  0  0  0  0
   71.0777   45.3572   58.4689 C   0  0  0  0  0  0  0  0  0  0  0  0
   71.2564   46.7428   58.5558 C   0  0  0  0  0  0  0  0  0  0  0  0
   70.4095   47.5472   57.8556 C   0  0  0  0  0  0  0  0  0  0  0  0
   69.3765   47.0350   57.0597 C   0  0  0  0  0  0  0  0  0  0  0  0
   69.2628   45.7238   57.0219 N   0  0  0  0  0  0  0  0  0  0  0  0
   68.8083   43.0690   59.5759 O   0  0  0  0  0  0  0  0  0  0  0  0
   69.2026   42.6347   58.4950 C   0  0  0  0  0  0  0  0  0  0  0  0
   69.8276   43.4849   57.5606 N   0  0  0  0  0  0  0  0  0  0  0  0
   68.9795   40.9102   58.1140 S   0  0  0  0  0  0  0  0  0  0  0  0
   70.4375   39.9804   58.4587 C   0  0  0  0  0  0  0  0  0  0  0  0
   70.4358   38.6165   58.3342 C   0  0  0  0  0  0  0  0  0  0  0  0
   71.5683   37.8532   58.5975 C   0  0  0  0  0  0  0  0  0  0  0  0
   72.7321   38.5032   58.9983 C   0  0  0  0  0  0  0  0  0  0  0  0
   72.7510   39.8715   59.1277 C   0  0  0  0  0  0  0  0  0  0  0  0
   71.5895   40.6070   58.8531 C   0  0  0  0  0  0  0  0  0  0  0  0
   68.5496   48.0362   56.3559 C   0  0  0  0  0  0  0  0  0  0  0  0
   69.0053   48.3365   54.9885 C   0  0  0  0  0  0  0  0  0  0  0  0
   69.5407   49.5704   54.7358 N   0  0  0  0  0  0  0  0  0  0  0  0
   69.9371   49.9322   53.5262 N   0  0  0  0  0  0  0  0  0  0  0  0
   69.8239   49.0723   52.4698 C   0  0  0  0  0  0  0  0  0  0  0  0
   70.2022   49.4266   51.3295 O   0  0  0  0  0  0  0  0  0  0  0  0
   69.3016   47.8262   52.6449 C   0  0  0  0  0  0  0  0  0  0  0  0
   68.8936   47.4783   53.9428 C   0  0  0  0  0  0  0  0  0  0  0  0
   68.3732   46.1229   54.1189 C   0  0  0  0  0  0  0  0  0  0  0  0
   67.3864   45.7346   53.0396 C   0  0  0  0  0  0  0  0  0  0  0  0
   67.7551   46.1848   51.6690 C   0  0  0  0  0  0  0  0  0  0  0  0
   69.1251   46.8301   51.5670 C   0  0  0  0  0  0  0  0  0  0  0  0
  7  8  2  0
  8  9  1  0
  8 10  1  0
  9  1  1  0
  1  2  2  0
  1  6  1  0
  2  3  1  0
  3  4  2  0
  4  5  1  0
  5 17  1  0
  5  6  2  0
 17 18  1  0
 18 19  2  0
 18 24  1  0
 19 20  1  0
 20 21  1  0
 21 22  2  0
 21 23  1  0
 23 24  2  0
 23 28  1  0
 24 25  1  0
 25 26  1  0
 26 27  1  0
 27 28  1  0
 10 11  1  0
 11 12  2  0
 11 16  1  0
 12 13  1  0
 13 14  2  0
 14 15  1  0
 15 16  2  0
M  END
>  <minimizedAffinity>  (320) 
-9.28041

$$$$
cs_full_output_folder/data/smiles/2377.pdb
     RDKit          3D

 29 32  0  0  0  0  0  0  0  0999 V2000
   71.1946   46.6963   58.7661 C   0  0  0  0  0  0  0  0  0  0  0  0
   70.3791   47.4958   58.0080 C   0  0  0  0  0  0  0  0  0  0  0  0
   69.5622   46.9343   57.0437 C   0  0  0  0  0  0  0  0  0  0  0  0
   69.6134   45.5757   56.8924 C   0  0  0  0  0  0  0  0  0  0  0  0
   70.4394   44.7404   57.6546 C   0  0  0  0  0  0  0  0  0  0  0  0
   71.2411   45.3281   58.6086 C   0  0  0  0  0  0  0  0  0  0  0  0
   72.0342   44.5166   59.3397 F   0  0  0  0  0  0  0  0  0  0  0  0
   75.4115   49.3229   56.8069 N   0  0  0  0  0  0  0  0  0  0  0  0
   74.9722   48.9551   58.1292 C   0  0  1  0  0  0  0  0  0  0  0  0
   74.5090   50.2067   58.8607 C   0  0  0  0  0  0  0  0  0  0  0  0
   74.3394   49.9187   60.3209 C   0  0  2  0  0  0  0  0  0  0  0  0
   75.4505   50.3583   61.0154 F   0  0  0  0  0  0  0  0  0  0  0  0
   74.1129   48.4447   60.5327 C   0  0  0  0  0  0  0  0  0  0  0  0
   73.2998   47.8913   59.4729 N   0  0  0  0  0  0  0  0  0  0  0  0
   72.0708   47.2799   59.7966 C   0  0  0  0  0  0  0  0  0  0  0  0
   71.7152   47.2311   61.0001 O   0  0  0  0  0  0  0  0  0  0  0  0
   73.8011   47.9988   58.1169 C   0  0  0  0  0  0  0  0  0  0  0  0
   68.6423   47.7428   56.2254 C   0  0  0  0  0  0  0  0  0  0  0  0
   69.0500   47.9956   54.8499 C   0  0  0  0  0  0  0  0  0  0  0  0
   69.9450   48.9979   54.6140 N   0  0  0  0  0  0  0  0  0  0  0  0
   70.4336   49.3202   53.4558 N   0  0  0  0  0  0  0  0  0  0  0  0
   70.0602   48.6415   52.3612 C   0  0  0  0  0  0  0  0  0  0  0  0
   70.4977   48.9025   51.2100 O   0  0  0  0  0  0  0  0  0  0  0  0
   69.1558   47.6105   52.5157 C   0  0  0  0  0  0  0  0  0  0  0  0
   68.7165   46.8760   51.4213 C   0  0  0  0  0  0  0  0  0  0  0  0
   67.8111   45.8591   51.5430 C   0  0  0  0  0  0  0  0  0  0  0  0
   67.3170   45.5532   52.7932 C   0  0  0  0  0  0  0  0  0  0  0  0
   67.7166   46.2482   53.9140 C   0  0  0  0  0  0  0  0  0  0  0  0
   68.6310   47.2688   53.7702 C   0  0  0  0  0  0  0  0  0  0  0  0
  9  8  1  6
  9 10  1  0
  9 17  1  0
 10 11  1  0
 11 12  1  1
 11 13  1  0
 13 14  1  0
 14 15  1  0
 14 17  1  0
 15 16  2  0
 15  1  1  0
  1  2  2  0
  1  6  1  0
  2  3  1  0
  3 18  1  0
  3  4  2  0
 18 19  1  0
 19 20  2  0
 19 29  1  0
 20 21  1  0
 21 22  1  0
 22 23  2  0
 22 24  1  0
 24 25  1  0
 24 29  2  0
 25 26  2  0
 26 27  1  0
 27 28  2  0
 28 29  1  0
  4  5  1  0
  5  6  2  0
  6  7  1  0
M  CHG  1   8   1
M  END
>  <minimizedAffinity>  (321) 
-9.27938

$$$$
cs_full_output_folder/data/smiles/7742.pdb
     RDKit          3D

 26 29  0  0  0  0  0  0  0  0999 V2000
   71.4516   47.3302   58.9328 C   0  0  0  0  0  0  0  0  0  0  0  0
   70.5902   48.0408   58.1334 C   0  0  0  0  0  0  0  0  0  0  0  0
   69.7577   47.4704   57.1703 C   0  0  0  0  0  0  0  0  0  0  0  0
   69.8270   46.1088   57.0385 C   0  0  0  0  0  0  0  0  0  0  0  0
   70.6918   45.3471   57.8335 C   0  0  0  0  0  0  0  0  0  0  0  0
   71.4968   45.9616   58.7723 C   0  0  0  0  0  0  0  0  0  0  0  0
   72.3340   45.2025   59.5391 F   0  0  0  0  0  0  0  0  0  0  0  0
   75.0606   51.5939   58.9361 O   0  0  0  0  0  0  0  0  0  0  0  0
   74.5127   50.5245   59.1518 C   0  0  0  0  0  0  0  0  0  0  0  0
   73.7933   49.4857   58.3845 C   0  0  0  0  0  0  0  0  0  0  0  0
   73.3056   48.9043   59.6112 N   0  0  0  0  0  0  0  0  0  0  0  0
   72.3113   47.9776   59.9357 C   0  0  0  0  0  0  0  0  0  0  0  0
   72.1453   47.6824   61.1668 O   0  0  0  0  0  0  0  0  0  0  0  0
   74.2774   49.6839   60.3368 C   0  0  0  0  0  0  0  0  0  0  0  0
   68.8381   48.3451   56.3757 C   0  0  0  0  0  0  0  0  0  0  0  0
   69.2676   48.4261   54.9478 C   0  0  0  0  0  0  0  0  0  0  0  0
   70.1861   49.3473   54.5624 N   0  0  0  0  0  0  0  0  0  0  0  0
   70.6389   49.4585   53.3543 N   0  0  0  0  0  0  0  0  0  0  0  0
   70.2246   48.6512   52.3669 C   0  0  0  0  0  0  0  0  0  0  0  0
   70.6534   48.7412   51.1841 O   0  0  0  0  0  0  0  0  0  0  0  0
   69.3005   47.7005   52.6836 C   0  0  0  0  0  0  0  0  0  0  0  0
   68.8554   46.8675   51.6702 C   0  0  0  0  0  0  0  0  0  0  0  0
   67.9145   45.9010   51.9380 C   0  0  0  0  0  0  0  0  0  0  0  0
   67.4312   45.7801   53.2105 C   0  0  0  0  0  0  0  0  0  0  0  0
   67.8691   46.6091   54.2351 C   0  0  0  0  0  0  0  0  0  0  0  0
   68.8108   47.5760   53.9717 C   0  0  0  0  0  0  0  0  0  0  0  0
  8  9  2  0
  9 10  1  0
  9 14  1  0
 10 11  1  0
 11 12  1  0
 11 14  1  0
 12 13  2  0
 12  1  1  0
  1  2  2  0
  1  6  1  0
  2  3  1  0
  3 15  1  0
  3  4  2  0
 15 16  1  0
 16 17  2  0
 16 26  1  0
 17 18  1  0
 18 19  1  0
 19 20  2  0
 19 21  1  0
 21 22  1  0
 21 26  2  0
 22 23  2  0
 23 24  1  0
 24 25  2  0
 25 26  1  0
  4  5  1  0
  5  6  2  0
  6  7  1  0
M  END
>  <minimizedAffinity>  (322) 
-9.27929

$$$$
cs_full_output_folder/data/smiles/7181.pdb
     RDKit          3D

 25 26  0  0  0  0  0  0  0  0999 V2000
   69.0094   43.8702   56.7907 N   0  0  0  0  0  0  0  0  0  0  0  0
   68.2880   42.6516   56.7357 C   0  0  0  0  0  0  0  0  0  0  0  0
   67.1986   42.6686   56.1073 O   0  0  0  0  0  0  0  0  0  0  0  0
   68.7940   41.4446   57.3777 C   0  0  0  0  0  0  0  0  0  0  0  0
   67.9376   40.3569   57.5196 C   0  0  0  0  0  0  0  0  0  0  0  0
   68.3208   39.1735   58.1122 C   0  0  0  0  0  0  0  0  0  0  0  0
   69.6302   39.0563   58.5937 C   0  0  0  0  0  0  0  0  0  0  0  0
   70.4951   40.1150   58.4661 C   0  0  0  0  0  0  0  0  0  0  0  0
   70.0635   41.2886   57.8624 C   0  0  0  0  0  0  0  0  0  0  0  0
   71.8805   39.9834   58.9798 C   0  0  0  0  0  0  0  0  0  0  0  0
   71.9356   39.9170   60.3341 F   0  0  0  0  0  0  0  0  0  0  0  0
   72.6781   41.0050   58.4626 F   0  0  0  0  0  0  0  0  0  0  0  0
   72.3908   38.8076   58.4122 F   0  0  0  0  0  0  0  0  0  0  0  0
   70.0956   46.3493   57.1858 O   0  0  0  0  0  0  0  0  0  0  0  0
   69.1115   46.3025   56.4025 C   0  0  0  0  0  0  0  0  0  0  0  0
   68.5141   45.0356   56.1662 N   0  0  0  0  0  0  0  0  0  0  0  0
   68.5831   47.5294   55.7403 C   0  0  0  0  0  0  0  0  0  0  0  0
   68.6664   47.3497   54.2809 C   0  0  0  0  0  0  0  0  0  0  0  0
   69.5294   48.1059   53.5286 C   0  0  0  0  0  0  0  0  0  0  0  0
   69.6185   47.9450   52.1407 C   0  0  0  0  0  0  0  0  0  0  0  0
   70.4662   48.6854   51.3889 F   0  0  0  0  0  0  0  0  0  0  0  0
   68.8287   47.0120   51.5118 C   0  0  0  0  0  0  0  0  0  0  0  0
   67.9618   46.2516   52.2613 C   0  0  0  0  0  0  0  0  0  0  0  0
   67.1940   45.3410   51.6283 F   0  0  0  0  0  0  0  0  0  0  0  0
   67.8783   46.4178   53.6464 C   0  0  0  0  0  0  0  0  0  0  0  0
 14 15  2  0
 15 17  1  0
 15 16  1  0
 17 18  1  0
 18 19  2  0
 18 25  1  0
 19 20  1  0
 20 21  1  0
 20 22  2  0
 22 23  1  0
 23 24  1  0
 23 25  2  0
 16  1  1  0
  1  2  1  0
  2  3  2  0
  2  4  1  0
  4  5  2  0
  4  9  1  0
  5  6  1  0
  6  7  2  0
  7  8  1  0
  8 10  1  0
  8  9  2  0
 10 11  1  0
 10 12  1  0
 10 13  1  0
M  END
>  <minimizedAffinity>  (323) 
-9.27825

$$$$
cs_full_output_folder/data/smiles/577.pdb
     RDKit          3D

 25 27  0  0  0  0  0  0  0  0999 V2000
   69.9264   39.2897   58.8973 C   0  0  0  0  0  0  0  0  0  0  0  0
   70.5262   40.5306   58.9459 C   0  0  0  0  0  0  0  0  0  0  0  0
   70.0527   41.5989   58.2125 C   0  0  0  0  0  0  0  0  0  0  0  0
   68.9492   41.4800   57.3893 C   0  0  0  0  0  0  0  0  0  0  0  0
   68.3451   40.2410   57.3373 C   0  0  0  0  0  0  0  0  0  0  0  0
   68.8251   39.1655   58.0783 C   0  0  0  0  0  0  0  0  0  0  0  0
   67.2537   40.3834   56.4346 N   0  0  0  0  0  0  0  0  0  0  0  0
   67.1756   41.7081   55.9244 C   0  0  0  0  0  0  0  0  0  0  0  0
   66.3521   42.2003   55.1128 O   0  0  0  0  0  0  0  0  0  0  0  0
   68.2660   42.4419   56.5279 C   0  0  0  0  0  0  0  0  0  0  0  0
   68.5477   43.6898   56.3249 N   0  0  0  0  0  0  0  0  0  0  0  0
   70.4470   38.1355   59.6973 C   0  0  0  0  0  0  0  0  0  0  0  0
   71.9707   36.9916   58.0700 C   0  0  0  0  0  0  0  0  0  0  0  0
   71.8825   37.8256   59.3293 C   0  0  0  0  0  0  0  0  0  0  0  0
   67.7976   44.4941   55.4642 N   0  0  0  0  0  0  0  0  0  0  0  0
   68.3051   45.6771   54.8725 C   0  0  0  0  0  0  0  0  0  0  0  0
   68.8802   46.6559   55.6499 C   0  0  0  0  0  0  0  0  0  0  0  0
   69.3740   47.8097   55.0667 C   0  0  0  0  0  0  0  0  0  0  0  0
   69.2888   47.9745   53.6997 C   0  0  0  0  0  0  0  0  0  0  0  0
   68.7091   46.9937   52.8854 C   0  0  0  0  0  0  0  0  0  0  0  0
   68.2218   45.8470   53.5002 C   0  0  0  0  0  0  0  0  0  0  0  0
   69.9123   49.4298   52.9623 S   0  0  0  0  0  0  0  0  0  0  0  0
   71.5178   49.7790   53.5281 N   0  0  0  0  0  0  0  0  0  0  0  0
   70.0383   49.2360   51.4581 O   0  0  0  0  0  0  0  0  0  0  0  0
   68.9932   50.6004   53.1639 O   0  0  0  0  0  0  0  0  0  0  0  0
 13 14  1  0
 14 12  1  0
 12  1  1  0
  1  2  2  0
  1  6  1  0
  2  3  1  0
  3  4  2  0
  4  5  1  0
  4 10  1  0
  5  6  2  0
  5  7  1  0
  7  8  1  0
  8  9  2  0
  8 10  1  0
 10 11  2  0
 11 15  1  0
 15 16  1  0
 16 17  2  0
 16 21  1  0
 17 18  1  0
 18 19  2  0
 19 22  1  0
 19 20  1  0
 22 23  1  0
 22 24  2  0
 22 25  2  0
 20 21  2  0
M  END
>  <minimizedAffinity>  (324) 
-9.27352

$$$$
cs_full_output_folder/data/smiles/70.pdb
     RDKit          3D

 26 28  0  0  0  0  0  0  0  0999 V2000
   74.0488   50.3034   53.6911 O   0  0  0  0  0  0  0  0  0  0  0  0
   73.5989   51.0207   54.6151 C   0  0  0  0  0  0  0  0  0  0  0  0
   74.4531   51.3367   55.6990 N   0  0  0  0  0  0  0  0  0  0  0  0
   75.7583   50.8276   55.6753 N   0  0  0  0  0  0  0  0  0  0  0  0
   76.2075   49.8391   56.5856 C   0  0  0  0  0  0  0  0  0  0  0  0
   75.3552   49.4321   57.4353 O   0  0  0  0  0  0  0  0  0  0  0  0
   77.5552   49.2826   56.5964 C   0  0  0  0  0  0  0  0  0  0  0  0
   78.4107   49.4709   55.5094 C   0  0  0  0  0  0  0  0  0  0  0  0
   79.6971   48.9557   55.4871 C   0  0  0  0  0  0  0  0  0  0  0  0
   80.1446   48.2371   56.5713 C   0  0  0  0  0  0  0  0  0  0  0  0
   81.7563   47.5681   56.5904 Cl  0  0  0  0  0  0  0  0  0  0  0  0
   79.3202   48.0401   57.6504 C   0  0  0  0  0  0  0  0  0  0  0  0
   78.0259   48.5685   57.6521 C   0  0  0  0  0  0  0  0  0  0  0  0
   72.2090   51.5201   54.5706 C   0  0  0  0  0  0  0  0  0  0  0  0
   71.2113   50.6539   55.2641 C   0  0  0  0  0  0  0  0  0  0  0  0
   70.5608   49.6460   54.3894 C   0  0  0  0  0  0  0  0  0  0  0  0
   69.7477   48.6749   54.8409 N   0  0  0  0  0  0  0  0  0  0  0  0
   69.1631   47.7662   54.0419 C   0  0  0  0  0  0  0  0  0  0  0  0
   68.3297   46.7756   54.5284 C   0  0  0  0  0  0  0  0  0  0  0  0
   67.7322   45.8431   53.6890 C   0  0  0  0  0  0  0  0  0  0  0  0
   67.9551   45.8779   52.3276 C   0  0  0  0  0  0  0  0  0  0  0  0
   68.7857   46.8658   51.8421 C   0  0  0  0  0  0  0  0  0  0  0  0
   69.3799   47.7933   52.6786 C   0  0  0  0  0  0  0  0  0  0  0  0
   70.2123   48.7843   52.2025 C   0  0  0  0  0  0  0  0  0  0  0  0
   70.4124   48.8128   50.9660 O   0  0  0  0  0  0  0  0  0  0  0  0
   70.7736   49.6702   53.0435 N   0  0  0  0  0  0  0  0  0  0  0  0
  1  2  2  0
  2 14  1  0
  2  3  1  0
 14 15  1  0
 15 16  1  0
 16 17  2  0
 16 26  1  0
 17 18  1  0
 18 19  2  0
 18 23  1  0
 19 20  1  0
 20 21  2  0
 21 22  1  0
 22 23  2  0
 23 24  1  0
 24 25  2  0
 24 26  1  0
  3  4  1  0
  4  5  1  0
  5  6  2  0
  5  7  1  0
  7  8  2  0
  7 13  1  0
  8  9  1  0
  9 10  2  0
 10 11  1  0
 10 12  1  0
 12 13  2  0
M  END
>  <minimizedAffinity>  (325) 
-9.27350

$$$$
cs_full_output_folder/data/smiles/2546.pdb
     RDKit          3D

 26 29  0  0  0  0  0  0  0  0999 V2000
   70.7125   45.9287   58.2998 C   0  0  0  0  0  0  0  0  0  0  0  0
   69.9461   46.7270   57.4709 C   0  0  0  0  0  0  0  0  0  0  0  0
   70.2629   48.0170   57.1609 C   0  0  0  0  0  0  0  0  0  0  0  0
   71.4087   48.5758   57.6921 C   0  0  0  0  0  0  0  0  0  0  0  0
   72.2273   47.8194   58.5387 C   0  0  0  0  0  0  0  0  0  0  0  0
   71.8553   46.5234   58.8149 C   0  0  0  0  0  0  0  0  0  0  0  0
   72.6851   45.8113   59.6486 F   0  0  0  0  0  0  0  0  0  0  0  0
   69.0535   44.0249   56.8135 O   0  0  0  0  0  0  0  0  0  0  0  0
   69.9398   43.6679   57.6723 C   0  0  0  0  0  0  0  0  0  0  0  0
   70.5006   42.2934   57.6723 C   0  0  0  0  0  0  0  0  0  0  0  0
   71.0836   42.0274   59.0371 C   0  0  0  0  0  0  0  0  0  0  0  0
   70.2654   42.7501   60.0591 C   0  0  0  0  0  0  0  0  0  0  0  0
   70.5464   44.1865   59.9832 N   0  0  0  0  0  0  0  0  0  0  0  0
   70.3977   44.5904   58.6408 N   0  0  0  0  0  0  0  0  0  0  0  0
   69.4073   48.8334   56.2793 C   0  0  0  0  0  0  0  0  0  0  0  0
   69.7042   48.6297   54.8478 C   0  0  0  0  0  0  0  0  0  0  0  0
   70.7341   49.3167   54.2689 N   0  0  0  0  0  0  0  0  0  0  0  0
   71.0224   49.2201   52.9906 N   0  0  0  0  0  0  0  0  0  0  0  0
   70.3142   48.4277   52.1615 C   0  0  0  0  0  0  0  0  0  0  0  0
   70.6377   48.3772   50.9520 O   0  0  0  0  0  0  0  0  0  0  0  0
   69.2709   47.7121   52.6785 C   0  0  0  0  0  0  0  0  0  0  0  0
   68.9810   47.8272   54.0337 C   0  0  0  0  0  0  0  0  0  0  0  0
   67.8738   46.9986   54.5510 C   0  0  0  0  0  0  0  0  0  0  0  0
   68.0624   45.6212   53.9059 C   0  0  0  0  0  0  0  0  0  0  0  0
   67.7821   45.7150   52.4432 C   0  0  0  0  0  0  0  0  0  0  0  0
   68.4783   46.8487   51.7756 C   0  0  0  0  0  0  0  0  0  0  0  0
  8  9  2  0
  9 10  1  0
  9 14  1  0
 10 11  1  0
 11 12  1  0
 12 13  1  0
 13 14  1  0
 14  1  1  0
  1  2  2  0
  1  6  1  0
  2  3  1  0
  3 15  1  0
  3  4  2  0
 15 16  1  0
 16 17  2  0
 16 22  1  0
 17 18  1  0
 18 19  1  0
 19 20  2  0
 19 21  1  0
 21 22  2  0
 21 26  1  0
 22 23  1  0
 23 24  1  0
 24 25  1  0
 25 26  1  0
  4  5  1  0
  5  6  2  0
  6  7  1  0
M  END
>  <minimizedAffinity>  (326) 
-9.27316

$$$$
cs_full_output_folder/data/smiles/2331.pdb
     RDKit          3D

 25 26  0  0  0  0  0  0  0  0999 V2000
   69.9957   49.2975   52.6155 S   0  0  0  0  0  0  0  0  0  0  0  0
   71.4248   49.3479   53.0982 O   0  0  0  0  0  0  0  0  0  0  0  0
   70.0610   49.1788   51.1235 O   0  0  0  0  0  0  0  0  0  0  0  0
   69.2531   47.8541   53.2388 C   0  0  0  0  0  0  0  0  0  0  0  0
   68.6245   46.9327   52.4366 C   0  0  0  0  0  0  0  0  0  0  0  0
   68.5921   47.1760   51.1054 F   0  0  0  0  0  0  0  0  0  0  0  0
   68.0631   45.8168   53.0197 C   0  0  0  0  0  0  0  0  0  0  0  0
   67.4544   44.9324   52.2007 F   0  0  0  0  0  0  0  0  0  0  0  0
   68.1006   45.5746   54.3810 C   0  0  0  0  0  0  0  0  0  0  0  0
   67.5251   44.4462   54.9098 F   0  0  0  0  0  0  0  0  0  0  0  0
   68.7340   46.5081   55.1733 C   0  0  0  0  0  0  0  0  0  0  0  0
   68.7799   46.2873   56.5112 F   0  0  0  0  0  0  0  0  0  0  0  0
   69.3091   47.6455   54.6014 C   0  0  0  0  0  0  0  0  0  0  0  0
   69.9085   48.5078   55.4457 F   0  0  0  0  0  0  0  0  0  0  0  0
   69.2084   50.7254   53.0367 N   0  0  0  0  0  0  0  0  0  0  0  0
   71.4042   52.7491   55.2229 C   0  0  0  0  0  0  0  0  0  0  0  0
   70.9880   51.9166   54.2138 C   0  0  0  0  0  0  0  0  0  0  0  0
   69.6602   51.6034   54.0999 C   0  0  0  0  0  0  0  0  0  0  0  0
   68.7679   52.1280   54.9959 C   0  0  0  0  0  0  0  0  0  0  0  0
   69.1883   52.9535   55.9931 C   0  0  0  0  0  0  0  0  0  0  0  0
   70.5168   53.2988   56.1510 C   0  0  0  0  0  0  0  0  0  0  0  0
   70.9605   54.1103   57.1251 F   0  0  0  0  0  0  0  0  0  0  0  0
   73.6184   52.5799   56.3860 N   0  0  0  0  0  0  0  0  0  0  0  0
   72.8302   53.0613   55.3138 C   0  0  0  0  0  0  0  0  0  0  0  0
   73.3584   53.7603   54.4375 O   0  0  0  0  0  0  0  0  0  0  0  0
 23 24  1  0
 24 25  2  0
 24 16  1  0
 16 17  2  0
 16 21  1  0
 17 18  1  0
 18 15  1  0
 18 19  2  0
 15  1  1  0
  1  2  2  0
  1  3  2  0
  1  4  1  0
  4  5  2  0
  4 13  1  0
  5  6  1  0
  5  7  1  0
  7  8  1  0
  7  9  2  0
  9 10  1  0
  9 11  1  0
 11 12  1  0
 11 13  2  0
 13 14  1  0
 19 20  1  0
 20 21  2  0
 21 22  1  0
M  END
>  <minimizedAffinity>  (327) 
-9.27230

$$$$
cs_full_output_folder/data/smiles/7344.pdb
     RDKit          3D

 26 29  0  0  0  0  0  0  0  0999 V2000
   69.6413   47.7831   57.4778 C   0  0  0  0  0  0  0  0  0  0  0  0
   70.3115   48.7571   58.1267 C   0  0  0  0  0  0  0  0  0  0  0  0
   71.3752   48.4193   58.9522 C   0  0  0  0  0  0  0  0  0  0  0  0
   71.7690   47.1101   59.1302 C   0  0  0  0  0  0  0  0  0  0  0  0
   72.8339   46.7887   59.9588 O   0  0  0  0  0  0  0  0  0  0  0  0
   71.0945   46.1019   58.4759 C   0  0  0  0  0  0  0  0  0  0  0  0
   70.0442   46.4508   57.6621 C   0  0  0  0  0  0  0  0  0  0  0  0
   71.4620   44.7272   58.6235 N   0  0  0  0  0  0  0  0  0  0  0  0
   72.7503   44.2272   58.1875 C   0  0  0  0  0  0  0  0  0  0  0  0
   72.6945   42.9326   57.4514 C   0  0  0  0  0  0  0  0  0  0  0  0
   71.4757   42.0912   57.7385 C   0  0  0  0  0  0  0  0  0  0  0  0
   71.0120   42.3499   59.1572 C   0  0  0  0  0  0  0  0  0  0  0  0
   70.5865   43.7712   59.2059 C   0  0  0  0  0  0  0  0  0  0  0  0
   69.5143   44.0921   59.7341 O   0  0  0  0  0  0  0  0  0  0  0  0
   68.4966   47.9357   56.5421 C   0  0  0  0  0  0  0  0  0  0  0  0
   70.3599   48.9097   51.1510 N   0  0  0  0  0  0  0  0  0  0  0  0
   69.9756   48.7037   52.3483 C   0  0  0  0  0  0  0  0  0  0  0  0
   70.4927   49.7546   53.6375 S   0  0  0  0  0  0  0  0  0  0  0  0
   69.8585   49.2820   55.1015 N   0  0  0  0  0  0  0  0  0  0  0  0
   69.0384   48.1857   55.1808 C   0  0  0  0  0  0  0  0  0  0  0  0
   68.7368   47.4726   54.0728 C   0  0  0  0  0  0  0  0  0  0  0  0
   67.9107   46.3617   54.2831 C   0  0  0  0  0  0  0  0  0  0  0  0
   67.5188   45.5235   53.2717 C   0  0  0  0  0  0  0  0  0  0  0  0
   67.9282   45.7404   51.9857 C   0  0  0  0  0  0  0  0  0  0  0  0
   68.7399   46.8218   51.7496 C   0  0  0  0  0  0  0  0  0  0  0  0
   69.1491   47.6880   52.7736 C   0  0  0  0  0  0  0  0  0  0  0  0
 16 17  2  0
 17 18  1  0
 17 26  1  0
 18 19  1  0
 19 20  2  0
 20 15  1  0
 20 21  1  0
 15  1  1  0
  1  2  2  0
  1  7  1  0
  2  3  1  0
  3  4  2  0
  4  5  1  0
  4  6  1  0
  6  8  1  0
  6  7  2  0
  8  9  1  0
  8 13  1  0
  9 10  1  0
 10 11  1  0
 11 12  1  0
 12 13  1  0
 13 14  2  0
 21 22  1  0
 21 26  2  0
 22 23  2  0
 23 24  1  0
 24 25  2  0
 25 26  1  0
M  END
>  <minimizedAffinity>  (328) 
-9.27095

$$$$
cs_full_output_folder/data/smiles/6274.pdb
     RDKit          3D

 26 29  0  0  0  0  0  0  0  0999 V2000
   70.7419   46.0798   58.4412 C   0  0  0  0  0  0  0  0  0  0  0  0
   69.8552   46.6842   57.5435 C   0  0  0  0  0  0  0  0  0  0  0  0
   69.8816   48.0148   57.2310 C   0  0  0  0  0  0  0  0  0  0  0  0
   70.8407   48.8103   57.8353 C   0  0  0  0  0  0  0  0  0  0  0  0
   71.7182   48.2629   58.7114 C   0  0  0  0  0  0  0  0  0  0  0  0
   71.6764   46.9154   59.0163 C   0  0  0  0  0  0  0  0  0  0  0  0
   72.5789   46.4287   59.8973 F   0  0  0  0  0  0  0  0  0  0  0  0
   69.6250   44.2755   59.3590 O   0  0  0  0  0  0  0  0  0  0  0  0
   70.6697   44.6561   58.7416 C   0  0  0  0  0  0  0  0  0  0  0  0
   71.6937   43.7485   58.3747 N   0  0  0  0  0  0  0  0  0  0  0  0
   72.9232   44.0514   57.6763 C   0  0  0  0  0  0  0  0  0  0  0  0
   73.6636   42.7422   57.5196 C   0  0  0  0  0  0  0  0  0  0  0  0
   73.1417   41.9373   58.6876 C   0  0  0  0  0  0  0  0  0  0  0  0
   71.6625   42.3267   58.6532 C   0  0  0  0  0  0  0  0  0  0  0  0
   68.9157   48.6716   56.2794 C   0  0  0  0  0  0  0  0  0  0  0  0
   69.3819   48.6166   54.8811 C   0  0  0  0  0  0  0  0  0  0  0  0
   70.2895   49.5390   54.4288 N   0  0  0  0  0  0  0  0  0  0  0  0
   70.6815   49.5503   53.1878 N   0  0  0  0  0  0  0  0  0  0  0  0
   70.2260   48.6715   52.2897 C   0  0  0  0  0  0  0  0  0  0  0  0
   70.6190   48.6975   51.0785 O   0  0  0  0  0  0  0  0  0  0  0  0
   69.3093   47.7016   52.6500 C   0  0  0  0  0  0  0  0  0  0  0  0
   68.8472   46.7856   51.7293 C   0  0  0  0  0  0  0  0  0  0  0  0
   67.9493   45.8416   52.1633 C   0  0  0  0  0  0  0  0  0  0  0  0
   67.5153   45.7984   53.4690 C   0  0  0  0  0  0  0  0  0  0  0  0
   67.9940   46.7281   54.3690 C   0  0  0  0  0  0  0  0  0  0  0  0
   68.8933   47.6985   53.9925 C   0  0  0  0  0  0  0  0  0  0  0  0
  8  9  2  0
  9  1  1  0
  9 10  1  0
  1  2  2  0
  1  6  1  0
  2  3  1  0
  3 15  1  0
  3  4  2  0
 15 16  1  0
 16 17  2  0
 16 26  1  0
 17 18  1  0
 18 19  1  0
 19 20  2  0
 19 21  1  0
 21 22  1  0
 21 26  2  0
 22 23  2  0
 23 24  1  0
 24 25  2  0
 25 26  1  0
  4  5  1  0
  5  6  2  0
  6  7  1  0
 10 11  1  0
 10 14  1  0
 11 12  1  0
 12 13  1  0
 13 14  1  0
M  END
>  <minimizedAffinity>  (329) 
-9.27069

$$$$
cs_full_output_folder/data/smiles/8897.pdb
     RDKit          3D

 28 31  0  0  0  0  0  0  0  0999 V2000
   70.9171   45.7938   58.0575 C   0  0  0  0  0  0  0  0  0  0  0  0
   69.9973   46.3554   57.1771 C   0  0  0  0  0  0  0  0  0  0  0  0
   69.7467   47.6947   57.1178 C   0  0  0  0  0  0  0  0  0  0  0  0
   70.4657   48.5144   57.9966 C   0  0  0  0  0  0  0  0  0  0  0  0
   71.3861   48.0135   58.8880 C   0  0  0  0  0  0  0  0  0  0  0  0
   72.0725   48.8140   59.7296 F   0  0  0  0  0  0  0  0  0  0  0  0
   71.6038   46.6313   58.9062 C   0  0  0  0  0  0  0  0  0  0  0  0
   72.5032   46.1142   59.7731 F   0  0  0  0  0  0  0  0  0  0  0  0
   71.8108   40.1540   58.1996 N   0  0  0  0  0  0  0  0  0  0  0  0
   71.5793   41.5571   58.1657 C   0  0  0  0  0  0  0  0  0  0  0  0
   70.3171   42.1007   58.1991 C   0  0  0  0  0  0  0  0  0  0  0  0
   70.1096   43.4639   58.1655 C   0  0  0  0  0  0  0  0  0  0  0  0
   71.1671   44.3572   58.0970 C   0  0  0  0  0  0  0  0  0  0  0  0
   72.4294   43.8066   58.0641 C   0  0  0  0  0  0  0  0  0  0  0  0
   72.6533   42.4232   58.0968 C   0  0  0  0  0  0  0  0  0  0  0  0
   73.9653   41.8957   58.0587 N   0  0  0  0  0  0  0  0  0  0  0  0
   68.7910   48.3870   56.2357 C   0  0  0  0  0  0  0  0  0  0  0  0
   69.3059   48.4540   54.8724 C   0  0  0  0  0  0  0  0  0  0  0  0
   70.2605   49.3795   54.5886 N   0  0  0  0  0  0  0  0  0  0  0  0
   70.7294   49.4168   53.3628 N   0  0  0  0  0  0  0  0  0  0  0  0
   70.3144   48.5946   52.3890 C   0  0  0  0  0  0  0  0  0  0  0  0
   70.7759   48.6428   51.2145 O   0  0  0  0  0  0  0  0  0  0  0  0
   69.3525   47.6424   52.6224 C   0  0  0  0  0  0  0  0  0  0  0  0
   68.8918   46.7897   51.6550 C   0  0  0  0  0  0  0  0  0  0  0  0
   67.9129   45.8762   51.9892 C   0  0  0  0  0  0  0  0  0  0  0  0
   67.3932   45.8046   53.2683 C   0  0  0  0  0  0  0  0  0  0  0  0
   67.8615   46.6733   54.2587 C   0  0  0  0  0  0  0  0  0  0  0  0
   68.8267   47.5690   53.9151 C   0  0  0  0  0  0  0  0  0  0  0  0
  9 10  1  0
 10 11  2  0
 10 15  1  0
 11 12  1  0
 12 13  2  0
 13  1  1  0
 13 14  1  0
  1  2  2  0
  1  7  1  0
  2  3  1  0
  3 17  1  0
  3  4  2  0
 17 18  1  0
 18 19  2  0
 18 28  1  0
 19 20  1  0
 20 21  1  0
 21 22  2  0
 21 23  1  0
 23 24  1  0
 23 28  2  0
 24 25  2  0
 25 26  1  0
 26 27  2  0
 27 28  1  0
  4  5  1  0
  5  6  1  0
  5  7  2  0
  7  8  1  0
 14 15  2  0
 15 16  1  0
M  END
>  <minimizedAffinity>  (330) 
-9.26630

$$$$
cs_full_output_folder/data/smiles/2160.pdb
     RDKit          3D

 28 31  0  0  0  0  0  0  0  0999 V2000
   71.5292   47.2060   58.9359 C   0  0  0  0  0  0  0  0  0  0  0  0
   70.6983   47.9130   58.1142 C   0  0  0  0  0  0  0  0  0  0  0  0
   69.8318   47.3141   57.1828 C   0  0  0  0  0  0  0  0  0  0  0  0
   69.8818   45.9474   57.1575 C   0  0  0  0  0  0  0  0  0  0  0  0
   70.7075   45.2242   57.9734 N   0  0  0  0  0  0  0  0  0  0  0  0
   71.5279   45.8288   58.8573 C   0  0  0  0  0  0  0  0  0  0  0  0
   72.3551   45.1197   59.6756 F   0  0  0  0  0  0  0  0  0  0  0  0
   77.4504   49.1057   57.9043 C   0  0  0  0  0  0  0  0  0  0  0  0
   76.0120   49.1529   58.3498 C   0  0  0  0  0  0  0  0  0  0  0  0
   75.1206   48.6996   57.4894 C   0  0  0  0  0  0  0  0  0  0  0  0
   73.6941   48.7221   57.8746 C   0  0  0  0  0  0  0  0  0  0  0  0
   73.4739   48.6765   59.2943 N   0  0  0  0  0  0  0  0  0  0  0  0
   72.3979   47.9270   59.8750 C   0  0  0  0  0  0  0  0  0  0  0  0
   72.2140   47.8933   61.1134 O   0  0  0  0  0  0  0  0  0  0  0  0
   74.3423   49.3948   60.2009 C   0  0  0  0  0  0  0  0  0  0  0  0
   75.6998   49.6888   59.6830 C   0  0  0  0  0  0  0  0  0  0  0  0
   69.0115   48.1647   56.3383 C   0  0  0  0  0  0  0  0  0  0  0  0
   69.4520   48.2827   54.9205 C   0  0  0  0  0  0  0  0  0  0  0  0
   70.3837   49.1924   54.5719 N   0  0  0  0  0  0  0  0  0  0  0  0
   70.7528   49.3338   53.3293 N   0  0  0  0  0  0  0  0  0  0  0  0
   70.2445   48.6030   52.3320 C   0  0  0  0  0  0  0  0  0  0  0  0
   70.6154   48.7524   51.1211 O   0  0  0  0  0  0  0  0  0  0  0  0
   69.2916   47.6610   52.6428 C   0  0  0  0  0  0  0  0  0  0  0  0
   68.7681   46.8924   51.6190 C   0  0  0  0  0  0  0  0  0  0  0  0
   67.8272   45.9378   51.8847 C   0  0  0  0  0  0  0  0  0  0  0  0
   67.4047   45.7478   53.1886 C   0  0  0  0  0  0  0  0  0  0  0  0
   67.9411   46.5297   54.2012 C   0  0  0  0  0  0  0  0  0  0  0  0
   68.8892   47.5007   53.9688 C   0  0  0  0  0  0  0  0  0  0  0  0
  8  9  1  0
  9 10  2  0
  9 16  1  0
 10 11  1  0
 11 12  1  0
 12 13  1  0
 12 15  1  0
 13 14  2  0
 13  1  1  0
  1  2  2  0
  1  6  1  0
  2  3  1  0
  3 17  1  0
  3  4  2  0
 17 18  1  0
 18 19  2  0
 18 28  1  0
 19 20  1  0
 20 21  1  0
 21 22  2  0
 21 23  1  0
 23 24  1  0
 23 28  2  0
 24 25  2  0
 25 26  1  0
 26 27  2  0
 27 28  1  0
  4  5  1  0
  5  6  2  0
  6  7  1  0
 15 16  1  0
M  END
>  <minimizedAffinity>  (331) 
-9.26582

$$$$
cs_full_output_folder/data/smiles/5407.pdb
     RDKit          3D

 27 28  0  0  0  0  0  0  0  0999 V2000
   70.1033   45.4421   57.7087 C   0  0  0  0  0  0  0  0  0  0  0  0
   71.0423   46.1296   58.8473 S   0  0  0  0  0  0  0  0  0  0  0  0
   70.3684   42.9666   57.7034 C   0  0  0  0  0  0  0  0  0  0  0  0
   71.5843   43.1212   57.4047 O   0  0  0  0  0  0  0  0  0  0  0  0
   69.5633   44.1242   57.8709 N   0  0  0  0  0  0  0  0  0  0  0  0
   70.2491   39.3411   58.5568 C   0  0  0  0  0  0  0  0  0  0  0  0
   68.9636   38.9863   58.2100 C   0  0  0  0  0  0  0  0  0  0  0  0
   68.1363   39.9487   57.6924 C   0  0  0  0  0  0  0  0  0  0  0  0
   68.5890   41.2519   57.5249 C   0  0  0  0  0  0  0  0  0  0  0  0
   69.8582   41.6343   57.8599 C   0  0  0  0  0  0  0  0  0  0  0  0
   70.6853   40.6344   58.3851 C   0  0  0  0  0  0  0  0  0  0  0  0
   70.3552   37.3328   60.0032 C   0  0  0  0  0  0  0  0  0  0  0  0
   71.1225   38.2765   59.1135 C   0  0  0  0  0  0  0  0  0  0  0  0
   72.2883   38.8986   59.8814 C   0  0  0  0  0  0  0  0  0  0  0  0
   71.7377   37.5543   57.9318 C   0  0  0  0  0  0  0  0  0  0  0  0
   69.8216   46.1546   56.5325 N   0  0  0  0  0  0  0  0  0  0  0  0
   68.5534   46.1048   55.8683 C   0  0  1  0  0  0  0  0  0  0  0  0
   67.6873   47.1553   56.4448 N   0  0  0  0  0  0  0  0  0  0  0  0
   68.6322   46.4709   54.4150 C   0  0  0  0  0  0  0  0  0  0  0  0
   67.8715   45.7395   53.5360 C   0  0  0  0  0  0  0  0  0  0  0  0
   67.8790   46.0066   52.1666 C   0  0  0  0  0  0  0  0  0  0  0  0
   68.6735   47.0341   51.6846 C   0  0  0  0  0  0  0  0  0  0  0  0
   69.4378   47.7662   52.5846 C   0  0  0  0  0  0  0  0  0  0  0  0
   69.4056   47.4745   53.9276 C   0  0  0  0  0  0  0  0  0  0  0  0
   70.2408   48.8059   52.0884 N   0  0  0  0  0  0  0  0  0  0  0  0
   71.3047   49.1446   52.6589 O   0  0  0  0  0  0  0  0  0  0  0  0
   69.9095   49.5095   50.9568 O   0  0  0  0  0  0  0  0  0  0  0  0
 12 13  1  0
 13 14  1  0
 13 15  1  0
 13  6  1  0
  6  7  2  0
  6 11  1  0
  7  8  1  0
  8  9  2  0
  9 10  1  0
 10  3  1  0
 10 11  2  0
  3  4  2  0
  3  5  1  0
  5  1  1  0
  1  2  2  0
  1 16  1  0
 16 17  1  0
 17 18  1  1
 17 19  1  0
 19 20  2  0
 19 24  1  0
 20 21  1  0
 21 22  2  0
 22 23  1  0
 23 25  1  0
 23 24  2  0
 25 26  2  0
 25 27  1  0
M  CHG  3  18   1  25   1  27  -1
M  END
>  <minimizedAffinity>  (332) 
-9.26512

$$$$
cs_full_output_folder/data/smiles/8211.pdb
     RDKit          3D

 29 33  0  0  0  0  0  0  0  0999 V2000
   68.7091   46.3750   54.5643 C   0  0  0  0  0  0  0  0  0  0  0  0
   69.2122   47.5385   54.0000 C   0  0  0  0  0  0  0  0  0  0  0  0
   69.0049   47.8187   52.6813 C   0  0  0  0  0  0  0  0  0  0  0  0
   68.2740   46.9116   51.9007 C   0  0  0  0  0  0  0  0  0  0  0  0
   67.7656   45.7501   52.4391 C   0  0  0  0  0  0  0  0  0  0  0  0
   67.9988   45.4982   53.7958 C   0  0  0  0  0  0  0  0  0  0  0  0
   67.5144   44.3629   54.3691 F   0  0  0  0  0  0  0  0  0  0  0  0
   68.6711   44.9456   56.3869 O   0  0  0  0  0  0  0  0  0  0  0  0
   68.9414   46.1143   55.9591 C   0  0  0  0  0  0  0  0  0  0  0  0
   69.4425   47.0716   56.8511 N   0  0  0  0  0  0  0  0  0  0  0  0
   69.7693   47.1099   58.2541 C   0  0  0  0  0  0  0  0  0  0  0  0
   70.8585   48.0976   57.8498 C   0  0  2  0  0  0  0  0  0  0  0  0
   71.2204   49.1582   58.7910 C   0  0  0  0  0  0  0  0  0  0  0  0
   70.3846   50.3624   58.8282 C   0  0  0  0  0  0  0  0  0  0  0  0
   69.2901   50.4569   58.1255 C   0  0  0  0  0  0  0  0  0  0  0  0
   68.7959   49.3843   57.2432 C   0  0  0  0  0  0  0  0  0  0  0  0
   69.8632   48.4468   56.7742 C   0  0  2  0  0  0  0  0  0  0  0  0
   69.5057   49.0478   52.0461 C   0  0  0  0  0  0  0  0  0  0  0  0
   70.3471   49.7894   53.0187 C   0  0  0  0  0  0  0  0  0  0  0  0
   71.6784   49.4613   53.0903 N   0  0  0  0  0  0  0  0  0  0  0  0
   72.5229   50.0952   53.8822 N   0  0  0  0  0  0  0  0  0  0  0  0
   72.1376   51.1015   54.6727 C   0  0  0  0  0  0  0  0  0  0  0  0
   72.9213   51.7267   55.4402 O   0  0  0  0  0  0  0  0  0  0  0  0
   70.7975   51.4736   54.6389 C   0  0  0  0  0  0  0  0  0  0  0  0
   70.3458   52.4877   55.4379 C   0  0  0  0  0  0  0  0  0  0  0  0
   69.0116   52.8524   55.4216 C   0  0  0  0  0  0  0  0  0  0  0  0
   68.1239   52.1995   54.6034 C   0  0  0  0  0  0  0  0  0  0  0  0
   68.5797   51.1674   53.7901 C   0  0  0  0  0  0  0  0  0  0  0  0
   69.9004   50.8149   53.8106 C   0  0  0  0  0  0  0  0  0  0  0  0
  8  9  2  0
  9  1  1  0
  9 10  1  0
  1  2  2  0
  1  6  1  0
  2  3  1  0
  3 18  1  0
  3  4  2  0
 18 19  1  0
 19 20  2  0
 19 29  1  0
 20 21  1  0
 21 22  1  0
 22 23  2  0
 22 24  1  0
 24 25  1  0
 24 29  2  0
 25 26  2  0
 26 27  1  0
 27 28  2  0
 28 29  1  0
  4  5  1  0
  5  6  2  0
  6  7  1  0
 10 11  1  0
 10 17  1  0
 12 11  1  1
 12 13  1  0
 12 17  1  0
 13 14  1  0
 14 15  2  0
 15 16  1  0
 17 16  1  1
M  END
>  <minimizedAffinity>  (333) 
-9.26225

$$$$
cs_full_output_folder/data/smiles/4302.pdb
     RDKit          3D

 29 32  0  0  0  0  0  0  0  0999 V2000
   71.3284   46.9786   58.8752 C   0  0  0  0  0  0  0  0  0  0  0  0
   70.5047   47.7546   58.0957 C   0  0  0  0  0  0  0  0  0  0  0  0
   69.6836   47.2010   57.0969 C   0  0  0  0  0  0  0  0  0  0  0  0
   69.7123   45.8517   56.9030 C   0  0  0  0  0  0  0  0  0  0  0  0
   70.5381   45.0270   57.6759 C   0  0  0  0  0  0  0  0  0  0  0  0
   71.3364   45.6204   58.6550 C   0  0  0  0  0  0  0  0  0  0  0  0
   72.1408   44.8616   59.4151 F   0  0  0  0  0  0  0  0  0  0  0  0
   71.8299   47.3489   61.1035 O   0  0  0  0  0  0  0  0  0  0  0  0
   72.1818   47.5593   59.9161 C   0  0  0  0  0  0  0  0  0  0  0  0
   73.3348   48.3111   59.5684 N   0  0  0  0  0  0  0  0  0  0  0  0
   74.0583   48.8066   60.7400 C   0  0  0  0  0  0  0  0  0  0  0  0
   75.5425   48.8671   60.4746 C   0  0  0  0  0  0  0  0  0  0  0  0
   76.1076   47.5829   59.9815 C   0  0  0  0  0  0  0  0  0  0  0  0
   75.6011   47.0971   58.6704 C   0  0  0  0  0  0  0  0  0  0  0  0
   74.9983   48.1287   57.7780 C   0  0  2  0  0  0  0  0  0  0  0  0
   75.7836   49.2642   57.6553 F   0  0  0  0  0  0  0  0  0  0  0  0
   73.5782   48.4456   58.1693 C   0  0  0  0  0  0  0  0  0  0  0  0
   68.8004   48.0913   56.3191 C   0  0  0  0  0  0  0  0  0  0  0  0
   69.2472   48.2292   54.9136 C   0  0  0  0  0  0  0  0  0  0  0  0
   70.2134   49.1462   54.5941 N   0  0  0  0  0  0  0  0  0  0  0  0
   70.7036   49.3157   53.3992 N   0  0  0  0  0  0  0  0  0  0  0  0
   70.2679   48.5653   52.3735 C   0  0  0  0  0  0  0  0  0  0  0  0
   70.7336   48.7182   51.2139 O   0  0  0  0  0  0  0  0  0  0  0  0
   69.3008   47.6197   52.5916 C   0  0  0  0  0  0  0  0  0  0  0  0
   68.8213   46.8414   51.5617 C   0  0  0  0  0  0  0  0  0  0  0  0
   67.8466   45.9019   51.7547 C   0  0  0  0  0  0  0  0  0  0  0  0
   67.3436   45.7475   53.0374 C   0  0  0  0  0  0  0  0  0  0  0  0
   67.8065   46.5118   54.0830 C   0  0  0  0  0  0  0  0  0  0  0  0
   68.7853   47.4516   53.8817 C   0  0  0  0  0  0  0  0  0  0  0  0
  8  9  2  0
  9  1  1  0
  9 10  1  0
  1  2  2  0
  1  6  1  0
  2  3  1  0
  3 18  1  0
  3  4  2  0
 18 19  1  0
 19 20  2  0
 19 29  1  0
 20 21  1  0
 21 22  1  0
 22 23  2  0
 22 24  1  0
 24 25  1  0
 24 29  2  0
 25 26  2  0
 26 27  1  0
 27 28  2  0
 28 29  1  0
  4  5  1  0
  5  6  2  0
  6  7  1  0
 10 11  1  0
 10 17  1  0
 11 12  1  0
 12 13  1  0
 13 14  1  0
 14 15  1  0
 15 16  1  1
 15 17  1  0
M  END
>  <minimizedAffinity>  (334) 
-9.25838

$$$$
cs_full_output_folder/data/smiles/7651.pdb
     RDKit          3D

 25 26  0  0  0  0  0  0  0  0999 V2000
   70.2138   49.2171   52.4881 S   0  0  0  0  0  0  0  0  0  0  0  0
   71.6550   49.1397   52.9797 O   0  0  0  0  0  0  0  0  0  0  0  0
   70.2844   48.9211   51.0157 O   0  0  0  0  0  0  0  0  0  0  0  0
   69.3520   47.9285   53.2317 C   0  0  0  0  0  0  0  0  0  0  0  0
   69.3356   47.7821   54.6105 C   0  0  0  0  0  0  0  0  0  0  0  0
   70.0497   48.7076   55.3186 F   0  0  0  0  0  0  0  0  0  0  0  0
   68.6485   46.7777   55.2145 C   0  0  0  0  0  0  0  0  0  0  0  0
   68.6820   46.7016   56.5662 F   0  0  0  0  0  0  0  0  0  0  0  0
   67.9522   45.8820   54.4325 C   0  0  0  0  0  0  0  0  0  0  0  0
   67.9563   46.0127   53.0474 C   0  0  0  0  0  0  0  0  0  0  0  0
   67.2470   45.0952   52.3253 F   0  0  0  0  0  0  0  0  0  0  0  0
   68.6565   47.0357   52.4459 C   0  0  0  0  0  0  0  0  0  0  0  0
   68.6456   47.1452   51.0761 F   0  0  0  0  0  0  0  0  0  0  0  0
   69.6392   50.7784   52.7672 N   0  0  0  0  0  0  0  0  0  0  0  0
   70.4360   52.9335   55.7160 C   0  0  0  0  0  0  0  0  0  0  0  0
   69.2354   52.8255   56.3853 C   0  0  0  0  0  0  0  0  0  0  0  0
   68.1944   52.0536   55.8687 C   0  0  0  0  0  0  0  0  0  0  0  0
   68.3572   51.3913   54.6820 C   0  0  0  0  0  0  0  0  0  0  0  0
   69.5643   51.4816   53.9779 C   0  0  0  0  0  0  0  0  0  0  0  0
   70.5608   52.2515   54.5240 C   0  0  0  0  0  0  0  0  0  0  0  0
   71.9795   52.1427   57.8596 O   0  0  0  0  0  0  0  0  0  0  0  0
   72.2217   53.2848   57.4045 C   0  0  0  0  0  0  0  0  0  0  0  0
   71.4504   53.7348   56.2982 N   0  0  0  0  0  0  0  0  0  0  0  0
   73.2796   54.1415   57.9976 C   0  0  0  0  0  0  0  0  0  0  0  0
   74.2742   54.3302   57.0408 O   0  0  0  0  0  0  0  0  0  0  0  0
 21 22  2  0
 22 24  1  0
 22 23  1  0
 24 25  1  0
 23 15  1  0
 15 16  2  0
 15 20  1  0
 16 17  1  0
 17 18  2  0
 18 19  1  0
 19 14  1  0
 19 20  2  0
 14  1  1  0
  1  2  2  0
  1  3  2  0
  1  4  1  0
  4  5  2  0
  4 12  1  0
  5  6  1  0
  5  7  1  0
  7  8  1  0
  7  9  2  0
  9 10  1  0
 10 11  1  0
 10 12  2  0
 12 13  1  0
M  END
>  <minimizedAffinity>  (335) 
-9.25696

$$$$
cs_full_output_folder/data/smiles/104.pdb
     RDKit          3D

 27 30  0  0  0  0  0  0  0  0999 V2000
   71.1390   46.0111   58.3797 C   0  0  0  0  0  0  0  0  0  0  0  0
   70.1925   46.5304   57.5071 C   0  0  0  0  0  0  0  0  0  0  0  0
   69.8853   47.8541   57.3722 C   0  0  0  0  0  0  0  0  0  0  0  0
   70.6027   48.7353   58.2012 C   0  0  0  0  0  0  0  0  0  0  0  0
   71.5534   48.2934   59.0897 C   0  0  0  0  0  0  0  0  0  0  0  0
   71.8095   46.9422   59.1684 C   0  0  0  0  0  0  0  0  0  0  0  0
   72.7407   46.4474   60.0306 F   0  0  0  0  0  0  0  0  0  0  0  0
   69.4728   44.2018   59.6219 O   0  0  0  0  0  0  0  0  0  0  0  0
   70.5143   43.7548   59.1160 C   0  0  0  0  0  0  0  0  0  0  0  0
   70.8126   42.2782   59.1889 C   0  0  0  0  0  0  0  0  0  0  0  0
   71.4746   41.8916   57.9078 C   0  0  0  0  0  0  0  0  0  0  0  0
   72.8197   42.6178   57.8144 C   0  0  0  0  0  0  0  0  0  0  0  0
   72.6038   44.0988   57.9254 C   0  0  0  0  0  0  0  0  0  0  0  0
   73.4960   44.8896   57.5238 O   0  0  0  0  0  0  0  0  0  0  0  0
   71.4153   44.6333   58.4742 N   0  0  0  0  0  0  0  0  0  0  0  0
   68.8765   48.4153   56.4187 C   0  0  0  0  0  0  0  0  0  0  0  0
   69.2896   48.4086   55.0230 C   0  0  0  0  0  0  0  0  0  0  0  0
   70.2385   49.3282   54.6605 N   0  0  0  0  0  0  0  0  0  0  0  0
   70.7377   49.4206   53.4470 N   0  0  0  0  0  0  0  0  0  0  0  0
   70.3453   48.6041   52.4545 C   0  0  0  0  0  0  0  0  0  0  0  0
   70.8045   48.6719   51.2912 O   0  0  0  0  0  0  0  0  0  0  0  0
   69.3858   47.6593   52.7748 C   0  0  0  0  0  0  0  0  0  0  0  0
   68.9259   46.7919   51.8011 C   0  0  0  0  0  0  0  0  0  0  0  0
   67.9626   45.8527   52.1026 C   0  0  0  0  0  0  0  0  0  0  0  0
   67.4424   45.7680   53.3952 C   0  0  0  0  0  0  0  0  0  0  0  0
   67.8882   46.6236   54.3798 C   0  0  0  0  0  0  0  0  0  0  0  0
   68.8490   47.5560   54.0698 C   0  0  0  0  0  0  0  0  0  0  0  0
  8  9  2  0
  9 10  1  0
  9 15  1  0
 10 11  1  0
 11 12  1  0
 12 13  1  0
 13 14  2  0
 13 15  1  0
 15  1  1  0
  1  2  2  0
  1  6  1  0
  2  3  1  0
  3 16  1  0
  3  4  2  0
 16 17  1  0
 17 18  2  0
 17 27  1  0
 18 19  1  0
 19 20  1  0
 20 21  2  0
 20 22  1  0
 22 23  1  0
 22 27  2  0
 23 24  2  0
 24 25  1  0
 25 26  2  0
 26 27  1  0
  4  5  1  0
  5  6  2  0
  6  7  1  0
M  END
>  <minimizedAffinity>  (336) 
-9.25435

$$$$
cs_full_output_folder/data/smiles/5277.pdb
     RDKit          3D

 27 30  0  0  0  0  0  0  0  0999 V2000
   73.9917   34.9353   55.6054 C   0  0  0  0  0  0  0  0  0  0  0  0
   73.3982   35.2938   54.4308 C   0  0  0  0  0  0  0  0  0  0  0  0
   74.1150   35.7284   53.3320 C   0  0  0  0  0  0  0  0  0  0  0  0
   75.4906   35.8073   53.4177 C   0  0  0  0  0  0  0  0  0  0  0  0
   76.0790   35.4511   54.5858 N   0  0  0  0  0  0  0  0  0  0  0  0
   75.3784   35.0310   55.6439 C   0  0  0  0  0  0  0  0  0  0  0  0
   73.2235   34.4635   56.7820 C   0  0  0  0  0  0  0  0  0  0  0  0
   70.5626   38.3997   59.4154 O   0  0  0  0  0  0  0  0  0  0  0  0
   71.1814   37.4950   58.7896 C   0  0  0  0  0  0  0  0  0  0  0  0
   71.8222   37.7061   57.6377 N   0  0  0  0  0  0  0  0  0  0  0  0
   72.4482   36.7294   57.0301 N   0  0  0  0  0  0  0  0  0  0  0  0
   72.4912   35.4512   57.5250 C   0  0  0  0  0  0  0  0  0  0  0  0
   71.8414   35.2015   58.7126 C   0  0  0  0  0  0  0  0  0  0  0  0
   71.1757   36.2135   59.3622 C   0  0  0  0  0  0  0  0  0  0  0  0
   70.4164   35.9618   60.5693 C   0  0  0  0  0  0  0  0  0  0  0  0
   70.3663   34.7340   61.0317 C   0  0  0  0  0  0  0  0  0  0  0  0
   71.0225   33.5879   60.4118 C   0  0  0  0  0  0  0  0  0  0  0  0
   71.9189   33.8703   59.2627 C   0  0  0  0  0  0  0  0  0  0  0  0
   76.3311   36.2296   52.3755 N   0  0  0  0  0  0  0  0  0  0  0  0
   77.3350   35.3797   51.8223 C   0  0  0  0  0  0  0  0  0  0  0  0
   77.1756   35.1094   50.3737 C   0  0  0  0  0  0  0  0  0  0  0  0
   78.0554   35.7243   49.4852 C   0  0  0  0  0  0  0  0  0  0  0  0
   77.9410   35.5000   48.1302 C   0  0  0  0  0  0  0  0  0  0  0  0
   76.9758   34.6762   47.5902 C   0  0  0  0  0  0  0  0  0  0  0  0
   76.1120   34.0724   48.4744 C   0  0  0  0  0  0  0  0  0  0  0  0
   76.2238   34.2956   49.8373 C   0  0  0  0  0  0  0  0  0  0  0  0
   75.3456   33.6639   50.6768 F   0  0  0  0  0  0  0  0  0  0  0  0
  8  9  2  0
  9 10  1  0
  9 14  1  0
 10 11  1  0
 11 12  2  0
 12  7  1  0
 12 13  1  0
  7  1  1  0
  1  2  2  0
  1  6  1  0
  2  3  1  0
  3  4  2  0
  4 19  1  0
  4  5  1  0
 19 20  1  0
 20 21  1  0
 21 22  2  0
 21 26  1  0
 22 23  1  0
 23 24  2  0
 24 25  1  0
 25 26  2  0
 26 27  1  0
  5  6  2  0
 13 14  2  0
 13 18  1  0
 14 15  1  0
 15 16  2  0
 16 17  1  0
 17 18  1  0
M  END
>  <minimizedAffinity>  (337) 
-9.25376

$$$$
cs_full_output_folder/data/smiles/2689.pdb
     RDKit          3D

 25 28  0  0  0  0  0  0  0  0999 V2000
   69.9031   48.1601   57.1385 C   0  0  0  0  0  0  0  0  0  0  0  0
   71.0184   48.8194   57.6256 C   0  0  0  0  0  0  0  0  0  0  0  0
   71.8265   48.1413   58.5056 C   0  0  0  0  0  0  0  0  0  0  0  0
   71.5673   46.8523   58.9103 C   0  0  0  0  0  0  0  0  0  0  0  0
   70.4314   46.1896   58.4095 C   0  0  0  0  0  0  0  0  0  0  0  0
   69.6182   46.8745   57.5223 C   0  0  0  0  0  0  0  0  0  0  0  0
   69.0072   48.8521   56.1676 C   0  0  0  0  0  0  0  0  0  0  0  0
   70.5906   48.6678   50.9673 O   0  0  0  0  0  0  0  0  0  0  0  0
   70.2119   48.6821   52.1693 C   0  0  0  0  0  0  0  0  0  0  0  0
   70.6766   49.5923   53.0340 N   0  0  0  0  0  0  0  0  0  0  0  0
   70.2686   49.5868   54.2715 N   0  0  0  0  0  0  0  0  0  0  0  0
   69.3840   48.7060   54.7720 C   0  0  0  0  0  0  0  0  0  0  0  0
   68.8710   47.7520   53.9491 C   0  0  0  0  0  0  0  0  0  0  0  0
   69.2904   47.7438   52.6380 C   0  0  0  0  0  0  0  0  0  0  0  0
   68.8141   46.7672   51.6067 C   0  0  0  0  0  0  0  0  0  0  0  0
   67.5993   46.0548   52.1448 C   0  0  0  0  0  0  0  0  0  0  0  0
   68.0401   45.5268   53.5189 C   0  0  0  0  0  0  0  0  0  0  0  0
   67.8950   46.7208   54.4397 C   0  0  0  0  0  0  0  0  0  0  0  0
   70.1306   44.8760   58.8248 N   0  0  0  0  0  0  0  0  0  0  0  0
   70.4050   43.6492   58.1471 C   0  0  0  0  0  0  0  0  0  0  0  0
   69.3587   42.9886   57.4534 C   0  0  0  0  0  0  0  0  0  0  0  0
   68.5648   43.4889   56.3540 C   0  0  0  0  0  0  0  0  0  0  0  0
   67.6935   42.7153   55.8763 N   0  0  0  0  0  0  0  0  0  0  0  0
   67.4108   41.5265   56.2384 C   0  0  0  0  0  0  0  0  0  0  0  0
   68.6447   41.3475   57.6176 S   0  0  0  0  0  0  0  0  0  0  0  0
  8  9  2  0
  9 10  1  0
  9 14  1  0
 10 11  1  0
 11 12  2  0
 12  7  1  0
 12 13  1  0
  7  1  1  0
  1  2  2  0
  1  6  1  0
  2  3  1  0
  3  4  2  0
  4  5  1  0
  5 19  1  0
  5  6  2  0
 19 20  1  0
 20 21  1  0
 21 22  2  0
 21 25  1  0
 22 23  1  0
 23 24  2  0
 24 25  1  0
 13 14  2  0
 13 18  1  0
 14 15  1  0
 15 16  1  0
 16 17  1  0
 17 18  1  0
M  END
>  <minimizedAffinity>  (338) 
-9.25338

$$$$
cs_full_output_folder/data/smiles/2140.pdb
     RDKit          3D

 26 28  0  0  0  0  0  0  0  0999 V2000
   69.2137   46.5719   57.3121 O   0  0  0  0  0  0  0  0  0  0  0  0
   68.4459   47.5132   56.5977 C   0  0  0  0  0  0  0  0  0  0  0  0
   67.4186   47.8946   57.1739 O   0  0  0  0  0  0  0  0  0  0  0  0
   68.9541   47.8980   55.3148 C   0  0  0  0  0  0  0  0  0  0  0  0
   69.8090   49.0046   55.1692 C   0  0  0  0  0  0  0  0  0  0  0  0
   70.3087   49.3931   53.9554 C   0  0  0  0  0  0  0  0  0  0  0  0
   71.0661   50.3836   53.8749 O   0  0  0  0  0  0  0  0  0  0  0  0
   69.9950   48.7212   52.8463 N   0  0  0  0  0  0  0  0  0  0  0  0
   69.1736   47.6445   52.9248 C   0  0  0  0  0  0  0  0  0  0  0  0
   68.8835   46.9885   51.7428 C   0  0  0  0  0  0  0  0  0  0  0  0
   68.0519   45.8933   51.8008 C   0  0  0  0  0  0  0  0  0  0  0  0
   67.5126   45.4445   52.9768 C   0  0  0  0  0  0  0  0  0  0  0  0
   67.8216   46.1257   54.1573 C   0  0  0  0  0  0  0  0  0  0  0  0
   68.6468   47.2237   54.1543 C   0  0  0  0  0  0  0  0  0  0  0  0
   70.4800   46.9269   57.8387 C   0  0  0  0  0  0  0  0  0  0  0  0
   71.1483   45.7794   58.5235 C   0  0  0  0  0  0  0  0  0  0  0  0
   69.5708   44.3413   59.5078 O   0  0  0  0  0  0  0  0  0  0  0  0
   70.3505   44.5560   58.5529 C   0  0  0  0  0  0  0  0  0  0  0  0
   70.4426   43.5988   57.5150 N   0  0  0  0  0  0  0  0  0  0  0  0
   69.6762   42.3946   57.5164 C   0  0  0  0  0  0  0  0  0  0  0  0
   70.0926   41.3200   58.2048 C   0  0  0  0  0  0  0  0  0  0  0  0
   69.2735   40.1232   58.1702 C   0  0  0  0  0  0  0  0  0  0  0  0
   68.1081   40.1808   57.6199 C   0  0  0  0  0  0  0  0  0  0  0  0
   67.8469   41.0839   56.7499 C   0  0  0  0  0  0  0  0  0  0  0  0
   68.4215   42.2571   56.7859 C   0  0  0  0  0  0  0  0  0  0  0  0
   67.8817   43.3313   56.1692 F   0  0  0  0  0  0  0  0  0  0  0  0
 17 18  2  0
 18 16  1  0
 18 19  1  0
 16 15  1  0
 15  1  1  0
  1  2  1  0
  2  3  2  0
  2  4  1  0
  4  5  2  0
  4 14  1  0
  5  6  1  0
  6  7  2  0
  6  8  1  0
  8  9  1  0
  9 10  1  0
  9 14  2  0
 10 11  2  0
 11 12  1  0
 12 13  2  0
 13 14  1  0
 19 20  1  0
 20 21  2  0
 20 25  1  0
 21 22  1  0
 22 23  2  0
 23 24  2  0
 24 25  2  0
 25 26  1  0
M  END
>  <minimizedAffinity>  (339) 
-9.25253

$$$$
cs_full_output_folder/data/smiles/7038.pdb
     RDKit          3D

 27 29  0  0  0  0  0  0  0  0999 V2000
   70.7176   45.9525   58.1929 C   0  0  0  0  0  0  0  0  0  0  0  0
   69.8182   46.6876   57.4007 C   0  0  0  0  0  0  0  0  0  0  0  0
   70.0065   48.0040   57.0700 C   0  0  0  0  0  0  0  0  0  0  0  0
   71.1413   48.6662   57.5348 C   0  0  0  0  0  0  0  0  0  0  0  0
   72.0379   47.9875   58.3078 C   0  0  0  0  0  0  0  0  0  0  0  0
   71.8255   46.6366   58.6343 C   0  0  0  0  0  0  0  0  0  0  0  0
   72.7609   46.0466   59.4118 F   0  0  0  0  0  0  0  0  0  0  0  0
   70.3051   43.5234   57.5548 N   0  0  0  0  0  0  0  0  0  0  0  0
   70.4496   44.5569   58.4867 C   0  0  0  0  0  0  0  0  0  0  0  0
   70.3301   44.2206   59.7065 O   0  0  0  0  0  0  0  0  0  0  0  0
   70.0386   42.1392   57.9572 C   0  0  0  0  0  0  0  0  0  0  0  0
   66.9365   42.1459   55.8818 C   0  0  0  0  0  0  0  0  0  0  0  0
   68.1275   42.5007   56.5978 N   0  0  0  0  0  0  0  0  0  0  0  0
   68.8283   41.6721   57.2530 C   0  0  0  0  0  0  0  0  0  0  0  0
   68.4421   40.3780   57.2869 F   0  0  0  0  0  0  0  0  0  0  0  0
   69.0612   48.7730   56.2199 C   0  0  0  0  0  0  0  0  0  0  0  0
   69.3735   48.6951   54.7840 C   0  0  0  0  0  0  0  0  0  0  0  0
   70.2462   49.6133   54.2604 N   0  0  0  0  0  0  0  0  0  0  0  0
   70.6004   49.5819   53.0055 N   0  0  0  0  0  0  0  0  0  0  0  0
   70.1596   48.6795   52.1365 C   0  0  0  0  0  0  0  0  0  0  0  0
   70.5395   48.6954   50.9229 O   0  0  0  0  0  0  0  0  0  0  0  0
   69.2794   47.7175   52.5668 C   0  0  0  0  0  0  0  0  0  0  0  0
   68.7966   46.7760   51.6853 C   0  0  0  0  0  0  0  0  0  0  0  0
   67.8984   45.8190   52.1279 C   0  0  0  0  0  0  0  0  0  0  0  0
   67.5335   45.8689   53.4535 C   0  0  0  0  0  0  0  0  0  0  0  0
   68.0139   46.8078   54.3403 C   0  0  0  0  0  0  0  0  0  0  0  0
   68.9026   47.7552   53.9133 C   0  0  0  0  0  0  0  0  0  0  0  0
 12 13  1  0
 13 14  2  0
 14 15  1  0
 14 11  1  0
 11  8  1  0
  8  9  1  0
  9 10  2  0
  9  1  1  0
  1  2  2  0
  1  6  1  0
  2  3  1  0
  3 16  1  0
  3  4  2  0
 16 17  1  0
 17 18  2  0
 17 27  1  0
 18 19  1  0
 19 20  1  0
 20 21  2  0
 20 22  1  0
 22 23  1  0
 22 27  2  0
 23 24  2  0
 24 25  1  0
 25 26  2  0
 26 27  1  0
  4  5  1  0
  5  6  2  0
  6  7  1  0
M  END
>  <minimizedAffinity>  (340) 
-9.25156

$$$$
cs_full_output_folder/data/smiles/1294.pdb
     RDKit          3D

 29 32  0  0  0  0  0  0  0  0999 V2000
   71.5740   47.0067   58.9128 C   0  0  0  0  0  0  0  0  0  0  0  0
   70.8121   47.8657   58.1581 C   0  0  0  0  0  0  0  0  0  0  0  0
   69.9145   47.4217   57.2326 C   0  0  0  0  0  0  0  0  0  0  0  0
   69.7835   46.0454   57.0673 C   0  0  0  0  0  0  0  0  0  0  0  0
   70.5297   45.1615   57.8057 C   0  0  0  0  0  0  0  0  0  0  0  0
   71.4253   45.6551   58.7298 C   0  0  0  0  0  0  0  0  0  0  0  0
   72.1673   44.7784   59.4636 F   0  0  0  0  0  0  0  0  0  0  0  0
   73.8661   50.5924   59.8218 C   0  0  0  0  0  0  0  0  0  0  0  0
   75.1413   50.0157   59.2766 C   0  0  2  0  0  0  0  0  0  0  0  0
   74.9565   49.4239   57.9216 C   0  0  0  0  0  0  0  0  0  0  0  0
   75.4268   48.0197   57.7612 C   0  0  0  0  0  0  0  0  0  0  0  0
   74.3745   47.0929   58.3250 C   0  0  0  0  0  0  0  0  0  0  0  0
   73.9287   47.5341   59.6428 N   0  0  0  0  0  0  0  0  0  0  0  0
   72.5384   47.4799   59.9050 C   0  0  0  0  0  0  0  0  0  0  0  0
   72.0967   47.8371   61.0016 O   0  0  0  0  0  0  0  0  0  0  0  0
   74.7147   48.0325   60.7513 C   0  0  0  0  0  0  0  0  0  0  0  0
   75.7134   49.0717   60.2986 C   0  0  0  0  0  0  0  0  0  0  0  0
   69.0626   48.2892   56.3641 C   0  0  0  0  0  0  0  0  0  0  0  0
   69.4866   48.2988   54.9445 C   0  0  0  0  0  0  0  0  0  0  0  0
   70.4670   49.1653   54.5389 N   0  0  0  0  0  0  0  0  0  0  0  0
   70.8826   49.2865   53.3002 N   0  0  0  0  0  0  0  0  0  0  0  0
   70.3657   48.5505   52.3063 C   0  0  0  0  0  0  0  0  0  0  0  0
   70.7429   48.6466   51.1152 O   0  0  0  0  0  0  0  0  0  0  0  0
   69.3689   47.6534   52.6513 C   0  0  0  0  0  0  0  0  0  0  0  0
   68.7799   46.8393   51.6996 C   0  0  0  0  0  0  0  0  0  0  0  0
   67.7954   45.9308   52.0264 C   0  0  0  0  0  0  0  0  0  0  0  0
   67.3754   45.8194   53.3417 C   0  0  0  0  0  0  0  0  0  0  0  0
   67.9393   46.6141   54.3132 C   0  0  0  0  0  0  0  0  0  0  0  0
   68.9174   47.5160   53.9713 C   0  0  0  0  0  0  0  0  0  0  0  0
  9  8  1  1
  9 10  1  0
  9 17  1  0
 10 11  1  0
 11 12  1  0
 12 13  1  0
 13 14  1  0
 13 16  1  0
 14 15  2  0
 14  1  1  0
  1  2  2  0
  1  6  1  0
  2  3  1  0
  3 18  1  0
  3  4  2  0
 18 19  1  0
 19 20  2  0
 19 29  1  0
 20 21  1  0
 21 22  1  0
 22 23  2  0
 22 24  1  0
 24 25  1  0
 24 29  2  0
 25 26  2  0
 26 27  1  0
 27 28  2  0
 28 29  1  0
  4  5  1  0
  5  6  2  0
  6  7  1  0
 16 17  1  0
M  END
>  <minimizedAffinity>  (341) 
-9.25076

$$$$
cs_full_output_folder/data/smiles/2024.pdb
     RDKit          3D

 28 31  0  0  0  0  0  0  0  0999 V2000
   70.8138   45.6213   57.9106 C   0  0  0  0  0  0  0  0  0  0  0  0
   71.7097   46.4219   58.5653 C   0  0  0  0  0  0  0  0  0  0  0  0
   71.5683   47.8184   58.5620 C   0  0  0  0  0  0  0  0  0  0  0  0
   70.5003   48.3569   57.8780 C   0  0  0  0  0  0  0  0  0  0  0  0
   69.5888   47.5816   57.2149 C   0  0  0  0  0  0  0  0  0  0  0  0
   69.7674   46.2297   57.2494 C   0  0  0  0  0  0  0  0  0  0  0  0
   69.4401   44.0293   59.4864 O   0  0  0  0  0  0  0  0  0  0  0  0
   70.1502   43.3409   58.5827 C   0  0  0  0  0  0  0  0  0  0  0  0
   70.8609   44.2146   57.7818 N   0  0  0  0  0  0  0  0  0  0  0  0
   70.0015   41.9381   58.6254 C   0  0  0  0  0  0  0  0  0  0  0  0
   68.7041   42.0202   57.5009 C   0  0  0  0  0  0  0  0  0  0  0  0
   68.0563   41.0114   57.0682 C   0  0  0  0  0  0  0  0  0  0  0  0
   68.2780   39.6966   57.4183 C   0  0  0  0  0  0  0  0  0  0  0  0
   69.3024   39.5722   58.3129 N   0  0  0  0  0  0  0  0  0  0  0  0
   69.8704   40.7101   58.6624 C   0  0  0  0  0  0  0  0  0  0  0  0
   70.9015   40.4185   59.6055 O   0  0  0  0  0  0  0  0  0  0  0  0
   68.4393   48.1422   56.3991 C   0  0  0  0  0  0  0  0  0  0  0  0
   68.9510   48.4279   55.0403 C   0  0  0  0  0  0  0  0  0  0  0  0
   69.4677   49.6379   54.7472 N   0  0  0  0  0  0  0  0  0  0  0  0
   69.9035   49.9130   53.5247 N   0  0  0  0  0  0  0  0  0  0  0  0
   69.8603   49.0383   52.5284 C   0  0  0  0  0  0  0  0  0  0  0  0
   70.2825   49.3093   51.3469 O   0  0  0  0  0  0  0  0  0  0  0  0
   69.3427   47.7895   52.7627 C   0  0  0  0  0  0  0  0  0  0  0  0
   68.8783   47.4917   54.0620 C   0  0  0  0  0  0  0  0  0  0  0  0
   68.3341   46.1589   54.2887 C   0  0  0  0  0  0  0  0  0  0  0  0
   67.5052   45.6081   53.1514 C   0  0  0  0  0  0  0  0  0  0  0  0
   67.7756   46.2314   51.8247 C   0  0  0  0  0  0  0  0  0  0  0  0
   69.2143   46.7405   51.7301 C   0  0  0  0  0  0  0  0  0  0  0  0
  7  8  2  0
  8  9  1  0
  8 10  1  0
  9  1  1  0
  1  2  2  0
  1  6  1  0
  2  3  1  0
  3  4  2  0
  4  5  1  0
  5 17  1  0
  5  6  2  0
 17 18  1  0
 18 19  2  0
 18 24  1  0
 19 20  1  0
 20 21  1  0
 21 22  2  0
 21 23  1  0
 23 24  2  0
 23 28  1  0
 24 25  1  0
 25 26  1  0
 26 27  1  0
 27 28  1  0
 10 11  2  0
 10 15  1  0
 11 12  1  0
 12 13  2  0
 13 14  1  0
 14 15  1  0
 15 16  2  0
M  END
>  <minimizedAffinity>  (342) 
-9.24888

$$$$
cs_full_output_folder/data/smiles/2637.pdb
     RDKit          3D

 28 31  0  0  0  0  0  0  0  0999 V2000
   71.4756   46.9677   58.8998 C   0  0  0  0  0  0  0  0  0  0  0  0
   70.6760   47.7536   58.1098 C   0  0  0  0  0  0  0  0  0  0  0  0
   69.7928   47.2201   57.1473 C   0  0  0  0  0  0  0  0  0  0  0  0
   69.7314   45.8599   56.9971 C   0  0  0  0  0  0  0  0  0  0  0  0
   70.5384   45.0692   57.7935 C   0  0  0  0  0  0  0  0  0  0  0  0
   71.3997   45.6004   58.7324 C   0  0  0  0  0  0  0  0  0  0  0  0
   72.1887   44.8152   59.5115 F   0  0  0  0  0  0  0  0  0  0  0  0
   71.9842   47.5529   61.0875 O   0  0  0  0  0  0  0  0  0  0  0  0
   72.3855   47.5412   59.9003 C   0  0  0  0  0  0  0  0  0  0  0  0
   73.6496   48.0570   59.5750 N   0  0  0  0  0  0  0  0  0  0  0  0
   74.1041   48.0447   58.2088 C   0  0  0  0  0  0  0  0  0  0  0  0
   74.0410   49.3389   57.4915 C   0  0  0  0  0  0  0  0  0  0  0  0
   74.1783   50.5619   58.3207 C   0  0  0  0  0  0  0  0  0  0  0  0
   73.6203   50.4923   59.5816 O   0  0  0  0  0  0  0  0  0  0  0  0
   74.5681   50.0594   60.5054 C   0  0  0  0  0  0  0  0  0  0  0  0
   74.4094   48.5699   60.6942 C   0  0  0  0  0  0  0  0  0  0  0  0
   68.9633   48.1550   56.3712 C   0  0  0  0  0  0  0  0  0  0  0  0
   69.3464   48.2735   54.9377 C   0  0  0  0  0  0  0  0  0  0  0  0
   70.3043   49.1853   54.5703 N   0  0  0  0  0  0  0  0  0  0  0  0
   70.7159   49.2983   53.3430 N   0  0  0  0  0  0  0  0  0  0  0  0
   70.2421   48.5366   52.3301 C   0  0  0  0  0  0  0  0  0  0  0  0
   70.7105   48.7279   51.1813 O   0  0  0  0  0  0  0  0  0  0  0  0
   69.2749   47.5943   52.6133 C   0  0  0  0  0  0  0  0  0  0  0  0
   68.7704   46.8235   51.5926 C   0  0  0  0  0  0  0  0  0  0  0  0
   67.7890   45.8857   51.8339 C   0  0  0  0  0  0  0  0  0  0  0  0
   67.3588   45.7799   53.1504 C   0  0  0  0  0  0  0  0  0  0  0  0
   67.8738   46.5613   54.1749 C   0  0  0  0  0  0  0  0  0  0  0  0
   68.8499   47.4894   53.9232 C   0  0  0  0  0  0  0  0  0  0  0  0
  8  9  2  0
  9  1  1  0
  9 10  1  0
  1  2  2  0
  1  6  1  0
  2  3  1  0
  3 17  1  0
  3  4  2  0
 17 18  1  0
 18 19  2  0
 18 28  1  0
 19 20  1  0
 20 21  1  0
 21 22  2  0
 21 23  1  0
 23 24  1  0
 23 28  2  0
 24 25  2  0
 25 26  1  0
 26 27  2  0
 27 28  1  0
  4  5  1  0
  5  6  2  0
  6  7  1  0
 10 11  1  0
 10 16  1  0
 11 12  1  0
 12 13  1  0
 13 14  1  0
 14 15  1  0
 15 16  1  0
M  END
>  <minimizedAffinity>  (343) 
-9.24745

$$$$
cs_full_output_folder/data/smiles/2479.pdb
     RDKit          3D

 29 32  0  0  0  0  0  0  0  0999 V2000
   70.8565   45.8909   58.3163 C   0  0  0  0  0  0  0  0  0  0  0  0
   70.0014   46.5446   57.4678 C   0  0  0  0  0  0  0  0  0  0  0  0
   70.0687   47.9108   57.2056 C   0  0  0  0  0  0  0  0  0  0  0  0
   71.0455   48.6147   57.8271 C   0  0  0  0  0  0  0  0  0  0  0  0
   71.3020   50.0002   57.6150 N   0  0  0  0  0  0  0  0  0  0  0  0
   71.9314   47.9546   58.6994 C   0  0  0  0  0  0  0  0  0  0  0  0
   71.8415   46.6071   58.9449 C   0  0  0  0  0  0  0  0  0  0  0  0
   72.7230   46.0047   59.8040 F   0  0  0  0  0  0  0  0  0  0  0  0
   74.5863   41.2904   59.8620 C   0  0  0  0  0  0  0  0  0  0  0  0
   73.4444   41.8131   59.0249 C   0  0  0  0  0  0  0  0  0  0  0  0
   72.1952   41.5567   59.3666 C   0  0  0  0  0  0  0  0  0  0  0  0
   71.0916   42.0738   58.5379 C   0  0  0  0  0  0  0  0  0  0  0  0
   71.4919   43.4301   58.1471 N   0  0  0  0  0  0  0  0  0  0  0  0
   70.6694   44.4831   58.5763 C   0  0  0  0  0  0  0  0  0  0  0  0
   69.6105   44.2318   59.2814 O   0  0  0  0  0  0  0  0  0  0  0  0
   72.6747   43.5485   57.3572 C   0  0  0  0  0  0  0  0  0  0  0  0
   73.7404   42.5992   57.8132 C   0  0  0  0  0  0  0  0  0  0  0  0
   69.0088   48.5607   56.3929 C   0  0  0  0  0  0  0  0  0  0  0  0
   69.2834   48.5154   54.9592 C   0  0  0  0  0  0  0  0  0  0  0  0
   70.1708   49.4694   54.5082 N   0  0  0  0  0  0  0  0  0  0  0  0
   70.6000   49.5659   53.2903 N   0  0  0  0  0  0  0  0  0  0  0  0
   70.1898   48.6957   52.3139 C   0  0  0  0  0  0  0  0  0  0  0  0
   70.5798   48.7652   51.1392 O   0  0  0  0  0  0  0  0  0  0  0  0
   69.3031   47.7179   52.7045 C   0  0  0  0  0  0  0  0  0  0  0  0
   68.8664   46.8103   51.7566 C   0  0  0  0  0  0  0  0  0  0  0  0
   67.9737   45.8213   52.1569 C   0  0  0  0  0  0  0  0  0  0  0  0
   67.5356   45.7461   53.4602 C   0  0  0  0  0  0  0  0  0  0  0  0
   67.9653   46.6456   54.4062 C   0  0  0  0  0  0  0  0  0  0  0  0
   68.8521   47.6355   54.0361 C   0  0  0  0  0  0  0  0  0  0  0  0
  9 10  1  0
 10 11  2  0
 10 17  1  0
 11 12  1  0
 12 13  1  0
 13 14  1  0
 13 16  1  0
 14 15  2  0
 14  1  1  0
  1  2  2  0
  1  7  1  0
  2  3  1  0
  3 18  1  0
  3  4  2  0
 18 19  1  0
 19 20  2  0
 19 29  1  0
 20 21  1  0
 21 22  1  0
 22 23  2  0
 22 24  1  0
 24 25  1  0
 24 29  2  0
 25 26  2  0
 26 27  1  0
 27 28  2  0
 28 29  1  0
  4  5  1  0
  4  6  1  0
  6  7  2  0
  7  8  1  0
 16 17  1  0
M  END
>  <minimizedAffinity>  (344) 
-9.24738

$$$$
cs_full_output_folder/data/smiles/2894.pdb
     RDKit          3D

 27 29  0  0  0  0  0  0  0  0999 V2000
   68.3886   45.9596   54.1515 C   0  0  0  0  0  0  0  0  0  0  0  0
   67.8189   45.5869   52.9580 C   0  0  0  0  0  0  0  0  0  0  0  0
   67.9399   46.3344   51.8081 C   0  0  0  0  0  0  0  0  0  0  0  0
   68.6712   47.5020   51.8998 C   0  0  0  0  0  0  0  0  0  0  0  0
   69.2574   47.9123   53.0778 C   0  0  0  0  0  0  0  0  0  0  0  0
   69.1109   47.1313   54.2051 C   0  0  0  0  0  0  0  0  0  0  0  0
   67.7873   43.8373   55.4039 N   0  0  0  0  0  0  0  0  0  0  0  0
   68.2665   45.1755   55.3704 C   0  0  0  0  0  0  0  0  0  0  0  0
   68.5883   45.6531   56.5017 O   0  0  0  0  0  0  0  0  0  0  0  0
   67.4825   41.1596   55.4234 O   0  0  0  0  0  0  0  0  0  0  0  0
   67.5161   41.6751   56.5756 C   0  0  0  0  0  0  0  0  0  0  0  0
   67.6782   43.0991   56.5917 N   0  0  0  0  0  0  0  0  0  0  0  0
   67.4018   40.8946   57.7905 C   0  0  0  0  0  0  0  0  0  0  0  0
   68.0341   39.6737   57.8603 C   0  0  0  0  0  0  0  0  0  0  0  0
   67.9426   38.9025   59.0111 C   0  0  0  0  0  0  0  0  0  0  0  0
   67.2241   39.3426   60.0945 C   0  0  0  0  0  0  0  0  0  0  0  0
   66.5944   40.5464   60.0405 C   0  0  0  0  0  0  0  0  0  0  0  0
   66.6897   41.3113   58.8883 C   0  0  0  0  0  0  0  0  0  0  0  0
   70.1829   49.3778   53.2182 S   0  0  0  0  0  0  0  0  0  0  0  0
   69.7169   50.4193   52.2549 O   0  0  0  0  0  0  0  0  0  0  0  0
   71.6126   49.0319   52.8235 O   0  0  0  0  0  0  0  0  0  0  0  0
   70.2263   50.0146   54.7910 N   0  0  0  0  0  0  0  0  0  0  0  0
   68.9616   50.1872   55.4158 C   0  0  0  0  0  0  0  0  0  0  0  0
   68.3106   51.5117   55.2000 C   0  0  0  0  0  0  0  0  0  0  0  0
   69.2548   52.6098   54.8129 C   0  0  0  0  0  0  0  0  0  0  0  0
   70.6546   52.3801   55.3293 C   0  0  0  0  0  0  0  0  0  0  0  0
   71.1895   51.0299   55.0190 C   0  0  0  0  0  0  0  0  0  0  0  0
 10 11  2  0
 11 12  1  0
 11 13  1  0
 12  7  1  0
  7  8  1  0
  8  9  2  0
  8  1  1  0
  1  2  2  0
  1  6  1  0
  2  3  1  0
  3  4  2  0
  4  5  1  0
  5 19  1  0
  5  6  2  0
 19 20  2  0
 19 21  2  0
 19 22  1  0
 22 23  1  0
 22 27  1  0
 23 24  1  0
 24 25  1  0
 25 26  1  0
 26 27  1  0
 13 14  2  0
 13 18  1  0
 14 15  1  0
 15 16  2  0
 16 17  1  0
 17 18  2  0
M  END
>  <minimizedAffinity>  (345) 
-9.24737

$$$$
cs_full_output_folder/data/smiles/2315.pdb
     RDKit          3D

 29 32  0  0  0  0  0  0  0  0999 V2000
   70.5549   45.9283   58.3901 C   0  0  0  0  0  0  0  0  0  0  0  0
   71.5436   46.5292   59.1234 C   0  0  0  0  0  0  0  0  0  0  0  0
   71.8126   47.8903   58.9122 C   0  0  0  0  0  0  0  0  0  0  0  0
   71.1263   48.6437   58.0020 C   0  0  0  0  0  0  0  0  0  0  0  0
   70.1221   48.0216   57.2617 C   0  0  0  0  0  0  0  0  0  0  0  0
   69.8471   46.6960   57.4521 C   0  0  0  0  0  0  0  0  0  0  0  0
   70.9061   43.4956   58.0386 C   0  0  0  0  0  0  0  0  0  0  0  0
   71.9018   43.8885   57.3150 O   0  0  0  0  0  0  0  0  0  0  0  0
   70.1768   44.5714   58.6203 N   0  0  0  0  0  0  0  0  0  0  0  0
   71.8172   38.6008   58.7284 C   0  0  0  0  0  0  0  0  0  0  0  0
   71.0826   39.8717   58.4987 C   0  0  0  0  0  0  0  0  0  0  0  0
   71.6254   41.1273   58.4307 C   0  0  0  0  0  0  0  0  0  0  0  0
   70.6469   42.0861   58.1822 C   0  0  0  0  0  0  0  0  0  0  0  0
   69.4805   41.3341   58.1051 C   0  0  0  0  0  0  0  0  0  0  0  0
   68.1413   41.9307   57.8419 C   0  0  0  0  0  0  0  0  0  0  0  0
   69.7513   40.0260   58.2943 N   0  0  0  0  0  0  0  0  0  0  0  0
   68.8235   38.9241   58.2795 C   0  0  0  0  0  0  0  0  0  0  0  0
   69.3602   48.8994   56.3310 C   0  0  0  0  0  0  0  0  0  0  0  0
   69.7736   48.6307   54.9284 C   0  0  0  0  0  0  0  0  0  0  0  0
   70.7558   49.4059   54.3750 N   0  0  0  0  0  0  0  0  0  0  0  0
   71.0614   49.3333   53.0845 N   0  0  0  0  0  0  0  0  0  0  0  0
   70.4343   48.5081   52.2406 C   0  0  0  0  0  0  0  0  0  0  0  0
   70.7030   48.4280   51.0214 O   0  0  0  0  0  0  0  0  0  0  0  0
   69.4197   47.6870   52.7500 C   0  0  0  0  0  0  0  0  0  0  0  0
   69.1094   47.7659   54.1085 C   0  0  0  0  0  0  0  0  0  0  0  0
   68.1561   46.8053   54.7076 C   0  0  0  0  0  0  0  0  0  0  0  0
   67.2442   46.1641   53.7044 C   0  0  0  0  0  0  0  0  0  0  0  0
   68.0104   45.6819   52.4829 C   0  0  0  0  0  0  0  0  0  0  0  0
   68.6976   46.8184   51.7891 C   0  0  0  0  0  0  0  0  0  0  0  0
 10 11  1  0
 11 12  2  0
 11 16  1  0
 12 13  1  0
 13  7  1  0
 13 14  2  0
  7  8  2  0
  7  9  1  0
  9  1  1  0
  1  2  2  0
  1  6  1  0
  2  3  1  0
  3  4  2  0
  4  5  1  0
  5 18  1  0
  5  6  2  0
 18 19  1  0
 19 20  2  0
 19 25  1  0
 20 21  1  0
 21 22  1  0
 22 23  2  0
 22 24  1  0
 24 25  2  0
 24 29  1  0
 25 26  1  0
 26 27  1  0
 27 28  1  0
 28 29  1  0
 14 15  1  0
 14 16  1  0
 16 17  1  0
M  END
>  <minimizedAffinity>  (346) 
-9.24416

$$$$
cs_full_output_folder/data/smiles/1570.pdb
     RDKit          3D

 28 31  0  0  0  0  0  0  0  0999 V2000
   71.5803   47.2130   58.9198 C   0  0  0  0  0  0  0  0  0  0  0  0
   70.7443   48.0013   58.1529 C   0  0  0  0  0  0  0  0  0  0  0  0
   69.8633   47.4918   57.2404 C   0  0  0  0  0  0  0  0  0  0  0  0
   69.8655   46.0877   57.1362 C   0  0  0  0  0  0  0  0  0  0  0  0
   70.6682   45.2758   57.8705 C   0  0  0  0  0  0  0  0  0  0  0  0
   71.5420   45.8491   58.7782 C   0  0  0  0  0  0  0  0  0  0  0  0
   72.3462   45.0472   59.5135 F   0  0  0  0  0  0  0  0  0  0  0  0
   72.1892   47.8821   61.1028 O   0  0  0  0  0  0  0  0  0  0  0  0
   72.4985   47.8268   59.8639 C   0  0  0  0  0  0  0  0  0  0  0  0
   73.7368   48.3583   59.3813 N   0  0  0  0  0  0  0  0  0  0  0  0
   74.6093   48.9528   60.3671 C   0  0  0  0  0  0  0  0  0  0  0  0
   75.6732   49.8103   59.8091 C   0  0  0  0  0  0  0  0  0  0  0  0
   76.2579   49.3190   58.5109 C   0  0  0  0  0  0  0  0  0  0  0  0
   77.0203   50.3640   58.0000 F   0  0  0  0  0  0  0  0  0  0  0  0
   75.2322   48.9515   57.4966 C   0  0  0  0  0  0  0  0  0  0  0  0
   74.0180   48.2661   57.9884 C   0  0  0  0  0  0  0  0  0  0  0  0
   68.9533   48.2877   56.3762 C   0  0  0  0  0  0  0  0  0  0  0  0
   69.3764   48.2853   54.9712 C   0  0  0  0  0  0  0  0  0  0  0  0
   70.3454   49.1940   54.6150 N   0  0  0  0  0  0  0  0  0  0  0  0
   70.7580   49.3206   53.3669 N   0  0  0  0  0  0  0  0  0  0  0  0
   70.2793   48.5896   52.3598 C   0  0  0  0  0  0  0  0  0  0  0  0
   70.6936   48.7390   51.2020 O   0  0  0  0  0  0  0  0  0  0  0  0
   69.2985   47.6562   52.6707 C   0  0  0  0  0  0  0  0  0  0  0  0
   68.7761   46.8569   51.6704 C   0  0  0  0  0  0  0  0  0  0  0  0
   67.8126   45.9057   51.9418 C   0  0  0  0  0  0  0  0  0  0  0  0
   67.3928   45.7876   53.2704 C   0  0  0  0  0  0  0  0  0  0  0  0
   67.9153   46.5867   54.2670 C   0  0  0  0  0  0  0  0  0  0  0  0
   68.8684   47.5225   53.9661 C   0  0  0  0  0  0  0  0  0  0  0  0
  8  9  2  0
  9  1  1  0
  9 10  1  0
  1  2  2  0
  1  6  1  0
  2  3  1  0
  3 17  1  0
  3  4  2  0
 17 18  1  0
 18 19  2  0
 18 28  1  0
 19 20  1  0
 20 21  1  0
 21 22  2  0
 21 23  1  0
 23 24  1  0
 23 28  2  0
 24 25  2  0
 25 26  1  0
 26 27  2  0
 27 28  1  0
  4  5  1  0
  5  6  2  0
  6  7  1  0
 10 11  1  0
 10 16  1  0
 11 12  1  0
 12 13  1  0
 13 14  1  0
 13 15  1  0
 15 16  1  0
M  END
>  <minimizedAffinity>  (347) 
-9.24267

$$$$
cs_full_output_folder/data/smiles/8060.pdb
     RDKit          3D

 28 31  0  0  0  0  0  0  0  0999 V2000
   71.4783   47.0409   58.8336 C   0  0  0  0  0  0  0  0  0  0  0  0
   70.6724   47.8872   58.0781 C   0  0  0  0  0  0  0  0  0  0  0  0
   69.7701   47.4227   57.1568 C   0  0  0  0  0  0  0  0  0  0  0  0
   69.7046   46.0288   57.0184 C   0  0  0  0  0  0  0  0  0  0  0  0
   70.4741   45.1661   57.7369 C   0  0  0  0  0  0  0  0  0  0  0  0
   71.3649   45.6902   58.6484 C   0  0  0  0  0  0  0  0  0  0  0  0
   72.1436   44.8300   59.3779 F   0  0  0  0  0  0  0  0  0  0  0  0
   72.0440   47.7795   61.0024 O   0  0  0  0  0  0  0  0  0  0  0  0
   72.4338   47.5412   59.8063 C   0  0  0  0  0  0  0  0  0  0  0  0
   73.7944   47.7908   59.5269 N   0  0  0  0  0  0  0  0  0  0  0  0
   74.1862   47.5003   58.1441 C   0  0  0  0  0  0  0  0  0  0  0  0
   74.7401   48.7449   57.5805 C   0  0  0  0  0  0  0  0  0  0  0  0
   74.8874   49.9691   58.0697 C   0  0  0  0  0  0  0  0  0  0  0  0
   74.5122   50.4100   59.3626 N   0  0  0  0  0  0  0  0  0  0  0  0
   74.5374   49.7731   60.6508 C   0  0  0  0  0  0  0  0  0  0  0  0
   74.6584   48.2795   60.5579 C   0  0  0  0  0  0  0  0  0  0  0  0
   68.8839   48.2689   56.3217 C   0  0  0  0  0  0  0  0  0  0  0  0
   69.3373   48.2647   54.9355 C   0  0  0  0  0  0  0  0  0  0  0  0
   70.3120   49.1740   54.6199 N   0  0  0  0  0  0  0  0  0  0  0  0
   70.7679   49.3172   53.3999 N   0  0  0  0  0  0  0  0  0  0  0  0
   70.3129   48.5836   52.3728 C   0  0  0  0  0  0  0  0  0  0  0  0
   70.7385   48.7104   51.2039 O   0  0  0  0  0  0  0  0  0  0  0  0
   69.3262   47.6433   52.6324 C   0  0  0  0  0  0  0  0  0  0  0  0
   68.8121   46.8387   51.6503 C   0  0  0  0  0  0  0  0  0  0  0  0
   67.8355   45.8910   51.9260 C   0  0  0  0  0  0  0  0  0  0  0  0
   67.3750   45.7589   53.2188 C   0  0  0  0  0  0  0  0  0  0  0  0
   67.8739   46.5560   54.2267 C   0  0  0  0  0  0  0  0  0  0  0  0
   68.8403   47.4884   53.9241 C   0  0  0  0  0  0  0  0  0  0  0  0
  8  9  2  0
  9  1  1  0
  9 10  1  0
  1  2  2  0
  1  6  1  0
  2  3  1  0
  3 17  1  0
  3  4  2  0
 17 18  1  0
 18 19  2  0
 18 28  1  0
 19 20  1  0
 20 21  1  0
 21 22  2  0
 21 23  1  0
 23 24  1  0
 23 28  2  0
 24 25  2  0
 25 26  1  0
 26 27  2  0
 27 28  1  0
  4  5  1  0
  5  6  2  0
  6  7  1  0
 10 11  1  0
 10 16  1  0
 11 12  1  0
 12 13  2  0
 13 14  1  0
 14 15  1  0
 15 16  1  0
M  END
>  <minimizedAffinity>  (348) 
-9.24266

$$$$
cs_full_output_folder/data/smiles/2341.pdb
     RDKit          3D

 28 32  0  0  0  0  0  0  0  0999 V2000
   71.5968   47.4127   59.1138 C   0  0  0  0  0  0  0  0  0  0  0  0
   70.7545   48.1109   58.2889 C   0  0  0  0  0  0  0  0  0  0  0  0
   69.9635   47.5071   57.3065 C   0  0  0  0  0  0  0  0  0  0  0  0
   70.0732   46.1520   57.2063 C   0  0  0  0  0  0  0  0  0  0  0  0
   70.9099   45.3939   58.0167 C   0  0  0  0  0  0  0  0  0  0  0  0
   71.6655   46.0351   58.9654 C   0  0  0  0  0  0  0  0  0  0  0  0
   72.4793   45.2784   59.7494 F   0  0  0  0  0  0  0  0  0  0  0  0
   72.3105   47.7179   61.3448 O   0  0  0  0  0  0  0  0  0  0  0  0
   72.4311   48.0391   60.1316 C   0  0  0  0  0  0  0  0  0  0  0  0
   73.3907   49.0209   59.7737 N   0  0  0  0  0  0  0  0  0  0  0  0
   74.3374   49.7833   60.6132 C   0  0  0  0  0  0  0  0  0  0  0  0
   75.1579   50.0461   59.3684 C   0  0  1  0  0  0  0  0  0  0  0  0
   76.1235   48.9318   59.0720 C   0  0  0  0  0  0  0  0  0  0  0  0
   75.6695   48.3085   57.7873 C   0  0  0  0  0  0  0  0  0  0  0  0
   74.3328   48.8753   57.4473 C   0  0  0  0  0  0  0  0  0  0  0  0
   73.8877   49.7098   58.6060 C   0  0  1  0  0  0  0  0  0  0  0  0
   69.0732   48.3513   56.4874 C   0  0  0  0  0  0  0  0  0  0  0  0
   69.4267   48.3952   55.0492 C   0  0  0  0  0  0  0  0  0  0  0  0
   70.3735   49.2979   54.6342 N   0  0  0  0  0  0  0  0  0  0  0  0
   70.7737   49.3752   53.3837 N   0  0  0  0  0  0  0  0  0  0  0  0
   70.2970   48.5857   52.4075 C   0  0  0  0  0  0  0  0  0  0  0  0
   70.7166   48.7005   51.2198 O   0  0  0  0  0  0  0  0  0  0  0  0
   69.3420   47.6512   52.7401 C   0  0  0  0  0  0  0  0  0  0  0  0
   68.8232   46.8331   51.7606 C   0  0  0  0  0  0  0  0  0  0  0  0
   67.8587   45.9068   52.0893 C   0  0  0  0  0  0  0  0  0  0  0  0
   67.4536   45.8457   53.4056 C   0  0  0  0  0  0  0  0  0  0  0  0
   67.9598   46.6570   54.4059 C   0  0  0  0  0  0  0  0  0  0  0  0
   68.9226   47.5772   54.0737 C   0  0  0  0  0  0  0  0  0  0  0  0
  8  9  2  0
  9  1  1  0
  9 10  1  0
  1  2  2  0
  1  6  1  0
  2  3  1  0
  3 17  1  0
  3  4  2  0
 17 18  1  0
 18 19  2  0
 18 28  1  0
 19 20  1  0
 20 21  1  0
 21 22  2  0
 21 23  1  0
 23 24  1  0
 23 28  2  0
 24 25  2  0
 25 26  1  0
 26 27  2  0
 27 28  1  0
  4  5  1  0
  5  6  2  0
  6  7  1  0
 10 11  1  0
 10 16  1  0
 12 11  1  1
 12 13  1  0
 12 16  1  0
 13 14  1  0
 14 15  1  0
 16 15  1  6
M  END
>  <minimizedAffinity>  (349) 
-9.23837

$$$$
cs_full_output_folder/data/smiles/8605.pdb
     RDKit          3D

 27 30  0  0  0  0  0  0  0  0999 V2000
   70.6407   46.0038   58.0971 C   0  0  0  0  0  0  0  0  0  0  0  0
   69.7565   46.7111   57.2783 C   0  0  0  0  0  0  0  0  0  0  0  0
   69.8754   48.0433   57.0075 C   0  0  0  0  0  0  0  0  0  0  0  0
   70.9675   48.6775   57.6159 C   0  0  0  0  0  0  0  0  0  0  0  0
   71.8597   48.0452   58.4201 C   0  0  0  0  0  0  0  0  0  0  0  0
   71.6904   46.6773   58.6649 C   0  0  0  0  0  0  0  0  0  0  0  0
   72.6249   46.1327   59.4701 F   0  0  0  0  0  0  0  0  0  0  0  0
   70.9509   43.5065   57.6403 N   0  0  0  0  0  0  0  0  0  0  0  0
   70.4399   44.5977   58.3494 C   0  0  0  0  0  0  0  0  0  0  0  0
   69.7021   44.3011   59.3487 O   0  0  0  0  0  0  0  0  0  0  0  0
   68.1582   41.4337   57.3748 C   0  0  0  0  0  0  0  0  0  0  0  0
   69.5290   41.2561   57.9011 C   0  0  0  0  0  0  0  0  0  0  0  0
   70.1857   40.2867   58.4463 N   0  0  0  0  0  0  0  0  0  0  0  0
   71.2945   41.1417   58.5403 C   0  0  0  0  0  0  0  0  0  0  0  0
   70.6729   42.1472   57.9955 C   0  0  0  0  0  0  0  0  0  0  0  0
   68.9682   48.8501   56.1602 C   0  0  0  0  0  0  0  0  0  0  0  0
   69.3695   48.6780   54.7679 C   0  0  0  0  0  0  0  0  0  0  0  0
   70.2713   49.5877   54.2771 N   0  0  0  0  0  0  0  0  0  0  0  0
   70.6623   49.5895   53.0155 N   0  0  0  0  0  0  0  0  0  0  0  0
   70.2213   48.7186   52.1163 C   0  0  0  0  0  0  0  0  0  0  0  0
   70.5681   48.6867   50.9056 O   0  0  0  0  0  0  0  0  0  0  0  0
   69.3147   47.7745   52.5366 C   0  0  0  0  0  0  0  0  0  0  0  0
   68.7944   46.8101   51.7140 C   0  0  0  0  0  0  0  0  0  0  0  0
   67.8961   45.8442   52.1231 C   0  0  0  0  0  0  0  0  0  0  0  0
   67.5013   45.8603   53.4631 C   0  0  0  0  0  0  0  0  0  0  0  0
   68.0058   46.8202   54.3200 C   0  0  0  0  0  0  0  0  0  0  0  0
   68.8967   47.7668   53.8722 C   0  0  0  0  0  0  0  0  0  0  0  0
 11 12  1  0
 12 13  2  0
 12 15  1  0
 13 14  1  0
 14 15  2  0
 15  8  1  0
  8  9  1  0
  9 10  2  0
  9  1  1  0
  1  2  2  0
  1  6  1  0
  2  3  1  0
  3 16  1  0
  3  4  2  0
 16 17  1  0
 17 18  2  0
 17 27  1  0
 18 19  1  0
 19 20  1  0
 20 21  2  0
 20 22  1  0
 22 23  1  0
 22 27  2  0
 23 24  2  0
 24 25  1  0
 25 26  2  0
 26 27  1  0
  4  5  1  0
  5  6  2  0
  6  7  1  0
M  END
>  <minimizedAffinity>  (350) 
-9.23803

$$$$
cs_full_output_folder/data/smiles/4261.pdb
     RDKit          3D

 24 26  0  0  0  0  0  0  0  0999 V2000
   69.5425   44.1993   56.9749 C   0  0  0  0  0  0  0  0  0  0  0  0
   70.5845   44.7831   57.3816 O   0  0  0  0  0  0  0  0  0  0  0  0
   68.6079   44.9522   56.2503 N   0  0  0  0  0  0  0  0  0  0  0  0
   67.0099   41.9519   56.5000 C   0  0  0  0  0  0  0  0  0  0  0  0
   68.3676   41.8438   57.1064 C   0  0  0  0  0  0  0  0  0  0  0  0
   69.3805   42.7809   57.2867 C   0  0  0  0  0  0  0  0  0  0  0  0
   70.1544   41.8102   57.8797 C   0  0  0  0  0  0  0  0  0  0  0  0
   71.3624   41.5283   58.4748 C   0  0  0  0  0  0  0  0  0  0  0  0
   71.9750   40.3257   58.7521 C   0  0  0  0  0  0  0  0  0  0  0  0
   71.4442   39.0514   58.5289 C   0  0  0  0  0  0  0  0  0  0  0  0
   72.6948   37.6211   58.4746 Br  0  0  0  0  0  0  0  0  0  0  0  0
   70.1176   38.7438   58.3478 C   0  0  0  0  0  0  0  0  0  0  0  0
   69.0551   39.5652   58.0151 C   0  0  0  0  0  0  0  0  0  0  0  0
   69.1081   40.8709   57.6864 N   0  0  0  0  0  0  0  0  0  0  0  0
   68.8127   46.3554   55.9723 C   0  0  0  0  0  0  0  0  0  0  0  0
   68.7037   46.5723   54.5052 C   0  0  0  0  0  0  0  0  0  0  0  0
   67.8791   45.6991   53.7748 C   0  0  0  0  0  0  0  0  0  0  0  0
   67.7565   45.8414   52.3885 C   0  0  0  0  0  0  0  0  0  0  0  0
   68.4496   46.8411   51.7554 C   0  0  0  0  0  0  0  0  0  0  0  0
   69.2663   47.7166   52.4262 C   0  0  0  0  0  0  0  0  0  0  0  0
   69.3575   47.5374   53.8034 C   0  0  0  0  0  0  0  0  0  0  0  0
   70.0027   48.7844   51.7347 C   0  0  0  0  0  0  0  0  0  0  0  0
   69.8038   50.1094   52.2129 N   0  0  0  0  0  0  0  0  0  0  0  0
   70.7637   48.5442   50.7762 O   0  0  0  0  0  0  0  0  0  0  0  0
  4  5  1  0
  5  6  2  0
  5 14  1  0
  6  1  1  0
  6  7  1  0
  1  2  2  0
  1  3  1  0
  3 15  1  0
 15 16  1  0
 16 17  2  0
 16 21  1  0
 17 18  1  0
 18 19  2  0
 19 20  1  0
 20 22  1  0
 20 21  2  0
 22 23  1  0
 22 24  2  0
  7  8  2  0
  7 14  1  0
  8  9  1  0
  9 10  2  0
 10 11  1  0
 10 12  1  0
 12 13  2  0
 13 14  1  0
M  END
>  <minimizedAffinity>  (351) 
-9.23735

$$$$
cs_full_output_folder/data/smiles/6542.pdb
     RDKit          3D

 28 31  0  0  0  0  0  0  0  0999 V2000
   71.5440   47.2118   58.9157 C   0  0  0  0  0  0  0  0  0  0  0  0
   70.7005   48.0486   58.1744 C   0  0  0  0  0  0  0  0  0  0  0  0
   69.8280   47.5379   57.2554 C   0  0  0  0  0  0  0  0  0  0  0  0
   69.8272   46.1456   57.1031 C   0  0  0  0  0  0  0  0  0  0  0  0
   70.6575   45.3241   57.8335 C   0  0  0  0  0  0  0  0  0  0  0  0
   71.5357   45.8430   58.7584 C   0  0  0  0  0  0  0  0  0  0  0  0
   72.3579   45.0271   59.4823 F   0  0  0  0  0  0  0  0  0  0  0  0
   74.6016   50.3857   60.5188 C   0  0  0  0  0  0  0  0  0  0  0  0
   74.5933   48.8702   60.5724 C   0  0  2  0  0  0  0  0  0  0  0  0
   75.9796   48.3312   60.4093 C   0  0  0  0  0  0  0  0  0  0  0  0
   76.0501   47.2935   59.4083 N   0  0  0  0  0  0  0  0  0  0  0  0
   75.6169   47.8087   58.1265 C   0  0  0  0  0  0  0  0  0  0  0  0
   74.2154   48.3583   58.1779 C   0  0  0  0  0  0  0  0  0  0  0  0
   73.7293   48.3156   59.5513 N   0  0  0  0  0  0  0  0  0  0  0  0
   72.4607   47.7661   59.8835 C   0  0  0  0  0  0  0  0  0  0  0  0
   72.1151   47.7600   61.0861 O   0  0  0  0  0  0  0  0  0  0  0  0
   68.8944   48.3089   56.3963 C   0  0  0  0  0  0  0  0  0  0  0  0
   69.3450   48.3220   55.0215 C   0  0  0  0  0  0  0  0  0  0  0  0
   70.3094   49.2222   54.6628 N   0  0  0  0  0  0  0  0  0  0  0  0
   70.7580   49.3448   53.4275 N   0  0  0  0  0  0  0  0  0  0  0  0
   70.2974   48.5861   52.4151 C   0  0  0  0  0  0  0  0  0  0  0  0
   70.7293   48.7081   51.2364 O   0  0  0  0  0  0  0  0  0  0  0  0
   69.3336   47.6617   52.6942 C   0  0  0  0  0  0  0  0  0  0  0  0
   68.8440   46.8536   51.6893 C   0  0  0  0  0  0  0  0  0  0  0  0
   67.8728   45.8985   51.9676 C   0  0  0  0  0  0  0  0  0  0  0  0
   67.4279   45.7981   53.2781 C   0  0  0  0  0  0  0  0  0  0  0  0
   67.9182   46.6072   54.2795 C   0  0  0  0  0  0  0  0  0  0  0  0
   68.8658   47.5403   54.0042 C   0  0  0  0  0  0  0  0  0  0  0  0
  9  8  1  6
  9 10  1  0
  9 14  1  0
 10 11  1  0
 11 12  1  0
 12 13  1  0
 13 14  1  0
 14 15  1  0
 15 16  2  0
 15  1  1  0
  1  2  2  0
  1  6  1  0
  2  3  1  0
  3 17  1  0
  3  4  2  0
 17 18  1  0
 18 19  2  0
 18 28  1  0
 19 20  1  0
 20 21  1  0
 21 22  2  0
 21 23  1  0
 23 24  1  0
 23 28  2  0
 24 25  2  0
 25 26  1  0
 26 27  2  0
 27 28  1  0
  4  5  1  0
  5  6  2  0
  6  7  1  0
M  CHG  1  11   1
M  END
>  <minimizedAffinity>  (352) 
-9.23674

$$$$
cs_full_output_folder/data/smiles/2715.pdb
     RDKit          3D

 28 31  0  0  0  0  0  0  0  0999 V2000
   73.6202   49.8438   56.7099 C   0  0  0  0  0  0  0  0  0  0  0  0
   72.9317   49.1358   57.6647 C   0  0  0  0  0  0  0  0  0  0  0  0
   71.5378   48.9811   57.5980 C   0  0  0  0  0  0  0  0  0  0  0  0
   70.8508   49.5492   56.5570 C   0  0  0  0  0  0  0  0  0  0  0  0
   71.5739   50.2542   55.6132 C   0  0  0  0  0  0  0  0  0  0  0  0
   72.9024   50.3745   55.7191 N   0  0  0  0  0  0  0  0  0  0  0  0
   75.4542   49.5764   54.6377 O   0  0  0  0  0  0  0  0  0  0  0  0
   75.9427   49.8263   55.7708 C   0  0  0  0  0  0  0  0  0  0  0  0
   75.0253   49.9641   56.8306 N   0  0  0  0  0  0  0  0  0  0  0  0
   77.3899   49.9553   55.9159 C   0  0  0  0  0  0  0  0  0  0  0  0
   78.0294   51.1261   56.2123 C   0  0  0  0  0  0  0  0  0  0  0  0
   79.3968   51.2645   56.3530 C   0  0  0  0  0  0  0  0  0  0  0  0
   80.1586   50.1294   56.1768 C   0  0  0  0  0  0  0  0  0  0  0  0
   79.5721   48.9103   55.8747 C   0  0  0  0  0  0  0  0  0  0  0  0
   80.3855   47.7948   55.7071 O   0  0  0  0  0  0  0  0  0  0  0  0
   78.1925   48.8388   55.7472 C   0  0  0  0  0  0  0  0  0  0  0  0
   69.3606   49.4241   56.4463 C   0  0  0  0  0  0  0  0  0  0  0  0
   68.9637   48.1610   55.8359 C   0  0  0  0  0  0  0  0  0  0  0  0
   68.7424   47.1026   56.6788 N   0  0  0  0  0  0  0  0  0  0  0  0
   68.4085   45.9101   56.2358 N   0  0  0  0  0  0  0  0  0  0  0  0
   68.2536   45.6151   54.9255 C   0  0  0  0  0  0  0  0  0  0  0  0
   67.9364   44.4728   54.5179 O   0  0  0  0  0  0  0  0  0  0  0  0
   68.4578   46.6182   54.0273 C   0  0  0  0  0  0  0  0  0  0  0  0
   68.8116   47.8809   54.5190 C   0  0  0  0  0  0  0  0  0  0  0  0
   68.9846   48.9128   53.4989 C   0  0  0  0  0  0  0  0  0  0  0  0
   70.0093   48.4077   52.5105 C   0  0  0  0  0  0  0  0  0  0  0  0
   69.6264   47.0568   51.9655 C   0  0  0  0  0  0  0  0  0  0  0  0
   68.3475   46.4976   52.5528 C   0  0  0  0  0  0  0  0  0  0  0  0
  7  8  2  0
  8  9  1  0
  8 10  1  0
  9  1  1  0
  1  2  2  0
  1  6  1  0
  2  3  1  0
  3  4  2  0
  4 17  1  0
  4  5  1  0
 17 18  1  0
 18 19  2  0
 18 24  1  0
 19 20  1  0
 20 21  1  0
 21 22  2  0
 21 23  1  0
 23 24  2  0
 23 28  1  0
 24 25  1  0
 25 26  1  0
 26 27  1  0
 27 28  1  0
  5  6  2  0
 10 11  2  0
 10 16  1  0
 11 12  1  0
 12 13  2  0
 13 14  1  0
 14 15  1  0
 14 16  2  0
M  END
>  <minimizedAffinity>  (353) 
-9.23607

$$$$
cs_full_output_folder/data/smiles/8662.pdb
     RDKit          3D

 29 32  0  0  0  0  0  0  0  0999 V2000
   71.4868   46.7729   58.8827 C   0  0  0  0  0  0  0  0  0  0  0  0
   70.5350   47.4799   58.1797 C   0  0  0  0  0  0  0  0  0  0  0  0
   69.6399   46.9515   57.2807 C   0  0  0  0  0  0  0  0  0  0  0  0
   69.7028   45.5996   57.0693 C   0  0  0  0  0  0  0  0  0  0  0  0
   70.6329   44.8254   57.7389 C   0  0  0  0  0  0  0  0  0  0  0  0
   71.5215   45.4220   58.6448 C   0  0  0  0  0  0  0  0  0  0  0  0
   72.3739   44.5770   59.2360 F   0  0  0  0  0  0  0  0  0  0  0  0
   73.6635   47.9459   59.5448 N   0  0  0  0  0  0  0  0  0  0  0  0
   72.3934   47.4194   59.8071 C   0  0  0  0  0  0  0  0  0  0  0  0
   71.9861   47.5249   61.0158 O   0  0  0  0  0  0  0  0  0  0  0  0
   75.1220   52.0827   59.3457 N   0  0  0  0  0  0  0  0  0  0  0  0
   75.1241   50.6198   59.2176 C   0  0  1  0  0  0  0  0  0  0  0  0
   76.5677   50.1657   59.2613 C   0  0  0  0  0  0  0  0  0  0  0  0
   76.5987   48.6575   59.2419 C   0  0  0  0  0  0  0  0  0  0  0  0
   75.9272   48.1394   60.4964 C   0  0  0  0  0  0  0  0  0  0  0  0
   74.5051   48.5815   60.5532 C   0  0  1  0  0  0  0  0  0  0  0  0
   74.3505   50.0837   60.3750 C   0  0  0  0  0  0  0  0  0  0  0  0
   68.6282   47.8437   56.6038 C   0  0  0  0  0  0  0  0  0  0  0  0
   69.1605   48.1028   55.2452 C   0  0  0  0  0  0  0  0  0  0  0  0
   70.1320   49.0604   55.0942 N   0  0  0  0  0  0  0  0  0  0  0  0
   70.6883   49.3170   53.9288 N   0  0  0  0  0  0  0  0  0  0  0  0
   70.3437   48.6597   52.8144 C   0  0  0  0  0  0  0  0  0  0  0  0
   70.8836   48.9110   51.6982 O   0  0  0  0  0  0  0  0  0  0  0  0
   69.3689   47.6716   52.8607 C   0  0  0  0  0  0  0  0  0  0  0  0
   68.9874   46.9898   51.7242 C   0  0  0  0  0  0  0  0  0  0  0  0
   68.0103   46.0319   51.8147 C   0  0  0  0  0  0  0  0  0  0  0  0
   67.4329   45.7736   53.0346 C   0  0  0  0  0  0  0  0  0  0  0  0
   67.8254   46.4662   54.1720 C   0  0  0  0  0  0  0  0  0  0  0  0
   68.7977   47.4249   54.1160 C   0  0  0  0  0  0  0  0  0  0  0  0
 12 11  1  1
 12 13  1  0
 12 17  1  0
 13 14  1  0
 14 15  1  0
 15 16  1  0
 16  8  1  6
 16 17  1  0
  8  9  1  0
  9 10  2  0
  9  1  1  0
  1  2  2  0
  1  6  1  0
  2  3  1  0
  3 18  1  0
  3  4  2  0
 18 19  1  0
 19 20  2  0
 19 29  1  0
 20 21  1  0
 21 22  1  0
 22 23  2  0
 22 24  1  0
 24 25  1  0
 24 29  2  0
 25 26  2  0
 26 27  1  0
 27 28  2  0
 28 29  1  0
  4  5  1  0
  5  6  2  0
  6  7  1  0
M  CHG  1  11   1
M  END
>  <minimizedAffinity>  (354) 
-9.23553

$$$$
cs_full_output_folder/data/smiles/3219.pdb
     RDKit          3D

 26 27  0  0  0  0  0  0  0  0999 V2000
   70.0988   49.4118   52.7367 S   0  0  0  0  0  0  0  0  0  0  0  0
   70.2202   49.2131   51.2214 O   0  0  0  0  0  0  0  0  0  0  0  0
   71.5251   49.4662   53.2981 O   0  0  0  0  0  0  0  0  0  0  0  0
   69.3290   48.0008   53.4051 C   0  0  0  0  0  0  0  0  0  0  0  0
   69.3813   47.6999   54.7553 C   0  0  0  0  0  0  0  0  0  0  0  0
   70.0341   48.5831   55.5647 F   0  0  0  0  0  0  0  0  0  0  0  0
   68.8210   46.5786   55.3191 C   0  0  0  0  0  0  0  0  0  0  0  0
   68.8982   46.3281   56.6427 F   0  0  0  0  0  0  0  0  0  0  0  0
   68.1643   45.6946   54.4938 C   0  0  0  0  0  0  0  0  0  0  0  0
   67.5820   44.5558   54.9892 F   0  0  0  0  0  0  0  0  0  0  0  0
   68.0865   45.9522   53.1437 C   0  0  0  0  0  0  0  0  0  0  0  0
   67.4341   45.0699   52.3340 F   0  0  0  0  0  0  0  0  0  0  0  0
   68.6527   47.0774   52.5977 C   0  0  0  0  0  0  0  0  0  0  0  0
   68.5843   47.3473   51.2606 F   0  0  0  0  0  0  0  0  0  0  0  0
   69.2718   50.8615   53.0397 N   0  0  0  0  0  0  0  0  0  0  0  0
   70.1400   52.7926   56.1140 C   0  0  0  0  0  0  0  0  0  0  0  0
   69.0476   52.4903   56.8833 C   0  0  0  0  0  0  0  0  0  0  0  0
   68.0173   51.6678   56.4092 C   0  0  0  0  0  0  0  0  0  0  0  0
   68.0683   51.1304   55.1456 C   0  0  0  0  0  0  0  0  0  0  0  0
   69.1501   51.4100   54.3376 C   0  0  0  0  0  0  0  0  0  0  0  0
   70.1498   52.2260   54.8391 C   0  0  0  0  0  0  0  0  0  0  0  0
   72.2026   53.3109   57.4645 C   0  0  0  0  0  0  0  0  0  0  0  0
   72.1686   52.2391   58.0687 O   0  0  0  0  0  0  0  0  0  0  0  0
   71.2301   53.6128   56.5060 N   0  0  0  0  0  0  0  0  0  0  0  0
   73.9473   54.6883   56.4877 C   0  0  0  0  0  0  0  0  0  0  0  0
   73.3179   54.2742   57.7933 C   0  0  0  0  0  0  0  0  0  0  0  0
 25 26  1  0
 26 22  1  0
 22 23  2  0
 22 24  1  0
 24 16  1  0
 16 17  2  0
 16 21  1  0
 17 18  1  0
 18 19  2  0
 19 20  1  0
 20 15  1  0
 20 21  2  0
 15  1  1  0
  1  2  2  0
  1  3  2  0
  1  4  1  0
  4  5  2  0
  4 13  1  0
  5  6  1  0
  5  7  1  0
  7  8  1  0
  7  9  2  0
  9 10  1  0
  9 11  1  0
 11 12  1  0
 11 13  2  0
 13 14  1  0
M  END
>  <minimizedAffinity>  (355) 
-9.23447

$$$$
cs_full_output_folder/data/smiles/5287.pdb
     RDKit          3D

 28 31  0  0  0  0  0  0  0  0999 V2000
   71.0630   46.5167   58.2289 C   0  0  0  0  0  0  0  0  0  0  0  0
   72.1190   47.3384   58.5143 C   0  0  0  0  0  0  0  0  0  0  0  0
   72.1353   48.6667   58.0786 C   0  0  0  0  0  0  0  0  0  0  0  0
   71.0769   49.1503   57.3532 C   0  0  0  0  0  0  0  0  0  0  0  0
   70.0029   48.3433   57.0502 C   0  0  0  0  0  0  0  0  0  0  0  0
   69.9904   47.0513   57.4769 C   0  0  0  0  0  0  0  0  0  0  0  0
   71.0968   44.9373   59.9326 O   0  0  0  0  0  0  0  0  0  0  0  0
   71.0172   45.1337   58.6914 C   0  0  0  0  0  0  0  0  0  0  0  0
   70.8923   44.0238   57.8630 N   0  0  0  0  0  0  0  0  0  0  0  0
   70.8483   42.6325   58.2638 C   0  0  0  0  0  0  0  0  0  0  0  0
   69.6610   42.0151   57.6373 C   0  0  0  0  0  0  0  0  0  0  0  0
   68.8152   42.7787   56.8281 C   0  0  0  0  0  0  0  0  0  0  0  0
   67.7012   42.2490   56.2386 C   0  0  0  0  0  0  0  0  0  0  0  0
   67.3927   40.9279   56.4408 C   0  0  0  0  0  0  0  0  0  0  0  0
   68.1981   40.1921   57.2158 N   0  0  0  0  0  0  0  0  0  0  0  0
   69.2926   40.7077   57.7961 C   0  0  0  0  0  0  0  0  0  0  0  0
   68.8704   48.9450   56.2675 C   0  0  0  0  0  0  0  0  0  0  0  0
   69.2596   48.9046   54.8448 C   0  0  0  0  0  0  0  0  0  0  0  0
   69.7801   50.0280   54.3144 N   0  0  0  0  0  0  0  0  0  0  0  0
   70.1348   50.1086   53.0400 N   0  0  0  0  0  0  0  0  0  0  0  0
   69.9818   49.0314   52.2075 C   0  0  0  0  0  0  0  0  0  0  0  0
   70.3288   49.1389   51.0038 O   0  0  0  0  0  0  0  0  0  0  0  0
   69.4673   47.8775   52.6786 C   0  0  0  0  0  0  0  0  0  0  0  0
   69.1005   47.8196   54.0262 C   0  0  0  0  0  0  0  0  0  0  0  0
   68.5631   46.5550   54.5304 C   0  0  0  0  0  0  0  0  0  0  0  0
   67.5793   45.8868   53.5992 C   0  0  0  0  0  0  0  0  0  0  0  0
   67.8066   46.2237   52.1585 C   0  0  0  0  0  0  0  0  0  0  0  0
   69.2447   46.6315   51.8807 C   0  0  0  0  0  0  0  0  0  0  0  0
  7  8  2  0
  8  9  1  0
  8  1  1  0
  9 10  1  0
 10 11  1  0
 11 12  2  0
 11 16  1  0
 12 13  1  0
 13 14  2  0
 14 15  1  0
 15 16  2  0
  1  2  2  0
  1  6  1  0
  2  3  1  0
  3  4  2  0
  4  5  1  0
  5 17  1  0
  5  6  2  0
 17 18  1  0
 18 19  2  0
 18 24  1  0
 19 20  1  0
 20 21  1  0
 21 22  2  0
 21 23  1  0
 23 24  2  0
 23 28  1  0
 24 25  1  0
 25 26  1  0
 26 27  1  0
 27 28  1  0
M  END
>  <minimizedAffinity>  (356) 
-9.23289

$$$$
cs_full_output_folder/data/smiles/649.pdb
     RDKit          3D

 26 28  0  0  0  0  0  0  0  0999 V2000
   68.3815   46.0082   54.0638 C   0  0  0  0  0  0  0  0  0  0  0  0
   67.8225   45.5765   52.8897 C   0  0  0  0  0  0  0  0  0  0  0  0
   67.9309   46.2883   51.7035 C   0  0  0  0  0  0  0  0  0  0  0  0
   68.6429   47.4885   51.7357 C   0  0  0  0  0  0  0  0  0  0  0  0
   69.2131   47.9431   52.8948 C   0  0  0  0  0  0  0  0  0  0  0  0
   69.0724   47.1951   54.0445 C   0  0  0  0  0  0  0  0  0  0  0  0
   67.7977   43.8773   55.3214 N   0  0  0  0  0  0  0  0  0  0  0  0
   68.2350   45.2265   55.2628 C   0  0  0  0  0  0  0  0  0  0  0  0
   68.5085   45.7444   56.3989 O   0  0  0  0  0  0  0  0  0  0  0  0
   67.4847   41.1710   55.4924 O   0  0  0  0  0  0  0  0  0  0  0  0
   67.5183   41.7741   56.5992 C   0  0  0  0  0  0  0  0  0  0  0  0
   67.6801   43.1769   56.5449 N   0  0  0  0  0  0  0  0  0  0  0  0
   67.3922   41.0099   57.8339 C   0  0  0  0  0  0  0  0  0  0  0  0
   67.9907   39.7881   58.0146 C   0  0  0  0  0  0  0  0  0  0  0  0
   67.8476   39.0840   59.2150 C   0  0  0  0  0  0  0  0  0  0  0  0
   67.0976   39.6009   60.2490 C   0  0  0  0  0  0  0  0  0  0  0  0
   66.4938   40.8226   60.0793 C   0  0  0  0  0  0  0  0  0  0  0  0
   66.6478   41.5079   58.8810 C   0  0  0  0  0  0  0  0  0  0  0  0
   70.0953   49.4361   52.9195 S   0  0  0  0  0  0  0  0  0  0  0  0
   69.8056   50.2867   51.7164 O   0  0  0  0  0  0  0  0  0  0  0  0
   71.5564   49.1156   52.9451 O   0  0  0  0  0  0  0  0  0  0  0  0
   69.7033   50.2613   54.3835 N   0  0  0  0  0  0  0  0  0  0  0  0
   68.6491   51.2309   54.2087 C   0  0  0  0  0  0  0  0  0  0  0  0
   68.9787   52.4307   55.0325 C   0  0  0  0  0  0  0  0  0  0  0  0
   70.2051   52.0335   55.7885 C   0  0  0  0  0  0  0  0  0  0  0  0
   70.8345   50.9638   54.9402 C   0  0  0  0  0  0  0  0  0  0  0  0
 10 11  2  0
 11 12  1  0
 11 13  1  0
 12  7  1  0
  7  8  1  0
  8  9  2  0
  8  1  1  0
  1  2  2  0
  1  6  1  0
  2  3  1  0
  3  4  2  0
  4  5  1  0
  5 19  1  0
  5  6  2  0
 19 20  2  0
 19 21  2  0
 19 22  1  0
 22 23  1  0
 22 26  1  0
 23 24  1  0
 24 25  1  0
 25 26  1  0
 13 14  2  0
 13 18  1  0
 14 15  1  0
 15 16  2  0
 16 17  1  0
 17 18  2  0
M  END
>  <minimizedAffinity>  (357) 
-9.23255

$$$$
cs_full_output_folder/data/smiles/1946.pdb
     RDKit          3D

 28 32  0  0  0  0  0  0  0  0999 V2000
   71.5283   47.1287   58.8149 C   0  0  0  0  0  0  0  0  0  0  0  0
   70.6999   47.8904   58.0205 C   0  0  0  0  0  0  0  0  0  0  0  0
   69.7869   47.3549   57.1233 C   0  0  0  0  0  0  0  0  0  0  0  0
   69.7068   45.9968   57.0232 C   0  0  0  0  0  0  0  0  0  0  0  0
   70.5276   45.1749   57.8082 C   0  0  0  0  0  0  0  0  0  0  0  0
   71.4176   45.7583   58.6851 C   0  0  0  0  0  0  0  0  0  0  0  0
   72.2404   45.0000   59.4740 F   0  0  0  0  0  0  0  0  0  0  0  0
   72.0550   47.9549   60.9185 O   0  0  0  0  0  0  0  0  0  0  0  0
   72.4445   47.7944   59.7253 C   0  0  0  0  0  0  0  0  0  0  0  0
   73.6949   48.2228   59.2531 N   0  0  0  0  0  0  0  0  0  0  0  0
   74.7152   48.8931   60.0151 C   0  0  0  0  0  0  0  0  0  0  0  0
   75.4754   49.7205   58.9943 C   0  0  1  0  0  0  0  0  0  0  0  0
   76.7478   49.0611   58.5004 C   0  0  0  0  0  0  0  0  0  0  0  0
   76.2406   49.3369   57.0847 C   0  0  0  0  0  0  0  0  0  0  0  0
   74.8434   49.4074   57.6595 C   0  0  1  0  0  0  0  0  0  0  0  0
   74.1999   48.0700   57.9184 C   0  0  0  0  0  0  0  0  0  0  0  0
   68.9227   48.2579   56.3411 C   0  0  0  0  0  0  0  0  0  0  0  0
   69.3013   48.3686   54.9076 C   0  0  0  0  0  0  0  0  0  0  0  0
   70.2114   49.3124   54.5167 N   0  0  0  0  0  0  0  0  0  0  0  0
   70.6247   49.4415   53.2760 N   0  0  0  0  0  0  0  0  0  0  0  0
   70.1654   48.6350   52.3033 C   0  0  0  0  0  0  0  0  0  0  0  0
   70.5894   48.7877   51.1118 O   0  0  0  0  0  0  0  0  0  0  0  0
   69.2471   47.6569   52.6002 C   0  0  0  0  0  0  0  0  0  0  0  0
   68.7798   46.8523   51.5822 C   0  0  0  0  0  0  0  0  0  0  0  0
   67.8485   45.8797   51.8570 C   0  0  0  0  0  0  0  0  0  0  0  0
   67.4234   45.7605   53.1617 C   0  0  0  0  0  0  0  0  0  0  0  0
   67.9025   46.5788   54.1869 C   0  0  0  0  0  0  0  0  0  0  0  0
   68.8284   47.5441   53.9133 C   0  0  0  0  0  0  0  0  0  0  0  0
  8  9  2  0
  9  1  1  0
  9 10  1  0
  1  2  2  0
  1  6  1  0
  2  3  1  0
  3 17  1  0
  3  4  2  0
 17 18  1  0
 18 19  2  0
 18 28  1  0
 19 20  1  0
 20 21  1  0
 21 22  2  0
 21 23  1  0
 23 24  1  0
 23 28  2  0
 24 25  2  0
 25 26  1  0
 26 27  2  0
 27 28  1  0
  4  5  1  0
  5  6  2  0
  6  7  1  0
 10 11  1  0
 10 16  1  0
 12 11  1  1
 12 13  1  0
 12 15  1  0
 13 14  1  0
 15 14  1  6
 15 16  1  0
M  END
>  <minimizedAffinity>  (358) 
-9.23211

$$$$
cs_full_output_folder/data/smiles/4589.pdb
     RDKit          3D

 26 28  0  0  0  0  0  0  0  0999 V2000
   69.1959   48.0745   53.3649 C   0  0  0  0  0  0  0  0  0  0  0  0
   69.1721   48.0577   54.7391 C   0  0  0  0  0  0  0  0  0  0  0  0
   68.7319   46.9501   55.4009 C   0  0  0  0  0  0  0  0  0  0  0  0
   68.2780   45.7273   54.7899 C   0  0  0  0  0  0  0  0  0  0  0  0
   68.3218   45.8587   53.3438 C   0  0  0  0  0  0  0  0  0  0  0  0
   68.7608   46.9743   52.6759 C   0  0  0  0  0  0  0  0  0  0  0  0
   70.2399   49.3223   52.5800 S   0  0  0  0  0  0  0  0  0  0  0  0
   70.0860   49.0602   51.0581 O   0  0  0  0  0  0  0  0  0  0  0  0
   71.6269   49.1275   52.9239 O   0  0  0  0  0  0  0  0  0  0  0  0
   69.6187   50.9173   52.8092 N   0  0  0  0  0  0  0  0  0  0  0  0
   72.2309   52.1440   53.9183 N   0  0  0  0  0  0  0  0  0  0  0  0
   70.9045   52.2612   54.4933 C   0  0  0  0  0  0  0  0  0  0  0  0
   70.9715   52.9535   55.7423 C   0  0  0  0  0  0  0  0  0  0  0  0
   69.7458   53.0373   56.4318 C   0  0  0  0  0  0  0  0  0  0  0  0
   68.6432   52.5024   55.9294 C   0  0  0  0  0  0  0  0  0  0  0  0
   68.5770   51.8388   54.7244 C   0  0  0  0  0  0  0  0  0  0  0  0
   69.8044   51.7137   53.9538 C   0  0  0  0  0  0  0  0  0  0  0  0
   68.2746   44.6480   55.3952 C   0  0  0  0  0  0  0  0  0  0  0  0
   68.2736   43.4042   56.1183 C   0  0  0  0  0  0  0  0  0  0  0  0
   68.2792   42.2845   56.7931 C   0  0  0  0  0  0  0  0  0  0  0  0
   67.6801   41.0799   56.1304 C   0  0  0  0  0  0  0  0  0  0  0  0
   67.8658   39.9554   56.8487 C   0  0  0  0  0  0  0  0  0  0  0  0
   68.3925   39.6248   57.9486 C   0  0  0  0  0  0  0  0  0  0  0  0
   68.5730   38.4907   58.6051 F   0  0  0  0  0  0  0  0  0  0  0  0
   69.0090   40.8331   58.6565 C   0  0  0  0  0  0  0  0  0  0  0  0
   68.8640   41.9771   57.9776 C   0  0  0  0  0  0  0  0  0  0  0  0
 11 12  1  0
 12 13  2  0
 12 17  1  0
 13 14  1  0
 14 15  2  0
 15 16  1  0
 16 17  2  0
 17 10  1  0
 10  7  1  0
  7  8  2  0
  7  9  2  0
  7  1  1  0
  1  2  2  0
  1  6  1  0
  2  3  1  0
  3  4  2  0
  4 18  1  0
  4  5  1  0
 18 19  3  0
 19 20  1  0
 20 21  2  0
 20 26  1  0
 21 22  1  0
 22 23  2  0
 23 24  1  0
 23 25  1  0
 25 26  2  0
  5  6  2  0
M  END
>  <minimizedAffinity>  (359) 
-9.23047

$$$$
cs_full_output_folder/data/smiles/1262.pdb
     RDKit          3D

 26 28  0  0  0  0  0  0  0  0999 V2000
   70.9872   41.8610   58.7393 C   0  0  0  0  0  0  0  0  0  0  0  0
   69.7996   41.5366   57.9221 C   0  0  0  0  0  0  0  0  0  0  0  0
   69.0272   42.4374   57.2109 C   0  0  0  0  0  0  0  0  0  0  0  0
   68.0413   41.6769   56.6173 C   0  0  0  0  0  0  0  0  0  0  0  0
   68.2493   40.4036   56.9760 N   0  0  0  0  0  0  0  0  0  0  0  0
   69.2960   40.2734   57.7597 N   0  0  0  0  0  0  0  0  0  0  0  0
   69.8210   39.0879   58.3172 C   0  0  0  0  0  0  0  0  0  0  0  0
   70.9940   38.5028   57.9404 C   0  0  0  0  0  0  0  0  0  0  0  0
   71.4262   37.3301   58.5574 C   0  0  0  0  0  0  0  0  0  0  0  0
   70.6834   36.7256   59.5663 C   0  0  0  0  0  0  0  0  0  0  0  0
   71.1828   35.2577   60.3754 Cl  0  0  0  0  0  0  0  0  0  0  0  0
   69.4969   37.3214   59.9446 C   0  0  0  0  0  0  0  0  0  0  0  0
   69.0821   38.4780   59.3284 C   0  0  0  0  0  0  0  0  0  0  0  0
   69.2560   43.8935   57.1188 C   0  0  0  0  0  0  0  0  0  0  0  0
   70.0650   44.5147   57.8193 O   0  0  0  0  0  0  0  0  0  0  0  0
   68.4961   44.6367   56.1654 N   0  0  0  0  0  0  0  0  0  0  0  0
   68.5811   46.0459   55.9495 C   0  0  0  0  0  0  0  0  0  0  0  0
   68.5592   46.3088   54.4647 C   0  0  0  0  0  0  0  0  0  0  0  0
   67.7910   45.5568   53.6234 C   0  0  0  0  0  0  0  0  0  0  0  0
   67.7656   45.8256   52.2512 C   0  0  0  0  0  0  0  0  0  0  0  0
   68.5239   46.8619   51.7540 C   0  0  0  0  0  0  0  0  0  0  0  0
   69.2965   47.6259   52.5792 C   0  0  0  0  0  0  0  0  0  0  0  0
   69.3030   47.3358   53.9325 C   0  0  0  0  0  0  0  0  0  0  0  0
   70.0750   48.7282   52.0320 C   0  0  0  0  0  0  0  0  0  0  0  0
   69.6429   49.4696   51.1140 O   0  0  0  0  0  0  0  0  0  0  0  0
   71.3444   48.9982   52.5229 O   0  0  0  0  0  0  0  0  0  0  0  0
  1  2  1  0
  2  3  2  0
  2  6  1  0
  3 14  1  0
  3  4  1  0
 14 15  2  0
 14 16  1  0
 16 17  1  0
 17 18  1  0
 18 19  2  0
 18 23  1  0
 19 20  1  0
 20 21  2  0
 21 22  1  0
 22 24  1  0
 22 23  2  0
 24 25  2  0
 24 26  1  0
  4  5  2  0
  5  6  1  0
  6  7  1  0
  7  8  2  0
  7 13  1  0
  8  9  1  0
  9 10  2  0
 10 11  1  0
 10 12  1  0
 12 13  2  0
M  END
>  <minimizedAffinity>  (360) 
-9.23020

$$$$
cs_full_output_folder/data/smiles/1817.pdb
     RDKit          3D

 27 30  0  0  0  0  0  0  0  0999 V2000
   75.7543   35.6697   53.6399 C   0  0  0  0  0  0  0  0  0  0  0  0
   74.3984   35.6007   53.4187 C   0  0  0  0  0  0  0  0  0  0  0  0
   73.5416   35.2125   54.4376 C   0  0  0  0  0  0  0  0  0  0  0  0
   74.0253   34.8875   55.6877 C   0  0  0  0  0  0  0  0  0  0  0  0
   75.3984   34.9725   55.8635 C   0  0  0  0  0  0  0  0  0  0  0  0
   76.1890   35.3463   54.8728 N   0  0  0  0  0  0  0  0  0  0  0  0
   76.6909   36.0879   52.5369 C   0  0  0  0  0  0  0  0  0  0  0  0
   77.0767   33.7939   52.3476 O   0  0  0  0  0  0  0  0  0  0  0  0
   76.9244   34.8951   51.7145 C   0  0  0  0  0  0  0  0  0  0  0  0
   76.9955   34.8662   50.2610 C   0  0  0  0  0  0  0  0  0  0  0  0
   76.1960   34.0449   49.4995 C   0  0  0  0  0  0  0  0  0  0  0  0
   76.2516   33.9970   48.1098 C   0  0  0  0  0  0  0  0  0  0  0  0
   77.1674   34.8260   47.4571 C   0  0  0  0  0  0  0  0  0  0  0  0
   77.9786   35.6583   48.2077 C   0  0  0  0  0  0  0  0  0  0  0  0
   77.9042   35.6869   49.5854 C   0  0  0  0  0  0  0  0  0  0  0  0
   73.1226   34.4600   56.7636 C   0  0  0  0  0  0  0  0  0  0  0  0
   72.4374   35.5297   57.4987 C   0  0  0  0  0  0  0  0  0  0  0  0
   72.3787   36.7946   57.0504 N   0  0  0  0  0  0  0  0  0  0  0  0
   71.7751   37.7753   57.6752 N   0  0  0  0  0  0  0  0  0  0  0  0
   71.1486   37.5520   58.8570 C   0  0  0  0  0  0  0  0  0  0  0  0
   70.5632   38.5160   59.4540 O   0  0  0  0  0  0  0  0  0  0  0  0
   71.1666   36.2853   59.3751 C   0  0  0  0  0  0  0  0  0  0  0  0
   71.8083   35.2648   58.7115 C   0  0  0  0  0  0  0  0  0  0  0  0
   71.9131   33.9390   59.3182 C   0  0  0  0  0  0  0  0  0  0  0  0
   70.9732   33.6375   60.4095 C   0  0  0  0  0  0  0  0  0  0  0  0
   70.3427   34.7706   61.0591 C   0  0  0  0  0  0  0  0  0  0  0  0
   70.4231   35.9997   60.5859 C   0  0  0  0  0  0  0  0  0  0  0  0
  8  9  2  0
  9  7  1  0
  9 10  1  0
  7  1  1  0
  1  2  2  0
  1  6  1  0
  2  3  1  0
  3  4  2  0
  4 16  1  0
  4  5  1  0
 16 17  1  0
 17 18  2  0
 17 23  1  0
 18 19  1  0
 19 20  1  0
 20 21  2  0
 20 22  1  0
 22 23  2  0
 22 27  1  0
 23 24  1  0
 24 25  1  0
 25 26  1  0
 26 27  2  0
  5  6  2  0
 10 11  2  0
 10 15  1  0
 11 12  1  0
 12 13  2  0
 13 14  1  0
 14 15  2  0
M  END
>  <minimizedAffinity>  (361) 
-9.22652

$$$$
cs_full_output_folder/data/smiles/2463.pdb
     RDKit          3D

 28 31  0  0  0  0  0  0  0  0999 V2000
   71.3259   46.9394   58.9307 C   0  0  0  0  0  0  0  0  0  0  0  0
   70.4277   47.6906   58.2178 C   0  0  0  0  0  0  0  0  0  0  0  0
   69.6356   47.0591   57.2447 C   0  0  0  0  0  0  0  0  0  0  0  0
   69.8018   45.7202   57.0584 C   0  0  0  0  0  0  0  0  0  0  0  0
   70.7167   44.9611   57.7867 C   0  0  0  0  0  0  0  0  0  0  0  0
   71.4894   45.5888   58.7390 C   0  0  0  0  0  0  0  0  0  0  0  0
   72.3988   44.8600   59.4679 F   0  0  0  0  0  0  0  0  0  0  0  0
   71.9078   47.2880   61.1351 O   0  0  0  0  0  0  0  0  0  0  0  0
   72.1628   47.5593   59.9540 C   0  0  0  0  0  0  0  0  0  0  0  0
   73.2309   48.4415   59.6355 N   0  0  0  0  0  0  0  0  0  0  0  0
   73.9447   48.9607   60.7529 C   0  0  0  0  0  0  0  0  0  0  0  0
   74.9424   50.0158   60.4545 C   0  0  0  0  0  0  0  0  0  0  0  0
   74.5835   50.9456   59.3391 C   0  0  0  0  0  0  0  0  0  0  0  0
   74.9689   50.4187   58.0556 N   0  0  0  0  0  0  0  0  0  0  0  0
   74.8407   48.9975   57.9654 C   0  0  0  0  0  0  0  0  0  0  0  0
   73.3852   48.6427   58.1943 C   0  0  0  0  0  0  0  0  0  0  0  0
   68.6475   47.8833   56.4947 C   0  0  0  0  0  0  0  0  0  0  0  0
   69.1301   48.0814   55.1443 C   0  0  0  0  0  0  0  0  0  0  0  0
   70.0963   49.0340   54.9674 N   0  0  0  0  0  0  0  0  0  0  0  0
   70.6466   49.2702   53.7933 N   0  0  0  0  0  0  0  0  0  0  0  0
   70.3051   48.5973   52.6807 C   0  0  0  0  0  0  0  0  0  0  0  0
   70.8701   48.8668   51.5722 O   0  0  0  0  0  0  0  0  0  0  0  0
   69.3364   47.6167   52.7613 C   0  0  0  0  0  0  0  0  0  0  0  0
   68.9632   46.9277   51.6253 C   0  0  0  0  0  0  0  0  0  0  0  0
   67.9807   45.9684   51.7371 C   0  0  0  0  0  0  0  0  0  0  0  0
   67.4097   45.7312   52.9693 C   0  0  0  0  0  0  0  0  0  0  0  0
   67.8036   46.4408   54.1081 C   0  0  0  0  0  0  0  0  0  0  0  0
   68.7767   47.3932   54.0091 C   0  0  0  0  0  0  0  0  0  0  0  0
  8  9  2  0
  9  1  1  0
  9 10  1  0
  1  2  2  0
  1  6  1  0
  2  3  1  0
  3 17  1  0
  3  4  2  0
 17 18  1  0
 18 19  2  0
 18 28  1  0
 19 20  1  0
 20 21  1  0
 21 22  2  0
 21 23  1  0
 23 24  1  0
 23 28  2  0
 24 25  2  0
 25 26  1  0
 26 27  2  0
 27 28  1  0
  4  5  1  0
  5  6  2  0
  6  7  1  0
 10 11  1  0
 10 16  1  0
 11 12  1  0
 12 13  1  0
 13 14  1  0
 14 15  1  0
 15 16  1  0
M  CHG  1  14   1
M  END
>  <minimizedAffinity>  (362) 
-9.22559

$$$$
cs_full_output_folder/data/smiles/4922.pdb
     RDKit          3D

 29 33  0  0  0  0  0  0  0  0999 V2000
   71.5499   47.2869   58.9920 C   0  0  0  0  0  0  0  0  0  0  0  0
   70.6461   47.9329   58.2039 C   0  0  0  0  0  0  0  0  0  0  0  0
   69.8266   47.2304   57.3032 C   0  0  0  0  0  0  0  0  0  0  0  0
   69.9440   45.8750   57.2202 C   0  0  0  0  0  0  0  0  0  0  0  0
   70.8514   45.1974   58.0074 C   0  0  0  0  0  0  0  0  0  0  0  0
   71.6327   45.9198   58.8749 C   0  0  0  0  0  0  0  0  0  0  0  0
   72.5392   45.2502   59.6626 F   0  0  0  0  0  0  0  0  0  0  0  0
   72.2019   47.7912   61.1664 O   0  0  0  0  0  0  0  0  0  0  0  0
   72.4268   47.9595   59.9443 C   0  0  0  0  0  0  0  0  0  0  0  0
   73.5013   48.7784   59.5481 N   0  0  0  0  0  0  0  0  0  0  0  0
   73.8859   49.0670   58.1997 C   0  0  0  0  0  0  0  0  0  0  0  0
   75.2185   49.7397   58.2334 C   0  0  2  0  0  0  0  0  0  0  0  0
   76.2896   48.9559   57.5121 C   0  0  0  0  0  0  0  0  0  0  0  0
   76.9993   48.1476   58.5475 C   0  0  0  0  0  0  0  0  0  0  0  0
   76.6124   48.6526   59.8307 N   0  0  0  0  0  0  0  0  0  0  0  0
   75.6691   49.7134   59.6553 C   0  0  2  0  0  0  0  0  0  0  0  0
   74.4033   49.4692   60.4439 C   0  0  0  0  0  0  0  0  0  0  0  0
   68.8796   47.9644   56.4405 C   0  0  0  0  0  0  0  0  0  0  0  0
   69.3360   48.1170   55.0342 C   0  0  0  0  0  0  0  0  0  0  0  0
   70.2761   49.0756   54.7508 N   0  0  0  0  0  0  0  0  0  0  0  0
   70.6596   49.2668   53.5206 N   0  0  0  0  0  0  0  0  0  0  0  0
   70.2152   48.6015   52.4670 C   0  0  0  0  0  0  0  0  0  0  0  0
   70.5904   48.7940   51.2893 O   0  0  0  0  0  0  0  0  0  0  0  0
   69.2610   47.6108   52.6694 C   0  0  0  0  0  0  0  0  0  0  0  0
   68.7809   46.8837   51.5963 C   0  0  0  0  0  0  0  0  0  0  0  0
   67.8485   45.9024   51.8487 C   0  0  0  0  0  0  0  0  0  0  0  0
   67.4240   45.6727   53.1394 C   0  0  0  0  0  0  0  0  0  0  0  0
   67.9033   46.3996   54.2033 C   0  0  0  0  0  0  0  0  0  0  0  0
   68.8417   47.3957   53.9820 C   0  0  0  0  0  0  0  0  0  0  0  0
  8  9  2  0
  9  1  1  0
  9 10  1  0
  1  2  2  0
  1  6  1  0
  2  3  1  0
  3 18  1  0
  3  4  2  0
 18 19  1  0
 19 20  2  0
 19 29  1  0
 20 21  1  0
 21 22  1  0
 22 23  2  0
 22 24  1  0
 24 25  1  0
 24 29  2  0
 25 26  2  0
 26 27  1  0
 27 28  2  0
 28 29  1  0
  4  5  1  0
  5  6  2  0
  6  7  1  0
 10 11  1  0
 10 17  1  0
 12 11  1  1
 12 13  1  0
 12 16  1  0
 13 14  1  0
 14 15  1  0
 15 16  1  0
 16 17  1  1
M  CHG  1  15   1
M  END
>  <minimizedAffinity>  (363) 
-9.22509

$$$$
cs_full_output_folder/data/smiles/1024.pdb
     RDKit          3D

 28 31  0  0  0  0  0  0  0  0999 V2000
   71.5852   47.2639   58.9112 C   0  0  0  0  0  0  0  0  0  0  0  0
   70.7475   48.0113   58.0821 C   0  0  0  0  0  0  0  0  0  0  0  0
   69.8846   47.4303   57.2074 C   0  0  0  0  0  0  0  0  0  0  0  0
   69.8374   46.0524   57.1382 C   0  0  0  0  0  0  0  0  0  0  0  0
   70.6521   45.2570   57.9436 C   0  0  0  0  0  0  0  0  0  0  0  0
   71.5188   45.8945   58.8241 C   0  0  0  0  0  0  0  0  0  0  0  0
   72.3127   45.0958   59.6087 F   0  0  0  0  0  0  0  0  0  0  0  0
   77.7814   48.3805   58.2650 C   0  0  0  0  0  0  0  0  0  0  0  0
   76.4194   48.7081   58.7672 C   0  0  0  0  0  0  0  0  0  0  0  0
   76.0552   48.6368   60.0386 C   0  0  0  0  0  0  0  0  0  0  0  0
   74.6676   48.9872   60.4365 C   0  0  0  0  0  0  0  0  0  0  0  0
   73.7714   48.4019   59.4702 N   0  0  0  0  0  0  0  0  0  0  0  0
   72.5170   47.8613   59.8552 C   0  0  0  0  0  0  0  0  0  0  0  0
   72.1893   47.9018   61.0874 O   0  0  0  0  0  0  0  0  0  0  0  0
   74.1440   48.3598   58.0749 C   0  0  0  0  0  0  0  0  0  0  0  0
   75.4028   49.1444   57.7753 C   0  0  0  0  0  0  0  0  0  0  0  0
   68.9871   48.2032   56.3455 C   0  0  0  0  0  0  0  0  0  0  0  0
   69.4279   48.3123   54.9341 C   0  0  0  0  0  0  0  0  0  0  0  0
   70.3673   49.2115   54.5642 N   0  0  0  0  0  0  0  0  0  0  0  0
   70.7567   49.3487   53.3145 N   0  0  0  0  0  0  0  0  0  0  0  0
   70.2513   48.6085   52.3157 C   0  0  0  0  0  0  0  0  0  0  0  0
   70.6192   48.7332   51.1147 O   0  0  0  0  0  0  0  0  0  0  0  0
   69.2754   47.6506   52.5969 C   0  0  0  0  0  0  0  0  0  0  0  0
   68.7525   46.8610   51.5800 C   0  0  0  0  0  0  0  0  0  0  0  0
   67.8041   45.9097   51.8794 C   0  0  0  0  0  0  0  0  0  0  0  0
   67.4079   45.7756   53.1926 C   0  0  0  0  0  0  0  0  0  0  0  0
   67.9330   46.5623   54.1848 C   0  0  0  0  0  0  0  0  0  0  0  0
   68.8922   47.5338   53.9190 C   0  0  0  0  0  0  0  0  0  0  0  0
  8  9  1  0
  9 10  2  0
  9 16  1  0
 10 11  1  0
 11 12  1  0
 12 13  1  0
 12 15  1  0
 13 14  2  0
 13  1  1  0
  1  2  2  0
  1  6  1  0
  2  3  1  0
  3 17  1  0
  3  4  2  0
 17 18  1  0
 18 19  2  0
 18 28  1  0
 19 20  1  0
 20 21  1  0
 21 22  2  0
 21 23  1  0
 23 24  1  0
 23 28  2  0
 24 25  2  0
 25 26  1  0
 26 27  2  0
 27 28  1  0
  4  5  1  0
  5  6  2  0
  6  7  1  0
 15 16  1  0
M  END
>  <minimizedAffinity>  (364) 
-9.22267

$$$$
cs_full_output_folder/data/smiles/2279.pdb
     RDKit          3D

 29 32  0  0  0  0  0  0  0  0999 V2000
   70.7121   46.0442   58.7337 C   0  0  0  0  0  0  0  0  0  0  0  0
   69.8805   46.7227   57.8386 C   0  0  0  0  0  0  0  0  0  0  0  0
   69.9913   48.0549   57.6566 C   0  0  0  0  0  0  0  0  0  0  0  0
   70.9187   48.7769   58.3494 C   0  0  0  0  0  0  0  0  0  0  0  0
   71.7617   48.1297   59.2521 C   0  0  0  0  0  0  0  0  0  0  0  0
   71.6408   46.7635   59.4276 C   0  0  0  0  0  0  0  0  0  0  0  0
   72.4464   46.1067   60.2984 F   0  0  0  0  0  0  0  0  0  0  0  0
   75.2144   41.8515   59.1608 C   0  0  0  0  0  0  0  0  0  0  0  0
   73.8961   42.2806   58.6353 C   0  0  0  0  0  0  0  0  0  0  0  0
   72.7563   41.8263   59.0977 C   0  0  0  0  0  0  0  0  0  0  0  0
   71.4833   42.3270   58.4948 C   0  0  0  0  0  0  0  0  0  0  0  0
   71.6042   43.7395   58.3688 N   0  0  0  0  0  0  0  0  0  0  0  0
   70.5718   44.5973   58.8414 C   0  0  0  0  0  0  0  0  0  0  0  0
   69.5428   44.0908   59.3546 O   0  0  0  0  0  0  0  0  0  0  0  0
   72.7846   44.3149   57.7508 C   0  0  0  0  0  0  0  0  0  0  0  0
   73.8382   43.2869   57.5264 C   0  0  0  0  0  0  0  0  0  0  0  0
   69.1067   48.7925   56.6208 C   0  0  0  0  0  0  0  0  0  0  0  0
   68.9663   47.7059   55.6523 C   0  0  0  0  0  0  0  0  0  0  0  0
   68.2598   46.5863   56.0907 N   0  0  0  0  0  0  0  0  0  0  0  0
   67.8205   45.6656   55.2860 N   0  0  0  0  0  0  0  0  0  0  0  0
   68.0127   45.7257   53.9674 C   0  0  0  0  0  0  0  0  0  0  0  0
   67.5794   44.8346   53.1767 O   0  0  0  0  0  0  0  0  0  0  0  0
   68.7039   46.7918   53.4406 C   0  0  0  0  0  0  0  0  0  0  0  0
   68.9585   46.8647   52.0888 C   0  0  0  0  0  0  0  0  0  0  0  0
   69.6946   47.9061   51.5744 C   0  0  0  0  0  0  0  0  0  0  0  0
   70.1661   48.8542   52.4321 C   0  0  0  0  0  0  0  0  0  0  0  0
   69.9386   48.8292   53.8029 C   0  0  0  0  0  0  0  0  0  0  0  0
   70.6214   49.7599   54.7081 C   0  0  0  0  0  0  0  0  0  0  0  0
   69.1914   47.7958   54.3240 C   0  0  0  0  0  0  0  0  0  0  0  0
  8  9  1  0
  9 10  2  0
  9 16  1  0
 10 11  1  0
 11 12  1  0
 12 13  1  0
 12 15  1  0
 13 14  2  0
 13  1  1  0
  1  2  2  0
  1  6  1  0
  2  3  1  0
  3 17  1  0
  3  4  2  0
 17 18  1  0
 18 19  2  0
 18 29  1  0
 19 20  1  0
 20 21  1  0
 21 22  2  0
 21 23  1  0
 23 24  1  0
 23 29  2  0
 24 25  2  0
 25 26  1  0
 26 27  2  0
 27 28  1  0
 27 29  1  0
  4  5  1  0
  5  6  2  0
  6  7  1  0
 15 16  1  0
M  END
>  <minimizedAffinity>  (365) 
-9.22143

$$$$
cs_full_output_folder/data/smiles/66.pdb
     RDKit          3D

 26 28  0  0  0  0  0  0  0  0999 V2000
   69.8056   42.1638   58.6218 C   0  0  0  0  0  0  0  0  0  0  0  0
   70.3452   41.2861   59.5306 C   0  0  0  0  0  0  0  0  0  0  0  0
   70.0056   39.9291   59.5205 C   0  0  0  0  0  0  0  0  0  0  0  0
   69.1158   39.4665   58.5810 C   0  0  0  0  0  0  0  0  0  0  0  0
   68.5881   40.3740   57.6755 C   0  0  0  0  0  0  0  0  0  0  0  0
   68.9083   41.7068   57.6712 C   0  0  0  0  0  0  0  0  0  0  0  0
   68.1950   42.4006   56.6041 C   0  0  0  0  0  0  0  0  0  0  0  0
   68.2182   43.6292   56.2661 N   0  0  0  0  0  0  0  0  0  0  0  0
   67.3989   41.3975   55.9345 C   0  0  0  0  0  0  0  0  0  0  0  0
   66.6422   41.5721   54.9678 O   0  0  0  0  0  0  0  0  0  0  0  0
   67.6604   40.1687   56.6134 N   0  0  0  0  0  0  0  0  0  0  0  0
   71.4858   45.5437   58.2979 C   0  0  0  0  0  0  0  0  0  0  0  0
   71.2708   44.0670   58.2323 C   0  0  0  0  0  0  0  0  0  0  0  0
   72.3867   43.2590   57.7211 C   0  0  0  0  0  0  0  0  0  0  0  0
   70.1378   43.5804   58.6368 C   0  0  0  0  0  0  0  0  0  0  0  0
   67.5179   44.2298   55.2403 N   0  0  0  0  0  0  0  0  0  0  0  0
   68.1054   45.4371   54.7161 C   0  0  0  0  0  0  0  0  0  0  0  0
   68.0605   45.7131   53.3653 C   0  0  0  0  0  0  0  0  0  0  0  0
   68.6086   46.8551   52.8195 C   0  0  0  0  0  0  0  0  0  0  0  0
   69.2361   47.7824   53.6214 C   0  0  0  0  0  0  0  0  0  0  0  0
   69.2816   47.5084   54.9709 C   0  0  0  0  0  0  0  0  0  0  0  0
   68.7332   46.3650   55.5168 C   0  0  0  0  0  0  0  0  0  0  0  0
   69.9426   49.2502   52.9549 S   0  0  0  0  0  0  0  0  0  0  0  0
   70.0037   49.0612   51.2179 N   0  0  0  0  0  0  0  0  0  0  0  0
   71.3611   49.3343   53.4172 O   0  0  0  0  0  0  0  0  0  0  0  0
   69.1410   50.4603   53.2577 O   0  0  0  0  0  0  0  0  0  0  0  0
 12 13  1  0
 13 14  1  0
 13 15  2  0
 15  1  1  0
  1  2  2  0
  1  6  1  0
  2  3  1  0
  3  4  2  0
  4  5  1  0
  5  6  2  0
  5 11  1  0
  6  7  1  0
  7  8  2  0
  7  9  1  0
  8 16  1  0
 16 17  1  0
 17 18  2  0
 17 22  1  0
 18 19  1  0
 19 20  2  0
 20 23  1  0
 20 21  1  0
 23 24  1  0
 23 25  2  0
 23 26  2  0
 21 22  2  0
  9 10  2  0
  9 11  1  0
M  END
>  <minimizedAffinity>  (366) 
-9.22062

$$$$
cs_full_output_folder/data/smiles/8273.pdb
     RDKit          3D

 26 28  0  0  0  0  0  0  0  0999 V2000
   69.3104   45.2470   56.4894 N   0  0  0  0  0  0  0  0  0  0  0  0
   69.7692   44.7805   57.7487 C   0  0  0  0  0  0  0  0  0  0  0  0
   69.9320   45.6613   58.6632 O   0  0  0  0  0  0  0  0  0  0  0  0
   70.0019   43.3934   57.9804 C   0  0  0  0  0  0  0  0  0  0  0  0
   69.4035   42.2015   57.6141 C   0  0  0  0  0  0  0  0  0  0  0  0
   70.2693   41.4503   58.2689 N   0  0  0  0  0  0  0  0  0  0  0  0
   71.0367   42.6205   58.7343 C   0  0  0  0  0  0  0  0  0  0  0  0
   70.4394   40.0809   58.5709 C   0  0  0  0  0  0  0  0  0  0  0  0
   71.7629   39.5239   58.2983 C   0  0  0  0  0  0  0  0  0  0  0  0
   71.9045   38.1434   58.4899 C   0  0  0  0  0  0  0  0  0  0  0  0
   70.8518   37.3630   58.9195 C   0  0  0  0  0  0  0  0  0  0  0  0
   71.0785   36.0335   59.1000 F   0  0  0  0  0  0  0  0  0  0  0  0
   69.6005   37.8787   59.1736 C   0  0  0  0  0  0  0  0  0  0  0  0
   69.4965   39.2726   58.9664 C   0  0  0  0  0  0  0  0  0  0  0  0
   68.1143   42.1483   56.7537 C   0  0  0  0  0  0  0  0  0  0  0  0
   67.0840   42.0844   56.0593 S   0  0  0  0  0  0  0  0  0  0  0  0
   68.9653   46.7106   56.4306 C   0  0  0  0  0  0  0  0  0  0  0  0
   69.2748   47.8261   52.8389 C   0  0  0  0  0  0  0  0  0  0  0  0
   68.5876   46.8684   52.1287 C   0  0  0  0  0  0  0  0  0  0  0  0
   67.9454   45.8491   52.8487 C   0  0  0  0  0  0  0  0  0  0  0  0
   68.0342   45.8618   54.2075 C   0  0  0  0  0  0  0  0  0  0  0  0
   68.7000   46.7746   54.9396 C   0  0  0  0  0  0  0  0  0  0  0  0
   69.3373   47.7855   54.2130 C   0  0  0  0  0  0  0  0  0  0  0  0
   70.0120   50.2425   52.6138 N   0  0  0  0  0  0  0  0  0  0  0  0
   69.9308   48.9247   52.1174 C   0  0  0  0  0  0  0  0  0  0  0  0
   70.4891   48.7385   50.9423 O   0  0  0  0  0  0  0  0  0  0  0  0
 24 25  1  0
 25 26  2  0
 25 18  1  0
 18 19  2  0
 18 23  1  0
 19 20  1  0
 20 21  2  0
 21 22  1  0
 22 17  1  0
 22 23  2  0
 17  1  1  0
  1  2  1  0
  2  3  2  0
  2  4  1  0
  4  5  2  0
  4  7  1  0
  5 15  1  0
  5  6  1  0
 15 16  3  0
  6  8  1  0
  6  7  1  0
  8  9  2  0
  8 14  1  0
  9 10  1  0
 10 11  2  0
 11 12  1  0
 11 13  1  0
 13 14  2  0
M  END
>  <minimizedAffinity>  (367) 
-9.21936

$$$$
cs_full_output_folder/data/smiles/4510.pdb
     RDKit          3D

 26 29  0  0  0  0  0  0  0  0999 V2000
   70.4025   48.1759   57.1950 C   0  0  0  0  0  0  0  0  0  0  0  0
   71.6797   48.5402   57.4678 C   0  0  0  0  0  0  0  0  0  0  0  0
   72.4179   47.6941   58.3069 C   0  0  0  0  0  0  0  0  0  0  0  0
   71.8885   46.5452   58.8376 C   0  0  0  0  0  0  0  0  0  0  0  0
   70.5685   46.1577   58.5638 C   0  0  0  0  0  0  0  0  0  0  0  0
   69.8615   46.9995   57.7403 C   0  0  0  0  0  0  0  0  0  0  0  0
   69.5061   48.9352   56.3080 C   0  0  0  0  0  0  0  0  0  0  0  0
   70.6760   48.3479   51.0152 O   0  0  0  0  0  0  0  0  0  0  0  0
   70.3816   48.4854   52.2510 C   0  0  0  0  0  0  0  0  0  0  0  0
   71.0651   49.3762   52.9824 N   0  0  0  0  0  0  0  0  0  0  0  0
   70.7569   49.5143   54.2521 N   0  0  0  0  0  0  0  0  0  0  0  0
   69.7783   48.8011   54.8719 C   0  0  0  0  0  0  0  0  0  0  0  0
   69.0638   47.8753   54.1140 C   0  0  0  0  0  0  0  0  0  0  0  0
   69.3539   47.6975   52.7853 C   0  0  0  0  0  0  0  0  0  0  0  0
   68.6936   46.7727   51.8541 C   0  0  0  0  0  0  0  0  0  0  0  0
   67.8079   45.8132   52.5424 C   0  0  0  0  0  0  0  0  0  0  0  0
   67.8944   45.7549   54.0292 C   0  0  0  0  0  0  0  0  0  0  0  0
   67.9402   47.0983   54.6760 C   0  0  0  0  0  0  0  0  0  0  0  0
   70.0785   44.9534   59.1334 N   0  0  0  0  0  0  0  0  0  0  0  0
   69.7051   43.6130   58.1257 S   0  0  0  0  0  0  0  0  0  0  0  0
   69.1858   44.0481   56.7864 O   0  0  0  0  0  0  0  0  0  0  0  0
   68.6913   42.7665   58.8439 O   0  0  0  0  0  0  0  0  0  0  0  0
   71.1587   42.6565   57.9455 C   0  0  0  0  0  0  0  0  0  0  0  0
   72.4253   42.8477   57.7397 C   0  0  0  0  0  0  0  0  0  0  0  0
   72.7114   41.7059   58.3017 C   0  0  0  0  0  0  0  0  0  0  0  0
   71.4381   41.2748   57.9706 O   0  0  0  0  0  0  0  0  0  0  0  0
  8  9  2  0
  9 10  1  0
  9 14  1  0
 10 11  1  0
 11 12  2  0
 12  7  1  0
 12 13  1  0
  7  1  1  0
  1  2  2  0
  1  6  1  0
  2  3  1  0
  3  4  2  0
  4  5  1  0
  5 19  1  0
  5  6  2  0
 19 20  1  0
 20 21  2  0
 20 22  2  0
 20 23  1  0
 23 24  2  0
 23 26  1  0
 24 25  2  0
 25 26  1  0
 13 14  2  0
 13 18  1  0
 14 15  1  0
 15 16  1  0
 16 17  1  0
 17 18  1  0
M  END
>  <minimizedAffinity>  (368) 
-9.21931

$$$$
cs_full_output_folder/data/smiles/909.pdb
     RDKit          3D

 27 30  0  0  0  0  0  0  0  0999 V2000
   73.7225   50.0891   56.6692 C   0  0  0  0  0  0  0  0  0  0  0  0
   72.9132   50.9044   55.9485 C   0  0  0  0  0  0  0  0  0  0  0  0
   71.5243   50.7589   55.8757 C   0  0  0  0  0  0  0  0  0  0  0  0
   70.9193   49.7409   56.5636 C   0  0  0  0  0  0  0  0  0  0  0  0
   71.7734   48.9096   57.3029 C   0  0  0  0  0  0  0  0  0  0  0  0
   73.1009   49.0957   57.3368 N   0  0  0  0  0  0  0  0  0  0  0  0
   75.4146   49.4128   54.6850 O   0  0  0  0  0  0  0  0  0  0  0  0
   76.0148   49.8461   55.7116 C   0  0  0  0  0  0  0  0  0  0  0  0
   75.1336   50.2067   56.7656 N   0  0  0  0  0  0  0  0  0  0  0  0
   77.4648   49.9491   55.7665 C   0  0  0  0  0  0  0  0  0  0  0  0
   78.1040   50.9613   56.4307 C   0  0  0  0  0  0  0  0  0  0  0  0
   79.5066   51.0239   56.4566 C   0  0  0  0  0  0  0  0  0  0  0  0
   80.2638   50.0709   55.8179 C   0  0  0  0  0  0  0  0  0  0  0  0
   79.6129   49.0905   55.1746 N   0  0  0  0  0  0  0  0  0  0  0  0
   78.2500   49.0088   55.1349 C   0  0  0  0  0  0  0  0  0  0  0  0
   69.4576   49.4813   56.5476 C   0  0  0  0  0  0  0  0  0  0  0  0
   69.0406   48.2381   55.9385 C   0  0  0  0  0  0  0  0  0  0  0  0
   68.8013   47.1512   56.7329 N   0  0  0  0  0  0  0  0  0  0  0  0
   68.4485   45.9712   56.2392 N   0  0  0  0  0  0  0  0  0  0  0  0
   68.2992   45.7526   54.9209 C   0  0  0  0  0  0  0  0  0  0  0  0
   67.9627   44.6252   54.4451 O   0  0  0  0  0  0  0  0  0  0  0  0
   68.5224   46.7922   54.0782 C   0  0  0  0  0  0  0  0  0  0  0  0
   68.8957   48.0447   54.6069 C   0  0  0  0  0  0  0  0  0  0  0  0
   69.0750   49.1034   53.5967 C   0  0  0  0  0  0  0  0  0  0  0  0
   70.1510   48.5779   52.6445 C   0  0  0  0  0  0  0  0  0  0  0  0
   69.7045   47.2767   52.0080 C   0  0  0  0  0  0  0  0  0  0  0  0
   68.4163   46.7422   52.6033 C   0  0  0  0  0  0  0  0  0  0  0  0
  7  8  2  0
  8  9  1  0
  8 10  1  0
  9  1  1  0
  1  2  2  0
  1  6  1  0
  2  3  1  0
  3  4  2  0
  4 16  1  0
  4  5  1  0
 16 17  1  0
 17 18  2  0
 17 23  1  0
 18 19  1  0
 19 20  1  0
 20 21  2  0
 20 22  1  0
 22 23  2  0
 22 27  1  0
 23 24  1  0
 24 25  1  0
 25 26  1  0
 26 27  1  0
  5  6  2  0
 10 11  2  0
 10 15  1  0
 11 12  1  0
 12 13  2  0
 13 14  1  0
 14 15  2  0
M  END
>  <minimizedAffinity>  (369) 
-9.21885

$$$$
cs_full_output_folder/data/smiles/9485.pdb
     RDKit          3D

 27 29  0  0  0  0  0  0  0  0999 V2000
   67.7429   41.5154   57.5676 C   0  0  0  0  0  0  0  0  0  0  0  0
   68.1843   40.2222   57.4428 C   0  0  0  0  0  0  0  0  0  0  0  0
   67.8130   39.2168   58.3333 C   0  0  0  0  0  0  0  0  0  0  0  0
   66.9759   39.4736   59.3942 C   0  0  0  0  0  0  0  0  0  0  0  0
   66.5336   40.8164   59.5027 C   0  0  0  0  0  0  0  0  0  0  0  0
   66.9049   41.7909   58.6222 C   0  0  0  0  0  0  0  0  0  0  0  0
   67.3233   43.2354   55.7600 N   0  0  0  0  0  0  0  0  0  0  0  0
   68.1823   42.4956   56.5899 C   0  0  0  0  0  0  0  0  0  0  0  0
   69.4154   42.7067   56.4667 O   0  0  0  0  0  0  0  0  0  0  0  0
   68.1986   45.4685   55.1372 C   0  0  0  0  0  0  0  0  0  0  0  0
   68.2061   45.7950   56.3484 O   0  0  0  0  0  0  0  0  0  0  0  0
   67.7560   44.1783   54.8202 N   0  0  0  0  0  0  0  0  0  0  0  0
   69.9453   49.2808   51.2951 N   0  0  0  0  0  0  0  0  0  0  0  0
   69.5086   48.3256   52.2360 C   0  0  0  0  0  0  0  0  0  0  0  0
   68.9839   47.0977   51.8524 C   0  0  0  0  0  0  0  0  0  0  0  0
   68.5650   46.1845   52.7985 C   0  0  0  0  0  0  0  0  0  0  0  0
   68.6483   46.4502   54.1588 C   0  0  0  0  0  0  0  0  0  0  0  0
   69.1733   47.6767   54.4983 C   0  0  0  0  0  0  0  0  0  0  0  0
   69.6051   48.6230   53.5965 C   0  0  0  0  0  0  0  0  0  0  0  0
   66.5596   38.5737   60.3108 O   0  0  0  0  0  0  0  0  0  0  0  0
   65.4038   38.2661   60.9297 C   0  0  0  0  0  0  0  0  0  0  0  0
   64.9325   36.8765   60.9474 C   0  0  0  0  0  0  0  0  0  0  0  0
   65.3730   36.0316   59.9219 C   0  0  0  0  0  0  0  0  0  0  0  0
   64.9721   34.7207   59.9423 C   0  0  0  0  0  0  0  0  0  0  0  0
   64.1492   34.2185   60.9465 C   0  0  0  0  0  0  0  0  0  0  0  0
   63.7158   35.0618   61.9606 C   0  0  0  0  0  0  0  0  0  0  0  0
   64.1235   36.4009   61.9428 C   0  0  0  0  0  0  0  0  0  0  0  0
 13 14  1  0
 14 15  2  0
 14 19  1  0
 15 16  1  0
 16 17  2  0
 17 10  1  0
 17 18  1  0
 10 11  2  0
 10 12  1  0
 12  7  1  0
  7  8  1  0
  8  9  2  0
  8  1  1  0
  1  2  2  0
  1  6  1  0
  2  3  1  0
  3  4  2  0
  4 20  1  0
  4  5  1  0
 20 21  1  0
 21 22  1  0
 22 23  2  0
 22 27  1  0
 23 24  1  0
 24 25  2  0
 25 26  1  0
 26 27  2  0
  5  6  2  0
 18 19  2  0
M  END
>  <minimizedAffinity>  (370) 
-9.21823

$$$$
cs_full_output_folder/data/smiles/2192.pdb
     RDKit          3D

 27 30  0  0  0  0  0  0  0  0999 V2000
   70.2540   45.4585   58.1257 C   0  0  0  0  0  0  0  0  0  0  0  0
   71.4420   45.7394   58.7624 C   0  0  0  0  0  0  0  0  0  0  0  0
   72.0573   46.9817   58.6337 C   0  0  0  0  0  0  0  0  0  0  0  0
   71.4559   47.9407   57.8526 C   0  0  0  0  0  0  0  0  0  0  0  0
   70.2484   47.6988   57.1864 C   0  0  0  0  0  0  0  0  0  0  0  0
   69.6982   46.4582   57.3555 C   0  0  0  0  0  0  0  0  0  0  0  0
   70.1508   43.0027   57.6924 C   0  0  0  0  0  0  0  0  0  0  0  0
   71.1986   43.1970   56.9679 O   0  0  0  0  0  0  0  0  0  0  0  0
   69.6659   44.1731   58.2888 N   0  0  0  0  0  0  0  0  0  0  0  0
   67.5338   41.7563   56.4950 C   0  0  0  0  0  0  0  0  0  0  0  0
   68.5201   41.1088   57.3056 N   0  0  0  0  0  0  0  0  0  0  0  0
   68.4512   39.7945   57.6855 C   0  0  0  0  0  0  0  0  0  0  0  0
   69.5519   39.4930   58.4551 C   0  0  0  0  0  0  0  0  0  0  0  0
   70.2689   40.6478   58.5231 C   0  0  0  0  0  0  0  0  0  0  0  0
   69.6234   41.6654   57.8009 C   0  0  0  0  0  0  0  0  0  0  0  0
   69.6477   48.7978   56.3689 C   0  0  0  0  0  0  0  0  0  0  0  0
   69.8231   48.6525   54.9360 C   0  0  0  0  0  0  0  0  0  0  0  0
   70.8672   49.2967   54.3400 N   0  0  0  0  0  0  0  0  0  0  0  0
   71.1356   49.2145   53.0637 N   0  0  0  0  0  0  0  0  0  0  0  0
   70.3762   48.4626   52.2140 C   0  0  0  0  0  0  0  0  0  0  0  0
   70.6491   48.3931   50.9849 O   0  0  0  0  0  0  0  0  0  0  0  0
   69.3153   47.8011   52.7829 C   0  0  0  0  0  0  0  0  0  0  0  0
   69.0320   47.8951   54.1575 C   0  0  0  0  0  0  0  0  0  0  0  0
   67.8472   47.1430   54.5821 C   0  0  0  0  0  0  0  0  0  0  0  0
   68.0709   45.7013   54.1300 C   0  0  0  0  0  0  0  0  0  0  0  0
   67.9690   45.6986   52.6211 C   0  0  0  0  0  0  0  0  0  0  0  0
   68.4277   46.9510   51.9582 C   0  0  0  0  0  0  0  0  0  0  0  0
 10 11  1  0
 11 12  1  0
 11 15  1  0
 12 13  2  0
 13 14  1  0
 14 15  2  0
 15  7  1  0
  7  8  2  0
  7  9  1  0
  9  1  1  0
  1  2  2  0
  1  6  1  0
  2  3  1  0
  3  4  2  0
  4  5  1  0
  5 16  1  0
  5  6  2  0
 16 17  1  0
 17 18  2  0
 17 23  1  0
 18 19  1  0
 19 20  1  0
 20 21  2  0
 20 22  1  0
 22 23  2  0
 22 27  1  0
 23 24  1  0
 24 25  1  0
 25 26  1  0
 26 27  1  0
M  END
>  <minimizedAffinity>  (371) 
-9.21678

$$$$
cs_full_output_folder/data/smiles/953.pdb
     RDKit          3D

 27 30  0  0  0  0  0  0  0  0999 V2000
   69.6356   47.7800   57.4713 C   0  0  0  0  0  0  0  0  0  0  0  0
   70.3717   48.7219   58.2089 C   0  0  0  0  0  0  0  0  0  0  0  0
   71.3705   48.2851   59.0469 C   0  0  0  0  0  0  0  0  0  0  0  0
   71.6552   46.9332   59.1694 C   0  0  0  0  0  0  0  0  0  0  0  0
   72.6410   46.6213   60.0379 F   0  0  0  0  0  0  0  0  0  0  0  0
   70.9567   45.9655   58.4620 C   0  0  0  0  0  0  0  0  0  0  0  0
   69.9613   46.4632   57.6322 C   0  0  0  0  0  0  0  0  0  0  0  0
   71.2659   44.5909   58.5522 N   0  0  0  0  0  0  0  0  0  0  0  0
   70.3094   43.6204   58.9691 C   0  0  0  0  0  0  0  0  0  0  0  0
   69.5319   43.9281   59.9054 O   0  0  0  0  0  0  0  0  0  0  0  0
   70.2524   42.2813   58.3015 C   0  0  0  0  0  0  0  0  0  0  0  0
   71.5639   41.9224   57.7001 C   0  0  0  0  0  0  0  0  0  0  0  0
   72.7138   42.5841   58.4565 C   0  0  0  0  0  0  0  0  0  0  0  0
   72.5489   44.0510   58.1866 C   0  0  0  0  0  0  0  0  0  0  0  0
   73.4635   44.6981   57.6906 O   0  0  0  0  0  0  0  0  0  0  0  0
   68.5773   48.3060   56.5462 C   0  0  0  0  0  0  0  0  0  0  0  0
   70.3238   48.9716   51.0889 N   0  0  0  0  0  0  0  0  0  0  0  0
   69.9440   48.8140   52.3037 C   0  0  0  0  0  0  0  0  0  0  0  0
   70.4243   49.9758   53.4993 S   0  0  0  0  0  0  0  0  0  0  0  0
   69.8412   49.6102   55.0104 N   0  0  0  0  0  0  0  0  0  0  0  0
   69.0702   48.4721   55.1515 C   0  0  0  0  0  0  0  0  0  0  0  0
   68.7677   47.6409   54.1251 C   0  0  0  0  0  0  0  0  0  0  0  0
   67.9882   46.5130   54.4182 C   0  0  0  0  0  0  0  0  0  0  0  0
   67.6269   45.5924   53.4571 C   0  0  0  0  0  0  0  0  0  0  0  0
   68.0220   45.7481   52.1629 C   0  0  0  0  0  0  0  0  0  0  0  0
   68.7866   46.8387   51.8383 C   0  0  0  0  0  0  0  0  0  0  0  0
   69.1696   47.7927   52.7975 C   0  0  0  0  0  0  0  0  0  0  0  0
 17 18  2  0
 18 19  1  0
 18 27  1  0
 19 20  1  0
 20 21  2  0
 21 16  1  0
 21 22  1  0
 16  1  1  0
  1  2  2  0
  1  7  1  0
  2  3  1  0
  3  4  2  0
  4  5  1  0
  4  6  1  0
  6  8  1  0
  6  7  2  0
  8  9  1  0
  8 14  1  0
  9 10  2  0
  9 11  1  0
 11 12  1  0
 12 13  1  0
 13 14  1  0
 14 15  2  0
 22 23  1  0
 22 27  2  0
 23 24  2  0
 24 25  1  0
 25 26  2  0
 26 27  1  0
M  END
>  <minimizedAffinity>  (372) 
-9.21468

$$$$
cs_full_output_folder/data/smiles/1960.pdb
     RDKit          3D

 25 28  0  0  0  0  0  0  0  0999 V2000
   70.9285   46.6398   58.2421 C   0  0  0  0  0  0  0  0  0  0  0  0
   71.9689   47.4432   58.6512 C   0  0  0  0  0  0  0  0  0  0  0  0
   72.0426   48.7869   58.2844 C   0  0  0  0  0  0  0  0  0  0  0  0
   71.0797   49.3725   57.4964 C   0  0  0  0  0  0  0  0  0  0  0  0
   70.0335   48.5750   57.0829 C   0  0  0  0  0  0  0  0  0  0  0  0
   69.9654   47.2506   57.4476 C   0  0  0  0  0  0  0  0  0  0  0  0
   69.8361   44.8167   59.3033 O   0  0  0  0  0  0  0  0  0  0  0  0
   70.7965   45.2339   58.5925 C   0  0  0  0  0  0  0  0  0  0  0  0
   71.7853   44.2088   58.1373 C   0  0  0  0  0  0  0  0  0  0  0  0
   71.5643   42.9222   57.7313 C   0  0  0  0  0  0  0  0  0  0  0  0
   72.6327   42.2443   57.4220 N   0  0  0  0  0  0  0  0  0  0  0  0
   73.7539   42.5591   57.4336 C   0  0  0  0  0  0  0  0  0  0  0  0
   73.5365   44.3635   58.0456 S   0  0  0  0  0  0  0  0  0  0  0  0
   69.0012   49.2193   56.1996 C   0  0  0  0  0  0  0  0  0  0  0  0
   69.3602   48.9602   54.7702 C   0  0  0  0  0  0  0  0  0  0  0  0
   70.2524   49.8172   54.2403 N   0  0  0  0  0  0  0  0  0  0  0  0
   70.6688   49.7076   52.9889 N   0  0  0  0  0  0  0  0  0  0  0  0
   70.1765   48.7151   52.2521 C   0  0  0  0  0  0  0  0  0  0  0  0
   70.5817   48.6185   51.0534 O   0  0  0  0  0  0  0  0  0  0  0  0
   69.2568   47.7919   52.7164 C   0  0  0  0  0  0  0  0  0  0  0  0
   68.8371   47.9292   54.0345 C   0  0  0  0  0  0  0  0  0  0  0  0
   67.8443   46.9790   54.6216 C   0  0  0  0  0  0  0  0  0  0  0  0
   68.0223   45.6466   53.9075 C   0  0  0  0  0  0  0  0  0  0  0  0
   67.7998   45.8144   52.4334 C   0  0  0  0  0  0  0  0  0  0  0  0
   68.7948   46.7475   51.7988 C   0  0  0  0  0  0  0  0  0  0  0  0
  7  8  2  0
  8  1  1  0
  8  9  1  0
  1  2  2  0
  1  6  1  0
  2  3  1  0
  3  4  2  0
  4  5  1  0
  5 14  1  0
  5  6  2  0
 14 15  1  0
 15 16  2  0
 15 21  1  0
 16 17  1  0
 17 18  1  0
 18 19  2  0
 18 20  1  0
 20 21  2  0
 20 25  1  0
 21 22  1  0
 22 23  1  0
 23 24  1  0
 24 25  1  0
  9 10  2  0
  9 13  1  0
 10 11  1  0
 11 12  2  0
 12 13  1  0
M  END
>  <minimizedAffinity>  (373) 
-9.21464

$$$$
cs_full_output_folder/data/smiles/1129.pdb
     RDKit          3D

 24 25  0  0  0  0  0  0  0  0999 V2000
   69.9563   49.2325   52.7076 S   0  0  0  0  0  0  0  0  0  0  0  0
   69.9603   49.1464   51.1901 O   0  0  0  0  0  0  0  0  0  0  0  0
   71.3992   49.3502   53.1590 O   0  0  0  0  0  0  0  0  0  0  0  0
   69.2247   47.8040   53.3568 C   0  0  0  0  0  0  0  0  0  0  0  0
   69.2552   47.5528   54.7260 C   0  0  0  0  0  0  0  0  0  0  0  0
   69.8471   48.3948   55.5980 F   0  0  0  0  0  0  0  0  0  0  0  0
   68.6593   46.4042   55.1839 C   0  0  0  0  0  0  0  0  0  0  0  0
   68.0439   45.5120   54.3515 C   0  0  0  0  0  0  0  0  0  0  0  0
   67.4736   44.3998   54.8544 F   0  0  0  0  0  0  0  0  0  0  0  0
   68.0274   45.7856   53.0080 C   0  0  0  0  0  0  0  0  0  0  0  0
   67.4273   44.9163   52.1855 F   0  0  0  0  0  0  0  0  0  0  0  0
   68.6082   46.9218   52.4775 C   0  0  0  0  0  0  0  0  0  0  0  0
   68.5716   47.1546   51.1497 F   0  0  0  0  0  0  0  0  0  0  0  0
   69.0960   50.6451   53.1302 N   0  0  0  0  0  0  0  0  0  0  0  0
   71.3861   52.7365   55.0845 C   0  0  0  0  0  0  0  0  0  0  0  0
   70.5624   53.1581   56.1071 C   0  0  0  0  0  0  0  0  0  0  0  0
   69.2489   52.7476   56.1652 C   0  0  0  0  0  0  0  0  0  0  0  0
   68.7010   51.8930   55.1990 C   0  0  0  0  0  0  0  0  0  0  0  0
   69.5063   51.4733   54.1900 C   0  0  0  0  0  0  0  0  0  0  0  0
   70.8277   51.9013   54.1519 C   0  0  0  0  0  0  0  0  0  0  0  0
   73.7756   52.7686   53.4881 N   0  0  0  0  0  0  0  0  0  0  0  0
   73.0442   53.2321   54.9747 S   0  0  0  0  0  0  0  0  0  0  0  0
   73.0739   54.7512   55.0196 O   0  0  0  0  0  0  0  0  0  0  0  0
   73.8642   52.7692   56.1472 O   0  0  0  0  0  0  0  0  0  0  0  0
 21 22  1  0
 22 23  2  0
 22 24  2  0
 22 15  1  0
 15 16  2  0
 15 20  1  0
 16 17  1  0
 17 18  2  0
 18 19  1  0
 19 14  1  0
 19 20  2  0
 14  1  1  0
  1  2  2  0
  1  3  2  0
  1  4  1  0
  4  5  2  0
  4 12  1  0
  5  6  1  0
  5  7  1  0
  7  8  2  0
  8  9  1  0
  8 10  1  0
 10 11  1  0
 10 12  2  0
 12 13  1  0
M  END
>  <minimizedAffinity>  (374) 
-9.21412

$$$$
cs_full_output_folder/data/smiles/427.pdb
     RDKit          3D

 26 28  0  0  0  0  0  0  0  0999 V2000
   70.8513   47.2547   58.1376 C   0  0  0  0  0  0  0  0  0  0  0  0
   71.0281   45.8157   58.3545 C   0  0  0  0  0  0  0  0  0  0  0  0
   72.1273   45.2789   58.0637 O   0  0  0  0  0  0  0  0  0  0  0  0
   70.0299   44.9551   58.8812 N   0  0  0  0  0  0  0  0  0  0  0  0
   70.2280   43.5764   59.0791 N   0  0  0  0  0  0  0  0  0  0  0  0
   69.9751   42.6205   58.0639 C   0  0  0  0  0  0  0  0  0  0  0  0
   69.5552   43.1000   56.9606 O   0  0  0  0  0  0  0  0  0  0  0  0
   70.1700   41.1858   58.2362 C   0  0  0  0  0  0  0  0  0  0  0  0
   71.4070   40.6071   58.3828 C   0  0  0  0  0  0  0  0  0  0  0  0
   71.5564   39.2273   58.5458 C   0  0  0  0  0  0  0  0  0  0  0  0
   70.4466   38.4124   58.5625 C   0  0  0  0  0  0  0  0  0  0  0  0
   70.5918   37.0569   58.7226 F   0  0  0  0  0  0  0  0  0  0  0  0
   69.1968   38.9864   58.4148 C   0  0  0  0  0  0  0  0  0  0  0  0
   69.0675   40.3660   58.2539 C   0  0  0  0  0  0  0  0  0  0  0  0
   69.4354   47.5530   57.7183 C   0  0  0  0  0  0  0  0  0  0  0  0
   69.8573   49.0374   52.4630 C   0  0  0  0  0  0  0  0  0  0  0  0
   69.2599   47.9017   52.7251 C   0  0  0  0  0  0  0  0  0  0  0  0
   68.6847   46.9820   51.7524 C   0  0  0  0  0  0  0  0  0  0  0  0
   68.1801   45.9588   52.4281 C   0  0  0  0  0  0  0  0  0  0  0  0
   68.3933   46.1487   53.8559 C   0  0  0  0  0  0  0  0  0  0  0  0
   69.0577   47.3370   54.0772 C   0  0  0  0  0  0  0  0  0  0  0  0
   69.3831   47.7570   55.3207 N   0  0  0  0  0  0  0  0  0  0  0  0
   69.0639   47.0170   56.3971 C   0  0  0  0  0  0  0  0  0  0  0  0
   68.4193   45.8619   56.1976 N   0  0  0  0  0  0  0  0  0  0  0  0
   68.0735   45.4027   54.9622 C   0  0  0  0  0  0  0  0  0  0  0  0
   67.4725   44.3217   54.7931 O   0  0  0  0  0  0  0  0  0  0  0  0
 16 17  2  0
 17 18  1  0
 17 21  1  0
 18 19  2  0
 19 20  1  0
 20 21  2  0
 20 25  1  0
 21 22  1  0
 22 23  2  0
 23 15  1  0
 23 24  1  0
 15  1  1  0
  1  2  1  0
  2  3  2  0
  2  4  1  0
  4  5  1  0
  5  6  1  0
  6  7  2  0
  6  8  1  0
  8  9  2  0
  8 14  1  0
  9 10  1  0
 10 11  2  0
 11 12  1  0
 11 13  1  0
 13 14  2  0
 24 25  1  0
 25 26  2  0
M  END
>  <minimizedAffinity>  (375) 
-9.21376

$$$$
cs_full_output_folder/data/smiles/8342.pdb
     RDKit          3D

 26 29  0  0  0  0  0  0  0  0999 V2000
   69.7319   49.8497   57.1027 C   0  0  0  0  0  0  0  0  0  0  0  0
   68.8102   50.7278   57.6337 C   0  0  0  0  0  0  0  0  0  0  0  0
   68.0773   51.5498   56.8108 C   0  0  0  0  0  0  0  0  0  0  0  0
   68.2687   51.4889   55.4539 C   0  0  0  0  0  0  0  0  0  0  0  0
   69.1980   50.6084   54.8641 C   0  0  0  0  0  0  0  0  0  0  0  0
   69.9036   49.8112   55.7354 C   0  0  0  0  0  0  0  0  0  0  0  0
   69.2136   44.4046   56.8987 O   0  0  0  0  0  0  0  0  0  0  0  0
   69.7601   45.3963   57.4329 C   0  0  0  0  0  0  0  0  0  0  0  0
   70.7542   45.3356   58.5110 C   0  0  0  0  0  0  0  0  0  0  0  0
   71.1143   46.7482   58.7407 C   0  0  0  0  0  0  0  0  0  0  0  0
   72.0415   47.2678   59.6281 C   0  0  0  0  0  0  0  0  0  0  0  0
   72.1885   48.6387   59.6538 C   0  0  0  0  0  0  0  0  0  0  0  0
   71.4422   49.4596   58.8321 C   0  0  0  0  0  0  0  0  0  0  0  0
   70.5101   48.9475   57.9389 C   0  0  0  0  0  0  0  0  0  0  0  0
   70.3701   47.5629   57.9197 C   0  0  0  0  0  0  0  0  0  0  0  0
   69.5440   46.7579   57.1214 N   0  0  0  0  0  0  0  0  0  0  0  0
   69.3427   50.5683   53.4699 N   0  0  0  0  0  0  0  0  0  0  0  0
   69.9333   49.2641   52.5727 S   0  0  0  0  0  0  0  0  0  0  0  0
   71.3994   48.9966   52.8811 O   0  0  0  0  0  0  0  0  0  0  0  0
   69.9111   49.6441   51.0909 O   0  0  0  0  0  0  0  0  0  0  0  0
   69.0350   47.7817   52.7275 C   0  0  0  0  0  0  0  0  0  0  0  0
   68.7337   47.3014   53.9802 C   0  0  0  0  0  0  0  0  0  0  0  0
   68.0075   46.1122   54.1244 C   0  0  0  0  0  0  0  0  0  0  0  0
   67.5858   45.4093   53.0206 C   0  0  0  0  0  0  0  0  0  0  0  0
   67.8843   45.8870   51.7646 C   0  0  0  0  0  0  0  0  0  0  0  0
   68.6040   47.0654   51.6425 C   0  0  0  0  0  0  0  0  0  0  0  0
  7  8  2  0
  8  9  1  0
  8 16  1  0
  9 10  1  0
 10 11  2  0
 10 15  1  0
 11 12  1  0
 12 13  2  0
 13 14  1  0
 14  1  1  0
 14 15  2  0
  1  2  2  0
  1  6  1  0
  2  3  1  0
  3  4  2  0
  4  5  1  0
  5 17  1  0
  5  6  2  0
 17 18  1  0
 18 19  2  0
 18 20  2  0
 18 21  1  0
 21 22  2  0
 21 26  1  0
 22 23  1  0
 23 24  2  0
 24 25  1  0
 25 26  2  0
 15 16  1  0
M  END
>  <minimizedAffinity>  (376) 
-9.21244

$$$$
cs_full_output_folder/data/smiles/9405.pdb
     RDKit          3D

 27 29  0  0  0  0  0  0  0  0999 V2000
   69.6207   40.3817   58.0590 C   0  0  0  0  0  0  0  0  0  0  0  0
   68.5051   40.9768   57.5223 C   0  0  0  0  0  0  0  0  0  0  0  0
   68.4828   42.3356   57.1645 C   0  0  0  0  0  0  0  0  0  0  0  0
   69.5831   43.1370   57.3346 C   0  0  0  0  0  0  0  0  0  0  0  0
   70.7115   42.5234   57.8803 C   0  0  0  0  0  0  0  0  0  0  0  0
   70.7297   41.1916   58.2308 C   0  0  0  0  0  0  0  0  0  0  0  0
   70.8927   38.2687   58.6801 N   0  0  0  0  0  0  0  0  0  0  0  0
   69.6936   38.9636   58.4474 C   0  0  0  0  0  0  0  0  0  0  0  0
   68.6264   38.3546   58.5725 O   0  0  0  0  0  0  0  0  0  0  0  0
   72.4394   36.7264   57.0435 N   0  0  0  0  0  0  0  0  0  0  0  0
   71.8690   36.1250   58.2193 C   0  0  0  0  0  0  0  0  0  0  0  0
   72.0929   34.8012   58.5184 C   0  0  0  0  0  0  0  0  0  0  0  0
   71.5649   34.1914   59.6301 C   0  0  0  0  0  0  0  0  0  0  0  0
   70.7884   34.9828   60.4426 C   0  0  0  0  0  0  0  0  0  0  0  0
   70.5504   36.3361   60.1509 C   0  0  0  0  0  0  0  0  0  0  0  0
   71.0752   36.9320   59.0520 C   0  0  0  0  0  0  0  0  0  0  0  0
   69.6087   44.5475   56.9765 C   0  0  0  0  0  0  0  0  0  0  0  0
   70.5604   45.2672   57.4107 O   0  0  0  0  0  0  0  0  0  0  0  0
   68.6223   45.1536   56.1678 N   0  0  0  0  0  0  0  0  0  0  0  0
   68.6334   46.5565   55.8018 C   0  0  0  0  0  0  0  0  0  0  0  0
   68.5901   46.6764   54.3254 C   0  0  0  0  0  0  0  0  0  0  0  0
   67.8952   45.8092   53.5375 C   0  0  0  0  0  0  0  0  0  0  0  0
   67.8867   45.9719   52.1549 C   0  0  0  0  0  0  0  0  0  0  0  0
   68.5649   46.9968   51.5302 C   0  0  0  0  0  0  0  0  0  0  0  0
   69.2684   47.8761   52.3340 C   0  0  0  0  0  0  0  0  0  0  0  0
   69.2691   47.7026   53.7056 C   0  0  0  0  0  0  0  0  0  0  0  0
   69.9626   48.5689   54.4979 F   0  0  0  0  0  0  0  0  0  0  0  0
 10 11  1  0
 11 12  2  0
 11 16  1  0
 12 13  1  0
 13 14  2  0
 14 15  1  0
 15 16  2  0
 16  7  1  0
  7  8  1  0
  8  9  2  0
  8  1  1  0
  1  2  2  0
  1  6  1  0
  2  3  1  0
  3  4  2  0
  4 17  1  0
  4  5  1  0
 17 18  2  0
 17 19  1  0
 19 20  1  0
 20 21  1  0
 21 22  2  0
 21 26  1  0
 22 23  1  0
 23 24  2  0
 24 25  1  0
 25 26  2  0
 26 27  1  0
  5  6  2  0
M  END
>  <minimizedAffinity>  (377) 
-9.21101

$$$$
cs_full_output_folder/data/smiles/218.pdb
     RDKit          3D

 27 30  0  0  0  0  0  0  0  0999 V2000
   72.1695   47.4386   58.7095 C   0  0  0  0  0  0  0  0  0  0  0  0
   71.2265   48.1201   57.9305 C   0  0  0  0  0  0  0  0  0  0  0  0
   70.2191   47.5073   57.2482 C   0  0  0  0  0  0  0  0  0  0  0  0
   70.1198   46.1280   57.3296 C   0  0  0  0  0  0  0  0  0  0  0  0
   71.0257   45.4271   58.0823 C   0  0  0  0  0  0  0  0  0  0  0  0
   72.0453   46.0678   58.7699 C   0  0  0  0  0  0  0  0  0  0  0  0
   72.9311   45.3492   59.5098 F   0  0  0  0  0  0  0  0  0  0  0  0
   74.4459   48.5940   57.4303 C   0  0  0  0  0  0  0  0  0  0  0  0
   74.2250   48.8231   58.7055 C   0  0  0  0  0  0  0  0  0  0  0  0
   75.0876   49.8546   59.3603 C   0  0  0  0  0  0  0  0  0  0  0  0
   74.7022   50.0733   60.8090 C   0  0  0  0  0  0  0  0  0  0  0  0
   74.5214   48.6947   61.4325 C   0  0  0  0  0  0  0  0  0  0  0  0
   73.2903   48.1177   60.8315 C   0  0  0  0  0  0  0  0  0  0  0  0
   72.3496   47.6480   61.4797 O   0  0  0  0  0  0  0  0  0  0  0  0
   73.2117   48.1164   59.4100 N   0  0  0  0  0  0  0  0  0  0  0  0
   69.2698   48.3013   56.4353 C   0  0  0  0  0  0  0  0  0  0  0  0
   69.5504   48.3796   55.0187 C   0  0  0  0  0  0  0  0  0  0  0  0
   70.3959   49.3395   54.5575 N   0  0  0  0  0  0  0  0  0  0  0  0
   70.6633   49.4948   53.2739 N   0  0  0  0  0  0  0  0  0  0  0  0
   70.1183   48.7104   52.3056 C   0  0  0  0  0  0  0  0  0  0  0  0
   70.4100   48.9047   51.0836 O   0  0  0  0  0  0  0  0  0  0  0  0
   69.2546   47.7224   52.7223 C   0  0  0  0  0  0  0  0  0  0  0  0
   68.6968   46.9038   51.7647 C   0  0  0  0  0  0  0  0  0  0  0  0
   67.8333   45.8831   52.1344 C   0  0  0  0  0  0  0  0  0  0  0  0
   67.5678   45.7332   53.4657 C   0  0  0  0  0  0  0  0  0  0  0  0
   68.1161   46.5419   54.4273 C   0  0  0  0  0  0  0  0  0  0  0  0
   68.9803   47.5680   54.0863 C   0  0  0  0  0  0  0  0  0  0  0  0
  8  9  2  0
  9 10  1  0
  9 15  1  0
 10 11  1  0
 11 12  1  0
 12 13  1  0
 13 14  2  0
 13 15  1  0
 15  1  1  0
  1  2  2  0
  1  6  1  0
  2  3  1  0
  3 16  1  0
  3  4  2  0
 16 17  1  0
 17 18  2  0
 17 27  1  0
 18 19  1  0
 19 20  1  0
 20 21  2  0
 20 22  1  0
 22 23  1  0
 22 27  2  0
 23 24  2  0
 24 25  1  0
 25 26  2  0
 26 27  1  0
  4  5  1  0
  5  6  2  0
  6  7  1  0
M  END
>  <minimizedAffinity>  (378) 
-9.21031

$$$$
cs_full_output_folder/data/smiles/5298.pdb
     RDKit          3D

 26 28  0  0  0  0  0  0  0  0999 V2000
   70.9505   41.7824   58.5589 C   0  0  0  0  0  0  0  0  0  0  0  0
   69.7066   41.4788   57.8330 C   0  0  0  0  0  0  0  0  0  0  0  0
   68.9544   42.3822   57.1217 C   0  0  0  0  0  0  0  0  0  0  0  0
   67.8936   41.6746   56.6160 C   0  0  0  0  0  0  0  0  0  0  0  0
   68.0301   40.3800   57.0292 N   0  0  0  0  0  0  0  0  0  0  0  0
   69.1206   40.2510   57.7640 N   0  0  0  0  0  0  0  0  0  0  0  0
   69.6617   39.0829   58.4060 C   0  0  0  0  0  0  0  0  0  0  0  0
   68.9453   38.4608   59.3943 C   0  0  0  0  0  0  0  0  0  0  0  0
   69.4107   37.3509   60.0359 C   0  0  0  0  0  0  0  0  0  0  0  0
   70.6357   36.8319   59.6891 C   0  0  0  0  0  0  0  0  0  0  0  0
   71.1471   35.7175   60.3052 F   0  0  0  0  0  0  0  0  0  0  0  0
   71.3743   37.4490   58.6908 C   0  0  0  0  0  0  0  0  0  0  0  0
   70.8841   38.5712   58.0544 C   0  0  0  0  0  0  0  0  0  0  0  0
   69.2440   43.8005   56.9524 C   0  0  0  0  0  0  0  0  0  0  0  0
   70.2502   44.3423   57.4887 O   0  0  0  0  0  0  0  0  0  0  0  0
   68.4347   44.6241   56.1971 O   0  0  0  0  0  0  0  0  0  0  0  0
   68.5631   45.9779   55.9488 C   0  0  0  0  0  0  0  0  0  0  0  0
   68.5957   46.3683   54.5151 C   0  0  0  0  0  0  0  0  0  0  0  0
   67.8324   45.6602   53.5772 C   0  0  0  0  0  0  0  0  0  0  0  0
   67.8742   46.0134   52.2486 C   0  0  0  0  0  0  0  0  0  0  0  0
   68.6496   47.0587   51.7745 C   0  0  0  0  0  0  0  0  0  0  0  0
   69.3999   47.7564   52.6912 C   0  0  0  0  0  0  0  0  0  0  0  0
   69.3588   47.4028   54.0221 C   0  0  0  0  0  0  0  0  0  0  0  0
   70.2211   48.8581   52.2112 C   0  0  0  0  0  0  0  0  0  0  0  0
   69.8610   49.5819   51.0237 N   0  0  0  0  0  0  0  0  0  0  0  0
   71.2638   49.1953   52.8303 O   0  0  0  0  0  0  0  0  0  0  0  0
  1  2  1  0
  2  3  2  0
  2  6  1  0
  3 14  1  0
  3  4  1  0
 14 15  2  0
 14 16  1  0
 16 17  1  0
 17 18  1  0
 18 19  2  0
 18 23  1  0
 19 20  1  0
 20 21  2  0
 21 22  1  0
 22 24  1  0
 22 23  2  0
 24 25  1  0
 24 26  2  0
  4  5  2  0
  5  6  1  0
  6  7  1  0
  7  8  2  0
  7 13  1  0
  8  9  1  0
  9 10  2  0
 10 11  1  0
 10 12  1  0
 12 13  2  0
M  END
>  <minimizedAffinity>  (379) 
-9.21009

$$$$
cs_full_output_folder/data/smiles/2032.pdb
     RDKit          3D

 29 32  0  0  0  0  0  0  0  0999 V2000
   71.5592   47.2084   58.8539 C   0  0  0  0  0  0  0  0  0  0  0  0
   70.6096   47.9309   58.1140 C   0  0  0  0  0  0  0  0  0  0  0  0
   69.7555   47.3267   57.2573 C   0  0  0  0  0  0  0  0  0  0  0  0
   69.8860   45.9281   57.1605 C   0  0  0  0  0  0  0  0  0  0  0  0
   70.7932   45.1999   57.8591 C   0  0  0  0  0  0  0  0  0  0  0  0
   71.6427   45.8357   58.7162 C   0  0  0  0  0  0  0  0  0  0  0  0
   72.5603   45.1500   59.4265 F   0  0  0  0  0  0  0  0  0  0  0  0
   72.1918   47.8730   61.0090 O   0  0  0  0  0  0  0  0  0  0  0  0
   72.4317   47.9042   59.7777 C   0  0  0  0  0  0  0  0  0  0  0  0
   73.5443   48.6141   59.3135 N   0  0  0  0  0  0  0  0  0  0  0  0
   73.8850   48.6995   57.9109 C   0  0  0  0  0  0  0  0  0  0  0  0
   73.7839   50.1401   57.5007 C   0  0  2  0  0  0  0  0  0  0  0  0
   74.8881   50.4392   56.7000 O   0  0  0  0  0  0  0  0  0  0  0  0
   73.6532   51.0953   58.6604 C   0  0  0  0  0  0  0  0  0  0  0  0
   74.5155   50.7697   59.8337 C   0  0  2  0  0  0  0  0  0  0  0  0
   75.8151   51.1392   59.6664 F   0  0  0  0  0  0  0  0  0  0  0  0
   74.4259   49.3161   60.2378 C   0  0  0  0  0  0  0  0  0  0  0  0
   68.7609   47.9973   56.4322 C   0  0  0  0  0  0  0  0  0  0  0  0
   69.1856   48.1573   55.0535 C   0  0  0  0  0  0  0  0  0  0  0  0
   70.1246   49.0948   54.7762 N   0  0  0  0  0  0  0  0  0  0  0  0
   70.6218   49.2752   53.5725 N   0  0  0  0  0  0  0  0  0  0  0  0
   70.2439   48.5435   52.4969 C   0  0  0  0  0  0  0  0  0  0  0  0
   70.7420   48.7410   51.3589 O   0  0  0  0  0  0  0  0  0  0  0  0
   69.2931   47.5770   52.7100 C   0  0  0  0  0  0  0  0  0  0  0  0
   68.8419   46.8220   51.6577 C   0  0  0  0  0  0  0  0  0  0  0  0
   67.8657   45.8759   51.8661 C   0  0  0  0  0  0  0  0  0  0  0  0
   67.3510   45.6988   53.1373 C   0  0  0  0  0  0  0  0  0  0  0  0
   67.8122   46.4621   54.1832 C   0  0  0  0  0  0  0  0  0  0  0  0
   68.7793   47.3977   53.9787 C   0  0  0  0  0  0  0  0  0  0  0  0
  8  9  2  0
  9  1  1  0
  9 10  1  0
  1  2  2  0
  1  6  1  0
  2  3  1  0
  3 18  1  0
  3  4  2  0
 18 19  1  0
 19 20  2  0
 19 29  1  0
 20 21  1  0
 21 22  1  0
 22 23  2  0
 22 24  1  0
 24 25  1  0
 24 29  2  0
 25 26  2  0
 26 27  1  0
 27 28  2  0
 28 29  1  0
  4  5  1  0
  5  6  2  0
  6  7  1  0
 10 11  1  0
 10 17  1  0
 11 12  1  0
 12 13  1  1
 12 14  1  0
 14 15  1  0
 15 16  1  6
 15 17  1  0
M  END
>  <minimizedAffinity>  (380) 
-9.20952

$$$$
cs_full_output_folder/data/smiles/6412.pdb
     RDKit          3D

 28 32  0  0  0  0  0  0  0  0999 V2000
   69.8401   47.4570   57.0824 C   0  0  0  0  0  0  0  0  0  0  0  0
   70.8667   48.0820   57.8121 C   0  0  0  0  0  0  0  0  0  0  0  0
   71.7461   47.3346   58.5525 C   0  0  0  0  0  0  0  0  0  0  0  0
   71.6368   45.9553   58.5919 C   0  0  0  0  0  0  0  0  0  0  0  0
   72.5507   45.2822   59.3512 F   0  0  0  0  0  0  0  0  0  0  0  0
   70.6484   45.2987   57.8941 C   0  0  0  0  0  0  0  0  0  0  0  0
   69.7728   46.0946   57.1530 C   0  0  0  0  0  0  0  0  0  0  0  0
   68.9074   48.3297   56.3086 C   0  0  0  0  0  0  0  0  0  0  0  0
   70.5670   48.7505   51.0805 O   0  0  0  0  0  0  0  0  0  0  0  0
   70.1758   48.6627   52.2740 C   0  0  0  0  0  0  0  0  0  0  0  0
   70.6151   49.4932   53.2444 N   0  0  0  0  0  0  0  0  0  0  0  0
   70.1925   49.3839   54.4889 N   0  0  0  0  0  0  0  0  0  0  0  0
   69.2858   48.4290   54.8752 C   0  0  0  0  0  0  0  0  0  0  0  0
   68.8339   47.5831   53.8920 C   0  0  0  0  0  0  0  0  0  0  0  0
   67.9101   46.6124   54.1932 C   0  0  0  0  0  0  0  0  0  0  0  0
   67.4423   45.7692   53.2018 C   0  0  0  0  0  0  0  0  0  0  0  0
   67.8700   45.8606   51.8966 C   0  0  0  0  0  0  0  0  0  0  0  0
   68.7888   46.8214   51.5740 C   0  0  0  0  0  0  0  0  0  0  0  0
   69.2566   47.6649   52.5644 C   0  0  0  0  0  0  0  0  0  0  0  0
   70.5346   43.8287   57.9306 C   0  0  0  0  0  0  0  0  0  0  0  0
   69.3776   43.3574   58.6386 N   0  0  2  0  0  0  0  0  0  0  0  0
   69.7667   42.8325   59.9403 C   0  0  0  0  0  0  0  0  0  0  0  0
   68.6786   41.8399   60.3061 C   0  0  1  0  0  0  0  0  0  0  0  0
   67.4676   42.5074   60.8676 C   0  0  0  0  0  0  0  0  0  0  0  0
   66.3740   42.2850   59.9486 N   0  0  0  0  0  0  0  0  0  0  0  0
   66.7586   41.1754   59.1131 C   0  0  0  0  0  0  0  0  0  0  0  0
   68.2687   41.2747   58.9909 C   0  0  1  0  0  0  0  0  0  0  0  0
   68.6588   42.3097   57.9826 C   0  0  0  0  0  0  0  0  0  0  0  0
  9 10  2  0
 10 11  1  0
 10 19  1  0
 11 12  1  0
 12 13  2  0
 13  8  1  0
 13 14  1  0
  8  1  1  0
  1  2  2  0
  1  7  1  0
  2  3  1  0
  3  4  2  0
  4  5  1  0
  4  6  1  0
  6 20  1  0
  6  7  2  0
 21 20  1  6
 21 22  1  0
 21 28  1  0
 23 22  1  6
 23 24  1  0
 23 27  1  0
 24 25  1  0
 25 26  1  0
 27 26  1  1
 27 28  1  0
 14 15  1  0
 14 19  2  0
 15 16  2  0
 16 17  1  0
 17 18  2  0
 18 19  1  0
M  CHG  2  21   1  25   1
M  END
>  <minimizedAffinity>  (381) 
-9.20768

$$$$
cs_full_output_folder/data/smiles/4364.pdb
     RDKit          3D

 27 29  0  0  0  0  0  0  0  0999 V2000
   69.2407   47.9522   52.9354 C   0  0  0  0  0  0  0  0  0  0  0  0
   68.7274   47.4899   51.7415 C   0  0  0  0  0  0  0  0  0  0  0  0
   68.0344   46.2783   51.6845 C   0  0  0  0  0  0  0  0  0  0  0  0
   67.8795   45.5550   52.8575 C   0  0  0  0  0  0  0  0  0  0  0  0
   68.3798   45.9881   54.0621 C   0  0  0  0  0  0  0  0  0  0  0  0
   69.0551   47.1888   54.0679 C   0  0  0  0  0  0  0  0  0  0  0  0
   70.1025   49.4749   52.9657 S   0  0  0  0  0  0  0  0  0  0  0  0
   71.5822   49.1492   52.9978 O   0  0  0  0  0  0  0  0  0  0  0  0
   69.8153   50.2896   51.7352 O   0  0  0  0  0  0  0  0  0  0  0  0
   70.6083   49.2906   56.2579 C   0  0  0  0  0  0  0  0  0  0  0  0
   70.7996   50.4717   55.3045 C   0  0  2  0  0  0  0  0  0  0  0  0
   70.7165   51.7401   56.1518 C   0  0  0  0  0  0  0  0  0  0  0  0
   69.2672   52.0972   56.4180 C   0  0  0  0  0  0  0  0  0  0  0  0
   68.5781   52.4229   55.0963 C   0  0  0  0  0  0  0  0  0  0  0  0
   69.2725   51.7254   53.9452 C   0  0  0  0  0  0  0  0  0  0  0  0
   69.7473   50.4128   54.3391 N   0  0  0  0  0  0  0  0  0  0  0  0
   68.2108   45.2224   55.2861 C   0  0  0  0  0  0  0  0  0  0  0  0
   68.4848   45.7823   56.3785 O   0  0  0  0  0  0  0  0  0  0  0  0
   67.7616   43.8859   55.3566 N   0  0  0  0  0  0  0  0  0  0  0  0
   67.6124   43.1822   56.5593 N   0  0  0  0  0  0  0  0  0  0  0  0
   67.4961   41.7700   56.6173 C   0  0  0  0  0  0  0  0  0  0  0  0
   67.5281   41.1310   55.5377 O   0  0  0  0  0  0  0  0  0  0  0  0
   67.3400   41.0427   57.8869 C   0  0  0  0  0  0  0  0  0  0  0  0
   67.8891   39.8117   58.1753 C   0  0  0  0  0  0  0  0  0  0  0  0
   67.5253   39.4544   59.4561 C   0  0  0  0  0  0  0  0  0  0  0  0
   66.7522   40.5071   59.9025 C   0  0  0  0  0  0  0  0  0  0  0  0
   66.6773   41.4031   58.9488 O   0  0  0  0  0  0  0  0  0  0  0  0
 11 10  1  1
 11 12  1  0
 11 16  1  0
 12 13  1  0
 13 14  1  0
 14 15  1  0
 15 16  1  0
 16  7  1  0
  7  8  2  0
  7  9  2  0
  7  1  1  0
  1  2  2  0
  1  6  1  0
  2  3  1  0
  3  4  2  0
  4  5  1  0
  5 17  1  0
  5  6  2  0
 17 18  2  0
 17 19  1  0
 19 20  1  0
 20 21  1  0
 21 22  2  0
 21 23  1  0
 23 24  2  0
 23 27  1  0
 24 25  1  0
 25 26  2  0
 26 27  1  0
M  END
>  <minimizedAffinity>  (382) 
-9.20664

$$$$
cs_full_output_folder/data/smiles/3106.pdb
     RDKit          3D

 28 31  0  0  0  0  0  0  0  0999 V2000
   68.9830   42.3308   57.1950 C   0  0  0  0  0  0  0  0  0  0  0  0
   67.9968   41.5438   56.6137 C   0  0  0  0  0  0  0  0  0  0  0  0
   67.8636   40.2106   56.9153 C   0  0  0  0  0  0  0  0  0  0  0  0
   68.7293   39.6238   57.8219 C   0  0  0  0  0  0  0  0  0  0  0  0
   69.7187   40.3522   58.4232 C   0  0  0  0  0  0  0  0  0  0  0  0
   69.8160   41.7065   58.0840 C   0  0  0  0  0  0  0  0  0  0  0  0
   69.9098   44.4811   57.5131 O   0  0  0  0  0  0  0  0  0  0  0  0
   69.1026   43.7516   56.8563 C   0  0  0  0  0  0  0  0  0  0  0  0
   68.3624   44.3712   55.8243 N   0  0  0  0  0  0  0  0  0  0  0  0
   68.4487   45.7624   55.4527 C   0  0  0  0  0  0  0  0  0  0  0  0
   68.2452   46.0010   54.0050 C   0  0  0  0  0  0  0  0  0  0  0  0
   68.9989   47.0159   53.4076 C   0  0  0  0  0  0  0  0  0  0  0  0
   68.8081   47.2238   52.0656 C   0  0  0  0  0  0  0  0  0  0  0  0
   67.9295   46.4985   51.2940 C   0  0  0  0  0  0  0  0  0  0  0  0
   67.2161   45.5310   51.8795 N   0  0  0  0  0  0  0  0  0  0  0  0
   67.3764   45.2942   53.2055 C   0  0  0  0  0  0  0  0  0  0  0  0
   70.6667   39.7713   59.4149 C   0  0  0  0  0  0  0  0  0  0  0  0
   71.0963   38.4396   58.9860 C   0  0  0  0  0  0  0  0  0  0  0  0
   71.8148   38.3351   57.8170 N   0  0  0  0  0  0  0  0  0  0  0  0
   72.2275   37.1529   57.4024 N   0  0  0  0  0  0  0  0  0  0  0  0
   71.9608   36.0393   58.0979 C   0  0  0  0  0  0  0  0  0  0  0  0
   72.3732   34.9234   57.6674 O   0  0  0  0  0  0  0  0  0  0  0  0
   71.2304   36.0553   59.3063 C   0  0  0  0  0  0  0  0  0  0  0  0
   70.8126   37.3050   59.7145 C   0  0  0  0  0  0  0  0  0  0  0  0
   70.0263   37.4761   60.9618 C   0  0  0  0  0  0  0  0  0  0  0  0
   69.2096   36.1784   61.1205 C   0  0  0  0  0  0  0  0  0  0  0  0
   70.1816   35.0233   61.2570 C   0  0  0  0  0  0  0  0  0  0  0  0
   70.9783   34.7887   60.0151 C   0  0  0  0  0  0  0  0  0  0  0  0
  7  8  2  0
  8  9  1  0
  8  1  1  0
  9 10  1  0
 10 11  1  0
 11 12  2  0
 11 16  1  0
 12 13  1  0
 13 14  2  0
 14 15  1  0
 15 16  2  0
  1  2  2  0
  1  6  1  0
  2  3  1  0
  3  4  2  0
  4  5  1  0
  5 17  1  0
  5  6  2  0
 17 18  1  0
 18 19  2  0
 18 24  1  0
 19 20  1  0
 20 21  1  0
 21 22  2  0
 21 23  1  0
 23 24  2  0
 23 28  1  0
 24 25  1  0
 25 26  1  0
 26 27  1  0
 27 28  1  0
M  END
>  <minimizedAffinity>  (383) 
-9.20641

$$$$
cs_full_output_folder/data/smiles/8967.pdb
     RDKit          3D

 27 30  0  0  0  0  0  0  0  0999 V2000
   69.8362   47.6585   57.5919 C   0  0  0  0  0  0  0  0  0  0  0  0
   70.6103   48.5022   58.3288 C   0  0  0  0  0  0  0  0  0  0  0  0
   71.6165   47.9739   59.1283 C   0  0  0  0  0  0  0  0  0  0  0  0
   71.8489   46.6174   59.1934 C   0  0  0  0  0  0  0  0  0  0  0  0
   72.8498   46.1938   59.9988 F   0  0  0  0  0  0  0  0  0  0  0  0
   71.0797   45.7385   58.4585 C   0  0  0  0  0  0  0  0  0  0  0  0
   70.0928   46.2825   57.6763 C   0  0  0  0  0  0  0  0  0  0  0  0
   71.3012   44.3337   58.5095 N   0  0  0  0  0  0  0  0  0  0  0  0
   72.4667   43.7735   57.9300 C   0  0  0  0  0  0  0  0  0  0  0  0
   73.3024   44.5050   57.3716 O   0  0  0  0  0  0  0  0  0  0  0  0
   72.6585   42.3324   58.0033 C   0  0  0  0  0  0  0  0  0  0  0  0
   71.7984   41.5152   58.5868 C   0  0  0  0  0  0  0  0  0  0  0  0
   70.5626   41.9764   59.2185 C   0  0  0  0  0  0  0  0  0  0  0  0
   70.3841   43.4463   59.1327 C   0  0  0  0  0  0  0  0  0  0  0  0
   69.3186   43.9030   59.6685 O   0  0  0  0  0  0  0  0  0  0  0  0
   68.7292   48.0522   56.6709 C   0  0  0  0  0  0  0  0  0  0  0  0
   70.3694   48.8991   51.1660 N   0  0  0  0  0  0  0  0  0  0  0  0
   70.0264   48.7101   52.3899 C   0  0  0  0  0  0  0  0  0  0  0  0
   70.5949   49.7881   53.6293 S   0  0  0  0  0  0  0  0  0  0  0  0
   70.0461   49.3849   55.1432 N   0  0  0  0  0  0  0  0  0  0  0  0
   69.2297   48.2842   55.2660 C   0  0  0  0  0  0  0  0  0  0  0  0
   68.8653   47.5278   54.2081 C   0  0  0  0  0  0  0  0  0  0  0  0
   68.0488   46.4239   54.4817 C   0  0  0  0  0  0  0  0  0  0  0  0
   67.5929   45.5411   53.5487 C   0  0  0  0  0  0  0  0  0  0  0  0
   67.9453   45.7283   52.2489 C   0  0  0  0  0  0  0  0  0  0  0  0
   68.7457   46.7939   51.9232 C   0  0  0  0  0  0  0  0  0  0  0  0
   69.2225   47.7101   52.8755 C   0  0  0  0  0  0  0  0  0  0  0  0
 17 18  2  0
 18 19  1  0
 18 27  1  0
 19 20  1  0
 20 21  2  0
 21 16  1  0
 21 22  1  0
 16  1  1  0
  1  2  2  0
  1  7  1  0
  2  3  1  0
  3  4  2  0
  4  5  1  0
  4  6  1  0
  6  8  1  0
  6  7  2  0
  8  9  1  0
  8 14  1  0
  9 10  2  0
  9 11  1  0
 11 12  2  0
 12 13  1  0
 13 14  1  0
 14 15  2  0
 22 23  1  0
 22 27  2  0
 23 24  2  0
 24 25  1  0
 25 26  2  0
 26 27  1  0
M  END
>  <minimizedAffinity>  (384) 
-9.20614

$$$$
cs_full_output_folder/data/smiles/2070.pdb
     RDKit          3D

 27 30  0  0  0  0  0  0  0  0999 V2000
   71.2093   47.4204   58.5419 C   0  0  0  0  0  0  0  0  0  0  0  0
   71.0701   46.0262   58.5617 C   0  0  0  0  0  0  0  0  0  0  0  0
   70.2299   45.3650   57.7044 C   0  0  0  0  0  0  0  0  0  0  0  0
   69.5019   46.1438   56.7899 C   0  0  0  0  0  0  0  0  0  0  0  0
   69.6033   47.4697   56.7348 N   0  0  0  0  0  0  0  0  0  0  0  0
   70.4511   48.0702   57.6097 C   0  0  0  0  0  0  0  0  0  0  0  0
   70.5270   49.3157   57.5395 O   0  0  0  0  0  0  0  0  0  0  0  0
   74.0879   49.3194   60.3024 C   0  0  0  0  0  0  0  0  0  0  0  0
   73.2513   48.7736   59.2064 N   0  0  0  0  0  0  0  0  0  0  0  0
   72.1052   48.0061   59.4911 C   0  0  0  0  0  0  0  0  0  0  0  0
   71.8718   47.8356   60.7378 O   0  0  0  0  0  0  0  0  0  0  0  0
   70.0794   43.9324   57.7162 C   0  0  0  0  0  0  0  0  0  0  0  0
   69.9558   42.7419   57.7107 C   0  0  0  0  0  0  0  0  0  0  0  0
   69.8096   41.3488   57.6935 N   0  0  0  0  0  0  0  0  0  0  0  0
   68.4961   40.7718   57.5068 C   0  0  0  0  0  0  0  0  0  0  0  0
   67.2687   41.5313   57.7551 C   0  0  0  0  0  0  0  0  0  0  0  0
   67.6667   41.2230   56.3226 C   0  0  0  0  0  0  0  0  0  0  0  0
   68.8451   48.2759   55.7769 C   0  0  0  0  0  0  0  0  0  0  0  0
   68.7413   47.5612   54.4708 C   0  0  0  0  0  0  0  0  0  0  0  0
   67.8868   46.4980   54.2939 C   0  0  0  0  0  0  0  0  0  0  0  0
   67.7130   45.8462   53.0915 C   0  0  0  0  0  0  0  0  0  0  0  0
   68.4261   46.2631   51.9800 C   0  0  0  0  0  0  0  0  0  0  0  0
   69.2862   47.3285   52.1521 C   0  0  0  0  0  0  0  0  0  0  0  0
   70.0898   47.8985   51.2434 N   0  0  0  0  0  0  0  0  0  0  0  0
   70.7526   48.8692   51.8242 N   0  0  0  0  0  0  0  0  0  0  0  0
   70.3989   48.9570   53.1320 C   0  0  0  0  0  0  0  0  0  0  0  0
   69.4604   47.9838   53.3656 C   0  0  0  0  0  0  0  0  0  0  0  0
  8  9  1  0
  9 10  1  0
 10 11  2  0
 10  1  1  0
  1  2  2  0
  1  6  1  0
  2  3  1  0
  3 12  1  0
  3  4  2  0
 12 13  3  0
 13 14  1  0
 14 15  1  0
 15 16  1  0
 15 17  1  0
 16 17  1  0
  4  5  1  0
  5 18  1  0
  5  6  1  0
 18 19  1  0
 19 20  2  0
 19 27  1  0
 20 21  1  0
 21 22  2  0
 22 23  1  0
 23 24  1  0
 23 27  2  0
 24 25  1  0
 25 26  2  0
 26 27  1  0
  6  7  2  0
M  END
>  <minimizedAffinity>  (385) 
-9.20175

$$$$
cs_full_output_folder/data/smiles/1159.pdb
     RDKit          3D

 28 31  0  0  0  0  0  0  0  0999 V2000
   71.5764   47.3008   58.9145 C   0  0  0  0  0  0  0  0  0  0  0  0
   70.7184   48.0367   58.1025 C   0  0  0  0  0  0  0  0  0  0  0  0
   69.8784   47.4520   57.2121 C   0  0  0  0  0  0  0  0  0  0  0  0
   69.8996   46.0533   57.1320 C   0  0  0  0  0  0  0  0  0  0  0  0
   70.7327   45.2903   57.9183 C   0  0  0  0  0  0  0  0  0  0  0  0
   71.5625   45.9487   58.8026 C   0  0  0  0  0  0  0  0  0  0  0  0
   72.4025   45.2237   59.5980 F   0  0  0  0  0  0  0  0  0  0  0  0
   72.1668   47.8935   61.0718 O   0  0  0  0  0  0  0  0  0  0  0  0
   72.4571   47.9760   59.8521 C   0  0  0  0  0  0  0  0  0  0  0  0
   73.5951   48.7028   59.4688 N   0  0  0  0  0  0  0  0  0  0  0  0
   74.3915   49.3297   60.5029 C   0  0  0  0  0  0  0  0  0  0  0  0
   75.4232   48.3671   61.0015 C   0  0  0  0  0  0  0  0  0  0  0  0
   75.7224   47.2546   60.0842 C   0  0  0  0  0  0  0  0  0  0  0  0
   75.6701   47.2644   58.8063 N   0  0  0  0  0  0  0  0  0  0  0  0
   75.3374   48.2452   57.8295 C   0  0  0  0  0  0  0  0  0  0  0  0
   73.9374   48.7994   58.0421 C   0  0  0  0  0  0  0  0  0  0  0  0
   68.9737   48.1685   56.3362 C   0  0  0  0  0  0  0  0  0  0  0  0
   69.3614   48.2694   54.9231 C   0  0  0  0  0  0  0  0  0  0  0  0
   70.2601   49.2353   54.5384 N   0  0  0  0  0  0  0  0  0  0  0  0
   70.6182   49.4157   53.2845 N   0  0  0  0  0  0  0  0  0  0  0  0
   70.1300   48.6654   52.2838 C   0  0  0  0  0  0  0  0  0  0  0  0
   70.4993   48.8680   51.0729 O   0  0  0  0  0  0  0  0  0  0  0  0
   69.2262   47.6752   52.5853 C   0  0  0  0  0  0  0  0  0  0  0  0
   68.7090   46.8724   51.5948 C   0  0  0  0  0  0  0  0  0  0  0  0
   67.8182   45.8832   51.9518 C   0  0  0  0  0  0  0  0  0  0  0  0
   67.4325   45.6767   53.2598 C   0  0  0  0  0  0  0  0  0  0  0  0
   67.9543   46.4838   54.2336 C   0  0  0  0  0  0  0  0  0  0  0  0
   68.8521   47.4931   53.9239 C   0  0  0  0  0  0  0  0  0  0  0  0
  8  9  2  0
  9  1  1  0
  9 10  1  0
  1  2  2  0
  1  6  1  0
  2  3  1  0
  3 17  1  0
  3  4  2  0
 17 18  1  0
 18 19  2  0
 18 28  1  0
 19 20  1  0
 20 21  1  0
 21 22  2  0
 21 23  1  0
 23 24  1  0
 23 28  2  0
 24 25  2  0
 25 26  1  0
 26 27  2  0
 27 28  1  0
  4  5  1  0
  5  6  2  0
  6  7  1  0
 10 11  1  0
 10 16  1  0
 11 12  1  0
 12 13  1  0
 13 14  2  0
 14 15  1  0
 15 16  1  0
M  END
>  <minimizedAffinity>  (386) 
-9.20126

$$$$
cs_full_output_folder/data/smiles/2931.pdb
     RDKit          3D

 29 32  0  0  0  0  0  0  0  0999 V2000
   71.5146   47.3024   58.9486 C   0  0  0  0  0  0  0  0  0  0  0  0
   70.6710   48.0221   58.1451 C   0  0  0  0  0  0  0  0  0  0  0  0
   69.8560   47.3991   57.2203 C   0  0  0  0  0  0  0  0  0  0  0  0
   69.8907   46.0465   57.1042 C   0  0  0  0  0  0  0  0  0  0  0  0
   70.7237   45.2992   57.8925 C   0  0  0  0  0  0  0  0  0  0  0  0
   71.5429   45.9231   58.8221 C   0  0  0  0  0  0  0  0  0  0  0  0
   72.3708   45.1878   59.6078 F   0  0  0  0  0  0  0  0  0  0  0  0
   72.1420   47.7410   61.1308 O   0  0  0  0  0  0  0  0  0  0  0  0
   72.3619   47.9928   59.9207 C   0  0  0  0  0  0  0  0  0  0  0  0
   73.3864   48.9024   59.5573 N   0  0  0  0  0  0  0  0  0  0  0  0
   74.2481   49.6013   60.5029 C   0  0  0  0  0  0  0  0  0  0  0  0
   75.4915   49.9717   59.7439 C   0  0  0  0  0  0  0  0  0  0  0  0
   75.3320   49.2772   58.4316 C   0  0  0  0  0  0  0  0  0  0  0  0
   73.8066   49.3336   58.2403 C   0  0  2  0  0  0  0  0  0  0  0  0
   73.3821   50.7371   57.9038 C   0  0  0  0  0  0  0  0  0  0  0  0
   73.2858   50.9537   56.4149 C   0  0  0  0  0  0  0  0  0  0  0  0
   73.0243   49.6924   55.8469 O   0  0  0  0  0  0  0  0  0  0  0  0
   68.9612   48.2980   56.4199 C   0  0  0  0  0  0  0  0  0  0  0  0
   69.3275   48.4164   55.0064 C   0  0  0  0  0  0  0  0  0  0  0  0
   70.2299   49.3756   54.6017 N   0  0  0  0  0  0  0  0  0  0  0  0
   70.6188   49.4818   53.3556 N   0  0  0  0  0  0  0  0  0  0  0  0
   70.2062   48.7070   52.3659 C   0  0  0  0  0  0  0  0  0  0  0  0
   70.5883   48.8182   51.1671 O   0  0  0  0  0  0  0  0  0  0  0  0
   69.2927   47.7118   52.6808 C   0  0  0  0  0  0  0  0  0  0  0  0
   68.7852   46.8617   51.7397 C   0  0  0  0  0  0  0  0  0  0  0  0
   67.8652   45.8737   52.0209 C   0  0  0  0  0  0  0  0  0  0  0  0
   67.4497   45.7570   53.3293 C   0  0  0  0  0  0  0  0  0  0  0  0
   67.9617   46.6204   54.3024 C   0  0  0  0  0  0  0  0  0  0  0  0
   68.8718   47.5910   54.0063 C   0  0  0  0  0  0  0  0  0  0  0  0
  8  9  2  0
  9  1  1  0
  9 10  1  0
  1  2  2  0
  1  6  1  0
  2  3  1  0
  3 18  1  0
  3  4  2  0
 18 19  1  0
 19 20  2  0
 19 29  1  0
 20 21  1  0
 21 22  1  0
 22 23  2  0
 22 24  1  0
 24 25  1  0
 24 29  2  0
 25 26  2  0
 26 27  1  0
 27 28  2  0
 28 29  1  0
  4  5  1  0
  5  6  2  0
  6  7  1  0
 10 11  1  0
 10 14  1  0
 11 12  1  0
 12 13  1  0
 13 14  1  0
 14 15  1  1
 15 16  1  0
 16 17  1  0
M  END
>  <minimizedAffinity>  (387) 
-9.20047

$$$$
cs_full_output_folder/data/smiles/5313.pdb
     RDKit          3D

 27 30  0  0  0  0  0  0  0  0999 V2000
   70.9621   45.8043   58.2086 C   0  0  0  0  0  0  0  0  0  0  0  0
   70.0026   46.3698   57.3545 C   0  0  0  0  0  0  0  0  0  0  0  0
   69.7839   47.7112   57.2377 C   0  0  0  0  0  0  0  0  0  0  0  0
   70.5773   48.5489   58.0295 C   0  0  0  0  0  0  0  0  0  0  0  0
   71.5273   48.0295   58.8782 C   0  0  0  0  0  0  0  0  0  0  0  0
   71.7270   46.6703   58.9756 C   0  0  0  0  0  0  0  0  0  0  0  0
   72.6571   46.1510   59.8325 F   0  0  0  0  0  0  0  0  0  0  0  0
   69.3789   43.9028   59.7553 O   0  0  0  0  0  0  0  0  0  0  0  0
   70.1080   43.5363   58.8318 C   0  0  0  0  0  0  0  0  0  0  0  0
   69.9312   42.1897   58.2389 C   0  0  0  0  0  0  0  0  0  0  0  0
   71.2291   41.4232   58.2286 C   0  0  0  0  0  0  0  0  0  0  0  0
   72.3652   42.2808   58.0884 N   0  0  0  0  0  0  0  0  0  0  0  0
   72.3225   43.7066   57.9431 C   0  0  0  0  0  0  0  0  0  0  0  0
   73.3048   44.3166   57.4847 O   0  0  0  0  0  0  0  0  0  0  0  0
   71.1345   44.4192   58.3296 N   0  0  0  0  0  0  0  0  0  0  0  0
   68.8180   48.3889   56.3615 C   0  0  0  0  0  0  0  0  0  0  0  0
   69.2317   48.4503   54.9429 C   0  0  0  0  0  0  0  0  0  0  0  0
   70.1264   49.4053   54.5384 N   0  0  0  0  0  0  0  0  0  0  0  0
   70.5676   49.4925   53.2953 N   0  0  0  0  0  0  0  0  0  0  0  0
   70.1686   48.6461   52.3267 C   0  0  0  0  0  0  0  0  0  0  0  0
   70.6269   48.7797   51.1563 O   0  0  0  0  0  0  0  0  0  0  0  0
   69.2682   47.6587   52.6550 C   0  0  0  0  0  0  0  0  0  0  0  0
   68.8576   46.8040   51.6585 C   0  0  0  0  0  0  0  0  0  0  0  0
   67.9373   45.8203   52.0091 C   0  0  0  0  0  0  0  0  0  0  0  0
   67.4643   45.7106   53.2886 C   0  0  0  0  0  0  0  0  0  0  0  0
   67.9110   46.5923   54.2433 C   0  0  0  0  0  0  0  0  0  0  0  0
   68.8125   47.5812   53.9725 C   0  0  0  0  0  0  0  0  0  0  0  0
  8  9  2  0
  9 10  1  0
  9 15  1  0
 10 11  1  0
 11 12  1  0
 12 13  1  0
 13 14  2  0
 13 15  1  0
 15  1  1  0
  1  2  2  0
  1  6  1  0
  2  3  1  0
  3 16  1  0
  3  4  2  0
 16 17  1  0
 17 18  2  0
 17 27  1  0
 18 19  1  0
 19 20  1  0
 20 21  2  0
 20 22  1  0
 22 23  1  0
 22 27  2  0
 23 24  2  0
 24 25  1  0
 25 26  2  0
 26 27  1  0
  4  5  1  0
  5  6  2  0
  6  7  1  0
M  END
>  <minimizedAffinity>  (388) 
-9.19860

$$$$
cs_full_output_folder/data/smiles/8140.pdb
     RDKit          3D

 27 29  0  0  0  0  0  0  0  0999 V2000
   69.7963   49.7664   57.0664 C   0  0  0  0  0  0  0  0  0  0  0  0
   68.9510   50.6898   57.5972 C   0  0  0  0  0  0  0  0  0  0  0  0
   68.2252   51.5790   56.7762 C   0  0  0  0  0  0  0  0  0  0  0  0
   68.3392   51.5527   55.4104 C   0  0  0  0  0  0  0  0  0  0  0  0
   69.1850   50.6298   54.8525 C   0  0  0  0  0  0  0  0  0  0  0  0
   69.8978   49.7560   55.6705 C   0  0  0  0  0  0  0  0  0  0  0  0
   69.1181   47.1009   57.5682 O   0  0  0  0  0  0  0  0  0  0  0  0
   70.2544   47.4819   58.0296 C   0  0  0  0  0  0  0  0  0  0  0  0
   70.5813   48.8196   57.7714 N   0  0  0  0  0  0  0  0  0  0  0  0
   71.0667   46.5069   58.7568 C   0  0  0  0  0  0  0  0  0  0  0  0
   71.1559   45.2245   58.2092 C   0  0  0  0  0  0  0  0  0  0  0  0
   71.8857   44.2151   58.7936 C   0  0  0  0  0  0  0  0  0  0  0  0
   72.5713   44.4327   59.9638 C   0  0  0  0  0  0  0  0  0  0  0  0
   72.4984   45.6835   60.5201 C   0  0  0  0  0  0  0  0  0  0  0  0
   73.1808   45.9455   61.7089 O   0  0  0  0  0  0  0  0  0  0  0  0
   71.7500   46.7068   59.9151 C   0  0  0  0  0  0  0  0  0  0  0  0
   71.7168   47.9396   60.5225 O   0  0  0  0  0  0  0  0  0  0  0  0
   69.3541   50.5669   53.4507 N   0  0  0  0  0  0  0  0  0  0  0  0
   69.9331   49.2769   52.5319 S   0  0  0  0  0  0  0  0  0  0  0  0
   71.3937   49.0465   52.8240 O   0  0  0  0  0  0  0  0  0  0  0  0
   69.8653   49.6005   51.0576 O   0  0  0  0  0  0  0  0  0  0  0  0
   69.0513   47.7727   52.7274 C   0  0  0  0  0  0  0  0  0  0  0  0
   68.8024   47.2383   53.9769 C   0  0  0  0  0  0  0  0  0  0  0  0
   68.1115   46.0610   54.1226 C   0  0  0  0  0  0  0  0  0  0  0  0
   67.6426   45.3741   53.0027 C   0  0  0  0  0  0  0  0  0  0  0  0
   67.9064   45.9301   51.7713 C   0  0  0  0  0  0  0  0  0  0  0  0
   68.5928   47.1025   51.6064 C   0  0  0  0  0  0  0  0  0  0  0  0
  7  8  2  0
  8  9  1  0
  8 10  1  0
  9  1  1  0
  1  2  2  0
  1  6  1  0
  2  3  1  0
  3  4  2  0
  4  5  1  0
  5 18  1  0
  5  6  2  0
 18 19  1  0
 19 20  2  0
 19 21  2  0
 19 22  1  0
 22 23  2  0
 22 27  1  0
 23 24  1  0
 24 25  2  0
 25 26  1  0
 26 27  2  0
 10 11  2  0
 10 16  1  0
 11 12  1  0
 12 13  2  0
 13 14  1  0
 14 15  1  0
 14 16  2  0
 16 17  1  0
M  END
>  <minimizedAffinity>  (389) 
-9.19656

$$$$
cs_full_output_folder/data/smiles/5893.pdb
     RDKit          3D

 27 30  0  0  0  0  0  0  0  0999 V2000
   73.7725   50.4389   56.1685 C   0  0  0  0  0  0  0  0  0  0  0  0
   73.0408   51.1618   55.2823 C   0  0  0  0  0  0  0  0  0  0  0  0
   71.6414   51.0097   55.2368 C   0  0  0  0  0  0  0  0  0  0  0  0
   70.9451   50.1678   56.0376 C   0  0  0  0  0  0  0  0  0  0  0  0
   71.7066   49.4277   56.9471 C   0  0  0  0  0  0  0  0  0  0  0  0
   73.0775   49.5600   57.0091 C   0  0  0  0  0  0  0  0  0  0  0  0
   75.7745   49.2055   54.4942 O   0  0  0  0  0  0  0  0  0  0  0  0
   76.1392   49.8846   55.4899 C   0  0  0  0  0  0  0  0  0  0  0  0
   75.1874   50.4940   56.3193 N   0  0  0  0  0  0  0  0  0  0  0  0
   77.5752   50.0210   55.7582 C   0  0  0  0  0  0  0  0  0  0  0  0
   78.4450   49.0014   55.3431 C   0  0  0  0  0  0  0  0  0  0  0  0
   79.7976   49.0455   55.5513 C   0  0  0  0  0  0  0  0  0  0  0  0
   80.2948   50.1461   56.1953 C   0  0  0  0  0  0  0  0  0  0  0  0
   79.5073   51.1813   56.6282 C   0  0  0  0  0  0  0  0  0  0  0  0
   78.1320   51.0912   56.3941 C   0  0  0  0  0  0  0  0  0  0  0  0
   69.4873   49.9411   56.0810 C   0  0  0  0  0  0  0  0  0  0  0  0
   69.0900   48.5530   55.7388 C   0  0  0  0  0  0  0  0  0  0  0  0
   68.6776   47.6969   56.7250 N   0  0  0  0  0  0  0  0  0  0  0  0
   68.2759   46.4723   56.4588 N   0  0  0  0  0  0  0  0  0  0  0  0
   68.2437   45.9790   55.2102 C   0  0  0  0  0  0  0  0  0  0  0  0
   67.8452   44.7958   55.0385 O   0  0  0  0  0  0  0  0  0  0  0  0
   68.6447   46.7741   54.1559 C   0  0  0  0  0  0  0  0  0  0  0  0
   68.6210   46.2570   52.8761 C   0  0  0  0  0  0  0  0  0  0  0  0
   69.0369   47.0538   51.8324 C   0  0  0  0  0  0  0  0  0  0  0  0
   69.4595   48.3358   52.1180 C   0  0  0  0  0  0  0  0  0  0  0  0
   69.4776   48.8421   53.4002 C   0  0  0  0  0  0  0  0  0  0  0  0
   69.0649   48.0639   54.4599 C   0  0  0  0  0  0  0  0  0  0  0  0
  7  8  2  0
  8  9  1  0
  8 10  1  0
  9  1  1  0
  1  2  2  0
  1  6  1  0
  2  3  1  0
  3  4  2  0
  4 16  1  0
  4  5  1  0
 16 17  1  0
 17 18  2  0
 17 27  1  0
 18 19  1  0
 19 20  1  0
 20 21  2  0
 20 22  1  0
 22 23  1  0
 22 27  2  0
 23 24  2  0
 24 25  1  0
 25 26  2  0
 26 27  1  0
  5  6  2  0
 10 11  2  0
 10 15  1  0
 11 12  1  0
 12 13  2  0
 13 14  1  0
 14 15  2  0
M  END
>  <minimizedAffinity>  (390) 
-9.19629

$$$$
cs_full_output_folder/data/smiles/7140.pdb
     RDKit          3D

 29 33  0  0  0  0  0  0  0  0999 V2000
   71.4776   47.1052   59.1003 C   0  0  0  0  0  0  0  0  0  0  0  0
   70.7074   47.9437   58.3157 C   0  0  0  0  0  0  0  0  0  0  0  0
   69.9454   47.4867   57.2741 C   0  0  0  0  0  0  0  0  0  0  0  0
   69.9771   46.0994   57.0331 C   0  0  0  0  0  0  0  0  0  0  0  0
   70.7306   45.2441   57.7967 C   0  0  0  0  0  0  0  0  0  0  0  0
   71.4819   45.7651   58.8357 C   0  0  0  0  0  0  0  0  0  0  0  0
   72.2189   44.8702   59.5703 F   0  0  0  0  0  0  0  0  0  0  0  0
   71.9355   47.2004   61.3457 O   0  0  0  0  0  0  0  0  0  0  0  0
   72.2756   47.6282   60.1874 C   0  0  0  0  0  0  0  0  0  0  0  0
   73.3500   48.5341   60.0263 N   0  0  0  0  0  0  0  0  0  0  0  0
   74.1701   49.0828   61.0762 C   0  0  0  0  0  0  0  0  0  0  0  0
   75.5633   48.9236   60.5093 C   0  0  0  0  0  0  0  0  0  0  0  0
   75.3651   49.0036   59.0352 C   0  0  0  0  0  0  0  0  0  0  0  0
   76.0167   47.9221   58.2185 C   0  0  0  0  0  0  0  0  0  0  0  0
   76.3231   48.9842   57.1688 C   0  0  0  0  0  0  0  0  0  0  0  0
   76.1667   50.0214   58.2880 C   0  0  0  0  0  0  0  0  0  0  0  0
   73.8542   49.0974   58.8003 C   0  0  0  0  0  0  0  0  0  0  0  0
   69.1038   48.3463   56.3783 C   0  0  0  0  0  0  0  0  0  0  0  0
   69.5370   48.3588   54.9869 C   0  0  0  0  0  0  0  0  0  0  0  0
   70.5170   49.2200   54.5634 N   0  0  0  0  0  0  0  0  0  0  0  0
   70.8775   49.2864   53.2921 N   0  0  0  0  0  0  0  0  0  0  0  0
   70.3318   48.5387   52.3344 C   0  0  0  0  0  0  0  0  0  0  0  0
   70.7233   48.6563   51.1444 O   0  0  0  0  0  0  0  0  0  0  0  0
   69.3464   47.6538   52.6862 C   0  0  0  0  0  0  0  0  0  0  0  0
   68.7685   46.8526   51.7297 C   0  0  0  0  0  0  0  0  0  0  0  0
   67.7893   45.9381   52.0366 C   0  0  0  0  0  0  0  0  0  0  0  0
   67.3990   45.8473   53.3487 C   0  0  0  0  0  0  0  0  0  0  0  0
   67.9886   46.6617   54.3057 C   0  0  0  0  0  0  0  0  0  0  0  0
   68.9621   47.5791   54.0275 C   0  0  0  0  0  0  0  0  0  0  0  0
  8  9  2  0
  9  1  1  0
  9 10  1  0
  1  2  2  0
  1  6  1  0
  2  3  1  0
  3 18  1  0
  3  4  2  0
 18 19  1  0
 19 20  2  0
 19 29  1  0
 20 21  1  0
 21 22  1  0
 22 23  2  0
 22 24  1  0
 24 25  1  0
 24 29  2  0
 25 26  2  0
 26 27  1  0
 27 28  2  0
 28 29  1  0
  4  5  1  0
  5  6  2  0
  6  7  1  0
 10 11  1  0
 10 17  1  0
 11 12  1  0
 12 13  1  0
 13 14  1  0
 13 16  1  0
 13 17  1  0
 14 15  1  0
 15 16  1  0
M  END
>  <minimizedAffinity>  (391) 
-9.19569

$$$$
cs_full_output_folder/data/smiles/572.pdb
     RDKit          3D

 24 25  0  0  0  0  0  0  0  0999 V2000
   70.0163   49.2729   52.5892 S   0  0  0  0  0  0  0  0  0  0  0  0
   70.0675   49.2055   51.0760 O   0  0  0  0  0  0  0  0  0  0  0  0
   71.4195   49.3078   53.0721 O   0  0  0  0  0  0  0  0  0  0  0  0
   69.2078   47.7957   53.1037 C   0  0  0  0  0  0  0  0  0  0  0  0
   68.6051   46.9323   52.2351 C   0  0  0  0  0  0  0  0  0  0  0  0
   67.9931   45.7939   52.7277 C   0  0  0  0  0  0  0  0  0  0  0  0
   67.3864   44.9202   51.8835 F   0  0  0  0  0  0  0  0  0  0  0  0
   67.9819   45.5153   54.0963 C   0  0  0  0  0  0  0  0  0  0  0  0
   67.3763   44.3977   54.5409 F   0  0  0  0  0  0  0  0  0  0  0  0
   68.5835   46.3778   54.9628 C   0  0  0  0  0  0  0  0  0  0  0  0
   68.6052   46.1580   56.3181 F   0  0  0  0  0  0  0  0  0  0  0  0
   69.1953   47.5179   54.4579 C   0  0  0  0  0  0  0  0  0  0  0  0
   69.7983   48.3806   55.3310 F   0  0  0  0  0  0  0  0  0  0  0  0
   69.1245   50.6612   53.0558 N   0  0  0  0  0  0  0  0  0  0  0  0
   71.3918   52.7381   55.1243 C   0  0  0  0  0  0  0  0  0  0  0  0
   70.5692   53.1523   56.1517 C   0  0  0  0  0  0  0  0  0  0  0  0
   69.2746   52.7256   56.1278 C   0  0  0  0  0  0  0  0  0  0  0  0
   68.7672   51.9135   55.1357 C   0  0  0  0  0  0  0  0  0  0  0  0
   69.5905   51.4923   54.0966 C   0  0  0  0  0  0  0  0  0  0  0  0
   70.9023   51.9264   54.1237 C   0  0  0  0  0  0  0  0  0  0  0  0
   73.6684   52.5780   53.5175 N   0  0  0  0  0  0  0  0  0  0  0  0
   73.0755   53.2059   55.0253 S   0  0  0  0  0  0  0  0  0  0  0  0
   73.1545   54.7016   55.0295 O   0  0  0  0  0  0  0  0  0  0  0  0
   73.8718   52.6419   56.1654 O   0  0  0  0  0  0  0  0  0  0  0  0
 21 22  1  0
 22 23  2  0
 22 24  2  0
 22 15  1  0
 15 16  2  0
 15 20  1  0
 16 17  1  0
 17 18  2  0
 18 19  1  0
 19 14  1  0
 19 20  2  0
 14  1  1  0
  1  2  2  0
  1  3  2  0
  1  4  1  0
  4  5  2  0
  4 12  1  0
  5  6  1  0
  6  7  1  0
  6  8  2  0
  8  9  1  0
  8 10  1  0
 10 11  1  0
 10 12  2  0
 12 13  1  0
M  END
>  <minimizedAffinity>  (392) 
-9.19265

$$$$
cs_full_output_folder/data/smiles/3056.pdb
     RDKit          3D

 25 26  0  0  0  0  0  0  0  0999 V2000
   69.4261   47.1990   57.2874 S   0  0  0  0  0  0  0  0  0  0  0  0
   69.3503   46.6725   58.6946 O   0  0  0  0  0  0  0  0  0  0  0  0
   70.8405   47.0350   56.8261 O   0  0  0  0  0  0  0  0  0  0  0  0
   69.0802   48.9133   57.2961 C   0  0  0  0  0  0  0  0  0  0  0  0
   70.1080   49.8153   57.1418 C   0  0  0  0  0  0  0  0  0  0  0  0
   71.3752   49.3909   56.9719 F   0  0  0  0  0  0  0  0  0  0  0  0
   69.8841   51.1909   57.1478 C   0  0  0  0  0  0  0  0  0  0  0  0
   70.9489   52.0285   56.9899 F   0  0  0  0  0  0  0  0  0  0  0  0
   68.6013   51.6459   57.3118 C   0  0  0  0  0  0  0  0  0  0  0  0
   68.3945   52.9952   57.3164 F   0  0  0  0  0  0  0  0  0  0  0  0
   67.5586   50.7434   57.4678 C   0  0  0  0  0  0  0  0  0  0  0  0
   66.2933   51.2214   57.6299 F   0  0  0  0  0  0  0  0  0  0  0  0
   67.7753   49.3825   57.4624 C   0  0  0  0  0  0  0  0  0  0  0  0
   66.7820   48.4713   57.6120 F   0  0  0  0  0  0  0  0  0  0  0  0
   68.3315   46.3129   56.2969 N   0  0  0  0  0  0  0  0  0  0  0  0
   69.2485   47.6073   52.9623 C   0  0  0  0  0  0  0  0  0  0  0  0
   69.1494   47.4427   54.3264 C   0  0  0  0  0  0  0  0  0  0  0  0
   68.3796   46.4119   54.8792 C   0  0  0  0  0  0  0  0  0  0  0  0
   67.7097   45.5499   54.0479 C   0  0  0  0  0  0  0  0  0  0  0  0
   67.7965   45.6983   52.6894 C   0  0  0  0  0  0  0  0  0  0  0  0
   68.5572   46.7159   52.1541 C   0  0  0  0  0  0  0  0  0  0  0  0
   68.6258   46.8402   50.8010 F   0  0  0  0  0  0  0  0  0  0  0  0
   71.1630   48.9597   52.8603 O   0  0  0  0  0  0  0  0  0  0  0  0
   70.0556   48.6866   52.3888 C   0  0  0  0  0  0  0  0  0  0  0  0
   69.5378   49.3806   51.3141 O   0  0  0  0  0  0  0  0  0  0  0  0
 23 24  2  0
 24 25  1  0
 24 16  1  0
 16 17  2  0
 16 21  1  0
 17 18  1  0
 18 15  1  0
 18 19  2  0
 15  1  1  0
  1  2  2  0
  1  3  2  0
  1  4  1  0
  4  5  2  0
  4 13  1  0
  5  6  1  0
  5  7  1  0
  7  8  1  0
  7  9  2  0
  9 10  1  0
  9 11  1  0
 11 12  1  0
 11 13  2  0
 13 14  1  0
 19 20  1  0
 20 21  2  0
 21 22  1  0
M  END
>  <minimizedAffinity>  (393) 
-9.19217

$$$$
cs_full_output_folder/data/smiles/1425.pdb
     RDKit          3D

 26 27  0  0  0  0  0  0  0  0999 V2000
   67.6617   41.5064   55.9989 O   0  0  0  0  0  0  0  0  0  0  0  0
   67.8952   42.1859   57.0090 C   0  0  0  0  0  0  0  0  0  0  0  0
   67.7889   41.5700   58.2861 N   0  0  0  0  0  0  0  0  0  0  0  0
   68.2563   43.5442   56.8381 N   0  0  0  0  0  0  0  0  0  0  0  0
   68.3404   44.0813   55.5563 N   0  0  0  0  0  0  0  0  0  0  0  0
   68.3081   45.4720   55.2788 C   0  0  0  0  0  0  0  0  0  0  0  0
   68.1952   46.2342   56.2614 O   0  0  0  0  0  0  0  0  0  0  0  0
   68.3958   46.0363   53.9496 C   0  0  0  0  0  0  0  0  0  0  0  0
   67.6086   45.5172   52.9491 C   0  0  0  0  0  0  0  0  0  0  0  0
   67.6254   45.9888   51.6590 C   0  0  0  0  0  0  0  0  0  0  0  0
   68.4697   47.0315   51.3512 C   0  0  0  0  0  0  0  0  0  0  0  0
   69.2794   47.5862   52.3206 C   0  0  0  0  0  0  0  0  0  0  0  0
   69.2325   47.0781   53.6181 C   0  0  0  0  0  0  0  0  0  0  0  0
   70.1455   48.6539   52.0040 N   0  0  0  0  0  0  0  0  0  0  0  0
   69.9207   49.3551   51.0137 O   0  0  0  0  0  0  0  0  0  0  0  0
   71.2299   48.9176   52.7869 O   0  0  0  0  0  0  0  0  0  0  0  0
   67.4243   40.1962   58.4700 C   0  0  0  0  0  0  0  0  0  0  0  0
   68.5685   39.3032   58.6884 C   0  0  0  0  0  0  0  0  0  0  0  0
   69.7750   39.4707   58.0668 C   0  0  0  0  0  0  0  0  0  0  0  0
   70.7963   38.5973   58.3203 C   0  0  0  0  0  0  0  0  0  0  0  0
   70.6485   37.5317   59.1993 C   0  0  0  0  0  0  0  0  0  0  0  0
   69.4397   37.3798   59.8100 C   0  0  0  0  0  0  0  0  0  0  0  0
   68.3909   38.2437   59.5755 C   0  0  0  0  0  0  0  0  0  0  0  0
   71.7657   36.5856   59.4698 C   0  0  0  0  0  0  0  0  0  0  0  0
   72.9956   37.2395   59.3569 F   0  0  0  0  0  0  0  0  0  0  0  0
   71.7552   35.5333   58.5893 F   0  0  0  0  0  0  0  0  0  0  0  0
  1  2  2  0
  2  3  1  0
  2  4  1  0
  3 17  1  0
 17 18  1  0
 18 19  2  0
 18 23  1  0
 19 20  1  0
 20 21  2  0
 21 24  1  0
 21 22  1  0
 24 25  1  0
 24 26  1  0
 22 23  2  0
  4  5  1  0
  5  6  1  0
  6  7  2  0
  6  8  1  0
  8  9  2  0
  8 13  1  0
  9 10  1  0
 10 11  2  0
 11 12  1  0
 12 14  1  0
 12 13  2  0
 14 15  2  0
 14 16  1  0
M  CHG  2  14   1  16  -1
M  END
>  <minimizedAffinity>  (394) 
-9.19086

$$$$
cs_full_output_folder/data/smiles/364.pdb
     RDKit          3D

 27 30  0  0  0  0  0  0  0  0999 V2000
   71.5846   47.2604   58.9892 C   0  0  0  0  0  0  0  0  0  0  0  0
   70.7495   48.0346   58.2007 C   0  0  0  0  0  0  0  0  0  0  0  0
   69.9167   47.4911   57.2689 C   0  0  0  0  0  0  0  0  0  0  0  0
   69.9514   46.0909   57.1528 C   0  0  0  0  0  0  0  0  0  0  0  0
   70.7736   45.3048   57.9278 C   0  0  0  0  0  0  0  0  0  0  0  0
   71.5993   45.8979   58.8560 C   0  0  0  0  0  0  0  0  0  0  0  0
   72.3983   45.1107   59.6065 F   0  0  0  0  0  0  0  0  0  0  0  0
   72.2211   47.7982   61.1828 O   0  0  0  0  0  0  0  0  0  0  0  0
   72.4670   47.9241   59.9760 C   0  0  0  0  0  0  0  0  0  0  0  0
   73.5772   48.6916   59.5530 N   0  0  0  0  0  0  0  0  0  0  0  0
   74.4972   49.3764   60.4309 C   0  0  0  0  0  0  0  0  0  0  0  0
   75.8166   48.6652   60.2314 C   0  0  0  0  0  0  0  0  0  0  0  0
   76.2792   48.6056   58.8136 C   0  0  0  0  0  0  0  0  0  0  0  0
   75.2436   48.3709   57.7831 C   0  0  0  0  0  0  0  0  0  0  0  0
   73.8580   48.8228   58.1403 C   0  0  0  0  0  0  0  0  0  0  0  0
   68.9950   48.2314   56.3651 C   0  0  0  0  0  0  0  0  0  0  0  0
   69.4093   48.2777   54.9645 C   0  0  0  0  0  0  0  0  0  0  0  0
   70.3648   49.1952   54.5959 N   0  0  0  0  0  0  0  0  0  0  0  0
   70.7687   49.3441   53.3518 N   0  0  0  0  0  0  0  0  0  0  0  0
   70.2664   48.5998   52.3476 C   0  0  0  0  0  0  0  0  0  0  0  0
   70.6437   48.7346   51.1593 O   0  0  0  0  0  0  0  0  0  0  0  0
   69.3111   47.6598   52.6185 C   0  0  0  0  0  0  0  0  0  0  0  0
   68.7700   46.8609   51.6467 C   0  0  0  0  0  0  0  0  0  0  0  0
   67.8270   45.9168   51.9425 C   0  0  0  0  0  0  0  0  0  0  0  0
   67.4183   45.7792   53.2751 C   0  0  0  0  0  0  0  0  0  0  0  0
   67.9430   46.5660   54.2690 C   0  0  0  0  0  0  0  0  0  0  0  0
   68.8893   47.5094   53.9472 C   0  0  0  0  0  0  0  0  0  0  0  0
  8  9  2  0
  9  1  1  0
  9 10  1  0
  1  2  2  0
  1  6  1  0
  2  3  1  0
  3 16  1  0
  3  4  2  0
 16 17  1  0
 17 18  2  0
 17 27  1  0
 18 19  1  0
 19 20  1  0
 20 21  2  0
 20 22  1  0
 22 23  1  0
 22 27  2  0
 23 24  2  0
 24 25  1  0
 25 26  2  0
 26 27  1  0
  4  5  1  0
  5  6  2  0
  6  7  1  0
 10 11  1  0
 10 15  1  0
 11 12  1  0
 12 13  1  0
 13 14  1  0
 14 15  1  0
M  END
>  <minimizedAffinity>  (395) 
-9.18999

$$$$
cs_full_output_folder/data/smiles/954.pdb
     RDKit          3D

 28 31  0  0  0  0  0  0  0  0999 V2000
   71.5271   47.0219   58.8854 C   0  0  0  0  0  0  0  0  0  0  0  0
   70.7163   47.8727   58.1329 C   0  0  0  0  0  0  0  0  0  0  0  0
   69.8258   47.4123   57.2258 C   0  0  0  0  0  0  0  0  0  0  0  0
   69.7540   46.0154   57.0730 C   0  0  0  0  0  0  0  0  0  0  0  0
   70.5379   45.1474   57.7974 C   0  0  0  0  0  0  0  0  0  0  0  0
   71.4293   45.6653   58.7083 C   0  0  0  0  0  0  0  0  0  0  0  0
   72.2012   44.7804   59.4196 F   0  0  0  0  0  0  0  0  0  0  0  0
   73.7451   50.7589   59.0379 C   0  0  0  0  0  0  0  0  0  0  0  0
   74.9835   49.9972   58.6133 C   0  0  0  0  0  0  0  0  0  0  0  0
   75.6383   49.3886   59.8342 C   0  0  0  0  0  0  0  0  0  0  0  0
   74.7395   48.3973   60.5160 C   0  0  0  0  0  0  0  0  0  0  0  0
   73.8240   47.8597   59.5326 N   0  0  0  0  0  0  0  0  0  0  0  0
   72.4739   47.5618   59.8468 C   0  0  0  0  0  0  0  0  0  0  0  0
   72.0966   47.7858   61.0386 O   0  0  0  0  0  0  0  0  0  0  0  0
   74.3432   47.6340   58.2011 C   0  0  0  0  0  0  0  0  0  0  0  0
   74.6969   48.9411   57.5794 C   0  0  0  0  0  0  0  0  0  0  0  0
   68.8995   48.1868   56.3774 C   0  0  0  0  0  0  0  0  0  0  0  0
   69.3076   48.2793   54.9631 C   0  0  0  0  0  0  0  0  0  0  0  0
   70.2650   49.1925   54.6119 N   0  0  0  0  0  0  0  0  0  0  0  0
   70.7156   49.3133   53.3788 N   0  0  0  0  0  0  0  0  0  0  0  0
   70.2757   48.5542   52.3636 C   0  0  0  0  0  0  0  0  0  0  0  0
   70.7449   48.7117   51.1877 O   0  0  0  0  0  0  0  0  0  0  0  0
   69.3111   47.6130   52.6361 C   0  0  0  0  0  0  0  0  0  0  0  0
   68.8496   46.8411   51.5979 C   0  0  0  0  0  0  0  0  0  0  0  0
   67.8740   45.9176   51.9088 C   0  0  0  0  0  0  0  0  0  0  0  0
   67.3849   45.7727   53.1895 C   0  0  0  0  0  0  0  0  0  0  0  0
   67.8695   46.5634   54.2135 C   0  0  0  0  0  0  0  0  0  0  0  0
   68.8353   47.4884   53.9488 C   0  0  0  0  0  0  0  0  0  0  0  0
  8  9  1  0
  9 10  1  0
  9 16  1  0
 10 11  1  0
 11 12  1  0
 12 13  1  0
 12 15  1  0
 13 14  2  0
 13  1  1  0
  1  2  2  0
  1  6  1  0
  2  3  1  0
  3 17  1  0
  3  4  2  0
 17 18  1  0
 18 19  2  0
 18 28  1  0
 19 20  1  0
 20 21  1  0
 21 22  2  0
 21 23  1  0
 23 24  1  0
 23 28  2  0
 24 25  2  0
 25 26  1  0
 26 27  2  0
 27 28  1  0
  4  5  1  0
  5  6  2  0
  6  7  1  0
 15 16  1  0
M  END
>  <minimizedAffinity>  (396) 
-9.18968

$$$$
cs_full_output_folder/data/smiles/7838.pdb
     RDKit          3D

 29 32  0  0  0  0  0  0  0  0999 V2000
   71.2888   46.9622   58.8735 C   0  0  0  0  0  0  0  0  0  0  0  0
   70.5236   47.7987   58.1131 C   0  0  0  0  0  0  0  0  0  0  0  0
   69.7253   47.2912   57.1133 C   0  0  0  0  0  0  0  0  0  0  0  0
   69.7311   45.9359   56.9185 C   0  0  0  0  0  0  0  0  0  0  0  0
   70.5090   45.0918   57.6922 C   0  0  0  0  0  0  0  0  0  0  0  0
   71.2986   45.5840   58.6784 C   0  0  0  0  0  0  0  0  0  0  0  0
   72.0630   44.7902   59.4447 F   0  0  0  0  0  0  0  0  0  0  0  0
   76.7849   45.3889   58.8538 O   0  0  0  0  0  0  0  0  0  0  0  0
   76.6864   46.4161   59.6103 C   0  0  0  0  0  0  0  0  0  0  0  0
   75.8200   47.4754   59.2411 N   0  0  0  0  0  0  0  0  0  0  0  0
   75.7253   48.6271   60.1119 C   0  0  0  0  0  0  0  0  0  0  0  0
   74.2809   48.6481   60.6128 C   0  0  0  0  0  0  0  0  0  0  0  0
   73.3711   48.1243   59.6155 N   0  0  0  0  0  0  0  0  0  0  0  0
   72.1602   47.4664   59.9554 C   0  0  0  0  0  0  0  0  0  0  0  0
   71.7987   47.2940   61.1275 O   0  0  0  0  0  0  0  0  0  0  0  0
   73.7454   48.2951   58.2207 C   0  0  0  0  0  0  0  0  0  0  0  0
   75.0220   47.4662   58.0375 C   0  0  0  0  0  0  0  0  0  0  0  0
   68.8629   48.1962   56.2969 C   0  0  0  0  0  0  0  0  0  0  0  0
   69.2447   48.3101   54.8986 C   0  0  0  0  0  0  0  0  0  0  0  0
   70.1615   49.2635   54.5406 N   0  0  0  0  0  0  0  0  0  0  0  0
   70.5926   49.4115   53.3043 N   0  0  0  0  0  0  0  0  0  0  0  0
   70.1676   48.6418   52.2926 C   0  0  0  0  0  0  0  0  0  0  0  0
   70.5880   48.7944   51.1157 O   0  0  0  0  0  0  0  0  0  0  0  0
   69.2419   47.6607   52.5773 C   0  0  0  0  0  0  0  0  0  0  0  0
   68.7710   46.8549   51.5660 C   0  0  0  0  0  0  0  0  0  0  0  0
   67.8410   45.8708   51.7924 C   0  0  0  0  0  0  0  0  0  0  0  0
   67.3989   45.7286   53.0902 C   0  0  0  0  0  0  0  0  0  0  0  0
   67.8588   46.5275   54.1197 C   0  0  0  0  0  0  0  0  0  0  0  0
   68.7925   47.5092   53.8780 C   0  0  0  0  0  0  0  0  0  0  0  0
  8  9  2  0
  9 10  1  0
 10 11  1  0
 10 17  1  0
 11 12  1  0
 12 13  1  0
 13 14  1  0
 13 16  1  0
 14 15  2  0
 14  1  1  0
  1  2  2  0
  1  6  1  0
  2  3  1  0
  3 18  1  0
  3  4  2  0
 18 19  1  0
 19 20  2  0
 19 29  1  0
 20 21  1  0
 21 22  1  0
 22 23  2  0
 22 24  1  0
 24 25  1  0
 24 29  2  0
 25 26  2  0
 26 27  1  0
 27 28  2  0
 28 29  1  0
  4  5  1  0
  5  6  2  0
  6  7  1  0
 16 17  1  0
M  END
>  <minimizedAffinity>  (397) 
-9.18796

$$$$
cs_full_output_folder/data/smiles/1053.pdb
     RDKit          3D

 27 30  0  0  0  0  0  0  0  0999 V2000
   70.3310   48.0032   57.4969 C   0  0  0  0  0  0  0  0  0  0  0  0
   70.8173   48.7609   58.5843 C   0  0  0  0  0  0  0  0  0  0  0  0
   71.5098   48.1791   59.6111 C   0  0  0  0  0  0  0  0  0  0  0  0
   71.7603   46.8226   59.6237 C   0  0  0  0  0  0  0  0  0  0  0  0
   72.4404   46.2289   60.6267 F   0  0  0  0  0  0  0  0  0  0  0  0
   71.3048   46.0238   58.5787 C   0  0  0  0  0  0  0  0  0  0  0  0
   70.6181   46.6318   57.5681 C   0  0  0  0  0  0  0  0  0  0  0  0
   71.5612   44.6097   58.5822 N   0  0  0  0  0  0  0  0  0  0  0  0
   70.5672   43.7605   59.1336 C   0  0  0  0  0  0  0  0  0  0  0  0
   69.4968   44.2332   59.6012 O   0  0  0  0  0  0  0  0  0  0  0  0
   70.7658   42.3038   59.1712 C   0  0  0  0  0  0  0  0  0  0  0  0
   71.6541   41.7775   58.0826 C   0  0  0  0  0  0  0  0  0  0  0  0
   72.9236   42.5605   57.9039 C   0  0  0  0  0  0  0  0  0  0  0  0
   72.7338   44.0152   58.0740 C   0  0  0  0  0  0  0  0  0  0  0  0
   73.6865   44.7631   57.7401 O   0  0  0  0  0  0  0  0  0  0  0  0
   69.6537   48.5537   56.4916 O   0  0  0  0  0  0  0  0  0  0  0  0
   70.1402   49.2769   51.0554 N   0  0  0  0  0  0  0  0  0  0  0  0
   69.9945   49.0583   52.4541 C   0  0  0  0  0  0  0  0  0  0  0  0
   70.5165   49.8721   53.3822 N   0  0  0  0  0  0  0  0  0  0  0  0
   70.3817   49.6712   54.6364 N   0  0  0  0  0  0  0  0  0  0  0  0
   69.6858   48.5954   55.1698 C   0  0  0  0  0  0  0  0  0  0  0  0
   69.1284   47.7255   54.2574 C   0  0  0  0  0  0  0  0  0  0  0  0
   68.4197   46.6299   54.6883 C   0  0  0  0  0  0  0  0  0  0  0  0
   67.8559   45.7519   53.7960 C   0  0  0  0  0  0  0  0  0  0  0  0
   68.0250   46.0073   52.4318 C   0  0  0  0  0  0  0  0  0  0  0  0
   68.7345   47.1036   52.0117 C   0  0  0  0  0  0  0  0  0  0  0  0
   69.2948   47.9764   52.9094 C   0  0  0  0  0  0  0  0  0  0  0  0
 17 18  1  0
 18 19  2  0
 18 27  1  0
 19 20  1  0
 20 21  2  0
 21 16  1  0
 21 22  1  0
 16  1  1  0
  1  2  2  0
  1  7  1  0
  2  3  1  0
  3  4  2  0
  4  5  1  0
  4  6  1  0
  6  8  1  0
  6  7  2  0
  8  9  1  0
  8 14  1  0
  9 10  2  0
  9 11  1  0
 11 12  1  0
 12 13  1  0
 13 14  1  0
 14 15  2  0
 22 23  1  0
 22 27  2  0
 23 24  2  0
 24 25  1  0
 25 26  2  0
 26 27  1  0
M  END
>  <minimizedAffinity>  (398) 
-9.18779

$$$$
cs_full_output_folder/data/smiles/63.pdb
     RDKit          3D

 27 30  0  0  0  0  0  0  0  0999 V2000
   70.4942   49.3242   57.6851 N   0  0  2  0  0  0  0  0  0  0  0  0
   69.7970   50.3301   58.4092 C   0  0  0  0  0  0  0  0  0  0  0  0
   68.3762   50.5079   58.0017 C   0  0  0  0  0  0  0  0  0  0  0  0
   67.9015   49.5596   56.9278 C   0  0  0  0  0  0  0  0  0  0  0  0
   68.3694   48.1660   57.2804 C   0  0  2  0  0  0  0  0  0  0  0  0
   69.8195   48.0721   57.6291 C   0  0  0  0  0  0  0  0  0  0  0  0
   71.8929   49.2452   57.9369 C   0  0  0  0  0  0  0  0  0  0  0  0
   74.7983   50.2312   55.7973 C   0  0  0  0  0  0  0  0  0  0  0  0
   74.1374   50.8390   54.7291 C   0  0  0  0  0  0  0  0  0  0  0  0
   72.7511   50.9133   54.7321 C   0  0  0  0  0  0  0  0  0  0  0  0
   72.0192   50.3951   55.7752 C   0  0  0  0  0  0  0  0  0  0  0  0
   72.6999   49.8012   56.8165 C   0  0  0  0  0  0  0  0  0  0  0  0
   74.0889   49.7085   56.8479 C   0  0  0  0  0  0  0  0  0  0  0  0
   76.9886   49.2714   57.2719 N   0  0  0  0  0  0  0  0  0  0  0  0
   76.5389   50.1250   55.8210 S   0  0  0  0  0  0  0  0  0  0  0  0
   76.9751   49.2800   54.6671 O   0  0  0  0  0  0  0  0  0  0  0  0
   77.1745   51.4853   55.7827 O   0  0  0  0  0  0  0  0  0  0  0  0
   67.9586   47.1552   56.3415 N   0  0  0  0  0  0  0  0  0  0  0  0
   68.3284   47.0710   54.9852 C   0  0  0  0  0  0  0  0  0  0  0  0
   67.8658   46.0510   54.1891 C   0  0  0  0  0  0  0  0  0  0  0  0
   68.2688   46.0069   52.8707 C   0  0  0  0  0  0  0  0  0  0  0  0
   69.1221   46.9731   52.3616 C   0  0  0  0  0  0  0  0  0  0  0  0
   69.6466   47.1401   51.1253 N   0  0  0  0  0  0  0  0  0  0  0  0
   70.4065   48.2145   51.1352 N   0  0  0  0  0  0  0  0  0  0  0  0
   70.4068   48.7806   52.3523 C   0  0  0  0  0  0  0  0  0  0  0  0
   69.5943   48.0019   53.1422 C   0  0  0  0  0  0  0  0  0  0  0  0
   69.1923   48.0442   54.4552 C   0  0  0  0  0  0  0  0  0  0  0  0
 14 15  1  0
 15 16  2  0
 15 17  2  0
 15  8  1  0
  8  9  2  0
  8 13  1  0
  9 10  1  0
 10 11  2  0
 11 12  1  0
 12  7  1  0
 12 13  2  0
  1  7  1  1
  1  2  1  0
  1  6  1  0
  2  3  1  0
  3  4  1  0
  4  5  1  0
  5 18  1  6
  5  6  1  0
 18 19  1  0
 19 20  2  0
 19 27  1  0
 20 21  1  0
 21 22  2  0
 22 23  1  0
 22 26  1  0
 23 24  1  0
 24 25  2  0
 25 26  1  0
 26 27  2  0
M  CHG  1   1   1
M  END
>  <minimizedAffinity>  (399) 
-9.18728

$$$$
cs_full_output_folder/data/smiles/4341.pdb
     RDKit          3D

 29 32  0  0  0  0  0  0  0  0999 V2000
   71.5411   47.3876   58.7669 C   0  0  0  0  0  0  0  0  0  0  0  0
   70.6886   48.1233   57.9931 C   0  0  0  0  0  0  0  0  0  0  0  0
   69.8160   47.4432   57.1282 C   0  0  0  0  0  0  0  0  0  0  0  0
   69.8021   46.0899   57.0459 C   0  0  0  0  0  0  0  0  0  0  0  0
   70.6846   45.3556   57.8494 C   0  0  0  0  0  0  0  0  0  0  0  0
   71.5411   46.0277   58.6976 C   0  0  0  0  0  0  0  0  0  0  0  0
   72.3955   45.2845   59.4742 F   0  0  0  0  0  0  0  0  0  0  0  0
   74.4446   49.3533   60.3542 C   0  0  0  0  0  0  0  0  0  0  0  0
   73.6559   48.6854   59.3068 N   0  0  0  0  0  0  0  0  0  0  0  0
   72.4501   48.0930   59.6684 C   0  0  0  0  0  0  0  0  0  0  0  0
   72.0786   48.1489   60.8694 O   0  0  0  0  0  0  0  0  0  0  0  0
   74.2444   48.7280   57.9869 C   0  0  0  0  0  0  0  0  0  0  0  0
   73.8080   49.8623   57.1589 C   0  0  0  0  0  0  0  0  0  0  0  0
   73.1586   49.7568   55.9940 N   0  0  0  0  0  0  0  0  0  0  0  0
   72.9123   50.9663   55.5176 C   0  0  0  0  0  0  0  0  0  0  0  0
   73.4157   51.8970   56.3966 C   0  0  0  0  0  0  0  0  0  0  0  0
   73.9674   51.1615   57.4086 N   0  0  0  0  0  0  0  0  0  0  0  0
   68.9463   48.3274   56.3115 C   0  0  0  0  0  0  0  0  0  0  0  0
   69.3239   48.3587   54.9011 C   0  0  0  0  0  0  0  0  0  0  0  0
   70.2278   49.3112   54.5007 N   0  0  0  0  0  0  0  0  0  0  0  0
   70.5965   49.4431   53.2457 N   0  0  0  0  0  0  0  0  0  0  0  0
   70.1577   48.7000   52.2427 C   0  0  0  0  0  0  0  0  0  0  0  0
   70.4996   48.8173   51.0401 O   0  0  0  0  0  0  0  0  0  0  0  0
   69.2293   47.7025   52.5713 C   0  0  0  0  0  0  0  0  0  0  0  0
   68.7265   46.8737   51.5944 C   0  0  0  0  0  0  0  0  0  0  0  0
   67.8243   45.8768   51.8902 C   0  0  0  0  0  0  0  0  0  0  0  0
   67.4606   45.7612   53.2095 C   0  0  0  0  0  0  0  0  0  0  0  0
   67.9487   46.5792   54.2088 C   0  0  0  0  0  0  0  0  0  0  0  0
   68.8464   47.5669   53.8865 C   0  0  0  0  0  0  0  0  0  0  0  0
  8  9  1  0
  9 12  1  0
  9 10  1  0
 12 13  1  0
 13 14  2  0
 13 17  1  0
 14 15  1  0
 15 16  2  0
 16 17  1  0
 10 11  2  0
 10  1  1  0
  1  2  2  0
  1  6  1  0
  2  3  1  0
  3 18  1  0
  3  4  2  0
 18 19  1  0
 19 20  2  0
 19 29  1  0
 20 21  1  0
 21 22  1  0
 22 23  2  0
 22 24  1  0
 24 25  1  0
 24 29  2  0
 25 26  2  0
 26 27  1  0
 27 28  2  0
 28 29  1  0
  4  5  1  0
  5  6  2  0
  6  7  1  0
M  CHG  1  14   1
M  END
>  <minimizedAffinity>  (400) 
-9.18700

$$$$
cs_full_output_folder/data/smiles/6917.pdb
     RDKit          3D

 28 32  0  0  0  0  0  0  0  0999 V2000
   71.5280   47.1315   58.9332 C   0  0  0  0  0  0  0  0  0  0  0  0
   70.7358   47.9390   58.1024 C   0  0  0  0  0  0  0  0  0  0  0  0
   69.8710   47.4265   57.1977 C   0  0  0  0  0  0  0  0  0  0  0  0
   69.8202   46.0152   57.1496 C   0  0  0  0  0  0  0  0  0  0  0  0
   70.5692   45.2067   57.9355 C   0  0  0  0  0  0  0  0  0  0  0  0
   71.4460   45.7747   58.8516 C   0  0  0  0  0  0  0  0  0  0  0  0
   72.2280   45.0092   59.6744 F   0  0  0  0  0  0  0  0  0  0  0  0
   72.1308   47.8124   61.0743 O   0  0  0  0  0  0  0  0  0  0  0  0
   72.4282   47.7717   59.8632 C   0  0  0  0  0  0  0  0  0  0  0  0
   73.6328   48.3477   59.4214 N   0  0  0  0  0  0  0  0  0  0  0  0
   74.7722   49.0637   60.0394 C   0  0  0  0  0  0  0  0  0  0  0  0
   75.5530   48.6223   58.8455 C   0  0  0  0  0  0  0  0  0  0  0  0
   76.4755   47.4863   58.9747 C   0  0  0  0  0  0  0  0  0  0  0  0
   77.3891   48.2099   58.0708 N   0  0  0  0  0  0  0  0  0  0  0  0
   76.6338   49.4537   58.3068 C   0  0  0  0  0  0  0  0  0  0  0  0
   74.2718   48.4674   58.0928 C   0  0  0  0  0  0  0  0  0  0  0  0
   69.0138   48.2355   56.3103 C   0  0  0  0  0  0  0  0  0  0  0  0
   69.4179   48.2558   54.8961 C   0  0  0  0  0  0  0  0  0  0  0  0
   70.3627   49.1518   54.4751 N   0  0  0  0  0  0  0  0  0  0  0  0
   70.7217   49.2781   53.2055 N   0  0  0  0  0  0  0  0  0  0  0  0
   70.2056   48.5491   52.2007 C   0  0  0  0  0  0  0  0  0  0  0  0
   70.5837   48.7109   51.0137 O   0  0  0  0  0  0  0  0  0  0  0  0
   69.2405   47.6159   52.5594 C   0  0  0  0  0  0  0  0  0  0  0  0
   68.7105   46.8367   51.5537 C   0  0  0  0  0  0  0  0  0  0  0  0
   67.7648   45.8815   51.8973 C   0  0  0  0  0  0  0  0  0  0  0  0
   67.3989   45.7538   53.2179 C   0  0  0  0  0  0  0  0  0  0  0  0
   67.9434   46.5457   54.2060 C   0  0  0  0  0  0  0  0  0  0  0  0
   68.8720   47.4913   53.8892 C   0  0  0  0  0  0  0  0  0  0  0  0
  8  9  2  0
  9  1  1  0
  9 10  1  0
  1  2  2  0
  1  6  1  0
  2  3  1  0
  3 17  1  0
  3  4  2  0
 17 18  1  0
 18 19  2  0
 18 28  1  0
 19 20  1  0
 20 21  1  0
 21 22  2  0
 21 23  1  0
 23 24  1  0
 23 28  2  0
 24 25  2  0
 25 26  1  0
 26 27  2  0
 27 28  1  0
  4  5  1  0
  5  6  2  0
  6  7  1  0
 10 11  1  0
 10 16  1  0
 11 12  1  0
 12 13  1  0
 12 15  1  0
 12 16  1  0
 13 14  1  0
 14 15  1  0
M  CHG  1  14   1
M  END
>  <minimizedAffinity>  (401) 
-9.18603

$$$$
cs_full_output_folder/data/smiles/4808.pdb
     RDKit          3D

 28 31  0  0  0  0  0  0  0  0999 V2000
   71.7583   47.2188   59.1564 C   0  0  0  0  0  0  0  0  0  0  0  0
   70.7150   47.8177   58.4477 C   0  0  0  0  0  0  0  0  0  0  0  0
   69.8953   47.1204   57.5934 C   0  0  0  0  0  0  0  0  0  0  0  0
   70.1448   45.7479   57.4503 C   0  0  0  0  0  0  0  0  0  0  0  0
   71.1766   45.1677   58.1544 C   0  0  0  0  0  0  0  0  0  0  0  0
   71.9988   45.8683   59.0115 C   0  0  0  0  0  0  0  0  0  0  0  0
   73.0049   45.2514   59.6842 F   0  0  0  0  0  0  0  0  0  0  0  0
   72.4109   47.8895   61.2774 O   0  0  0  0  0  0  0  0  0  0  0  0
   72.5915   47.9959   60.0428 C   0  0  0  0  0  0  0  0  0  0  0  0
   73.6065   48.8790   59.5982 N   0  0  0  0  0  0  0  0  0  0  0  0
   73.8662   49.0522   58.1850 C   0  0  0  0  0  0  0  0  0  0  0  0
   75.3084   48.9456   57.8182 C   0  0  0  0  0  0  0  0  0  0  0  0
   76.2548   49.5205   58.8131 C   0  0  0  0  0  0  0  0  0  0  0  0
   76.3821   50.8803   58.5768 O   0  0  0  0  0  0  0  0  0  0  0  0
   75.8636   49.2808   60.2409 C   0  0  0  0  0  0  0  0  0  0  0  0
   74.4261   49.6470   60.5076 C   0  0  0  0  0  0  0  0  0  0  0  0
   68.7896   47.7108   56.8235 C   0  0  0  0  0  0  0  0  0  0  0  0
   68.5535   47.0814   55.5198 C   0  0  0  0  0  0  0  0  0  0  0  0
   67.8870   45.8996   55.5045 N   0  0  0  0  0  0  0  0  0  0  0  0
   67.6038   45.2180   54.4353 N   0  0  0  0  0  0  0  0  0  0  0  0
   67.9694   45.6648   53.2380 C   0  0  0  0  0  0  0  0  0  0  0  0
   67.6960   45.0023   52.1839 O   0  0  0  0  0  0  0  0  0  0  0  0
   68.6566   46.8678   53.1645 C   0  0  0  0  0  0  0  0  0  0  0  0
   68.9495   47.5756   54.2939 C   0  0  0  0  0  0  0  0  0  0  0  0
   69.6803   48.8711   54.2728 C   0  0  0  0  0  0  0  0  0  0  0  0
   69.6522   49.4561   52.8500 C   0  0  0  0  0  0  0  0  0  0  0  0
   70.1732   48.3380   51.9451 C   0  0  0  0  0  0  0  0  0  0  0  0
   69.0428   47.3497   51.8250 C   0  0  0  0  0  0  0  0  0  0  0  0
  8  9  2  0
  9  1  1  0
  9 10  1  0
  1  2  2  0
  1  6  1  0
  2  3  1  0
  3 17  1  0
  3  4  2  0
 17 18  1  0
 18 19  2  0
 18 24  1  0
 19 20  1  0
 20 21  1  0
 21 22  2  0
 21 23  1  0
 23 24  2  0
 23 28  1  0
 24 25  1  0
 25 26  1  0
 26 27  1  0
 27 28  1  0
  4  5  1  0
  5  6  2  0
  6  7  1  0
 10 11  1  0
 10 16  1  0
 11 12  1  0
 12 13  1  0
 13 14  1  0
 13 15  1  0
 15 16  1  0
M  END
>  <minimizedAffinity>  (402) 
-9.18408

$$$$
cs_full_output_folder/data/smiles/6216.pdb
     RDKit          3D

 27 29  0  0  0  0  0  0  0  0999 V2000
   67.4980   43.3217   56.2331 N   0  0  0  0  0  0  0  0  0  0  0  0
   67.8600   42.0892   56.3462 C   0  0  0  0  0  0  0  0  0  0  0  0
   67.5335   41.3071   57.5470 C   0  0  0  0  0  0  0  0  0  0  0  0
   68.0276   40.0304   57.6917 C   0  0  0  0  0  0  0  0  0  0  0  0
   67.7170   39.2908   58.8286 C   0  0  0  0  0  0  0  0  0  0  0  0
   66.9224   39.7817   59.8433 C   0  0  0  0  0  0  0  0  0  0  0  0
   66.4316   41.0669   59.6875 C   0  0  0  0  0  0  0  0  0  0  0  0
   66.7387   41.8127   58.5501 C   0  0  0  0  0  0  0  0  0  0  0  0
   66.6158   38.9812   61.0229 C   0  0  0  0  0  0  0  0  0  0  0  0
   65.9879   37.7544   60.9831 C   0  0  0  0  0  0  0  0  0  0  0  0
   65.7187   37.0312   62.1376 C   0  0  0  0  0  0  0  0  0  0  0  0
   66.0802   37.5287   63.3761 C   0  0  0  0  0  0  0  0  0  0  0  0
   66.7072   38.7519   63.4215 C   0  0  0  0  0  0  0  0  0  0  0  0
   66.9682   39.4599   62.2688 C   0  0  0  0  0  0  0  0  0  0  0  0
   68.1522   45.4297   55.1093 C   0  0  0  0  0  0  0  0  0  0  0  0
   68.1839   45.9908   56.2459 O   0  0  0  0  0  0  0  0  0  0  0  0
   67.8036   44.0698   55.0974 N   0  0  0  0  0  0  0  0  0  0  0  0
   69.5516   48.1906   52.9850 C   0  0  0  0  0  0  0  0  0  0  0  0
   69.1215   47.8171   51.7072 C   0  0  0  0  0  0  0  0  0  0  0  0
   68.3839   46.6708   51.5725 C   0  0  0  0  0  0  0  0  0  0  0  0
   68.0617   45.8832   52.6798 C   0  0  0  0  0  0  0  0  0  0  0  0
   68.4760   46.2337   53.9454 C   0  0  0  0  0  0  0  0  0  0  0  0
   69.2201   47.3981   54.0516 C   0  0  0  0  0  0  0  0  0  0  0  0
   71.5057   49.3534   53.5118 O   0  0  0  0  0  0  0  0  0  0  0  0
   70.3256   49.4007   53.0976 C   0  0  0  0  0  0  0  0  0  0  0  0
   69.7811   50.6548   52.7487 N   0  0  0  0  0  0  0  0  0  0  0  0
   70.5086   51.8124   52.8514 O   0  0  0  0  0  0  0  0  0  0  0  0
 24 25  2  0
 25 26  1  0
 25 18  1  0
 26 27  1  0
 18 19  2  0
 18 23  1  0
 19 20  1  0
 20 21  2  0
 21 22  1  0
 22 15  1  0
 22 23  2  0
 15 16  2  0
 15 17  1  0
 17  1  1  0
  1  2  2  0
  2  3  1  0
  3  4  2  0
  3  8  1  0
  4  5  1  0
  5  6  2  0
  6  9  1  0
  6  7  1  0
  9 10  2  0
  9 14  1  0
 10 11  1  0
 11 12  2  0
 12 13  1  0
 13 14  2  0
  7  8  2  0
M  END
>  <minimizedAffinity>  (403) 
-9.18397

$$$$
cs_full_output_folder/data/smiles/3845.pdb
     RDKit          3D

 27 29  0  0  0  0  0  0  0  0999 V2000
   68.2949   45.8257   54.0336 C   0  0  0  0  0  0  0  0  0  0  0  0
   67.6948   45.3526   52.8732 C   0  0  0  0  0  0  0  0  0  0  0  0
   67.7654   46.0264   51.6753 C   0  0  0  0  0  0  0  0  0  0  0  0
   68.4448   47.2191   51.5676 C   0  0  0  0  0  0  0  0  0  0  0  0
   69.0521   47.7099   52.7154 C   0  0  0  0  0  0  0  0  0  0  0  0
   68.9654   47.0151   53.9019 C   0  0  0  0  0  0  0  0  0  0  0  0
   67.7269   43.7525   55.3850 N   0  0  0  0  0  0  0  0  0  0  0  0
   68.1966   45.0810   55.2813 C   0  0  0  0  0  0  0  0  0  0  0  0
   68.5496   45.6386   56.3500 O   0  0  0  0  0  0  0  0  0  0  0  0
   67.5435   41.0442   55.4909 O   0  0  0  0  0  0  0  0  0  0  0  0
   67.5334   41.6157   56.6232 C   0  0  0  0  0  0  0  0  0  0  0  0
   67.6301   43.0343   56.5718 N   0  0  0  0  0  0  0  0  0  0  0  0
   67.4315   40.8580   57.8649 C   0  0  0  0  0  0  0  0  0  0  0  0
   66.6921   41.4050   58.8896 C   0  0  0  0  0  0  0  0  0  0  0  0
   66.5438   40.7432   60.1142 C   0  0  0  0  0  0  0  0  0  0  0  0
   67.1373   39.5199   60.3264 C   0  0  0  0  0  0  0  0  0  0  0  0
   67.8780   38.9683   59.3044 C   0  0  0  0  0  0  0  0  0  0  0  0
   68.0218   39.6358   58.0825 C   0  0  0  0  0  0  0  0  0  0  0  0
   69.9155   49.2225   52.5940 S   0  0  0  0  0  0  0  0  0  0  0  0
   69.7804   49.7545   51.1863 O   0  0  0  0  0  0  0  0  0  0  0  0
   71.3609   48.9365   52.8997 O   0  0  0  0  0  0  0  0  0  0  0  0
   69.3636   50.4053   53.6763 N   0  0  0  0  0  0  0  0  0  0  0  0
   70.1112   51.6213   53.6503 C   0  0  0  0  0  0  0  0  0  0  0  0
   70.1356   52.3318   54.9935 C   0  0  0  0  0  0  0  0  0  0  0  0
   70.7947   51.3953   55.9722 C   0  0  0  0  0  0  0  0  0  0  0  0
   70.0358   50.1092   56.0314 C   0  0  0  0  0  0  0  0  0  0  0  0
   69.0067   49.9389   54.9687 C   0  0  0  0  0  0  0  0  0  0  0  0
 10 11  2  0
 11 12  1  0
 11 13  1  0
 12  7  1  0
  7  8  1  0
  8  9  2  0
  8  1  1  0
  1  2  2  0
  1  6  1  0
  2  3  1  0
  3  4  2  0
  4  5  1  0
  5 19  1  0
  5  6  2  0
 19 20  2  0
 19 21  2  0
 19 22  1  0
 22 23  1  0
 22 27  1  0
 23 24  1  0
 24 25  1  0
 25 26  1  0
 26 27  1  0
 13 14  2  0
 13 18  1  0
 14 15  1  0
 15 16  2  0
 16 17  1  0
 17 18  2  0
M  END
>  <minimizedAffinity>  (404) 
-9.18379

$$$$
cs_full_output_folder/data/smiles/1278.pdb
     RDKit          3D

 28 32  0  0  0  0  0  0  0  0999 V2000
   71.4642   48.9026   57.9148 N   0  0  1  0  0  0  0  0  0  0  0  0
   71.3641   48.0721   59.1191 C   0  0  0  0  0  0  0  0  0  0  0  0
   71.1352   46.6642   58.5364 C   0  0  0  0  0  0  0  0  0  0  0  0
   70.1450   46.7939   57.3860 C   0  0  0  0  0  0  0  0  0  0  0  0
   69.2670   48.0306   57.6071 C   0  0  1  0  0  0  0  0  0  0  0  0
   70.1483   49.2867   57.4615 C   0  0  0  0  0  0  0  0  0  0  0  0
   72.3886   49.9719   58.1016 C   0  0  0  0  0  0  0  0  0  0  0  0
   73.7073   52.3793   53.3183 O   0  0  0  0  0  0  0  0  0  0  0  0
   73.4036   51.8593   54.4017 C   0  0  0  0  0  0  0  0  0  0  0  0
   73.4653   50.5063   54.5715 N   0  0  0  0  0  0  0  0  0  0  0  0
   73.1494   49.9330   55.7091 N   0  0  0  0  0  0  0  0  0  0  0  0
   72.7417   50.5838   56.8065 C   0  0  0  0  0  0  0  0  0  0  0  0
   72.6760   51.9779   56.6384 C   0  0  0  0  0  0  0  0  0  0  0  0
   72.9949   52.6219   55.4729 C   0  0  0  0  0  0  0  0  0  0  0  0
   72.8850   54.1046   55.4393 C   0  0  0  0  0  0  0  0  0  0  0  0
   73.6854   54.5679   56.6657 C   0  0  0  0  0  0  0  0  0  0  0  0
   73.2812   53.9076   57.9319 C   0  0  0  0  0  0  0  0  0  0  0  0
   72.2459   52.8140   57.7690 C   0  0  0  0  0  0  0  0  0  0  0  0
   68.2643   48.0169   56.5955 N   0  0  0  0  0  0  0  0  0  0  0  0
   68.5305   47.6610   55.2485 C   0  0  0  0  0  0  0  0  0  0  0  0
   68.0538   46.5283   54.6332 C   0  0  0  0  0  0  0  0  0  0  0  0
   68.3384   46.2189   53.3002 C   0  0  0  0  0  0  0  0  0  0  0  0
   69.1211   47.0501   52.5382 C   0  0  0  0  0  0  0  0  0  0  0  0
   69.5462   47.0026   51.2645 N   0  0  0  0  0  0  0  0  0  0  0  0
   70.2883   48.0826   51.0446 N   0  0  0  0  0  0  0  0  0  0  0  0
   70.3504   48.8299   52.1592 C   0  0  0  0  0  0  0  0  0  0  0  0
   69.6127   48.1968   53.1366 C   0  0  0  0  0  0  0  0  0  0  0  0
   69.3262   48.4988   54.4585 C   0  0  0  0  0  0  0  0  0  0  0  0
  8  9  2  0
  9 10  1  0
  9 14  1  0
 10 11  1  0
 11 12  2  0
 12  7  1  0
 12 13  1  0
  1  7  1  1
  1  2  1  0
  1  6  1  0
  2  3  1  0
  3  4  1  0
  4  5  1  0
  5 19  1  6
  5  6  1  0
 19 20  1  0
 20 21  2  0
 20 28  1  0
 21 22  1  0
 22 23  2  0
 23 24  1  0
 23 27  1  0
 24 25  1  0
 25 26  2  0
 26 27  1  0
 27 28  2  0
 13 14  2  0
 13 18  1  0
 14 15  1  0
 15 16  1  0
 16 17  1  0
 17 18  1  0
M  CHG  1   1   1
M  END
>  <minimizedAffinity>  (405) 
-9.18375

$$$$
cs_full_output_folder/data/smiles/4116.pdb
     RDKit          3D

 28 31  0  0  0  0  0  0  0  0999 V2000
   70.5162   46.7463   58.5203 C   0  0  0  0  0  0  0  0  0  0  0  0
   71.4895   47.5262   59.0714 C   0  0  0  0  0  0  0  0  0  0  0  0
   71.5521   48.8696   58.6724 C   0  0  0  0  0  0  0  0  0  0  0  0
   70.6548   49.3667   57.7547 C   0  0  0  0  0  0  0  0  0  0  0  0
   69.6700   48.5506   57.2052 C   0  0  0  0  0  0  0  0  0  0  0  0
   69.6450   47.2947   57.6062 N   0  0  0  0  0  0  0  0  0  0  0  0
   72.2456   44.5618   57.8836 O   0  0  0  0  0  0  0  0  0  0  0  0
   71.1731   44.3322   58.4695 C   0  0  0  0  0  0  0  0  0  0  0  0
   70.3007   45.3860   58.7962 N   0  0  0  0  0  0  0  0  0  0  0  0
   70.7377   42.6162   58.9066 S   0  0  0  0  0  0  0  0  0  0  0  0
   69.4591   42.0088   57.8400 C   0  0  0  0  0  0  0  0  0  0  0  0
   68.8243   42.8384   56.9467 C   0  0  0  0  0  0  0  0  0  0  0  0
   67.8163   42.3595   56.1060 C   0  0  0  0  0  0  0  0  0  0  0  0
   67.4490   41.0393   56.1691 C   0  0  0  0  0  0  0  0  0  0  0  0
   68.0689   40.1975   57.0528 C   0  0  0  0  0  0  0  0  0  0  0  0
   69.0700   40.6900   57.8815 C   0  0  0  0  0  0  0  0  0  0  0  0
   68.7144   49.0777   56.2187 C   0  0  0  0  0  0  0  0  0  0  0  0
   69.1529   49.0521   54.8281 C   0  0  0  0  0  0  0  0  0  0  0  0
   69.6368   50.1999   54.2464 N   0  0  0  0  0  0  0  0  0  0  0  0
   70.0052   50.2198   52.9746 N   0  0  0  0  0  0  0  0  0  0  0  0
   69.9317   49.1262   52.1732 C   0  0  0  0  0  0  0  0  0  0  0  0
   70.2789   49.1350   50.9652 O   0  0  0  0  0  0  0  0  0  0  0  0
   69.4565   47.9668   52.7129 C   0  0  0  0  0  0  0  0  0  0  0  0
   69.0694   47.9505   54.0580 C   0  0  0  0  0  0  0  0  0  0  0  0
   68.6097   46.6510   54.5649 C   0  0  0  0  0  0  0  0  0  0  0  0
   67.4482   46.2442   53.6452 C   0  0  0  0  0  0  0  0  0  0  0  0
   67.9789   46.0168   52.2684 C   0  0  0  0  0  0  0  0  0  0  0  0
   69.3030   46.6883   51.9849 C   0  0  0  0  0  0  0  0  0  0  0  0
  7  8  2  0
  8  9  1  0
  8 10  1  0
  9  1  1  0
  1  2  2  0
  1  6  1  0
  2  3  1  0
  3  4  2  0
  4  5  1  0
  5 17  1  0
  5  6  2  0
 17 18  1  0
 18 19  2  0
 18 24  1  0
 19 20  1  0
 20 21  1  0
 21 22  2  0
 21 23  1  0
 23 24  2  0
 23 28  1  0
 24 25  1  0
 25 26  1  0
 26 27  1  0
 27 28  1  0
 10 11  1  0
 11 12  2  0
 11 16  1  0
 12 13  1  0
 13 14  2  0
 14 15  1  0
 15 16  2  0
M  END
>  <minimizedAffinity>  (406) 
-9.18349

$$$$
cs_full_output_folder/data/smiles/65.pdb
     RDKit          3D

 25 28  0  0  0  0  0  0  0  0999 V2000
   69.3662   46.1131   57.0866 C   0  0  0  0  0  0  0  0  0  0  0  0
   70.0080   44.9656   57.3615 N   0  0  0  0  0  0  0  0  0  0  0  0
   71.0594   44.9283   58.1974 C   0  0  0  0  0  0  0  0  0  0  0  0
   71.5007   46.0506   58.7860 N   0  0  0  0  0  0  0  0  0  0  0  0
   70.9145   47.2244   58.5616 C   0  0  0  0  0  0  0  0  0  0  0  0
   71.1293   48.4678   58.9905 N   0  0  0  0  0  0  0  0  0  0  0  0
   70.2446   49.3241   58.4576 C   0  0  0  0  0  0  0  0  0  0  0  0
   70.0230   50.6801   58.5580 C   0  0  0  0  0  0  0  0  0  0  0  0
   69.0009   51.3256   57.8682 C   0  0  0  0  0  0  0  0  0  0  0  0
   68.1789   50.5794   57.0536 C   0  0  0  0  0  0  0  0  0  0  0  0
   68.3822   49.2142   56.9367 C   0  0  0  0  0  0  0  0  0  0  0  0
   69.4018   48.5771   57.6269 C   0  0  0  0  0  0  0  0  0  0  0  0
   69.8178   47.2666   57.6900 C   0  0  0  0  0  0  0  0  0  0  0  0
   68.2567   46.1932   56.2153 N   0  0  0  0  0  0  0  0  0  0  0  0
   69.2815   47.7858   52.9980 C   0  0  0  0  0  0  0  0  0  0  0  0
   68.6894   46.9758   52.0520 C   0  0  0  0  0  0  0  0  0  0  0  0
   67.9525   45.9041   52.5105 C   0  0  0  0  0  0  0  0  0  0  0  0
   67.8183   45.6582   53.8657 C   0  0  0  0  0  0  0  0  0  0  0  0
   68.4065   46.4630   54.8157 C   0  0  0  0  0  0  0  0  0  0  0  0
   69.1435   47.5335   54.3592 C   0  0  0  0  0  0  0  0  0  0  0  0
   70.2175   49.1468   52.4192 S   0  0  0  0  0  0  0  0  0  0  0  0
   71.5969   49.1502   52.9553 O   0  0  0  0  0  0  0  0  0  0  0  0
   70.2579   49.1234   50.9075 O   0  0  0  0  0  0  0  0  0  0  0  0
   70.0893   51.3216   53.8518 C   0  0  0  0  0  0  0  0  0  0  0  0
   69.3443   50.5806   52.8661 N   0  0  0  0  0  0  0  0  0  0  0  0
 24 25  1  0
 25 21  1  0
 21 22  2  0
 21 23  2  0
 21 15  1  0
 15 16  2  0
 15 20  1  0
 16 17  1  0
 17 18  2  0
 18 19  1  0
 19 14  1  0
 19 20  2  0
 14  1  1  0
  1  2  2  0
  1 13  1  0
  2  3  1  0
  3  4  2  0
  4  5  1  0
  5  6  1  0
  5 13  2  0
  6  7  1  0
  7  8  1  0
  7 12  2  0
  8  9  2  0
  9 10  1  0
 10 11  2  0
 11 12  1  0
 12 13  1  0
M  END
>  <minimizedAffinity>  (407) 
-9.18281

$$$$
cs_full_output_folder/data/smiles/4845.pdb
     RDKit          3D

 26 28  0  0  0  0  0  0  0  0999 V2000
   70.4853   41.8530   58.8885 C   0  0  0  0  0  0  0  0  0  0  0  0
   69.4335   41.4899   57.9057 C   0  0  0  0  0  0  0  0  0  0  0  0
   68.8757   42.3722   57.0075 C   0  0  0  0  0  0  0  0  0  0  0  0
   67.9583   41.6233   56.3044 C   0  0  0  0  0  0  0  0  0  0  0  0
   67.9797   40.3635   56.7693 N   0  0  0  0  0  0  0  0  0  0  0  0
   68.8838   40.2661   57.7558 N   0  0  0  0  0  0  0  0  0  0  0  0
   69.2148   39.1077   58.5090 C   0  0  0  0  0  0  0  0  0  0  0  0
   68.3367   38.6415   59.4601 C   0  0  0  0  0  0  0  0  0  0  0  0
   68.6172   37.5079   60.2263 C   0  0  0  0  0  0  0  0  0  0  0  0
   69.8107   36.8517   60.0100 C   0  0  0  0  0  0  0  0  0  0  0  0
   70.1521   35.4220   60.9831 Cl  0  0  0  0  0  0  0  0  0  0  0  0
   70.6519   37.3147   59.0850 N   0  0  0  0  0  0  0  0  0  0  0  0
   70.3931   38.4133   58.3338 C   0  0  0  0  0  0  0  0  0  0  0  0
   69.2295   43.7964   56.8779 C   0  0  0  0  0  0  0  0  0  0  0  0
   70.2912   44.2342   57.3872 O   0  0  0  0  0  0  0  0  0  0  0  0
   68.4041   44.7011   56.1898 N   0  0  0  0  0  0  0  0  0  0  0  0
   68.6358   46.1120   55.9959 C   0  0  0  0  0  0  0  0  0  0  0  0
   68.6190   46.4054   54.5501 C   0  0  0  0  0  0  0  0  0  0  0  0
   67.8495   45.6702   53.6701 C   0  0  0  0  0  0  0  0  0  0  0  0
   67.8356   45.9251   52.3151 C   0  0  0  0  0  0  0  0  0  0  0  0
   68.6000   46.9388   51.7812 C   0  0  0  0  0  0  0  0  0  0  0  0
   69.3740   47.6822   52.6409 C   0  0  0  0  0  0  0  0  0  0  0  0
   69.3733   47.4078   54.0074 C   0  0  0  0  0  0  0  0  0  0  0  0
   70.1948   48.7622   52.1137 C   0  0  0  0  0  0  0  0  0  0  0  0
   69.9534   49.3245   51.0147 O   0  0  0  0  0  0  0  0  0  0  0  0
   71.2935   49.2110   52.8308 O   0  0  0  0  0  0  0  0  0  0  0  0
  1  2  1  0
  2  3  2  0
  2  6  1  0
  3 14  1  0
  3  4  1  0
 14 15  2  0
 14 16  1  0
 16 17  1  0
 17 18  1  0
 18 19  2  0
 18 23  1  0
 19 20  1  0
 20 21  2  0
 21 22  1  0
 22 24  1  0
 22 23  2  0
 24 25  2  0
 24 26  1  0
  4  5  2  0
  5  6  1  0
  6  7  1  0
  7  8  2  0
  7 13  1  0
  8  9  1  0
  9 10  2  0
 10 11  1  0
 10 12  1  0
 12 13  2  0
M  END
>  <minimizedAffinity>  (408) 
-9.18070

$$$$
cs_full_output_folder/data/smiles/4490.pdb
     RDKit          3D

 25 27  0  0  0  0  0  0  0  0999 V2000
   68.3735   44.6783   56.1453 N   0  0  0  0  0  0  0  0  0  0  0  0
   69.2385   43.8883   56.9286 C   0  0  0  0  0  0  0  0  0  0  0  0
   70.2261   44.4381   57.4810 O   0  0  0  0  0  0  0  0  0  0  0  0
   68.9893   42.4444   57.0969 C   0  0  0  0  0  0  0  0  0  0  0  0
   68.0261   41.6577   56.5137 C   0  0  0  0  0  0  0  0  0  0  0  0
   68.1834   40.4005   56.9655 N   0  0  0  0  0  0  0  0  0  0  0  0
   69.1979   40.3376   57.8093 N   0  0  0  0  0  0  0  0  0  0  0  0
   69.7116   41.5966   57.9049 C   0  0  0  0  0  0  0  0  0  0  0  0
   69.6134   39.1437   58.4562 C   0  0  0  0  0  0  0  0  0  0  0  0
   68.8426   38.4673   59.3799 C   0  0  0  0  0  0  0  0  0  0  0  0
   69.2429   37.3186   60.0006 C   0  0  0  0  0  0  0  0  0  0  0  0
   70.4920   36.7939   59.6935 C   0  0  0  0  0  0  0  0  0  0  0  0
   71.0150   35.3154   60.4876 Cl  0  0  0  0  0  0  0  0  0  0  0  0
   71.2944   37.4449   58.7715 C   0  0  0  0  0  0  0  0  0  0  0  0
   70.8513   38.6116   58.1614 C   0  0  0  0  0  0  0  0  0  0  0  0
   68.5254   46.1022   55.9113 C   0  0  0  0  0  0  0  0  0  0  0  0
   69.4105   47.6831   52.5886 C   0  0  0  0  0  0  0  0  0  0  0  0
   68.6365   46.9134   51.7366 C   0  0  0  0  0  0  0  0  0  0  0  0
   67.8479   45.9053   52.2208 C   0  0  0  0  0  0  0  0  0  0  0  0
   67.8584   45.6939   53.5822 C   0  0  0  0  0  0  0  0  0  0  0  0
   68.6220   46.4465   54.4690 C   0  0  0  0  0  0  0  0  0  0  0  0
   69.3977   47.4446   53.9527 C   0  0  0  0  0  0  0  0  0  0  0  0
   69.8498   49.3608   51.0279 O   0  0  0  0  0  0  0  0  0  0  0  0
   70.2386   48.7460   52.0458 C   0  0  0  0  0  0  0  0  0  0  0  0
   71.4479   49.0821   52.6410 O   0  0  0  0  0  0  0  0  0  0  0  0
 23 24  2  0
 24 25  1  0
 24 17  1  0
 17 18  2  0
 17 22  1  0
 18 19  1  0
 19 20  2  0
 20 21  1  0
 21 16  1  0
 21 22  2  0
 16  1  1  0
  1  2  1  0
  2  3  2  0
  2  4  1  0
  4  5  1  0
  4  8  2  0
  5  6  2  0
  6  7  1  0
  7  9  1  0
  7  8  1  0
  9 10  2  0
  9 15  1  0
 10 11  1  0
 11 12  2  0
 12 13  1  0
 12 14  1  0
 14 15  2  0
M  END
>  <minimizedAffinity>  (409) 
-9.17925

$$$$
cs_full_output_folder/data/smiles/6368.pdb
     RDKit          3D

 28 31  0  0  0  0  0  0  0  0999 V2000
   72.9736   35.5304   54.5541 O   0  0  0  0  0  0  0  0  0  0  0  0
   73.7078   35.0945   55.4649 C   0  0  0  0  0  0  0  0  0  0  0  0
   75.1267   35.2274   55.1763 N   0  0  0  0  0  0  0  0  0  0  0  0
   75.5894   35.7838   53.9815 N   0  0  0  0  0  0  0  0  0  0  0  0
   76.5366   35.0375   53.2364 C   0  0  0  0  0  0  0  0  0  0  0  0
   76.9139   33.9298   53.6851 O   0  0  0  0  0  0  0  0  0  0  0  0
   77.1126   35.4972   51.9508 C   0  0  0  0  0  0  0  0  0  0  0  0
   76.4438   34.8186   50.8493 C   0  0  0  0  0  0  0  0  0  0  0  0
   75.2466   34.1622   51.0525 C   0  0  0  0  0  0  0  0  0  0  0  0
   74.5703   33.5213   50.0086 C   0  0  0  0  0  0  0  0  0  0  0  0
   75.1042   33.5401   48.7407 C   0  0  0  0  0  0  0  0  0  0  0  0
   76.2913   34.1884   48.5265 C   0  0  0  0  0  0  0  0  0  0  0  0
   76.7944   34.1772   47.2359 C   0  0  0  0  0  0  0  0  0  0  0  0
   77.9703   34.7947   46.9445 C   0  0  0  0  0  0  0  0  0  0  0  0
   78.6550   35.4398   47.9831 C   0  0  0  0  0  0  0  0  0  0  0  0
   78.1273   35.4324   49.2598 C   0  0  0  0  0  0  0  0  0  0  0  0
   76.9386   34.8122   49.5736 C   0  0  0  0  0  0  0  0  0  0  0  0
   73.2631   34.4947   56.7290 C   0  0  0  0  0  0  0  0  0  0  0  0
   72.5239   35.3990   57.6296 C   0  0  0  0  0  0  0  0  0  0  0  0
   72.4579   36.7764   57.3350 C   0  0  0  0  0  0  0  0  0  0  0  0
   71.7453   37.6464   58.1183 C   0  0  0  0  0  0  0  0  0  0  0  0
   71.0633   37.2101   59.2289 C   0  0  0  0  0  0  0  0  0  0  0  0
   71.1151   35.8674   59.5364 C   0  0  0  0  0  0  0  0  0  0  0  0
   70.4305   35.4609   60.6609 C   0  0  0  0  0  0  0  0  0  0  0  0
   70.4637   34.1150   61.0198 C   0  0  0  0  0  0  0  0  0  0  0  0
   71.1870   33.2462   60.2243 C   0  0  0  0  0  0  0  0  0  0  0  0
   71.8706   33.6521   59.0990 C   0  0  0  0  0  0  0  0  0  0  0  0
   71.8421   34.9748   58.7389 C   0  0  0  0  0  0  0  0  0  0  0  0
  1  2  2  0
  2 18  1  0
  2  3  1  0
 18 19  1  0
 19 20  2  0
 19 28  1  0
 20 21  1  0
 21 22  2  0
 22 23  1  0
 23 24  1  0
 23 28  2  0
 24 25  2  0
 25 26  1  0
 26 27  2  0
 27 28  1  0
  3  4  1  0
  4  5  1  0
  5  6  2  0
  5  7  1  0
  7  8  1  0
  8  9  2  0
  8 17  1  0
  9 10  1  0
 10 11  2  0
 11 12  1  0
 12 13  1  0
 12 17  2  0
 13 14  2  0
 14 15  1  0
 15 16  2  0
 16 17  1  0
M  END
>  <minimizedAffinity>  (410) 
-9.17912

$$$$
cs_full_output_folder/data/smiles/3156.pdb
     RDKit          3D

 28 31  0  0  0  0  0  0  0  0999 V2000
   71.3568   46.8956   58.9511 C   0  0  0  0  0  0  0  0  0  0  0  0
   70.4700   47.5781   58.1608 C   0  0  0  0  0  0  0  0  0  0  0  0
   69.6960   46.9462   57.1973 C   0  0  0  0  0  0  0  0  0  0  0  0
   69.8182   45.5980   57.0252 C   0  0  0  0  0  0  0  0  0  0  0  0
   70.6945   44.8817   57.7984 C   0  0  0  0  0  0  0  0  0  0  0  0
   71.4601   45.5328   58.7578 C   0  0  0  0  0  0  0  0  0  0  0  0
   72.3081   44.7769   59.4903 F   0  0  0  0  0  0  0  0  0  0  0  0
   71.8769   47.3015   61.1647 O   0  0  0  0  0  0  0  0  0  0  0  0
   72.1795   47.5463   59.9675 C   0  0  0  0  0  0  0  0  0  0  0  0
   73.2516   48.4013   59.6774 N   0  0  0  0  0  0  0  0  0  0  0  0
   73.9531   48.9549   60.8191 C   0  0  0  0  0  0  0  0  0  0  0  0
   75.4396   48.6957   60.7579 C   0  0  0  0  0  0  0  0  0  0  0  0
   76.1060   49.5588   59.7063 C   0  0  0  0  0  0  0  0  0  0  0  0
   76.3611   48.5354   58.2324 S   0  0  0  0  0  0  0  0  0  0  0  0
   74.7362   47.8132   57.8120 C   0  0  0  0  0  0  0  0  0  0  0  0
   73.5986   48.6877   58.2996 C   0  0  0  0  0  0  0  0  0  0  0  0
   68.7953   47.8320   56.3984 C   0  0  0  0  0  0  0  0  0  0  0  0
   69.2283   48.0420   55.0157 C   0  0  0  0  0  0  0  0  0  0  0  0
   70.1367   49.0367   54.7491 N   0  0  0  0  0  0  0  0  0  0  0  0
   70.5384   49.3007   53.5319 N   0  0  0  0  0  0  0  0  0  0  0  0
   70.1051   48.6337   52.4489 C   0  0  0  0  0  0  0  0  0  0  0  0
   70.4948   48.8954   51.2974 O   0  0  0  0  0  0  0  0  0  0  0  0
   69.1903   47.6139   52.6216 C   0  0  0  0  0  0  0  0  0  0  0  0
   68.7322   46.9010   51.5370 C   0  0  0  0  0  0  0  0  0  0  0  0
   67.8215   45.8665   51.7085 C   0  0  0  0  0  0  0  0  0  0  0  0
   67.4056   45.5926   52.9868 C   0  0  0  0  0  0  0  0  0  0  0  0
   67.8785   46.3248   54.0786 C   0  0  0  0  0  0  0  0  0  0  0  0
   68.7786   47.3520   53.9209 C   0  0  0  0  0  0  0  0  0  0  0  0
  8  9  2  0
  9  1  1  0
  9 10  1  0
  1  2  2  0
  1  6  1  0
  2  3  1  0
  3 17  1  0
  3  4  2  0
 17 18  1  0
 18 19  2  0
 18 28  1  0
 19 20  1  0
 20 21  1  0
 21 22  2  0
 21 23  1  0
 23 24  1  0
 23 28  2  0
 24 25  2  0
 25 26  1  0
 26 27  2  0
 27 28  1  0
  4  5  1  0
  5  6  2  0
  6  7  1  0
 10 11  1  0
 10 16  1  0
 11 12  1  0
 12 13  1  0
 13 14  1  0
 14 15  1  0
 15 16  1  0
M  END
>  <minimizedAffinity>  (411) 
-9.17734

$$$$
cs_full_output_folder/data/smiles/9614.pdb
     RDKit          3D

 28 31  0  0  0  0  0  0  0  0999 V2000
   70.9750   46.2543   58.3882 C   0  0  0  0  0  0  0  0  0  0  0  0
   71.9447   47.1294   58.8215 C   0  0  0  0  0  0  0  0  0  0  0  0
   71.8914   48.4304   58.4899 N   0  0  0  0  0  0  0  0  0  0  0  0
   70.8758   48.9246   57.7139 C   0  0  0  0  0  0  0  0  0  0  0  0
   69.8854   48.1093   57.2522 C   0  0  0  0  0  0  0  0  0  0  0  0
   69.9646   46.7514   57.6136 C   0  0  0  0  0  0  0  0  0  0  0  0
   70.7230   44.5759   59.9413 O   0  0  0  0  0  0  0  0  0  0  0  0
   71.0032   44.8440   58.7294 C   0  0  0  0  0  0  0  0  0  0  0  0
   71.3043   43.7840   57.8564 N   0  0  0  0  0  0  0  0  0  0  0  0
   71.3125   42.4180   58.2776 C   0  0  0  0  0  0  0  0  0  0  0  0
   70.1310   41.6277   57.9240 C   0  0  0  0  0  0  0  0  0  0  0  0
   69.9829   40.3542   58.3848 C   0  0  0  0  0  0  0  0  0  0  0  0
   68.8817   39.5646   58.0630 C   0  0  0  0  0  0  0  0  0  0  0  0
   67.9182   40.0854   57.2597 C   0  0  0  0  0  0  0  0  0  0  0  0
   68.0375   41.3591   56.7819 C   0  0  0  0  0  0  0  0  0  0  0  0
   69.1269   42.1232   57.1079 C   0  0  0  0  0  0  0  0  0  0  0  0
   68.7902   48.6049   56.4074 C   0  0  0  0  0  0  0  0  0  0  0  0
   69.1786   48.7054   54.9851 C   0  0  0  0  0  0  0  0  0  0  0  0
   69.6972   49.8855   54.5036 N   0  0  0  0  0  0  0  0  0  0  0  0
   70.0161   50.0541   53.2384 N   0  0  0  0  0  0  0  0  0  0  0  0
   69.8522   49.0627   52.3121 C   0  0  0  0  0  0  0  0  0  0  0  0
   70.1778   49.2938   51.1256 O   0  0  0  0  0  0  0  0  0  0  0  0
   69.3436   47.8635   52.7157 C   0  0  0  0  0  0  0  0  0  0  0  0
   69.0189   47.7267   54.0729 C   0  0  0  0  0  0  0  0  0  0  0  0
   68.5228   46.3842   54.4308 C   0  0  0  0  0  0  0  0  0  0  0  0
   67.4101   46.0608   53.4852 C   0  0  0  0  0  0  0  0  0  0  0  0
   67.8657   45.9895   52.0494 C   0  0  0  0  0  0  0  0  0  0  0  0
   69.1310   46.7559   51.7626 C   0  0  0  0  0  0  0  0  0  0  0  0
  7  8  2  0
  8  9  1  0
  8  1  1  0
  9 10  1  0
 10 11  1  0
 11 12  2  0
 11 16  1  0
 12 13  1  0
 13 14  2  0
 14 15  1  0
 15 16  2  0
  1  2  2  0
  1  6  1  0
  2  3  1  0
  3  4  2  0
  4  5  1  0
  5 17  1  0
  5  6  2  0
 17 18  1  0
 18 19  2  0
 18 24  1  0
 19 20  1  0
 20 21  1  0
 21 22  2  0
 21 23  1  0
 23 24  2  0
 23 28  1  0
 24 25  1  0
 25 26  1  0
 26 27  1  0
 27 28  1  0
M  END
>  <minimizedAffinity>  (412) 
-9.17649

$$$$
cs_full_output_folder/data/smiles/3454.pdb
     RDKit          3D

 27 30  0  0  0  0  0  0  0  0999 V2000
   70.9023   46.3685   58.4445 C   0  0  0  0  0  0  0  0  0  0  0  0
   71.9238   47.1365   58.9424 C   0  0  0  0  0  0  0  0  0  0  0  0
   72.0537   48.4652   58.5694 C   0  0  0  0  0  0  0  0  0  0  0  0
   71.1368   49.0031   57.6880 C   0  0  0  0  0  0  0  0  0  0  0  0
   70.1076   48.2479   57.1794 C   0  0  0  0  0  0  0  0  0  0  0  0
   70.0148   46.9332   57.5752 C   0  0  0  0  0  0  0  0  0  0  0  0
   69.7049   44.4978   59.3067 O   0  0  0  0  0  0  0  0  0  0  0  0
   70.7959   44.9595   58.8636 C   0  0  0  0  0  0  0  0  0  0  0  0
   71.8806   44.0551   58.8007 N   0  0  0  0  0  0  0  0  0  0  0  0
   71.7299   42.6739   59.2258 C   0  0  0  0  0  0  0  0  0  0  0  0
   72.9515   42.1777   59.9601 C   0  0  0  0  0  0  0  0  0  0  0  0
   73.5830   40.9864   59.3141 C   0  0  0  0  0  0  0  0  0  0  0  0
   72.6262   39.8774   59.0201 C   0  0  0  0  0  0  0  0  0  0  0  0
   71.2796   40.3702   58.5654 C   0  0  0  0  0  0  0  0  0  0  0  0
   71.4686   41.7815   58.0471 C   0  0  0  0  0  0  0  0  0  0  0  0
   69.1647   48.8705   56.2340 C   0  0  0  0  0  0  0  0  0  0  0  0
   69.4843   48.7429   54.8213 C   0  0  0  0  0  0  0  0  0  0  0  0
   70.3491   49.6431   54.2738 N   0  0  0  0  0  0  0  0  0  0  0  0
   70.6997   49.6331   53.0074 N   0  0  0  0  0  0  0  0  0  0  0  0
   70.1698   48.6837   52.2370 C   0  0  0  0  0  0  0  0  0  0  0  0
   70.5026   48.6658   51.0116 O   0  0  0  0  0  0  0  0  0  0  0  0
   69.2669   47.7118   52.7215 C   0  0  0  0  0  0  0  0  0  0  0  0
   68.9104   47.7355   54.0459 C   0  0  0  0  0  0  0  0  0  0  0  0
   67.9805   46.7490   54.6289 C   0  0  0  0  0  0  0  0  0  0  0  0
   68.0075   45.5075   53.7461 C   0  0  0  0  0  0  0  0  0  0  0  0
   67.6205   45.9484   52.3222 C   0  0  0  0  0  0  0  0  0  0  0  0
   68.7684   46.7192   51.7394 C   0  0  0  0  0  0  0  0  0  0  0  0
  7  8  2  0
  8  9  1  0
  8  1  1  0
  9 10  1  0
 10 11  1  0
 10 15  1  0
 11 12  1  0
 12 13  1  0
 13 14  1  0
 14 15  1  0
  1  2  2  0
  1  6  1  0
  2  3  1  0
  3  4  2  0
  4  5  1  0
  5 16  1  0
  5  6  2  0
 16 17  1  0
 17 18  2  0
 17 23  1  0
 18 19  1  0
 19 20  1  0
 20 21  2  0
 20 22  1  0
 22 23  2  0
 22 27  1  0
 23 24  1  0
 24 25  1  0
 25 26  1  0
 26 27  1  0
M  END
>  <minimizedAffinity>  (413) 
-9.17637

$$$$
cs_full_output_folder/data/smiles/125.pdb
     RDKit          3D

 24 25  0  0  0  0  0  0  0  0999 V2000
   70.0116   49.3858   52.7448 S   0  0  0  0  0  0  0  0  0  0  0  0
   71.4731   49.3468   53.0978 O   0  0  0  0  0  0  0  0  0  0  0  0
   69.9328   49.3510   51.2423 O   0  0  0  0  0  0  0  0  0  0  0  0
   69.2883   47.9422   53.4019 C   0  0  0  0  0  0  0  0  0  0  0  0
   69.2669   47.6473   54.7502 C   0  0  0  0  0  0  0  0  0  0  0  0
   69.8620   48.5777   55.5637 F   0  0  0  0  0  0  0  0  0  0  0  0
   68.6932   46.5045   55.2640 C   0  0  0  0  0  0  0  0  0  0  0  0
   68.0982   45.5792   54.4340 C   0  0  0  0  0  0  0  0  0  0  0  0
   67.5285   44.4456   54.9346 F   0  0  0  0  0  0  0  0  0  0  0  0
   68.1048   45.8480   53.0817 C   0  0  0  0  0  0  0  0  0  0  0  0
   67.5188   44.9352   52.2682 F   0  0  0  0  0  0  0  0  0  0  0  0
   68.6793   46.9920   52.5717 C   0  0  0  0  0  0  0  0  0  0  0  0
   68.6829   47.2525   51.2324 F   0  0  0  0  0  0  0  0  0  0  0  0
   69.3087   50.8449   53.2775 N   0  0  0  0  0  0  0  0  0  0  0  0
   71.5508   53.0684   55.2192 C   0  0  0  0  0  0  0  0  0  0  0  0
   70.7034   53.5288   56.1979 C   0  0  0  0  0  0  0  0  0  0  0  0
   69.4030   53.1007   56.2013 C   0  0  0  0  0  0  0  0  0  0  0  0
   68.9525   52.2247   55.2388 C   0  0  0  0  0  0  0  0  0  0  0  0
   69.7908   51.7391   54.2294 C   0  0  0  0  0  0  0  0  0  0  0  0
   71.0782   52.1784   54.2471 C   0  0  0  0  0  0  0  0  0  0  0  0
   73.8862   53.5374   56.7549 N   0  0  0  0  0  0  0  0  0  0  0  0
   73.2065   53.6156   55.2197 S   0  0  0  0  0  0  0  0  0  0  0  0
   74.0043   52.8067   54.2570 O   0  0  0  0  0  0  0  0  0  0  0  0
   73.2619   55.0570   54.7377 O   0  0  0  0  0  0  0  0  0  0  0  0
 21 22  1  0
 22 23  2  0
 22 24  2  0
 22 15  1  0
 15 16  2  0
 15 20  1  0
 16 17  1  0
 17 18  2  0
 18 19  1  0
 19 14  1  0
 19 20  2  0
 14  1  1  0
  1  2  2  0
  1  3  2  0
  1  4  1  0
  4  5  2  0
  4 12  1  0
  5  6  1  0
  5  7  1  0
  7  8  2  0
  8  9  1  0
  8 10  1  0
 10 11  1  0
 10 12  2  0
 12 13  1  0
M  END
>  <minimizedAffinity>  (414) 
-9.17459

$$$$
cs_full_output_folder/data/smiles/2867.pdb
     RDKit          3D

 25 26  0  0  0  0  0  0  0  0999 V2000
   70.0811   49.2571   52.6014 S   0  0  0  0  0  0  0  0  0  0  0  0
   71.4803   49.3935   53.1627 O   0  0  0  0  0  0  0  0  0  0  0  0
   70.1906   49.0712   51.0980 O   0  0  0  0  0  0  0  0  0  0  0  0
   69.3161   47.8536   53.2805 C   0  0  0  0  0  0  0  0  0  0  0  0
   68.6200   46.9478   52.4983 C   0  0  0  0  0  0  0  0  0  0  0  0
   68.5532   47.1948   51.1639 F   0  0  0  0  0  0  0  0  0  0  0  0
   68.0164   45.8335   53.0584 C   0  0  0  0  0  0  0  0  0  0  0  0
   67.3348   44.9515   52.2724 F   0  0  0  0  0  0  0  0  0  0  0  0
   68.0892   45.5870   54.4273 C   0  0  0  0  0  0  0  0  0  0  0  0
   67.4821   44.4874   54.9155 F   0  0  0  0  0  0  0  0  0  0  0  0
   68.7817   46.4875   55.2055 C   0  0  0  0  0  0  0  0  0  0  0  0
   68.8583   46.2586   56.5355 F   0  0  0  0  0  0  0  0  0  0  0  0
   69.3791   47.5930   54.6409 C   0  0  0  0  0  0  0  0  0  0  0  0
   70.0708   48.4990   55.3964 F   0  0  0  0  0  0  0  0  0  0  0  0
   69.1877   50.6647   52.9359 N   0  0  0  0  0  0  0  0  0  0  0  0
   68.1445   51.4922   56.3880 C   0  0  0  0  0  0  0  0  0  0  0  0
   68.9582   52.5760   56.6905 C   0  0  0  0  0  0  0  0  0  0  0  0
   69.8519   53.0468   55.7491 C   0  0  0  0  0  0  0  0  0  0  0  0
   69.9276   52.4207   54.4963 C   0  0  0  0  0  0  0  0  0  0  0  0
   69.1423   51.3510   54.1600 C   0  0  0  0  0  0  0  0  0  0  0  0
   68.2528   50.9196   55.1614 C   0  0  0  0  0  0  0  0  0  0  0  0
   67.1889   50.9994   57.4122 C   0  0  0  0  0  0  0  0  0  0  0  0
   68.7250   49.3110   57.9995 O   0  0  0  0  0  0  0  0  0  0  0  0
   67.5398   49.6071   57.7452 C   0  0  0  0  0  0  0  0  0  0  0  0
   66.5933   48.6005   57.7888 O   0  0  0  0  0  0  0  0  0  0  0  0
 23 24  2  0
 24 25  1  0
 24 22  1  0
 22 16  1  0
 16 17  2  0
 16 21  1  0
 17 18  1  0
 18 19  2  0
 19 20  1  0
 20 15  1  0
 20 21  2  0
 15  1  1  0
  1  2  2  0
  1  3  2  0
  1  4  1  0
  4  5  2  0
  4 13  1  0
  5  6  1  0
  5  7  1  0
  7  8  1  0
  7  9  2  0
  9 10  1  0
  9 11  1  0
 11 12  1  0
 11 13  2  0
 13 14  1  0
M  END
>  <minimizedAffinity>  (415) 
-9.17368

$$$$
cs_full_output_folder/data/smiles/1155.pdb
     RDKit          3D

 26 29  0  0  0  0  0  0  0  0999 V2000
   70.9192   45.9995   58.3126 C   0  0  0  0  0  0  0  0  0  0  0  0
   70.0032   46.5667   57.4228 C   0  0  0  0  0  0  0  0  0  0  0  0
   69.8228   47.9252   57.2891 C   0  0  0  0  0  0  0  0  0  0  0  0
   70.5764   48.7969   58.0660 C   0  0  0  0  0  0  0  0  0  0  0  0
   71.4733   48.2811   58.9417 C   0  0  0  0  0  0  0  0  0  0  0  0
   71.6349   46.9041   59.0571 C   0  0  0  0  0  0  0  0  0  0  0  0
   72.7918   46.3840   60.2535 Cl  0  0  0  0  0  0  0  0  0  0  0  0
   73.3520   44.0745   57.9929 O   0  0  0  0  0  0  0  0  0  0  0  0
   72.1356   43.7643   58.0221 C   0  0  0  0  0  0  0  0  0  0  0  0
   71.5880   42.4258   57.6336 C   0  0  0  0  0  0  0  0  0  0  0  0
   70.1617   42.4195   58.0955 C   0  0  0  0  0  0  0  0  0  0  0  0
   70.1010   43.6473   58.9780 C   0  0  0  0  0  0  0  0  0  0  0  0
   69.3818   43.8075   59.9930 O   0  0  0  0  0  0  0  0  0  0  0  0
   71.0339   44.5910   58.4200 N   0  0  0  0  0  0  0  0  0  0  0  0
   68.8305   48.5221   56.3437 C   0  0  0  0  0  0  0  0  0  0  0  0
   69.3129   48.4552   54.9638 C   0  0  0  0  0  0  0  0  0  0  0  0
   70.2754   49.3476   54.5581 N   0  0  0  0  0  0  0  0  0  0  0  0
   70.7312   49.3868   53.3247 N   0  0  0  0  0  0  0  0  0  0  0  0
   70.2899   48.5532   52.3614 C   0  0  0  0  0  0  0  0  0  0  0  0
   70.7704   48.6484   51.2024 O   0  0  0  0  0  0  0  0  0  0  0  0
   69.3225   47.6243   52.6837 C   0  0  0  0  0  0  0  0  0  0  0  0
   68.8870   46.7712   51.7012 C   0  0  0  0  0  0  0  0  0  0  0  0
   67.9334   45.8385   52.0413 C   0  0  0  0  0  0  0  0  0  0  0  0
   67.4456   45.7834   53.3362 C   0  0  0  0  0  0  0  0  0  0  0  0
   67.9000   46.6575   54.3151 C   0  0  0  0  0  0  0  0  0  0  0  0
   68.8513   47.5970   53.9978 C   0  0  0  0  0  0  0  0  0  0  0  0
  8  9  2  0
  9 10  1  0
  9 14  1  0
 10 11  1  0
 11 12  1  0
 12 13  2  0
 12 14  1  0
 14  1  1  0
  1  2  2  0
  1  6  1  0
  2  3  1  0
  3 15  1  0
  3  4  2  0
 15 16  1  0
 16 17  2  0
 16 26  1  0
 17 18  1  0
 18 19  1  0
 19 20  2  0
 19 21  1  0
 21 22  1  0
 21 26  2  0
 22 23  2  0
 23 24  1  0
 24 25  2  0
 25 26  1  0
  4  5  1  0
  5  6  2  0
  6  7  1  0
M  END
>  <minimizedAffinity>  (416) 
-9.17357

$$$$
cs_full_output_folder/data/smiles/1496.pdb
     RDKit          3D

 27 30  0  0  0  0  0  0  0  0999 V2000
   71.5744   47.3178   58.7731 C   0  0  0  0  0  0  0  0  0  0  0  0
   70.6972   48.0698   57.9750 C   0  0  0  0  0  0  0  0  0  0  0  0
   69.7894   47.5085   57.1465 C   0  0  0  0  0  0  0  0  0  0  0  0
   69.7420   46.1196   57.1018 C   0  0  0  0  0  0  0  0  0  0  0  0
   70.5896   45.3598   57.8727 C   0  0  0  0  0  0  0  0  0  0  0  0
   71.5105   45.9420   58.7127 C   0  0  0  0  0  0  0  0  0  0  0  0
   72.3633   45.2218   59.4873 F   0  0  0  0  0  0  0  0  0  0  0  0
   75.5397   51.3189   59.3012 O   0  0  0  0  0  0  0  0  0  0  0  0
   75.1529   50.2280   58.9772 C   0  0  0  0  0  0  0  0  0  0  0  0
   74.8845   49.7244   57.6103 C   0  0  0  0  0  0  0  0  0  0  0  0
   74.3174   48.3232   57.8025 C   0  0  0  0  0  0  0  0  0  0  0  0
   73.7807   48.4286   59.1596 N   0  0  0  0  0  0  0  0  0  0  0  0
   72.5317   47.9827   59.6451 C   0  0  0  0  0  0  0  0  0  0  0  0
   72.2589   48.1698   60.8518 O   0  0  0  0  0  0  0  0  0  0  0  0
   74.8478   49.1099   59.8949 C   0  0  0  0  0  0  0  0  0  0  0  0
   68.8324   48.2223   56.2559 C   0  0  0  0  0  0  0  0  0  0  0  0
   69.2494   48.2790   54.8688 C   0  0  0  0  0  0  0  0  0  0  0  0
   70.1625   49.2368   54.5200 N   0  0  0  0  0  0  0  0  0  0  0  0
   70.5859   49.4127   53.2982 N   0  0  0  0  0  0  0  0  0  0  0  0
   70.1506   48.6555   52.2758 C   0  0  0  0  0  0  0  0  0  0  0  0
   70.5438   48.8092   51.0922 O   0  0  0  0  0  0  0  0  0  0  0  0
   69.2292   47.6682   52.5473 C   0  0  0  0  0  0  0  0  0  0  0  0
   68.7671   46.8626   51.5228 C   0  0  0  0  0  0  0  0  0  0  0  0
   67.8535   45.8677   51.8037 C   0  0  0  0  0  0  0  0  0  0  0  0
   67.4284   45.7071   53.1038 C   0  0  0  0  0  0  0  0  0  0  0  0
   67.8869   46.5077   54.1237 C   0  0  0  0  0  0  0  0  0  0  0  0
   68.7838   47.4883   53.8565 C   0  0  0  0  0  0  0  0  0  0  0  0
  8  9  2  0
  9 10  1  0
  9 15  1  0
 10 11  1  0
 11 12  1  0
 12 13  1  0
 12 15  1  0
 13 14  2  0
 13  1  1  0
  1  2  2  0
  1  6  1  0
  2  3  1  0
  3 16  1  0
  3  4  2  0
 16 17  1  0
 17 18  2  0
 17 27  1  0
 18 19  1  0
 19 20  1  0
 20 21  2  0
 20 22  1  0
 22 23  1  0
 22 27  2  0
 23 24  2  0
 24 25  1  0
 25 26  2  0
 26 27  1  0
  4  5  1  0
  5  6  2  0
  6  7  1  0
M  END
>  <minimizedAffinity>  (417) 
-9.17319

$$$$
cs_full_output_folder/data/smiles/55.pdb
     RDKit          3D

 28 31  0  0  0  0  0  0  0  0999 V2000
   69.1817   43.3343   56.9476 C   0  0  0  0  0  0  0  0  0  0  0  0
   70.4223   43.8126   57.1864 N   0  0  0  0  0  0  0  0  0  0  0  0
   71.3734   43.1206   57.8353 C   0  0  0  0  0  0  0  0  0  0  0  0
   71.0594   41.8848   58.2651 N   0  0  0  0  0  0  0  0  0  0  0  0
   69.8385   41.3581   58.0542 C   0  0  0  0  0  0  0  0  0  0  0  0
   68.8558   42.0595   57.3900 C   0  0  0  0  0  0  0  0  0  0  0  0
   67.5159   41.5095   57.1444 C   0  0  0  0  0  0  0  0  0  0  0  0
   66.6306   42.1665   56.5347 O   0  0  0  0  0  0  0  0  0  0  0  0
   67.3016   40.1848   57.6471 N   0  0  0  0  0  0  0  0  0  0  0  0
   68.4399   39.3170   57.8469 C   0  0  0  0  0  0  0  0  0  0  0  0
   69.5776   39.9944   58.5584 C   0  0  0  0  0  0  0  0  0  0  0  0
   72.7061   43.6947   58.0657 C   0  0  0  0  0  0  0  0  0  0  0  0
   73.8080   42.8725   58.1512 C   0  0  0  0  0  0  0  0  0  0  0  0
   75.0981   43.3612   58.3737 C   0  0  0  0  0  0  0  0  0  0  0  0
   75.2945   44.7217   58.5167 C   0  0  0  0  0  0  0  0  0  0  0  0
   74.1928   45.5415   58.4309 C   0  0  0  0  0  0  0  0  0  0  0  0
   72.9041   45.0476   58.2080 C   0  0  0  0  0  0  0  0  0  0  0  0
   68.1738   44.0461   56.2705 N   0  0  0  0  0  0  0  0  0  0  0  0
   68.8424   47.5140   53.9140 C   0  0  0  0  0  0  0  0  0  0  0  0
   69.1891   47.4774   55.2488 C   0  0  0  0  0  0  0  0  0  0  0  0
   68.9758   46.3530   56.0228 C   0  0  0  0  0  0  0  0  0  0  0  0
   68.4072   45.2172   55.5002 C   0  0  0  0  0  0  0  0  0  0  0  0
   68.0582   45.2445   54.1704 C   0  0  0  0  0  0  0  0  0  0  0  0
   68.2692   46.3647   53.3938 C   0  0  0  0  0  0  0  0  0  0  0  0
   69.0514   48.6974   53.0367 C   0  0  0  0  0  0  0  0  0  0  0  0
   71.4155   48.9630   52.6558 O   0  0  0  0  0  0  0  0  0  0  0  0
   70.3029   48.5247   52.2652 C   0  0  0  0  0  0  0  0  0  0  0  0
   70.2857   47.8543   51.0511 O   0  0  0  0  0  0  0  0  0  0  0  0
 26 27  2  0
 27 28  1  0
 27 25  1  0
 25 19  1  0
 19 20  2  0
 19 24  1  0
 20 21  1  0
 21 22  2  0
 22 18  1  0
 22 23  1  0
 18  1  1  0
  1  2  2  0
  1  6  1  0
  2  3  1  0
  3 12  1  0
  3  4  2  0
 12 13  2  0
 12 17  1  0
 13 14  1  0
 14 15  2  0
 15 16  1  0
 16 17  2  0
  4  5  1  0
  5  6  2  0
  5 11  1  0
  6  7  1  0
  7  8  2  0
  7  9  1  0
  9 10  1  0
 10 11  1  0
 23 24  2  0
M  END
>  <minimizedAffinity>  (418) 
-9.17291

$$$$
cs_full_output_folder/data/smiles/2990.pdb
     RDKit          3D

 27 30  0  0  0  0  0  0  0  0999 V2000
   71.5428   47.1758   58.9275 C   0  0  0  0  0  0  0  0  0  0  0  0
   71.4933   45.8109   58.8097 C   0  0  0  0  0  0  0  0  0  0  0  0
   70.6183   45.2143   57.8900 C   0  0  0  0  0  0  0  0  0  0  0  0
   69.8307   46.0397   57.1281 C   0  0  0  0  0  0  0  0  0  0  0  0
   69.8574   47.4450   57.2252 C   0  0  0  0  0  0  0  0  0  0  0  0
   70.7143   47.9776   58.1241 C   0  0  0  0  0  0  0  0  0  0  0  0
   72.1575   47.7625   61.1329 O   0  0  0  0  0  0  0  0  0  0  0  0
   72.4590   47.7730   59.8918 C   0  0  0  0  0  0  0  0  0  0  0  0
   73.6763   48.3713   59.5223 N   0  0  0  0  0  0  0  0  0  0  0  0
   73.9374   48.3165   58.0854 C   0  0  0  0  0  0  0  0  0  0  0  0
   75.4421   48.4957   57.8388 C   0  0  0  0  0  0  0  0  0  0  0  0
   76.1520   47.4895   58.6579 C   0  0  0  0  0  0  0  0  0  0  0  0
   76.2259   47.4114   59.9175 N   0  0  0  0  0  0  0  0  0  0  0  0
   75.6864   48.2109   60.9309 C   0  0  0  0  0  0  0  0  0  0  0  0
   74.4307   48.9309   60.5946 C   0  0  0  0  0  0  0  0  0  0  0  0
   68.9607   48.1590   56.2999 C   0  0  0  0  0  0  0  0  0  0  0  0
   69.3826   48.2349   54.9027 C   0  0  0  0  0  0  0  0  0  0  0  0
   70.3146   49.1381   54.5655 N   0  0  0  0  0  0  0  0  0  0  0  0
   70.7534   49.3297   53.3308 N   0  0  0  0  0  0  0  0  0  0  0  0
   70.2596   48.5925   52.3259 C   0  0  0  0  0  0  0  0  0  0  0  0
   70.6534   48.7484   51.1418 O   0  0  0  0  0  0  0  0  0  0  0  0
   69.2991   47.6518   52.6261 C   0  0  0  0  0  0  0  0  0  0  0  0
   68.7841   46.8609   51.6226 C   0  0  0  0  0  0  0  0  0  0  0  0
   67.8454   45.8976   51.8655 C   0  0  0  0  0  0  0  0  0  0  0  0
   67.4047   45.7164   53.1557 C   0  0  0  0  0  0  0  0  0  0  0  0
   67.8827   46.4732   54.1902 C   0  0  0  0  0  0  0  0  0  0  0  0
   68.8285   47.4406   53.9261 C   0  0  0  0  0  0  0  0  0  0  0  0
  7  8  2  0
  8  1  1  0
  8  9  1  0
  1  2  2  0
  1  6  1  0
  2  3  1  0
  3  4  2  0
  4  5  1  0
  5 16  1  0
  5  6  2  0
 16 17  1  0
 17 18  2  0
 17 27  1  0
 18 19  1  0
 19 20  1  0
 20 21  2  0
 20 22  1  0
 22 23  1  0
 22 27  2  0
 23 24  2  0
 24 25  1  0
 25 26  2  0
 26 27  1  0
  9 10  1  0
  9 15  1  0
 10 11  1  0
 11 12  1  0
 12 13  2  0
 13 14  1  0
 14 15  1  0
M  END
>  <minimizedAffinity>  (419) 
-9.17216

$$$$
cs_full_output_folder/data/smiles/2758.pdb
     RDKit          3D

 26 28  0  0  0  0  0  0  0  0999 V2000
   70.5815   45.2121   57.9891 C   0  0  0  0  0  0  0  0  0  0  0  0
   71.6339   45.8851   58.5573 C   0  0  0  0  0  0  0  0  0  0  0  0
   71.6482   47.2651   58.5341 C   0  0  0  0  0  0  0  0  0  0  0  0
   70.6018   47.9435   57.9382 C   0  0  0  0  0  0  0  0  0  0  0  0
   69.5320   47.2489   57.3608 C   0  0  0  0  0  0  0  0  0  0  0  0
   69.5932   45.9173   57.4249 N   0  0  0  0  0  0  0  0  0  0  0  0
   69.8003   43.0630   58.9852 C   0  0  0  0  0  0  0  0  0  0  0  0
   69.1838   43.7537   59.8161 O   0  0  0  0  0  0  0  0  0  0  0  0
   70.5501   43.7659   58.0049 N   0  0  0  0  0  0  0  0  0  0  0  0
   68.8821   40.8177   58.5098 C   0  0  0  0  0  0  0  0  0  0  0  0
   69.7572   41.6133   59.0143 C   0  0  0  0  0  0  0  0  0  0  0  0
   66.6697   41.9699   55.6802 C   0  0  0  0  0  0  0  0  0  0  0  0
   67.8265   41.5320   56.4691 C   0  0  0  0  0  0  0  0  0  0  0  0
   67.7137   41.2446   57.7794 C   0  0  0  0  0  0  0  0  0  0  0  0
   68.4047   48.0090   56.7281 C   0  0  0  0  0  0  0  0  0  0  0  0
   68.8586   48.4365   55.3908 C   0  0  0  0  0  0  0  0  0  0  0  0
   69.3058   49.7231   55.2170 N   0  0  0  0  0  0  0  0  0  0  0  0
   69.7358   50.1267   54.0355 N   0  0  0  0  0  0  0  0  0  0  0  0
   69.7565   49.3003   52.9459 C   0  0  0  0  0  0  0  0  0  0  0  0
   70.1870   49.7924   51.8675 O   0  0  0  0  0  0  0  0  0  0  0  0
   69.3199   48.0080   53.0679 C   0  0  0  0  0  0  0  0  0  0  0  0
   68.8697   47.5932   54.3128 C   0  0  0  0  0  0  0  0  0  0  0  0
   68.3842   46.2158   54.4364 C   0  0  0  0  0  0  0  0  0  0  0  0
   67.4928   45.9753   53.2128 C   0  0  0  0  0  0  0  0  0  0  0  0
   68.1926   46.1698   51.9134 C   0  0  0  0  0  0  0  0  0  0  0  0
   69.3489   47.1043   51.9150 C   0  0  0  0  0  0  0  0  0  0  0  0
 12 13  1  0
 13 14  2  0
 14 10  1  0
 10 11  2  0
 11  7  1  0
  7  8  2  0
  7  9  1  0
  9  1  1  0
  1  2  2  0
  1  6  1  0
  2  3  1  0
  3  4  2  0
  4  5  1  0
  5 15  1  0
  5  6  2  0
 15 16  1  0
 16 17  2  0
 16 22  1  0
 17 18  1  0
 18 19  1  0
 19 20  2  0
 19 21  1  0
 21 22  2  0
 21 26  1  0
 22 23  1  0
 23 24  1  0
 24 25  1  0
 25 26  1  0
M  END
>  <minimizedAffinity>  (420) 
-9.17111

$$$$
cs_full_output_folder/data/smiles/3086.pdb
     RDKit          3D

 26 28  0  0  0  0  0  0  0  0999 V2000
   70.4178   46.0191   58.1874 C   0  0  0  0  0  0  0  0  0  0  0  0
   69.6471   46.7950   57.3187 C   0  0  0  0  0  0  0  0  0  0  0  0
   69.9292   48.0923   57.0028 C   0  0  0  0  0  0  0  0  0  0  0  0
   71.0752   48.6114   57.6225 C   0  0  0  0  0  0  0  0  0  0  0  0
   71.8545   47.8818   58.4771 C   0  0  0  0  0  0  0  0  0  0  0  0
   71.5191   46.5509   58.7691 C   0  0  0  0  0  0  0  0  0  0  0  0
   72.3509   45.8730   59.6174 F   0  0  0  0  0  0  0  0  0  0  0  0
   69.7317   43.7507   57.4055 N   0  0  0  0  0  0  0  0  0  0  0  0
   69.9795   44.6733   58.4378 C   0  0  0  0  0  0  0  0  0  0  0  0
   69.7954   44.2504   59.6341 O   0  0  0  0  0  0  0  0  0  0  0  0
   69.2839   42.3966   57.7193 C   0  0  0  0  0  0  0  0  0  0  0  0
   67.4559   42.1454   56.2752 C   0  0  0  0  0  0  0  0  0  0  0  0
   67.8400   42.3408   57.6517 N   0  0  0  0  0  0  0  0  0  0  0  0
   67.3002   41.2631   58.4551 C   0  0  0  0  0  0  0  0  0  0  0  0
   69.1549   48.9798   56.1070 C   0  0  0  0  0  0  0  0  0  0  0  0
   69.5235   48.7553   54.6906 C   0  0  0  0  0  0  0  0  0  0  0  0
   70.4536   49.5760   54.1033 N   0  0  0  0  0  0  0  0  0  0  0  0
   70.8135   49.4793   52.8450 N   0  0  0  0  0  0  0  0  0  0  0  0
   70.2948   48.5632   52.0316 C   0  0  0  0  0  0  0  0  0  0  0  0
   70.6719   48.5137   50.8383 O   0  0  0  0  0  0  0  0  0  0  0  0
   69.3640   47.7042   52.5305 C   0  0  0  0  0  0  0  0  0  0  0  0
   68.8131   46.7389   51.7294 C   0  0  0  0  0  0  0  0  0  0  0  0
   67.8890   45.8631   52.2172 C   0  0  0  0  0  0  0  0  0  0  0  0
   67.5006   45.9467   53.5325 C   0  0  0  0  0  0  0  0  0  0  0  0
   68.0491   46.9200   54.3587 C   0  0  0  0  0  0  0  0  0  0  0  0
   68.9818   47.8082   53.8735 C   0  0  0  0  0  0  0  0  0  0  0  0
 12 13  1  0
 13 14  1  0
 13 11  1  0
 11  8  1  0
  8  9  1  0
  9 10  2  0
  9  1  1  0
  1  2  2  0
  1  6  1  0
  2  3  1  0
  3 15  1  0
  3  4  2  0
 15 16  1  0
 16 17  2  0
 16 26  1  0
 17 18  1  0
 18 19  1  0
 19 20  2  0
 19 21  1  0
 21 22  1  0
 21 26  2  0
 22 23  2  0
 23 24  1  0
 24 25  2  0
 25 26  1  0
  4  5  1  0
  5  6  2  0
  6  7  1  0
M  CHG  1  13   1
M  END
>  <minimizedAffinity>  (421) 
-9.17106

$$$$
cs_full_output_folder/data/smiles/7316.pdb
     RDKit          3D

 27 30  0  0  0  0  0  0  0  0999 V2000
   70.9676   46.1221   58.0934 C   0  0  0  0  0  0  0  0  0  0  0  0
   70.0545   46.6754   57.2274 C   0  0  0  0  0  0  0  0  0  0  0  0
   69.7673   48.0374   57.1910 C   0  0  0  0  0  0  0  0  0  0  0  0
   70.4392   48.8358   58.0673 C   0  0  0  0  0  0  0  0  0  0  0  0
   71.3812   48.3288   58.9737 C   0  0  0  0  0  0  0  0  0  0  0  0
   71.6275   46.9741   58.9683 C   0  0  0  0  0  0  0  0  0  0  0  0
   72.5295   46.4340   59.8251 F   0  0  0  0  0  0  0  0  0  0  0  0
   71.9164   40.5750   58.1790 N   0  0  0  0  0  0  0  0  0  0  0  0
   71.6879   41.9722   58.1556 C   0  0  0  0  0  0  0  0  0  0  0  0
   70.4240   42.4593   58.3589 C   0  0  0  0  0  0  0  0  0  0  0  0
   70.2016   43.8234   58.3360 C   0  0  0  0  0  0  0  0  0  0  0  0
   71.2423   44.6936   58.1083 C   0  0  0  0  0  0  0  0  0  0  0  0
   72.4971   44.2048   57.9069 C   0  0  0  0  0  0  0  0  0  0  0  0
   72.7434   42.8334   57.9272 C   0  0  0  0  0  0  0  0  0  0  0  0
   74.0336   42.2780   57.7229 N   0  0  0  0  0  0  0  0  0  0  0  0
   68.7433   48.5378   56.2497 C   0  0  0  0  0  0  0  0  0  0  0  0
   69.2392   48.5156   54.8659 C   0  0  0  0  0  0  0  0  0  0  0  0
   70.1458   49.4994   54.5542 N   0  0  0  0  0  0  0  0  0  0  0  0
   70.5768   49.5499   53.3203 N   0  0  0  0  0  0  0  0  0  0  0  0
   70.1850   48.7054   52.3599 C   0  0  0  0  0  0  0  0  0  0  0  0
   70.6124   48.7719   51.1752 O   0  0  0  0  0  0  0  0  0  0  0  0
   69.2831   47.7147   52.6444 C   0  0  0  0  0  0  0  0  0  0  0  0
   68.8588   46.8124   51.6952 C   0  0  0  0  0  0  0  0  0  0  0  0
   67.9642   45.8288   52.0341 C   0  0  0  0  0  0  0  0  0  0  0  0
   67.4890   45.7401   53.3222 C   0  0  0  0  0  0  0  0  0  0  0  0
   67.9011   46.6439   54.3122 C   0  0  0  0  0  0  0  0  0  0  0  0
   68.7961   47.6211   53.9489 C   0  0  0  0  0  0  0  0  0  0  0  0
  8  9  1  0
  9 10  2  0
  9 14  1  0
 10 11  1  0
 11 12  2  0
 12  1  1  0
 12 13  1  0
  1  2  2  0
  1  6  1  0
  2  3  1  0
  3 16  1  0
  3  4  2  0
 16 17  1  0
 17 18  2  0
 17 27  1  0
 18 19  1  0
 19 20  1  0
 20 21  2  0
 20 22  1  0
 22 23  1  0
 22 27  2  0
 23 24  2  0
 24 25  1  0
 25 26  2  0
 26 27  1  0
  4  5  1  0
  5  6  2  0
  6  7  1  0
 13 14  2  0
 14 15  1  0
M  END
>  <minimizedAffinity>  (422) 
-9.16876

$$$$
cs_full_output_folder/data/smiles/2502.pdb
     RDKit          3D

 28 31  0  0  0  0  0  0  0  0999 V2000
   71.4813   47.3743   58.8607 C   0  0  0  0  0  0  0  0  0  0  0  0
   70.6152   48.1196   58.0481 C   0  0  0  0  0  0  0  0  0  0  0  0
   69.7546   47.5276   57.1605 C   0  0  0  0  0  0  0  0  0  0  0  0
   69.7944   46.1262   57.1173 C   0  0  0  0  0  0  0  0  0  0  0  0
   70.6406   45.3849   57.9112 C   0  0  0  0  0  0  0  0  0  0  0  0
   71.4997   45.9978   58.7980 C   0  0  0  0  0  0  0  0  0  0  0  0
   72.3440   45.2871   59.5920 F   0  0  0  0  0  0  0  0  0  0  0  0
   76.4975   49.6849   57.5264 C   0  0  0  0  0  0  0  0  0  0  0  0
   75.6796   50.3284   58.5485 N   0  0  2  0  0  0  0  0  0  0  0  0
   75.6646   49.5929   59.7795 C   0  0  0  0  0  0  0  0  0  0  0  0
   74.2736   49.5602   60.3521 C   0  0  0  0  0  0  0  0  0  0  0  0
   73.4204   48.9029   59.3831 N   0  0  0  0  0  0  0  0  0  0  0  0
   72.3733   48.0639   59.7846 C   0  0  0  0  0  0  0  0  0  0  0  0
   72.1722   47.8799   61.0083 O   0  0  0  0  0  0  0  0  0  0  0  0
   73.7153   49.1635   58.0257 N   0  0  0  0  0  0  0  0  0  0  0  0
   74.3496   50.4787   57.9655 C   0  0  0  0  0  0  0  0  0  0  0  0
   68.8141   48.2282   56.2489 C   0  0  0  0  0  0  0  0  0  0  0  0
   69.2509   48.3012   54.8583 C   0  0  0  0  0  0  0  0  0  0  0  0
   70.1540   49.2570   54.5164 N   0  0  0  0  0  0  0  0  0  0  0  0
   70.5803   49.4358   53.2861 N   0  0  0  0  0  0  0  0  0  0  0  0
   70.1328   48.6645   52.2851 C   0  0  0  0  0  0  0  0  0  0  0  0
   70.5398   48.8349   51.1066 O   0  0  0  0  0  0  0  0  0  0  0  0
   69.2128   47.6607   52.5204 C   0  0  0  0  0  0  0  0  0  0  0  0
   68.7506   46.8499   51.5041 C   0  0  0  0  0  0  0  0  0  0  0  0
   67.8365   45.8501   51.8090 C   0  0  0  0  0  0  0  0  0  0  0  0
   67.4260   45.7048   53.1126 C   0  0  0  0  0  0  0  0  0  0  0  0
   67.8761   46.5037   54.1380 C   0  0  0  0  0  0  0  0  0  0  0  0
   68.7866   47.5037   53.8425 C   0  0  0  0  0  0  0  0  0  0  0  0
  9  8  1  6
  9 10  1  0
  9 16  1  0
 10 11  1  0
 11 12  1  0
 12 13  1  0
 12 15  1  0
 13 14  2  0
 13  1  1  0
  1  2  2  0
  1  6  1  0
  2  3  1  0
  3 17  1  0
  3  4  2  0
 17 18  1  0
 18 19  2  0
 18 28  1  0
 19 20  1  0
 20 21  1  0
 21 22  2  0
 21 23  1  0
 23 24  1  0
 23 28  2  0
 24 25  2  0
 25 26  1  0
 26 27  2  0
 27 28  1  0
  4  5  1  0
  5  6  2  0
  6  7  1  0
 15 16  1  0
M  CHG  1   9   1
M  END
>  <minimizedAffinity>  (423) 
-9.16786

$$$$
cs_full_output_folder/data/smiles/3646.pdb
     RDKit          3D

 25 26  0  0  0  0  0  0  0  0999 V2000
   70.1368   46.1224   57.4814 C   0  0  0  0  0  0  0  0  0  0  0  0
   71.1769   47.1516   58.2555 S   0  0  0  0  0  0  0  0  0  0  0  0
   70.1040   43.8567   58.5988 C   0  0  0  0  0  0  0  0  0  0  0  0
   69.5139   44.2987   59.6056 O   0  0  0  0  0  0  0  0  0  0  0  0
   70.4145   44.7489   57.5512 N   0  0  0  0  0  0  0  0  0  0  0  0
   70.9288   39.6305   58.5045 C   0  0  0  0  0  0  0  0  0  0  0  0
   71.9539   40.5520   58.4883 C   0  0  0  0  0  0  0  0  0  0  0  0
   71.7086   41.9262   58.5219 C   0  0  0  0  0  0  0  0  0  0  0  0
   70.4306   42.4329   58.5743 C   0  0  0  0  0  0  0  0  0  0  0  0
   69.4110   41.4759   58.5903 C   0  0  0  0  0  0  0  0  0  0  0  0
   69.6421   40.1206   58.5567 C   0  0  0  0  0  0  0  0  0  0  0  0
   70.5421   37.4419   59.6253 C   0  0  0  0  0  0  0  0  0  0  0  0
   71.2392   38.1869   58.4743 C   0  0  0  0  0  0  0  0  0  0  0  0
   72.6941   37.9326   58.6108 C   0  0  0  0  0  0  0  0  0  0  0  0
   69.0587   46.7161   56.8266 N   0  0  0  0  0  0  0  0  0  0  0  0
   68.2697   46.0537   55.8731 N   0  0  0  0  0  0  0  0  0  0  0  0
   68.3927   46.3782   54.4731 C   0  0  0  0  0  0  0  0  0  0  0  0
   67.6833   45.6641   53.5316 C   0  0  0  0  0  0  0  0  0  0  0  0
   67.8148   45.9544   52.1711 C   0  0  0  0  0  0  0  0  0  0  0  0
   68.6660   46.9660   51.8254 C   0  0  0  0  0  0  0  0  0  0  0  0
   69.3833   47.6933   52.7373 C   0  0  0  0  0  0  0  0  0  0  0  0
   69.2361   47.3868   54.0685 C   0  0  0  0  0  0  0  0  0  0  0  0
   70.2521   48.7320   52.2886 N   0  0  0  0  0  0  0  0  0  0  0  0
   69.9093   49.4436   51.3103 O   0  0  0  0  0  0  0  0  0  0  0  0
   71.4371   48.9430   52.9242 O   0  0  0  0  0  0  0  0  0  0  0  0
 12 13  1  0
 13 14  1  0
 13  6  1  0
  6  7  2  0
  6 11  1  0
  7  8  1  0
  8  9  2  0
  9  3  1  0
  9 10  1  0
  3  4  2  0
  3  5  1  0
  5  1  1  0
  1  2  2  0
  1 15  1  0
 15 16  1  0
 16 17  1  0
 17 18  2  0
 17 22  1  0
 18 19  1  0
 19 20  2  0
 20 21  1  0
 21 23  1  0
 21 22  2  0
 23 24  2  0
 23 25  1  0
 10 11  2  0
M  CHG  2  23   1  25  -1
M  END
>  <minimizedAffinity>  (424) 
-9.16738

$$$$
cs_full_output_folder/data/smiles/7439.pdb
     RDKit          3D

 28 31  0  0  0  0  0  0  0  0999 V2000
   71.2681   46.4621   58.4175 C   0  0  0  0  0  0  0  0  0  0  0  0
   70.2427   46.9115   57.5667 C   0  0  0  0  0  0  0  0  0  0  0  0
   69.8346   48.2109   57.5670 C   0  0  0  0  0  0  0  0  0  0  0  0
   70.4073   49.1701   58.4110 C   0  0  0  0  0  0  0  0  0  0  0  0
   71.4042   48.7473   59.2429 C   0  0  0  0  0  0  0  0  0  0  0  0
   71.8262   47.4030   59.2407 C   0  0  0  0  0  0  0  0  0  0  0  0
   72.8342   47.0415   60.0722 F   0  0  0  0  0  0  0  0  0  0  0  0
   71.4301   41.3220   58.3689 C   0  0  0  0  0  0  0  0  0  0  0  0
   71.8824   42.7441   58.2973 C   0  0  0  0  0  0  0  0  0  0  0  0
   73.0944   43.2000   58.0697 C   0  0  0  0  0  0  0  0  0  0  0  0
   74.3221   42.4028   57.8246 C   0  0  0  0  0  0  0  0  0  0  0  0
   73.0410   44.6671   58.0955 C   0  0  0  0  0  0  0  0  0  0  0  0
   74.0462   45.3907   57.9119 O   0  0  0  0  0  0  0  0  0  0  0  0
   71.7011   45.1113   58.3588 N   0  0  0  0  0  0  0  0  0  0  0  0
   70.9716   43.8933   58.4853 C   0  0  0  0  0  0  0  0  0  0  0  0
   69.7463   43.7579   58.7171 O   0  0  0  0  0  0  0  0  0  0  0  0
   68.7452   48.6732   56.6403 C   0  0  0  0  0  0  0  0  0  0  0  0
   68.5343   47.6708   55.6266 C   0  0  0  0  0  0  0  0  0  0  0  0
   68.0461   46.4665   56.0191 N   0  0  0  0  0  0  0  0  0  0  0  0
   67.7644   45.4877   55.1835 N   0  0  0  0  0  0  0  0  0  0  0  0
   67.9610   45.6685   53.8657 C   0  0  0  0  0  0  0  0  0  0  0  0
   67.7005   44.7532   53.0414 O   0  0  0  0  0  0  0  0  0  0  0  0
   68.4512   46.8484   53.3693 C   0  0  0  0  0  0  0  0  0  0  0  0
   68.7395   47.8645   54.2969 C   0  0  0  0  0  0  0  0  0  0  0  0
   69.3039   49.1050   53.7804 C   0  0  0  0  0  0  0  0  0  0  0  0
   70.3552   48.8356   52.7181 C   0  0  0  0  0  0  0  0  0  0  0  0
   70.0124   47.7899   51.7325 C   0  0  0  0  0  0  0  0  0  0  0  0
   68.6825   47.1325   51.9550 C   0  0  0  0  0  0  0  0  0  0  0  0
  8  9  1  0
  9 10  2  0
  9 15  1  0
 10 11  1  0
 10 12  1  0
 12 13  2  0
 12 14  1  0
 14  1  1  0
 14 15  1  0
  1  2  2  0
  1  6  1  0
  2  3  1  0
  3 17  1  0
  3  4  2  0
 17 18  1  0
 18 19  2  0
 18 24  1  0
 19 20  1  0
 20 21  1  0
 21 22  2  0
 21 23  1  0
 23 24  2  0
 23 28  1  0
 24 25  1  0
 25 26  1  0
 26 27  1  0
 27 28  1  0
  4  5  1  0
  5  6  2  0
  6  7  1  0
 15 16  2  0
M  END
>  <minimizedAffinity>  (425) 
-9.16696

$$$$
cs_full_output_folder/data/smiles/833.pdb
     RDKit          3D

 28 29  0  0  0  0  0  0  0  0999 V2000
   68.0247   40.6139   58.0079 C   0  0  0  0  0  0  0  0  0  0  0  0
   67.1488   41.0411   58.7679 O   0  0  0  0  0  0  0  0  0  0  0  0
   68.1665   41.2232   56.7427 N   0  0  0  0  0  0  0  0  0  0  0  0
   70.5454   37.3842   59.3784 C   0  0  0  0  0  0  0  0  0  0  0  0
   69.2503   37.5193   59.8188 C   0  0  0  0  0  0  0  0  0  0  0  0
   68.4154   38.5538   59.3860 C   0  0  0  0  0  0  0  0  0  0  0  0
   68.8491   39.4957   58.4911 C   0  0  0  0  0  0  0  0  0  0  0  0
   70.1596   39.3569   58.0453 C   0  0  0  0  0  0  0  0  0  0  0  0
   70.9820   38.3383   58.4726 C   0  0  0  0  0  0  0  0  0  0  0  0
   71.4381   36.2857   59.8391 C   0  0  0  0  0  0  0  0  0  0  0  0
   70.5976   35.3719   60.7311 C   0  0  0  0  0  0  0  0  0  0  0  0
   72.5977   36.7701   60.6374 C   0  0  0  0  0  0  0  0  0  0  0  0
   73.2952   35.4123   58.3969 C   0  0  0  0  0  0  0  0  0  0  0  0
   71.8283   35.4410   58.6387 C   0  0  0  0  0  0  0  0  0  0  0  0
   67.4827   42.2575   56.1512 C   0  0  0  0  0  0  0  0  0  0  0  0
   66.0875   41.7881   55.3302 S   0  0  0  0  0  0  0  0  0  0  0  0
   67.7189   43.6266   56.1204 N   0  0  0  0  0  0  0  0  0  0  0  0
   68.0831   44.4610   55.0671 N   0  0  0  0  0  0  0  0  0  0  0  0
   68.3237   45.8515   55.2318 C   0  0  0  0  0  0  0  0  0  0  0  0
   68.2076   46.3748   56.3846 O   0  0  0  0  0  0  0  0  0  0  0  0
   68.7088   46.7426   54.1336 C   0  0  0  0  0  0  0  0  0  0  0  0
   68.6038   46.3474   52.8165 C   0  0  0  0  0  0  0  0  0  0  0  0
   68.9611   47.1720   51.7688 C   0  0  0  0  0  0  0  0  0  0  0  0
   69.4403   48.4357   52.0263 C   0  0  0  0  0  0  0  0  0  0  0  0
   69.5591   48.8688   53.3476 C   0  0  0  0  0  0  0  0  0  0  0  0
   69.1908   48.0103   54.3761 C   0  0  0  0  0  0  0  0  0  0  0  0
   70.0607   50.1970   53.6573 C   0  0  0  0  0  0  0  0  0  0  0  0
   70.2570   51.0467   52.7604 O   0  0  0  0  0  0  0  0  0  0  0  0
 13 14  1  0
 14 10  1  0
 10 11  1  0
 10 12  1  0
 10  4  1  0
  4  5  2  0
  4  9  1  0
  5  6  1  0
  6  7  2  0
  7  1  1  0
  7  8  1  0
  1  2  2  0
  1  3  1  0
  3 15  1  0
 15 16  2  0
 15 17  1  0
 17 18  1  0
 18 19  1  0
 19 20  2  0
 19 21  1  0
 21 22  2  0
 21 26  1  0
 22 23  1  0
 23 24  2  0
 24 25  1  0
 25 27  1  0
 25 26  2  0
 27 28  2  0
  8  9  2  0
M  END
>  <minimizedAffinity>  (426) 
-9.16136

$$$$
cs_full_output_folder/data/smiles/3531.pdb
     RDKit          3D

 26 28  0  0  0  0  0  0  0  0999 V2000
   70.2963   41.8712   59.0319 C   0  0  0  0  0  0  0  0  0  0  0  0
   69.3326   41.5305   57.9572 C   0  0  0  0  0  0  0  0  0  0  0  0
   68.8726   42.4409   57.0284 C   0  0  0  0  0  0  0  0  0  0  0  0
   68.0036   41.7019   56.2247 C   0  0  0  0  0  0  0  0  0  0  0  0
   67.9868   40.4400   56.6921 N   0  0  0  0  0  0  0  0  0  0  0  0
   68.7788   40.3165   57.7316 N   0  0  0  0  0  0  0  0  0  0  0  0
   69.0588   39.1771   58.5220 C   0  0  0  0  0  0  0  0  0  0  0  0
   70.2575   38.5042   58.4851 C   0  0  0  0  0  0  0  0  0  0  0  0
   70.5146   37.3935   59.2647 C   0  0  0  0  0  0  0  0  0  0  0  0
   69.5290   36.9450   60.1137 C   0  0  0  0  0  0  0  0  0  0  0  0
   69.8373   35.5315   61.1176 Cl  0  0  0  0  0  0  0  0  0  0  0  0
   68.3362   37.6033   60.1605 C   0  0  0  0  0  0  0  0  0  0  0  0
   68.0874   38.7169   59.3735 C   0  0  0  0  0  0  0  0  0  0  0  0
   69.1981   43.8570   56.8875 C   0  0  0  0  0  0  0  0  0  0  0  0
   70.2363   44.3434   57.3918 O   0  0  0  0  0  0  0  0  0  0  0  0
   68.3311   44.7089   56.1689 N   0  0  0  0  0  0  0  0  0  0  0  0
   68.5057   46.1176   55.9426 C   0  0  0  0  0  0  0  0  0  0  0  0
   68.5298   46.3694   54.4887 C   0  0  0  0  0  0  0  0  0  0  0  0
   67.7939   45.6145   53.6176 C   0  0  0  0  0  0  0  0  0  0  0  0
   67.8231   45.8457   52.2361 C   0  0  0  0  0  0  0  0  0  0  0  0
   68.6277   46.8724   51.7634 C   0  0  0  0  0  0  0  0  0  0  0  0
   69.3730   47.6402   52.6180 C   0  0  0  0  0  0  0  0  0  0  0  0
   69.3166   47.3821   53.9644 C   0  0  0  0  0  0  0  0  0  0  0  0
   70.1985   48.7016   52.0865 C   0  0  0  0  0  0  0  0  0  0  0  0
   71.3350   48.9907   52.5672 O   0  0  0  0  0  0  0  0  0  0  0  0
   69.7874   49.4784   51.0015 O   0  0  0  0  0  0  0  0  0  0  0  0
  1  2  1  0
  2  3  2  0
  2  6  1  0
  3 14  1  0
  3  4  1  0
 14 15  2  0
 14 16  1  0
 16 17  1  0
 17 18  1  0
 18 19  2  0
 18 23  1  0
 19 20  1  0
 20 21  2  0
 21 22  1  0
 22 24  1  0
 22 23  2  0
 24 25  2  0
 24 26  1  0
  4  5  2  0
  5  6  1  0
  6  7  1  0
  7  8  2  0
  7 13  1  0
  8  9  1  0
  9 10  2  0
 10 11  1  0
 10 12  1  0
 12 13  2  0
M  END
>  <minimizedAffinity>  (427) 
-9.16106

$$$$
cs_full_output_folder/data/smiles/2189.pdb
     RDKit          3D

 29 32  0  0  0  0  0  0  0  0999 V2000
   71.5691   47.3076   58.8866 C   0  0  0  0  0  0  0  0  0  0  0  0
   70.7266   48.0167   58.0767 C   0  0  0  0  0  0  0  0  0  0  0  0
   69.8518   47.4128   57.1665 C   0  0  0  0  0  0  0  0  0  0  0  0
   69.8639   46.0526   57.1102 C   0  0  0  0  0  0  0  0  0  0  0  0
   70.7048   45.2794   57.9152 C   0  0  0  0  0  0  0  0  0  0  0  0
   71.5400   45.9130   58.7855 C   0  0  0  0  0  0  0  0  0  0  0  0
   72.3667   45.1850   59.5791 F   0  0  0  0  0  0  0  0  0  0  0  0
   76.0465   48.8921   59.4681 C   0  0  1  0  0  0  0  0  0  0  0  0
   77.0216   48.2429   60.1699 F   0  0  0  0  0  0  0  0  0  0  0  0
   75.6489   47.9873   58.2946 C   0  0  0  0  0  0  0  0  0  0  0  0
   74.2217   48.4966   58.0490 C   0  0  0  0  0  0  0  0  0  0  0  0
   73.7224   48.4553   59.4226 N   0  0  0  0  0  0  0  0  0  0  0  0
   72.4863   47.9064   59.8418 C   0  0  0  0  0  0  0  0  0  0  0  0
   72.1785   47.9372   61.0535 O   0  0  0  0  0  0  0  0  0  0  0  0
   74.7583   49.0825   60.2085 C   0  0  0  0  0  0  0  0  0  0  0  0
   78.0764   50.2494   58.8340 C   0  0  0  0  0  0  0  0  0  0  0  0
   76.5913   50.1482   58.8486 C   0  0  0  0  0  0  0  0  0  0  0  0
   68.9381   48.2176   56.3449 C   0  0  0  0  0  0  0  0  0  0  0  0
   69.3521   48.3178   54.9249 C   0  0  0  0  0  0  0  0  0  0  0  0
   70.3136   49.2580   54.6322 N   0  0  0  0  0  0  0  0  0  0  0  0
   70.7321   49.3471   53.4107 N   0  0  0  0  0  0  0  0  0  0  0  0
   70.2941   48.5870   52.4022 C   0  0  0  0  0  0  0  0  0  0  0  0
   70.7299   48.7098   51.2346 O   0  0  0  0  0  0  0  0  0  0  0  0
   69.3240   47.6264   52.6452 C   0  0  0  0  0  0  0  0  0  0  0  0
   68.8334   46.8299   51.6510 C   0  0  0  0  0  0  0  0  0  0  0  0
   67.8660   45.9035   51.9457 C   0  0  0  0  0  0  0  0  0  0  0  0
   67.3728   45.7532   53.2172 C   0  0  0  0  0  0  0  0  0  0  0  0
   67.8746   46.5653   54.2267 C   0  0  0  0  0  0  0  0  0  0  0  0
   68.8474   47.4994   53.9474 C   0  0  0  0  0  0  0  0  0  0  0  0
 16 17  1  0
 17  8  1  0
  8  9  1  1
  8 10  1  0
  8 15  1  0
 10 11  1  0
 11 12  1  0
 12 13  1  0
 12 15  1  0
 13 14  2  0
 13  1  1  0
  1  2  2  0
  1  6  1  0
  2  3  1  0
  3 18  1  0
  3  4  2  0
 18 19  1  0
 19 20  2  0
 19 29  1  0
 20 21  1  0
 21 22  1  0
 22 23  2  0
 22 24  1  0
 24 25  1  0
 24 29  2  0
 25 26  2  0
 26 27  1  0
 27 28  2  0
 28 29  1  0
  4  5  1  0
  5  6  2  0
  6  7  1  0
M  END
>  <minimizedAffinity>  (428) 
-9.16029

$$$$
cs_full_output_folder/data/smiles/4675.pdb
     RDKit          3D

 27 30  0  0  0  0  0  0  0  0999 V2000
   69.7261   47.4366   57.3858 C   0  0  0  0  0  0  0  0  0  0  0  0
   70.5609   48.2331   58.1060 C   0  0  0  0  0  0  0  0  0  0  0  0
   71.5744   47.6646   58.8690 C   0  0  0  0  0  0  0  0  0  0  0  0
   71.7430   46.3061   58.9046 C   0  0  0  0  0  0  0  0  0  0  0  0
   70.9104   45.4785   58.1835 C   0  0  0  0  0  0  0  0  0  0  0  0
   69.9076   46.0706   57.4313 C   0  0  0  0  0  0  0  0  0  0  0  0
   68.6516   48.0108   56.5548 C   0  0  0  0  0  0  0  0  0  0  0  0
   70.0230   49.5081   51.2928 N   0  0  0  0  0  0  0  0  0  0  0  0
   69.6660   49.0509   52.5988 C   0  0  0  0  0  0  0  0  0  0  0  0
   69.7750   49.9124   53.6272 N   0  0  0  0  0  0  0  0  0  0  0  0
   69.4637   49.5662   54.8647 N   0  0  0  0  0  0  0  0  0  0  0  0
   69.0124   48.3139   55.1751 C   0  0  0  0  0  0  0  0  0  0  0  0
   68.8876   47.4118   54.1771 C   0  0  0  0  0  0  0  0  0  0  0  0
   69.2185   47.7866   52.8654 C   0  0  0  0  0  0  0  0  0  0  0  0
   69.0745   46.8119   51.7550 C   0  0  0  0  0  0  0  0  0  0  0  0
   67.8143   45.9986   51.8728 C   0  0  0  0  0  0  0  0  0  0  0  0
   67.3598   45.7877   53.2851 C   0  0  0  0  0  0  0  0  0  0  0  0
   68.4585   46.0152   54.2977 C   0  0  0  0  0  0  0  0  0  0  0  0
   71.1159   44.0760   58.2439 N   0  0  0  0  0  0  0  0  0  0  0  0
   70.0666   43.0434   59.1324 S   0  0  0  0  0  0  0  0  0  0  0  0
   69.1522   43.8399   59.9859 O   0  0  0  0  0  0  0  0  0  0  0  0
   70.8318   42.1025   60.0160 O   0  0  0  0  0  0  0  0  0  0  0  0
   69.0685   42.1134   58.0049 C   0  0  0  0  0  0  0  0  0  0  0  0
   68.4557   42.5546   56.9325 C   0  0  0  0  0  0  0  0  0  0  0  0
   67.7211   41.4568   56.2568 C   0  0  0  0  0  0  0  0  0  0  0  0
   68.0267   40.2931   57.1423 C   0  0  0  0  0  0  0  0  0  0  0  0
   68.7987   40.6899   58.1370 C   0  0  0  0  0  0  0  0  0  0  0  0
  8  9  1  0
  9 10  2  0
  9 14  1  0
 10 11  1  0
 11 12  2  0
 12  7  1  0
 12 13  1  0
  7  1  1  0
  1  2  2  0
  1  6  1  0
  2  3  1  0
  3  4  2  0
  4  5  1  0
  5 19  1  0
  5  6  2  0
 19 20  1  0
 20 21  2  0
 20 22  2  0
 20 23  1  0
 23 24  2  0
 23 27  1  0
 24 25  1  0
 25 26  1  0
 26 27  2  0
 13 14  2  0
 13 18  1  0
 14 15  1  0
 15 16  1  0
 16 17  1  0
 17 18  1  0
M  END
>  <minimizedAffinity>  (429) 
-9.15832

$$$$
cs_full_output_folder/data/smiles/5097.pdb
     RDKit          3D

 25 27  0  0  0  0  0  0  0  0999 V2000
   68.4429   44.5490   56.0511 N   0  0  0  0  0  0  0  0  0  0  0  0
   69.0676   43.7744   57.0517 C   0  0  0  0  0  0  0  0  0  0  0  0
   69.8342   44.3349   57.8658 O   0  0  0  0  0  0  0  0  0  0  0  0
   68.8429   42.3413   57.1613 C   0  0  0  0  0  0  0  0  0  0  0  0
   67.9070   41.5518   56.5256 C   0  0  0  0  0  0  0  0  0  0  0  0
   68.0901   40.2893   56.9493 N   0  0  0  0  0  0  0  0  0  0  0  0
   69.0863   40.2146   57.8165 N   0  0  0  0  0  0  0  0  0  0  0  0
   69.5543   41.4701   57.9525 C   0  0  0  0  0  0  0  0  0  0  0  0
   69.5729   39.0328   58.4822 C   0  0  0  0  0  0  0  0  0  0  0  0
   68.8603   38.3419   59.4203 C   0  0  0  0  0  0  0  0  0  0  0  0
   69.4208   37.2098   60.0079 C   0  0  0  0  0  0  0  0  0  0  0  0
   70.6776   36.7477   59.6821 C   0  0  0  0  0  0  0  0  0  0  0  0
   71.3341   35.3110   60.4550 Cl  0  0  0  0  0  0  0  0  0  0  0  0
   71.3918   37.4500   58.7321 C   0  0  0  0  0  0  0  0  0  0  0  0
   70.8322   38.5781   58.1486 C   0  0  0  0  0  0  0  0  0  0  0  0
   68.5901   45.9553   55.8538 C   0  0  0  0  0  0  0  0  0  0  0  0
   69.1426   47.7296   52.5314 C   0  0  0  0  0  0  0  0  0  0  0  0
   68.4212   46.9030   51.7026 C   0  0  0  0  0  0  0  0  0  0  0  0
   67.7609   45.7931   52.1846 C   0  0  0  0  0  0  0  0  0  0  0  0
   67.8296   45.5114   53.5251 C   0  0  0  0  0  0  0  0  0  0  0  0
   68.5488   46.3170   54.4148 C   0  0  0  0  0  0  0  0  0  0  0  0
   69.1910   47.4131   53.8867 C   0  0  0  0  0  0  0  0  0  0  0  0
   69.7777   50.1667   52.8010 C   0  0  0  0  0  0  0  0  0  0  0  0
   69.8446   48.9108   52.0108 C   0  0  0  0  0  0  0  0  0  0  0  0
   70.4866   48.8757   50.9323 O   0  0  0  0  0  0  0  0  0  0  0  0
 23 24  1  0
 24 25  2  0
 24 17  1  0
 17 18  2  0
 17 22  1  0
 18 19  1  0
 19 20  2  0
 20 21  1  0
 21 16  1  0
 21 22  2  0
 16  1  1  0
  1  2  1  0
  2  3  2  0
  2  4  1  0
  4  5  1  0
  4  8  2  0
  5  6  2  0
  6  7  1  0
  7  9  1  0
  7  8  1  0
  9 10  2  0
  9 15  1  0
 10 11  1  0
 11 12  2  0
 12 13  1  0
 12 14  1  0
 14 15  2  0
M  END
>  <minimizedAffinity>  (430) 
-9.15831

$$$$
cs_full_output_folder/data/smiles/4130.pdb
     RDKit          3D

 29 32  0  0  0  0  0  0  0  0999 V2000
   71.4238   47.1058   58.7795 C   0  0  0  0  0  0  0  0  0  0  0  0
   70.4852   47.7221   57.9939 C   0  0  0  0  0  0  0  0  0  0  0  0
   69.6010   47.0349   57.1465 C   0  0  0  0  0  0  0  0  0  0  0  0
   69.6823   45.6681   57.1052 C   0  0  0  0  0  0  0  0  0  0  0  0
   70.6314   45.0331   57.8995 C   0  0  0  0  0  0  0  0  0  0  0  0
   71.4907   45.7287   58.7243 C   0  0  0  0  0  0  0  0  0  0  0  0
   72.4114   45.0864   59.4928 F   0  0  0  0  0  0  0  0  0  0  0  0
   75.4046   49.8127   58.7937 C   0  0  1  0  0  0  0  0  0  0  0  0
   75.2301   48.8466   57.6725 C   0  0  0  0  0  0  0  0  0  0  0  0
   73.7015   48.6929   57.6228 C   0  0  0  0  0  0  0  0  0  0  0  0
   73.3844   48.6084   59.0558 N   0  0  0  0  0  0  0  0  0  0  0  0
   72.3275   47.8802   59.6545 C   0  0  0  0  0  0  0  0  0  0  0  0
   72.1720   47.8968   60.8939 O   0  0  0  0  0  0  0  0  0  0  0  0
   74.3466   49.4032   59.7892 C   0  0  0  0  0  0  0  0  0  0  0  0
   76.7896   49.7606   59.4029 C   0  0  0  0  0  0  0  0  0  0  0  0
   78.8518   50.8863   58.7609 C   0  0  0  0  0  0  0  0  0  0  0  0
   77.8541   50.0735   58.4364 C   0  0  0  0  0  0  0  0  0  0  0  0
   68.6314   47.8003   56.3116 C   0  0  0  0  0  0  0  0  0  0  0  0
   69.0920   48.0240   54.9238 C   0  0  0  0  0  0  0  0  0  0  0  0
   69.9650   49.0464   54.7010 N   0  0  0  0  0  0  0  0  0  0  0  0
   70.3974   49.3571   53.5010 N   0  0  0  0  0  0  0  0  0  0  0  0
   69.9911   48.6703   52.4340 C   0  0  0  0  0  0  0  0  0  0  0  0
   70.4160   48.9801   51.2703 O   0  0  0  0  0  0  0  0  0  0  0  0
   69.1098   47.6251   52.5915 C   0  0  0  0  0  0  0  0  0  0  0  0
   68.7002   46.9034   51.4660 C   0  0  0  0  0  0  0  0  0  0  0  0
   67.8330   45.8523   51.6205 C   0  0  0  0  0  0  0  0  0  0  0  0
   67.3947   45.5467   52.9019 C   0  0  0  0  0  0  0  0  0  0  0  0
   67.7991   46.2569   54.0052 C   0  0  0  0  0  0  0  0  0  0  0  0
   68.6627   47.3068   53.8547 C   0  0  0  0  0  0  0  0  0  0  0  0
 16 17  2  0
 17 15  1  0
  8 15  1  1
  8  9  1  0
  8 14  1  0
  9 10  1  0
 10 11  1  0
 11 12  1  0
 11 14  1  0
 12 13  2  0
 12  1  1  0
  1  2  2  0
  1  6  1  0
  2  3  1  0
  3 18  1  0
  3  4  2  0
 18 19  1  0
 19 20  2  0
 19 29  1  0
 20 21  1  0
 21 22  1  0
 22 23  2  0
 22 24  1  0
 24 25  1  0
 24 29  2  0
 25 26  2  0
 26 27  1  0
 27 28  2  0
 28 29  1  0
  4  5  1  0
  5  6  2  0
  6  7  1  0
M  END
>  <minimizedAffinity>  (431) 
-9.15770

$$$$
cs_full_output_folder/data/smiles/785.pdb
     RDKit          3D

 26 28  0  0  0  0  0  0  0  0999 V2000
   69.3674   46.2667   57.3251 N   0  0  0  0  0  0  0  0  0  0  0  0
   69.1259   47.1418   56.4700 C   0  0  0  0  0  0  0  0  0  0  0  0
   68.8481   46.9816   55.0633 C   0  0  0  0  0  0  0  0  0  0  0  0
   69.2965   47.9015   54.1132 C   0  0  0  0  0  0  0  0  0  0  0  0
   69.0410   47.7626   52.7727 C   0  0  0  0  0  0  0  0  0  0  0  0
   68.3219   46.6991   52.2893 C   0  0  0  0  0  0  0  0  0  0  0  0
   68.0621   46.5546   50.9480 F   0  0  0  0  0  0  0  0  0  0  0  0
   67.8679   45.7775   53.2051 C   0  0  0  0  0  0  0  0  0  0  0  0
   68.1315   45.9233   54.5764 C   0  0  0  0  0  0  0  0  0  0  0  0
   69.1233   48.5383   56.9681 C   0  0  0  0  0  0  0  0  0  0  0  0
   68.0545   49.3384   57.2335 C   0  0  0  0  0  0  0  0  0  0  0  0
   68.2592   50.5796   57.6795 C   0  0  0  0  0  0  0  0  0  0  0  0
   69.5801   50.9761   57.8458 C   0  0  0  0  0  0  0  0  0  0  0  0
   70.5002   49.5291   57.3467 S   0  0  0  0  0  0  0  0  0  0  0  0
   70.4357   44.7408   59.4201 O   0  0  0  0  0  0  0  0  0  0  0  0
   70.0047   44.1495   58.3626 C   0  0  0  0  0  0  0  0  0  0  0  0
   69.4624   44.9072   57.2957 N   0  0  0  0  0  0  0  0  0  0  0  0
   70.0830   42.7011   58.2816 C   0  0  0  0  0  0  0  0  0  0  0  0
   71.2042   42.0358   58.7961 C   0  0  0  0  0  0  0  0  0  0  0  0
   71.3346   40.6679   58.7478 C   0  0  0  0  0  0  0  0  0  0  0  0
   70.3544   39.8866   58.1830 C   0  0  0  0  0  0  0  0  0  0  0  0
   69.2389   40.5057   57.6676 C   0  0  0  0  0  0  0  0  0  0  0  0
   69.1190   41.9042   57.7233 C   0  0  0  0  0  0  0  0  0  0  0  0
   68.2149   39.7200   57.0804 N   0  0  0  0  0  0  0  0  0  0  0  0
   67.6915   38.7684   57.6895 O   0  0  0  0  0  0  0  0  0  0  0  0
   67.7976   40.0249   55.8116 O   0  0  0  0  0  0  0  0  0  0  0  0
 15 16  2  0
 16 17  1  0
 16 18  1  0
 17  1  1  0
  1  2  2  0
  2  3  1  0
  2 10  1  0
  3  4  2  0
  3  9  1  0
  4  5  1  0
  5  6  2  0
  6  7  1  0
  6  8  1  0
  8  9  2  0
 10 11  2  0
 10 14  1  0
 11 12  1  0
 12 13  2  0
 13 14  1  0
 18 19  2  0
 18 23  1  0
 19 20  1  0
 20 21  2  0
 21 22  1  0
 22 24  1  0
 22 23  2  0
 24 25  2  0
 24 26  1  0
M  CHG  2  24   1  26  -1
M  END
>  <minimizedAffinity>  (432) 
-9.15727

$$$$
cs_full_output_folder/data/smiles/1927.pdb
     RDKit          3D

 26 27  0  0  0  0  0  0  0  0999 V2000
   69.4943   44.1076   57.1482 C   0  0  0  0  0  0  0  0  0  0  0  0
   68.4588   44.0458   56.4449 O   0  0  0  0  0  0  0  0  0  0  0  0
   70.0346   45.3575   57.4350 N   0  0  0  0  0  0  0  0  0  0  0  0
   71.0657   40.3446   58.5469 C   0  0  0  0  0  0  0  0  0  0  0  0
   71.9069   41.3898   58.2551 C   0  0  0  0  0  0  0  0  0  0  0  0
   71.4063   42.6257   57.7970 C   0  0  0  0  0  0  0  0  0  0  0  0
   70.0725   42.8263   57.6271 C   0  0  0  0  0  0  0  0  0  0  0  0
   69.2333   41.7644   57.9254 C   0  0  0  0  0  0  0  0  0  0  0  0
   69.7164   40.5547   58.3724 C   0  0  0  0  0  0  0  0  0  0  0  0
   70.8486   38.6888   60.3009 C   0  0  0  0  0  0  0  0  0  0  0  0
   71.5841   39.0232   59.0347 C   0  0  0  0  0  0  0  0  0  0  0  0
   71.3812   37.9535   57.9863 C   0  0  0  0  0  0  0  0  0  0  0  0
   73.0590   39.1033   59.3699 C   0  0  0  0  0  0  0  0  0  0  0  0
   69.6255   46.6674   57.0690 C   0  0  0  0  0  0  0  0  0  0  0  0
   70.4853   47.8960   57.8038 S   0  0  0  0  0  0  0  0  0  0  0  0
   68.5782   46.9994   56.1573 C   0  0  0  0  0  0  0  0  0  0  0  0
   67.4160   47.3252   56.6117 O   0  0  0  0  0  0  0  0  0  0  0  0
   68.6465   47.0226   54.6878 C   0  0  0  0  0  0  0  0  0  0  0  0
   68.0023   46.0070   53.9659 C   0  0  0  0  0  0  0  0  0  0  0  0
   67.9961   45.9232   52.6049 C   0  0  0  0  0  0  0  0  0  0  0  0
   68.6513   46.8747   51.8734 C   0  0  0  0  0  0  0  0  0  0  0  0
   69.2926   47.8835   52.5333 C   0  0  0  0  0  0  0  0  0  0  0  0
   69.2886   47.9534   53.9325 C   0  0  0  0  0  0  0  0  0  0  0  0
   69.9911   48.9017   51.8011 N   0  0  0  0  0  0  0  0  0  0  0  0
   69.9186   50.0880   52.1224 O   0  0  0  0  0  0  0  0  0  0  0  0
   70.7441   48.5226   50.7301 O   0  0  0  0  0  0  0  0  0  0  0  0
 10 11  1  0
 11 12  1  0
 11 13  1  0
 11  4  1  0
  4  5  2  0
  4  9  1  0
  5  6  1  0
  6  7  2  0
  7  1  1  0
  7  8  1  0
  1  2  2  0
  1  3  1  0
  3 14  1  0
 14 15  2  0
 14 16  1  0
 16 17  2  0
 16 18  1  0
 18 19  2  0
 18 23  1  0
 19 20  1  0
 20 21  2  0
 21 22  1  0
 22 24  1  0
 22 23  2  0
 24 25  2  0
 24 26  1  0
  8  9  2  0
M  CHG  2  24   1  26  -1
M  END
>  <minimizedAffinity>  (433) 
-9.15714

$$$$
cs_full_output_folder/data/smiles/5846.pdb
     RDKit          3D

 28 31  0  0  0  0  0  0  0  0999 V2000
   71.0581   45.7979   58.1380 C   0  0  0  0  0  0  0  0  0  0  0  0
   70.0642   46.3759   57.3263 C   0  0  0  0  0  0  0  0  0  0  0  0
   69.7720   47.7126   57.3426 C   0  0  0  0  0  0  0  0  0  0  0  0
   70.4744   48.5553   58.1875 C   0  0  0  0  0  0  0  0  0  0  0  0
   70.1666   49.9359   58.1820 N   0  0  0  0  0  0  0  0  0  0  0  0
   71.4483   48.0051   58.9839 C   0  0  0  0  0  0  0  0  0  0  0  0
   71.7388   46.6521   58.9641 C   0  0  0  0  0  0  0  0  0  0  0  0
   72.6977   46.1347   59.7584 F   0  0  0  0  0  0  0  0  0  0  0  0
   69.6115   41.0914   58.5963 N   0  0  0  0  0  0  0  0  0  0  0  0
   70.6095   42.0577   58.3072 C   0  0  0  0  0  0  0  0  0  0  0  0
   71.8682   41.6325   57.9625 C   0  0  0  0  0  0  0  0  0  0  0  0
   72.8607   42.5481   57.6751 C   0  0  0  0  0  0  0  0  0  0  0  0
   72.5779   43.9190   57.7360 C   0  0  0  0  0  0  0  0  0  0  0  0
   73.6081   44.7353   57.4386 F   0  0  0  0  0  0  0  0  0  0  0  0
   71.3212   44.3650   58.0798 C   0  0  0  0  0  0  0  0  0  0  0  0
   70.3597   43.4184   58.3598 C   0  0  0  0  0  0  0  0  0  0  0  0
   68.7077   48.2666   56.4425 C   0  0  0  0  0  0  0  0  0  0  0  0
   69.2432   48.2766   55.0806 C   0  0  0  0  0  0  0  0  0  0  0  0
   70.2108   49.2193   54.8240 N   0  0  0  0  0  0  0  0  0  0  0  0
   70.6774   49.3292   53.6155 N   0  0  0  0  0  0  0  0  0  0  0  0
   70.2984   48.5961   52.5765 C   0  0  0  0  0  0  0  0  0  0  0  0
   70.7720   48.7287   51.4145 O   0  0  0  0  0  0  0  0  0  0  0  0
   69.3326   47.6342   52.7811 C   0  0  0  0  0  0  0  0  0  0  0  0
   68.8964   46.8209   51.7617 C   0  0  0  0  0  0  0  0  0  0  0  0
   67.9370   45.8558   52.0209 C   0  0  0  0  0  0  0  0  0  0  0  0
   67.4130   45.6986   53.2878 C   0  0  0  0  0  0  0  0  0  0  0  0
   67.8520   46.5210   54.3222 C   0  0  0  0  0  0  0  0  0  0  0  0
   68.8006   47.4828   54.0753 C   0  0  0  0  0  0  0  0  0  0  0  0
  9 10  1  0
 10 11  2  0
 10 16  1  0
 11 12  1  0
 12 13  2  0
 13 14  1  0
 13 15  1  0
 15  1  1  0
 15 16  2  0
  1  2  2  0
  1  7  1  0
  2  3  1  0
  3 17  1  0
  3  4  2  0
 17 18  1  0
 18 19  2  0
 18 28  1  0
 19 20  1  0
 20 21  1  0
 21 22  2  0
 21 23  1  0
 23 24  1  0
 23 28  2  0
 24 25  2  0
 25 26  1  0
 26 27  2  0
 27 28  1  0
  4  5  1  0
  4  6  1  0
  6  7  2  0
  7  8  1  0
M  END
>  <minimizedAffinity>  (434) 
-9.15684

$$$$
cs_full_output_folder/data/smiles/3308.pdb
     RDKit          3D

 28 31  0  0  0  0  0  0  0  0999 V2000
   71.5721   47.0867   58.8636 C   0  0  0  0  0  0  0  0  0  0  0  0
   70.7472   47.9392   58.1315 C   0  0  0  0  0  0  0  0  0  0  0  0
   69.8326   47.5320   57.2216 C   0  0  0  0  0  0  0  0  0  0  0  0
   69.7355   46.1465   57.0260 C   0  0  0  0  0  0  0  0  0  0  0  0
   70.5206   45.2530   57.7173 C   0  0  0  0  0  0  0  0  0  0  0  0
   71.4359   45.7343   58.6343 C   0  0  0  0  0  0  0  0  0  0  0  0
   72.2363   44.8680   59.3393 F   0  0  0  0  0  0  0  0  0  0  0  0
   72.0845   47.9192   60.9631 O   0  0  0  0  0  0  0  0  0  0  0  0
   72.5295   47.6217   59.8219 C   0  0  0  0  0  0  0  0  0  0  0  0
   73.9016   47.8129   59.5217 N   0  0  0  0  0  0  0  0  0  0  0  0
   74.4260   47.4783   58.2177 C   0  0  0  0  0  0  0  0  0  0  0  0
   75.3963   48.5177   57.8218 C   0  0  0  0  0  0  0  0  0  0  0  0
   76.2845   48.9376   58.7081 C   0  0  0  0  0  0  0  0  0  0  0  0
   77.4688   50.1812   58.2802 S   0  0  0  0  0  0  0  0  0  0  0  0
   76.2341   48.3138   60.0801 C   0  0  0  0  0  0  0  0  0  0  0  0
   74.7959   48.3459   60.5238 C   0  0  0  0  0  0  0  0  0  0  0  0
   68.9359   48.3527   56.3960 C   0  0  0  0  0  0  0  0  0  0  0  0
   69.3580   48.3367   55.0073 C   0  0  0  0  0  0  0  0  0  0  0  0
   70.3212   49.2262   54.6171 N   0  0  0  0  0  0  0  0  0  0  0  0
   70.7586   49.3346   53.3860 N   0  0  0  0  0  0  0  0  0  0  0  0
   70.2881   48.5690   52.3904 C   0  0  0  0  0  0  0  0  0  0  0  0
   70.7399   48.7074   51.2067 O   0  0  0  0  0  0  0  0  0  0  0  0
   69.3158   47.6431   52.6889 C   0  0  0  0  0  0  0  0  0  0  0  0
   68.8218   46.8383   51.6964 C   0  0  0  0  0  0  0  0  0  0  0  0
   67.8585   45.9051   51.9950 C   0  0  0  0  0  0  0  0  0  0  0  0
   67.4058   45.7990   53.3046 C   0  0  0  0  0  0  0  0  0  0  0  0
   67.9117   46.6214   54.3077 C   0  0  0  0  0  0  0  0  0  0  0  0
   68.8607   47.5404   54.0088 C   0  0  0  0  0  0  0  0  0  0  0  0
  8  9  2  0
  9  1  1  0
  9 10  1  0
  1  2  2  0
  1  6  1  0
  2  3  1  0
  3 17  1  0
  3  4  2  0
 17 18  1  0
 18 19  2  0
 18 28  1  0
 19 20  1  0
 20 21  1  0
 21 22  2  0
 21 23  1  0
 23 24  1  0
 23 28  2  0
 24 25  2  0
 25 26  1  0
 26 27  2  0
 27 28  1  0
  4  5  1  0
  5  6  2  0
  6  7  1  0
 10 11  1  0
 10 16  1  0
 11 12  1  0
 12 13  2  0
 13 14  1  0
 13 15  1  0
 15 16  1  0
M  END
>  <minimizedAffinity>  (435) 
-9.15471

$$$$
cs_full_output_folder/data/smiles/610.pdb
     RDKit          3D

 27 28  0  0  0  0  0  0  0  0999 V2000
   70.8655   45.3641   58.9793 C   0  0  0  0  0  0  0  0  0  0  0  0
   72.0238   46.3392   59.5242 S   0  0  0  0  0  0  0  0  0  0  0  0
   71.6777   43.0893   58.3629 C   0  0  0  0  0  0  0  0  0  0  0  0
   72.3276   43.6355   57.4340 O   0  0  0  0  0  0  0  0  0  0  0  0
   70.9125   43.9575   59.1778 N   0  0  0  0  0  0  0  0  0  0  0  0
   72.0041   38.8415   58.8845 C   0  0  0  0  0  0  0  0  0  0  0  0
   70.8195   39.4103   58.4670 C   0  0  0  0  0  0  0  0  0  0  0  0
   70.7029   40.7875   58.2951 C   0  0  0  0  0  0  0  0  0  0  0  0
   71.7552   41.6432   58.5304 C   0  0  0  0  0  0  0  0  0  0  0  0
   72.9384   41.0603   58.9478 C   0  0  0  0  0  0  0  0  0  0  0  0
   73.0600   39.6969   59.1205 C   0  0  0  0  0  0  0  0  0  0  0  0
   72.4986   36.7605   57.7324 C   0  0  0  0  0  0  0  0  0  0  0  0
   72.1317   37.3696   59.0698 C   0  0  0  0  0  0  0  0  0  0  0  0
   70.7912   36.7866   59.4663 C   0  0  0  0  0  0  0  0  0  0  0  0
   69.7618   45.9077   58.2802 N   0  0  0  0  0  0  0  0  0  0  0  0
   69.7715   45.9597   56.8605 N   0  0  0  0  0  0  0  0  0  0  0  0
   68.7827   46.6742   56.1468 C   0  0  0  0  0  0  0  0  0  0  0  0
   67.8843   47.2682   56.8450 O   0  0  0  0  0  0  0  0  0  0  0  0
   68.7436   46.7606   54.6944 C   0  0  0  0  0  0  0  0  0  0  0  0
   68.0113   45.8017   53.9742 C   0  0  0  0  0  0  0  0  0  0  0  0
   67.9584   45.8620   52.5990 C   0  0  0  0  0  0  0  0  0  0  0  0
   68.6253   46.8646   51.9335 C   0  0  0  0  0  0  0  0  0  0  0  0
   69.3500   47.8133   52.6436 C   0  0  0  0  0  0  0  0  0  0  0  0
   69.4112   47.7625   54.0375 C   0  0  0  0  0  0  0  0  0  0  0  0
   70.0260   48.8318   51.9452 N   0  0  0  0  0  0  0  0  0  0  0  0
   70.6274   48.5555   50.8877 O   0  0  0  0  0  0  0  0  0  0  0  0
   70.0265   50.1288   52.4227 O   0  0  0  0  0  0  0  0  0  0  0  0
 12 13  1  0
 13 14  1  0
 13  6  1  0
  6  7  2  0
  6 11  1  0
  7  8  1  0
  8  9  2  0
  9  3  1  0
  9 10  1  0
  3  4  2  0
  3  5  1  0
  5  1  1  0
  1  2  2  0
  1 15  1  0
 15 16  1  0
 16 17  1  0
 17 18  2  0
 17 19  1  0
 19 20  2  0
 19 24  1  0
 20 21  1  0
 21 22  2  0
 22 23  1  0
 23 25  1  0
 23 24  2  0
 25 26  2  0
 25 27  1  0
 10 11  2  0
M  CHG  2  25   1  27  -1
M  END
>  <minimizedAffinity>  (436) 
-9.15355

$$$$
cs_full_output_folder/data/smiles/119.pdb
     RDKit          3D

 27 28  0  0  0  0  0  0  0  0999 V2000
   70.5090   44.7593   58.2682 C   0  0  0  0  0  0  0  0  0  0  0  0
   71.7796   45.5428   59.0476 S   0  0  0  0  0  0  0  0  0  0  0  0
   69.5017   42.4437   58.2875 C   0  0  0  0  0  0  0  0  0  0  0  0
   68.3368   42.8396   58.1349 O   0  0  0  0  0  0  0  0  0  0  0  0
   70.5432   43.3882   58.3528 N   0  0  0  0  0  0  0  0  0  0  0  0
   70.8645   38.9344   58.6891 C   0  0  0  0  0  0  0  0  0  0  0  0
   69.5892   38.7221   58.4446 C   0  0  0  0  0  0  0  0  0  0  0  0
   68.9279   40.0017   58.2654 C   0  0  0  0  0  0  0  0  0  0  0  0
   69.7872   40.9817   58.3990 C   0  0  0  0  0  0  0  0  0  0  0  0
   71.0943   40.3872   58.6803 C   0  0  0  0  0  0  0  0  0  0  0  0
   72.1713   37.0825   57.6974 C   0  0  0  0  0  0  0  0  0  0  0  0
   71.9121   37.8766   58.9359 C   0  0  0  0  0  0  0  0  0  0  0  0
   73.1619   38.6033   59.3853 C   0  0  0  0  0  0  0  0  0  0  0  0
   71.4989   36.9523   60.0567 C   0  0  0  0  0  0  0  0  0  0  0  0
   69.6241   45.5923   57.6254 N   0  0  0  0  0  0  0  0  0  0  0  0
   69.5539   46.0964   56.3379 N   0  0  0  0  0  0  0  0  0  0  0  0
   68.6441   45.5885   55.3667 C   0  0  0  0  0  0  0  0  0  0  0  0
   67.8910   44.6460   55.7273 O   0  0  0  0  0  0  0  0  0  0  0  0
   68.5698   46.1162   54.0165 C   0  0  0  0  0  0  0  0  0  0  0  0
   67.7050   45.5665   53.0784 C   0  0  0  0  0  0  0  0  0  0  0  0
   67.6324   46.0639   51.8014 C   0  0  0  0  0  0  0  0  0  0  0  0
   68.4258   47.1366   51.4106 C   0  0  0  0  0  0  0  0  0  0  0  0
   69.2892   47.6991   52.3172 C   0  0  0  0  0  0  0  0  0  0  0  0
   69.3460   47.1743   53.6152 C   0  0  0  0  0  0  0  0  0  0  0  0
   70.1181   48.8014   51.9505 N   0  0  0  0  0  0  0  0  0  0  0  0
   71.1868   48.9736   52.5555 O   0  0  0  0  0  0  0  0  0  0  0  0
   69.7585   49.6726   50.9467 O   0  0  0  0  0  0  0  0  0  0  0  0
 11 12  1  0
 12 13  1  0
 12 14  1  0
 12  6  1  0
  6  7  2  0
  6 10  1  0
  7  8  1  0
  8  9  2  0
  9  3  1  0
  9 10  1  0
  3  4  2  0
  3  5  1  0
  5  1  1  0
  1  2  2  0
  1 15  1  0
 15 16  1  0
 16 17  1  0
 17 18  2  0
 17 19  1  0
 19 20  2  0
 19 24  1  0
 20 21  1  0
 21 22  2  0
 22 23  1  0
 23 25  1  0
 23 24  2  0
 25 26  2  0
 25 27  1  0
M  CHG  2  25   1  27  -1
M  END
>  <minimizedAffinity>  (437) 
-9.15297

$$$$
cs_full_output_folder/data/smiles/6669.pdb
     RDKit          3D

 27 28  0  0  0  0  0  0  0  0999 V2000
   70.9317   45.6662   58.5032 C   0  0  0  0  0  0  0  0  0  0  0  0
   72.0423   46.5460   59.3941 S   0  0  0  0  0  0  0  0  0  0  0  0
   71.9910   43.3812   58.1405 C   0  0  0  0  0  0  0  0  0  0  0  0
   72.9508   43.8484   57.4897 O   0  0  0  0  0  0  0  0  0  0  0  0
   71.0274   44.2942   58.6181 N   0  0  0  0  0  0  0  0  0  0  0  0
   71.9875   39.1279   58.8252 C   0  0  0  0  0  0  0  0  0  0  0  0
   73.1079   39.9085   59.0167 C   0  0  0  0  0  0  0  0  0  0  0  0
   73.0731   41.2678   58.7872 C   0  0  0  0  0  0  0  0  0  0  0  0
   71.9353   41.9266   58.3587 C   0  0  0  0  0  0  0  0  0  0  0  0
   70.8184   41.1538   58.1669 C   0  0  0  0  0  0  0  0  0  0  0  0
   70.8470   39.7691   58.3992 C   0  0  0  0  0  0  0  0  0  0  0  0
   70.6473   37.1680   59.5355 C   0  0  0  0  0  0  0  0  0  0  0  0
   72.0028   37.6561   59.0623 C   0  0  0  0  0  0  0  0  0  0  0  0
   73.0175   37.2523   60.1052 C   0  0  0  0  0  0  0  0  0  0  0  0
   72.3090   36.9257   57.7859 C   0  0  0  0  0  0  0  0  0  0  0  0
   70.0291   46.4723   57.7347 C   0  0  0  0  0  0  0  0  0  0  0  0
   69.3237   46.0379   56.7614 N   0  0  0  0  0  0  0  0  0  0  0  0
   68.4388   46.8159   56.0037 C   0  0  0  0  0  0  0  0  0  0  0  0
   67.4769   47.4284   56.5188 O   0  0  0  0  0  0  0  0  0  0  0  0
   68.6347   46.9241   54.5532 C   0  0  0  0  0  0  0  0  0  0  0  0
   67.9888   46.0756   53.6742 C   0  0  0  0  0  0  0  0  0  0  0  0
   68.1563   46.1513   52.3208 C   0  0  0  0  0  0  0  0  0  0  0  0
   68.9900   47.0953   51.7889 C   0  0  0  0  0  0  0  0  0  0  0  0
   69.6408   47.9484   52.6560 C   0  0  0  0  0  0  0  0  0  0  0  0
   69.4749   47.8749   54.0203 C   0  0  0  0  0  0  0  0  0  0  0  0
   70.5102   48.9322   52.1025 N   0  0  0  0  0  0  0  0  0  0  0  0
   71.4798   49.2483   52.9910 O   0  0  0  0  0  0  0  0  0  0  0  0
 12 13  1  0
 13 14  1  0
 13 15  1  0
 13  6  1  0
  6  7  2  0
  6 11  1  0
  7  8  1  0
  8  9  2  0
  9  3  1  0
  9 10  1  0
  3  4  2  0
  3  5  1  0
  5  1  1  0
  1  2  2  0
  1 16  1  0
 16 17  2  0
 17 18  1  0
 18 19  2  0
 18 20  1  0
 20 21  2  0
 20 25  1  0
 21 22  1  0
 22 23  2  0
 23 24  1  0
 24 26  1  0
 24 25  2  0
 26 27  1  0
 10 11  2  0
M  CHG  2  26   1  27  -1
M  END
>  <minimizedAffinity>  (438) 
-9.15216

$$$$
cs_full_output_folder/data/smiles/9110.pdb
     RDKit          3D

 26 28  0  0  0  0  0  0  0  0999 V2000
   68.0193   39.9252   57.9336 C   0  0  0  0  0  0  0  0  0  0  0  0
   68.5437   41.1900   58.1134 C   0  0  0  0  0  0  0  0  0  0  0  0
   68.4516   41.9176   56.9446 C   0  0  0  0  0  0  0  0  0  0  0  0
   67.8683   41.0771   56.0725 N   0  0  0  0  0  0  0  0  0  0  0  0
   67.6135   39.9054   56.6513 N   0  0  0  0  0  0  0  0  0  0  0  0
   67.5928   35.6327   61.6977 C   0  0  0  0  0  0  0  0  0  0  0  0
   67.7094   36.7476   60.7211 C   0  0  0  0  0  0  0  0  0  0  0  0
   68.9304   37.3117   60.4220 C   0  0  0  0  0  0  0  0  0  0  0  0
   69.0425   38.3544   59.5089 C   0  0  0  0  0  0  0  0  0  0  0  0
   67.9115   38.8313   58.8932 C   0  0  0  0  0  0  0  0  0  0  0  0
   66.7066   38.2460   59.2128 C   0  0  0  0  0  0  0  0  0  0  0  0
   66.5732   37.2227   60.1044 C   0  0  0  0  0  0  0  0  0  0  0  0
   65.2606   36.6032   60.4375 C   0  0  0  0  0  0  0  0  0  0  0  0
   68.8752   43.2893   56.6701 C   0  0  0  0  0  0  0  0  0  0  0  0
   69.9485   43.7077   57.1374 O   0  0  0  0  0  0  0  0  0  0  0  0
   68.1063   44.1874   55.8793 N   0  0  0  0  0  0  0  0  0  0  0  0
   68.5015   45.4991   55.6123 N   0  0  0  0  0  0  0  0  0  0  0  0
   68.4874   45.8982   54.3880 C   0  0  0  0  0  0  0  0  0  0  0  0
   68.8804   47.2499   53.9994 C   0  0  0  0  0  0  0  0  0  0  0  0
   68.7882   48.2833   54.9025 C   0  0  0  0  0  0  0  0  0  0  0  0
   69.1742   49.5411   54.4776 C   0  0  0  0  0  0  0  0  0  0  0  0
   69.6389   49.7897   53.2025 C   0  0  0  0  0  0  0  0  0  0  0  0
   70.0196   51.0808   52.8123 O   0  0  0  0  0  0  0  0  0  0  0  0
   69.7304   48.7540   52.2960 C   0  0  0  0  0  0  0  0  0  0  0  0
   70.1998   49.0304   51.0234 O   0  0  0  0  0  0  0  0  0  0  0  0
   69.3487   47.4924   52.7082 C   0  0  0  0  0  0  0  0  0  0  0  0
  6  7  1  0
  7  8  2  0
  7 12  1  0
  8  9  1  0
  9 10  2  0
 10  1  1  0
 10 11  1  0
  1  2  1  0
  1  5  2  0
  2  3  2  0
  3 14  1  0
  3  4  1  0
 14 15  2  0
 14 16  1  0
 16 17  1  0
 17 18  2  0
 18 19  1  0
 19 20  2  0
 19 26  1  0
 20 21  1  0
 21 22  2  0
 22 23  1  0
 22 24  1  0
 24 25  1  0
 24 26  2  0
  4  5  1  0
 11 12  2  0
 12 13  1  0
M  END
>  <minimizedAffinity>  (439) 
-9.14882

$$$$
cs_full_output_folder/data/smiles/4272.pdb
     RDKit          3D

 29 33  0  0  0  0  0  0  0  0999 V2000
   71.3718   47.1440   58.7431 C   0  0  0  0  0  0  0  0  0  0  0  0
   70.4624   47.8127   57.9666 C   0  0  0  0  0  0  0  0  0  0  0  0
   69.6303   47.1255   57.1154 C   0  0  0  0  0  0  0  0  0  0  0  0
   69.7119   45.7666   57.0433 C   0  0  0  0  0  0  0  0  0  0  0  0
   70.6320   45.0551   57.8240 C   0  0  0  0  0  0  0  0  0  0  0  0
   71.4516   45.7766   58.6678 C   0  0  0  0  0  0  0  0  0  0  0  0
   72.3593   45.1007   59.4416 F   0  0  0  0  0  0  0  0  0  0  0  0
   72.0051   47.8711   60.8826 O   0  0  0  0  0  0  0  0  0  0  0  0
   72.2598   47.8760   59.6510 C   0  0  0  0  0  0  0  0  0  0  0  0
   73.3921   48.5881   59.1852 N   0  0  0  0  0  0  0  0  0  0  0  0
   74.3027   49.3275   60.0188 C   0  0  0  0  0  0  0  0  0  0  0  0
   75.1354   50.1858   59.0914 C   0  0  1  0  0  0  0  0  0  0  0  0
   76.6129   49.8954   59.2708 C   0  0  0  0  0  0  0  0  0  0  0  0
   76.8431   48.7526   58.3738 N   0  0  0  0  0  0  0  0  0  0  0  0
   76.1503   49.1857   57.1875 C   0  0  0  0  0  0  0  0  0  0  0  0
   74.8511   49.7177   57.6958 C   0  0  1  0  0  0  0  0  0  0  0  0
   73.7774   48.6616   57.7988 C   0  0  0  0  0  0  0  0  0  0  0  0
   68.6750   47.9707   56.3449 C   0  0  0  0  0  0  0  0  0  0  0  0
   69.0926   48.1755   54.9772 C   0  0  0  0  0  0  0  0  0  0  0  0
   69.9801   49.1758   54.6932 N   0  0  0  0  0  0  0  0  0  0  0  0
   70.4438   49.4049   53.4960 N   0  0  0  0  0  0  0  0  0  0  0  0
   70.0901   48.6795   52.4411 C   0  0  0  0  0  0  0  0  0  0  0  0
   70.5363   48.8974   51.2851 O   0  0  0  0  0  0  0  0  0  0  0  0
   69.1971   47.6444   52.6229 C   0  0  0  0  0  0  0  0  0  0  0  0
   68.7870   46.8688   51.5599 C   0  0  0  0  0  0  0  0  0  0  0  0
   67.8724   45.8387   51.7756 C   0  0  0  0  0  0  0  0  0  0  0  0
   67.3700   45.5812   53.0291 C   0  0  0  0  0  0  0  0  0  0  0  0
   67.8034   46.3803   54.0727 C   0  0  0  0  0  0  0  0  0  0  0  0
   68.7050   47.4083   53.9145 C   0  0  0  0  0  0  0  0  0  0  0  0
  8  9  2  0
  9  1  1  0
  9 10  1  0
  1  2  2  0
  1  6  1  0
  2  3  1  0
  3 18  1  0
  3  4  2  0
 18 19  1  0
 19 20  2  0
 19 29  1  0
 20 21  1  0
 21 22  1  0
 22 23  2  0
 22 24  1  0
 24 25  1  0
 24 29  2  0
 25 26  2  0
 26 27  1  0
 27 28  2  0
 28 29  1  0
  4  5  1  0
  5  6  2  0
  6  7  1  0
 10 11  1  0
 10 17  1  0
 12 11  1  1
 12 13  1  0
 12 16  1  0
 13 14  1  0
 14 15  1  0
 16 15  1  1
 16 17  1  0
M  CHG  1  14   1
M  END
>  <minimizedAffinity>  (440) 
-9.14748

$$$$
cs_full_output_folder/data/smiles/2621.pdb
     RDKit          3D

 28 31  0  0  0  0  0  0  0  0999 V2000
   68.6756   43.1348   56.8395 C   0  0  0  0  0  0  0  0  0  0  0  0
   67.7268   42.6452   55.9365 C   0  0  0  0  0  0  0  0  0  0  0  0
   67.3980   41.3053   55.9488 C   0  0  0  0  0  0  0  0  0  0  0  0
   67.9930   40.4353   56.8431 C   0  0  0  0  0  0  0  0  0  0  0  0
   68.9270   40.9015   57.7365 C   0  0  0  0  0  0  0  0  0  0  0  0
   69.2353   42.2385   57.7025 C   0  0  0  0  0  0  0  0  0  0  0  0
   68.1973   46.2348   53.5177 C   0  0  0  0  0  0  0  0  0  0  0  0
   68.6283   47.4823   53.8906 C   0  0  0  0  0  0  0  0  0  0  0  0
   69.1352   47.6795   55.1548 C   0  0  0  0  0  0  0  0  0  0  0  0
   69.2260   46.6519   56.0712 C   0  0  0  0  0  0  0  0  0  0  0  0
   69.6691   46.5655   57.3429 N   0  0  0  0  0  0  0  0  0  0  0  0
   69.5310   45.3161   57.7728 N   0  0  0  0  0  0  0  0  0  0  0  0
   68.9978   44.5561   56.8000 C   0  0  0  0  0  0  0  0  0  0  0  0
   68.7937   45.3755   55.7106 C   0  0  0  0  0  0  0  0  0  0  0  0
   68.2891   45.1984   54.4403 C   0  0  0  0  0  0  0  0  0  0  0  0
   68.0463   46.7340   51.0702 N   0  0  0  0  0  0  0  0  0  0  0  0
   67.6555   45.9785   52.1949 C   0  0  0  0  0  0  0  0  0  0  0  0
   66.8173   45.0604   52.0471 O   0  0  0  0  0  0  0  0  0  0  0  0
   69.5145   39.9717   58.6382 N   0  0  0  0  0  0  0  0  0  0  0  0
   70.9073   39.7974   58.7748 C   0  0  0  0  0  0  0  0  0  0  0  0
   71.6609   40.5109   58.0533 O   0  0  0  0  0  0  0  0  0  0  0  0
   71.4599   38.7969   59.7474 C   0  0  0  0  0  0  0  0  0  0  0  0
   71.7077   37.5125   59.0479 C   0  0  0  0  0  0  0  0  0  0  0  0
   71.2850   36.3070   59.5868 C   0  0  0  0  0  0  0  0  0  0  0  0
   71.5079   35.1026   58.9498 C   0  0  0  0  0  0  0  0  0  0  0  0
   72.1486   35.0743   57.7751 N   0  0  0  0  0  0  0  0  0  0  0  0
   72.5730   36.2250   57.2209 C   0  0  0  0  0  0  0  0  0  0  0  0
   72.3636   37.4388   57.8378 C   0  0  0  0  0  0  0  0  0  0  0  0
 16 17  1  0
 17 18  2  0
 17  7  1  0
  7  8  2  0
  7 15  1  0
  8  9  1  0
  9 10  2  0
 10 11  1  0
 10 14  1  0
 11 12  1  0
 12 13  2  0
 13  1  1  0
 13 14  1  0
  1  2  2  0
  1  6  1  0
  2  3  1  0
  3  4  2  0
  4  5  1  0
  5 19  1  0
  5  6  2  0
 19 20  1  0
 20 21  2  0
 20 22  1  0
 22 23  1  0
 23 24  2  0
 23 28  1  0
 24 25  1  0
 25 26  2  0
 26 27  1  0
 27 28  2  0
 14 15  2  0
M  END
>  <minimizedAffinity>  (441) 
-9.14675

$$$$
cs_full_output_folder/data/smiles/1408.pdb
     RDKit          3D

 29 32  0  0  0  0  0  0  0  0999 V2000
   71.4815   47.3165   58.9021 C   0  0  0  0  0  0  0  0  0  0  0  0
   70.5241   47.9712   58.1342 C   0  0  0  0  0  0  0  0  0  0  0  0
   69.7083   47.3093   57.2489 C   0  0  0  0  0  0  0  0  0  0  0  0
   69.8913   45.9187   57.1536 C   0  0  0  0  0  0  0  0  0  0  0  0
   70.8244   45.2300   57.8906 C   0  0  0  0  0  0  0  0  0  0  0  0
   71.6273   45.9540   58.7776 C   0  0  0  0  0  0  0  0  0  0  0  0
   72.5796   45.3385   59.5446 F   0  0  0  0  0  0  0  0  0  0  0  0
   76.9197   48.6564   57.1429 N   0  0  0  0  0  0  0  0  0  0  0  0
   75.8124   48.7184   58.0940 C   0  0  1  0  0  0  0  0  0  0  0  0
   76.4085   49.1016   59.4177 C   0  0  0  0  0  0  0  0  0  0  0  0
   75.5023   49.1484   60.5670 C   0  0  0  0  0  0  0  0  0  0  0  0
   74.1165   49.6317   60.3678 C   0  0  0  0  0  0  0  0  0  0  0  0
   73.3325   48.9514   59.4026 N   0  0  0  0  0  0  0  0  0  0  0  0
   72.3228   48.0447   59.8306 C   0  0  0  0  0  0  0  0  0  0  0  0
   72.1631   47.8771   61.0588 O   0  0  0  0  0  0  0  0  0  0  0  0
   73.4207   49.0561   57.9615 C   0  0  0  0  0  0  0  0  0  0  0  0
   74.7485   49.6709   57.6086 C   0  0  0  0  0  0  0  0  0  0  0  0
   68.6710   47.9680   56.4165 C   0  0  0  0  0  0  0  0  0  0  0  0
   69.0760   48.1771   55.0026 C   0  0  0  0  0  0  0  0  0  0  0  0
   69.9371   49.1965   54.6968 N   0  0  0  0  0  0  0  0  0  0  0  0
   70.3977   49.4374   53.4875 N   0  0  0  0  0  0  0  0  0  0  0  0
   70.0567   48.6889   52.4225 C   0  0  0  0  0  0  0  0  0  0  0  0
   70.5156   48.9456   51.2801 O   0  0  0  0  0  0  0  0  0  0  0  0
   69.1910   47.6437   52.6552 C   0  0  0  0  0  0  0  0  0  0  0  0
   68.7676   46.8287   51.6245 C   0  0  0  0  0  0  0  0  0  0  0  0
   67.8866   45.7945   51.8544 C   0  0  0  0  0  0  0  0  0  0  0  0
   67.4043   45.5450   53.1163 C   0  0  0  0  0  0  0  0  0  0  0  0
   67.8227   46.3542   54.1516 C   0  0  0  0  0  0  0  0  0  0  0  0
   68.7032   47.3905   53.9403 C   0  0  0  0  0  0  0  0  0  0  0  0
  9  8  1  6
  9 10  1  0
  9 17  1  0
 10 11  1  0
 11 12  1  0
 12 13  1  0
 13 14  1  0
 13 16  1  0
 14 15  2  0
 14  1  1  0
  1  2  2  0
  1  6  1  0
  2  3  1  0
  3 18  1  0
  3  4  2  0
 18 19  1  0
 19 20  2  0
 19 29  1  0
 20 21  1  0
 21 22  1  0
 22 23  2  0
 22 24  1  0
 24 25  1  0
 24 29  2  0
 25 26  2  0
 26 27  1  0
 27 28  2  0
 28 29  1  0
  4  5  1  0
  5  6  2  0
  6  7  1  0
 16 17  1  0
M  CHG  1   8   1
M  END
>  <minimizedAffinity>  (442) 
-9.14530

$$$$
cs_full_output_folder/data/smiles/2707.pdb
     RDKit          3D

 28 31  0  0  0  0  0  0  0  0999 V2000
   71.4960   47.2724   58.8574 C   0  0  0  0  0  0  0  0  0  0  0  0
   70.6310   47.9792   58.0534 C   0  0  0  0  0  0  0  0  0  0  0  0
   69.7669   47.3638   57.1368 C   0  0  0  0  0  0  0  0  0  0  0  0
   69.8170   46.0153   57.0686 C   0  0  0  0  0  0  0  0  0  0  0  0
   70.6945   45.2607   57.8789 C   0  0  0  0  0  0  0  0  0  0  0  0
   71.5274   45.8999   58.7670 C   0  0  0  0  0  0  0  0  0  0  0  0
   72.3832   45.2133   59.5618 F   0  0  0  0  0  0  0  0  0  0  0  0
   72.1303   47.8997   61.0296 O   0  0  0  0  0  0  0  0  0  0  0  0
   72.3761   47.9807   59.8183 C   0  0  0  0  0  0  0  0  0  0  0  0
   73.4789   48.7354   59.3420 N   0  0  0  0  0  0  0  0  0  0  0  0
   73.8072   48.8730   57.9443 C   0  0  0  0  0  0  0  0  0  0  0  0
   75.1861   48.3722   57.6718 C   0  0  0  0  0  0  0  0  0  0  0  0
   76.0579   48.1727   58.8404 C   0  0  0  0  0  0  0  0  0  0  0  0
   75.7338   48.8762   60.0936 C   0  0  2  0  0  0  0  0  0  0  0  0
   75.9664   48.0242   61.2030 O   0  0  0  0  0  0  0  0  0  0  0  0
   74.3571   49.4191   60.2549 C   0  0  0  0  0  0  0  0  0  0  0  0
   68.8684   48.2139   56.3431 C   0  0  0  0  0  0  0  0  0  0  0  0
   69.2511   48.3523   54.9357 C   0  0  0  0  0  0  0  0  0  0  0  0
   70.1580   49.3168   54.5687 N   0  0  0  0  0  0  0  0  0  0  0  0
   70.5905   49.4656   53.3422 N   0  0  0  0  0  0  0  0  0  0  0  0
   70.1646   48.6681   52.3484 C   0  0  0  0  0  0  0  0  0  0  0  0
   70.5779   48.8081   51.1718 O   0  0  0  0  0  0  0  0  0  0  0  0
   69.2405   47.6516   52.5990 C   0  0  0  0  0  0  0  0  0  0  0  0
   68.7861   46.8443   51.5852 C   0  0  0  0  0  0  0  0  0  0  0  0
   67.8627   45.8710   51.8635 C   0  0  0  0  0  0  0  0  0  0  0  0
   67.4285   45.7459   53.1559 C   0  0  0  0  0  0  0  0  0  0  0  0
   67.8863   46.5562   54.1755 C   0  0  0  0  0  0  0  0  0  0  0  0
   68.8113   47.5366   53.9253 C   0  0  0  0  0  0  0  0  0  0  0  0
  8  9  2  0
  9  1  1  0
  9 10  1  0
  1  2  2  0
  1  6  1  0
  2  3  1  0
  3 17  1  0
  3  4  2  0
 17 18  1  0
 18 19  2  0
 18 28  1  0
 19 20  1  0
 20 21  1  0
 21 22  2  0
 21 23  1  0
 23 24  1  0
 23 28  2  0
 24 25  2  0
 25 26  1  0
 26 27  2  0
 27 28  1  0
  4  5  1  0
  5  6  2  0
  6  7  1  0
 10 11  1  0
 10 16  1  0
 11 12  1  0
 12 13  1  0
 13 14  1  0
 14 15  1  1
 14 16  1  0
M  END
>  <minimizedAffinity>  (443) 
-9.14504

$$$$
cs_full_output_folder/data/smiles/9368.pdb
     RDKit          3D

 29 32  0  0  0  0  0  0  0  0999 V2000
   70.0883   47.7140   57.6055 C   0  0  0  0  0  0  0  0  0  0  0  0
   70.9901   48.5652   58.2274 C   0  0  0  0  0  0  0  0  0  0  0  0
   71.0496   49.9125   57.9367 C   0  0  0  0  0  0  0  0  0  0  0  0
   71.9305   50.7757   58.5365 C   0  0  0  0  0  0  0  0  0  0  0  0
   71.9505   52.1212   58.2089 C   0  0  0  0  0  0  0  0  0  0  0  0
   71.0707   52.6086   57.2643 C   0  0  0  0  0  0  0  0  0  0  0  0
   70.2066   51.7267   56.6856 C   0  0  0  0  0  0  0  0  0  0  0  0
   70.1436   50.3788   56.9740 C   0  0  0  0  0  0  0  0  0  0  0  0
   69.2971   49.5408   56.4000 N   0  0  0  0  0  0  0  0  0  0  0  0
   69.2160   48.2002   56.6682 C   0  0  0  0  0  0  0  0  0  0  0  0
   69.6612   45.2805   57.0941 N   0  0  0  0  0  0  0  0  0  0  0  0
   70.1043   46.3089   57.9836 C   0  0  0  0  0  0  0  0  0  0  0  0
   70.5076   45.9154   59.1108 O   0  0  0  0  0  0  0  0  0  0  0  0
   68.1647   43.2635   56.0519 O   0  0  0  0  0  0  0  0  0  0  0  0
   68.9150   42.9286   56.9774 C   0  0  0  0  0  0  0  0  0  0  0  0
   69.7328   43.9546   57.5787 N   0  0  0  0  0  0  0  0  0  0  0  0
   68.9645   41.5461   57.4362 C   0  0  0  0  0  0  0  0  0  0  0  0
   70.1118   41.1817   58.1608 C   0  0  0  0  0  0  0  0  0  0  0  0
   70.2843   39.9129   58.6674 C   0  0  0  0  0  0  0  0  0  0  0  0
   69.2867   38.9827   58.4467 C   0  0  0  0  0  0  0  0  0  0  0  0
   68.1674   39.3491   57.7358 C   0  0  0  0  0  0  0  0  0  0  0  0
   67.9739   40.6204   57.2174 C   0  0  0  0  0  0  0  0  0  0  0  0
   68.2097   47.4623   55.9132 C   0  0  0  0  0  0  0  0  0  0  0  0
   68.4654   47.2122   54.5027 C   0  0  0  0  0  0  0  0  0  0  0  0
   69.2940   48.0420   53.7815 C   0  0  0  0  0  0  0  0  0  0  0  0
   69.5205   47.8682   52.4408 C   0  0  0  0  0  0  0  0  0  0  0  0
   68.8778   46.8124   51.8230 C   0  0  0  0  0  0  0  0  0  0  0  0
   68.0385   45.9566   52.5176 C   0  0  0  0  0  0  0  0  0  0  0  0
   67.8492   46.1771   53.8526 C   0  0  0  0  0  0  0  0  0  0  0  0
 14 15  2  0
 15 16  1  0
 15 17  1  0
 16 11  1  0
 11 12  1  0
 12 13  2  0
 12  1  1  0
  1  2  2  0
  1 10  1  0
  2  3  1  0
  3  4  2  0
  3  8  1  0
  4  5  1  0
  5  6  2  0
  6  7  1  0
  7  8  2  0
  8  9  1  0
  9 10  2  0
 10 23  1  0
 23 24  1  0
 24 25  2  0
 24 29  1  0
 25 26  1  0
 26 27  2  0
 27 28  1  0
 28 29  2  0
 17 18  2  0
 17 22  1  0
 18 19  1  0
 19 20  2  0
 20 21  1  0
 21 22  2  0
M  END
>  <minimizedAffinity>  (444) 
-9.14215

$$$$
cs_full_output_folder/data/smiles/2335.pdb
     RDKit          3D

 28 31  0  0  0  0  0  0  0  0999 V2000
   71.5899   47.1749   58.8703 C   0  0  0  0  0  0  0  0  0  0  0  0
   70.7169   47.9044   58.0690 C   0  0  0  0  0  0  0  0  0  0  0  0
   69.8454   47.3647   57.1853 C   0  0  0  0  0  0  0  0  0  0  0  0
   69.8403   45.9686   57.0902 C   0  0  0  0  0  0  0  0  0  0  0  0
   70.6760   45.1971   57.8533 C   0  0  0  0  0  0  0  0  0  0  0  0
   71.5553   45.8052   58.7479 C   0  0  0  0  0  0  0  0  0  0  0  0
   72.3741   44.9997   59.4917 F   0  0  0  0  0  0  0  0  0  0  0  0
   77.7565   48.4407   58.1889 C   0  0  0  0  0  0  0  0  0  0  0  0
   76.3921   48.7392   58.6726 C   0  0  0  0  0  0  0  0  0  0  0  0
   76.0079   48.6512   59.9401 C   0  0  0  0  0  0  0  0  0  0  0  0
   74.6054   48.9775   60.3134 C   0  0  0  0  0  0  0  0  0  0  0  0
   73.7361   48.3462   59.3496 N   0  0  0  0  0  0  0  0  0  0  0  0
   72.5014   47.8151   59.8000 C   0  0  0  0  0  0  0  0  0  0  0  0
   72.1407   47.8717   61.0106 O   0  0  0  0  0  0  0  0  0  0  0  0
   74.1361   48.2702   57.9745 C   0  0  0  0  0  0  0  0  0  0  0  0
   75.3406   49.1735   57.6951 C   0  0  0  0  0  0  0  0  0  0  0  0
   68.9037   48.0732   56.2974 C   0  0  0  0  0  0  0  0  0  0  0  0
   69.3810   48.2111   54.8977 C   0  0  0  0  0  0  0  0  0  0  0  0
   70.3342   49.1440   54.6024 N   0  0  0  0  0  0  0  0  0  0  0  0
   70.7228   49.2911   53.3548 N   0  0  0  0  0  0  0  0  0  0  0  0
   70.2487   48.5859   52.3383 C   0  0  0  0  0  0  0  0  0  0  0  0
   70.6397   48.7451   51.1382 O   0  0  0  0  0  0  0  0  0  0  0  0
   69.2867   47.6305   52.5802 C   0  0  0  0  0  0  0  0  0  0  0  0
   68.7592   46.8537   51.5751 C   0  0  0  0  0  0  0  0  0  0  0  0
   67.8034   45.8849   51.8200 C   0  0  0  0  0  0  0  0  0  0  0  0
   67.3663   45.6924   53.1129 C   0  0  0  0  0  0  0  0  0  0  0  0
   67.8981   46.4747   54.1190 C   0  0  0  0  0  0  0  0  0  0  0  0
   68.8600   47.4558   53.8913 C   0  0  0  0  0  0  0  0  0  0  0  0
  8  9  1  0
  9 10  2  0
  9 16  1  0
 10 11  1  0
 11 12  1  0
 12 13  1  0
 12 15  1  0
 13 14  2  0
 13  1  1  0
  1  2  2  0
  1  6  1  0
  2  3  1  0
  3 17  1  0
  3  4  2  0
 17 18  1  0
 18 19  2  0
 18 28  1  0
 19 20  1  0
 20 21  1  0
 21 22  2  0
 21 23  1  0
 23 24  1  0
 23 28  2  0
 24 25  2  0
 25 26  1  0
 26 27  2  0
 27 28  1  0
  4  5  1  0
  5  6  2  0
  6  7  1  0
 15 16  1  0
M  END
>  <minimizedAffinity>  (445) 
-9.14203

$$$$
cs_full_output_folder/data/smiles/2290.pdb
     RDKit          3D

 25 26  0  0  0  0  0  0  0  0999 V2000
   70.3200   49.0773   52.4091 S   0  0  0  0  0  0  0  0  0  0  0  0
   71.7448   49.0842   52.9521 O   0  0  0  0  0  0  0  0  0  0  0  0
   70.4971   48.6470   50.9523 O   0  0  0  0  0  0  0  0  0  0  0  0
   69.3737   47.8481   53.1800 C   0  0  0  0  0  0  0  0  0  0  0  0
   68.6792   46.9474   52.3875 C   0  0  0  0  0  0  0  0  0  0  0  0
   68.7305   47.0159   51.0292 F   0  0  0  0  0  0  0  0  0  0  0  0
   67.9180   45.9574   52.9590 C   0  0  0  0  0  0  0  0  0  0  0  0
   67.2507   45.0924   52.1471 F   0  0  0  0  0  0  0  0  0  0  0  0
   67.8336   45.8453   54.3305 C   0  0  0  0  0  0  0  0  0  0  0  0
   68.5174   46.7324   55.1112 C   0  0  0  0  0  0  0  0  0  0  0  0
   68.4227   46.6061   56.4701 F   0  0  0  0  0  0  0  0  0  0  0  0
   69.2777   47.7198   54.5410 C   0  0  0  0  0  0  0  0  0  0  0  0
   69.9570   48.5996   55.3108 F   0  0  0  0  0  0  0  0  0  0  0  0
   69.7075   50.6583   52.5137 N   0  0  0  0  0  0  0  0  0  0  0  0
   70.4211   52.7551   55.4829 C   0  0  0  0  0  0  0  0  0  0  0  0
   70.5781   52.0633   54.3167 C   0  0  0  0  0  0  0  0  0  0  0  0
   69.5481   51.3427   53.7231 C   0  0  0  0  0  0  0  0  0  0  0  0
   68.2989   51.3003   54.3001 C   0  0  0  0  0  0  0  0  0  0  0  0
   68.1051   51.9867   55.4745 C   0  0  0  0  0  0  0  0  0  0  0  0
   69.1382   52.6912   56.0453 C   0  0  0  0  0  0  0  0  0  0  0  0
   68.8713   53.3477   57.2130 F   0  0  0  0  0  0  0  0  0  0  0  0
   73.1254   54.0451   57.8976 C   0  0  0  0  0  0  0  0  0  0  0  0
   72.1381   53.0883   57.2868 C   0  0  0  0  0  0  0  0  0  0  0  0
   71.9847   51.9389   57.7456 O   0  0  0  0  0  0  0  0  0  0  0  0
   71.3836   53.5133   56.1768 N   0  0  0  0  0  0  0  0  0  0  0  0
 22 23  1  0
 23 24  2  0
 23 25  1  0
 25 15  1  0
 15 16  2  0
 15 20  1  0
 16 17  1  0
 17 14  1  0
 17 18  2  0
 14  1  1  0
  1  2  2  0
  1  3  2  0
  1  4  1  0
  4  5  2  0
  4 12  1  0
  5  6  1  0
  5  7  1  0
  7  8  1  0
  7  9  2  0
  9 10  1  0
 10 11  1  0
 10 12  2  0
 12 13  1  0
 18 19  1  0
 19 20  2  0
 20 21  1  0
M  END
>  <minimizedAffinity>  (446) 
-9.14141

$$$$
cs_full_output_folder/data/smiles/9603.pdb
     RDKit          3D

 27 30  0  0  0  0  0  0  0  0999 V2000
   70.9021   45.4442   58.0448 C   0  0  0  0  0  0  0  0  0  0  0  0
   71.7610   46.1683   58.8227 C   0  0  0  0  0  0  0  0  0  0  0  0
   71.6565   47.5487   58.7988 C   0  0  0  0  0  0  0  0  0  0  0  0
   70.7307   48.2202   58.0297 C   0  0  0  0  0  0  0  0  0  0  0  0
   69.8641   47.5072   57.2442 C   0  0  0  0  0  0  0  0  0  0  0  0
   69.9602   46.1256   57.2618 C   0  0  0  0  0  0  0  0  0  0  0  0
   70.9367   43.9635   57.9803 C   0  0  0  0  0  0  0  0  0  0  0  0
   70.0841   43.6088   60.1660 O   0  0  0  0  0  0  0  0  0  0  0  0
   69.9617   43.3860   58.9188 C   0  0  0  0  0  0  0  0  0  0  0  0
   68.8658   42.5754   58.4949 N   0  0  0  0  0  0  0  0  0  0  0  0
   68.0326   41.9723   59.5126 C   0  0  0  0  0  0  0  0  0  0  0  0
   67.0192   41.0766   58.8271 C   0  0  0  0  0  0  0  0  0  0  0  0
   67.6748   40.2678   57.9279 O   0  0  0  0  0  0  0  0  0  0  0  0
   68.0539   40.9751   56.8111 C   0  0  0  0  0  0  0  0  0  0  0  0
   68.5120   42.3824   57.1065 C   0  0  0  0  0  0  0  0  0  0  0  0
   68.8367   48.1823   56.3896 C   0  0  0  0  0  0  0  0  0  0  0  0
   69.2300   48.3051   54.9811 C   0  0  0  0  0  0  0  0  0  0  0  0
   70.1363   49.3194   54.6265 C   0  0  0  0  0  0  0  0  0  0  0  0
   70.5675   49.4957   53.3649 N   0  0  0  0  0  0  0  0  0  0  0  0
   70.1308   48.6846   52.3786 C   0  0  0  0  0  0  0  0  0  0  0  0
   70.5262   48.8337   51.1744 O   0  0  0  0  0  0  0  0  0  0  0  0
   69.2424   47.6678   52.6365 C   0  0  0  0  0  0  0  0  0  0  0  0
   68.7920   46.8334   51.5998 C   0  0  0  0  0  0  0  0  0  0  0  0
   67.8911   45.8272   51.9181 C   0  0  0  0  0  0  0  0  0  0  0  0
   67.4609   45.6640   53.2137 C   0  0  0  0  0  0  0  0  0  0  0  0
   67.9239   46.4996   54.2097 C   0  0  0  0  0  0  0  0  0  0  0  0
   68.8088   47.4999   53.9458 C   0  0  0  0  0  0  0  0  0  0  0  0
  8  9  2  0
  9  7  1  0
  9 10  1  0
  7  1  1  0
  1  2  2  0
  1  6  1  0
  2  3  1  0
  3  4  2  0
  4  5  1  0
  5 16  1  0
  5  6  2  0
 16 17  1  0
 17 18  2  0
 17 27  1  0
 18 19  1  0
 19 20  1  0
 20 21  2  0
 20 22  1  0
 22 23  1  0
 22 27  2  0
 23 24  2  0
 24 25  1  0
 25 26  2  0
 26 27  1  0
 10 11  1  0
 10 15  1  0
 11 12  1  0
 12 13  1  0
 13 14  1  0
 14 15  1  0
M  END
>  <minimizedAffinity>  (447) 
-9.13966

$$$$
cs_full_output_folder/data/smiles/2187.pdb
     RDKit          3D

 28 31  0  0  0  0  0  0  0  0999 V2000
   71.1339   42.5682   57.8915 C   0  0  0  0  0  0  0  0  0  0  0  0
   72.0051   43.5085   58.3999 C   0  0  0  0  0  0  0  0  0  0  0  0
   71.7452   44.8640   58.3491 C   0  0  0  0  0  0  0  0  0  0  0  0
   70.5810   45.3300   57.7748 C   0  0  0  0  0  0  0  0  0  0  0  0
   69.7280   44.3641   57.2742 C   0  0  0  0  0  0  0  0  0  0  0  0
   70.0014   43.0482   57.3346 N   0  0  0  0  0  0  0  0  0  0  0  0
   69.8698   40.7758   59.5962 O   0  0  0  0  0  0  0  0  0  0  0  0
   70.7101   40.2789   58.8027 C   0  0  0  0  0  0  0  0  0  0  0  0
   71.3670   41.1628   57.9269 N   0  0  0  0  0  0  0  0  0  0  0  0
   70.9469   38.8374   58.8386 C   0  0  0  0  0  0  0  0  0  0  0  0
   71.8230   38.1961   57.9902 C   0  0  0  0  0  0  0  0  0  0  0  0
   72.0356   36.8276   58.0370 C   0  0  0  0  0  0  0  0  0  0  0  0
   71.3655   36.0455   58.9510 C   0  0  0  0  0  0  0  0  0  0  0  0
   70.4847   36.6574   59.8106 C   0  0  0  0  0  0  0  0  0  0  0  0
   70.2841   38.0401   59.7472 C   0  0  0  0  0  0  0  0  0  0  0  0
   70.2279   46.7731   57.6849 C   0  0  0  0  0  0  0  0  0  0  0  0
   69.0612   47.0184   56.7748 C   0  0  0  0  0  0  0  0  0  0  0  0
   69.4131   47.5940   55.4931 C   0  0  0  0  0  0  0  0  0  0  0  0
   70.2429   48.6844   55.4930 N   0  0  0  0  0  0  0  0  0  0  0  0
   70.6145   49.3181   54.4098 N   0  0  0  0  0  0  0  0  0  0  0  0
   70.1639   48.8818   53.2372 C   0  0  0  0  0  0  0  0  0  0  0  0
   70.5100   49.4774   52.1913 O   0  0  0  0  0  0  0  0  0  0  0  0
   69.3225   47.7808   53.1782 C   0  0  0  0  0  0  0  0  0  0  0  0
   68.9243   47.1084   54.3040 C   0  0  0  0  0  0  0  0  0  0  0  0
   68.0566   45.9684   54.2614 C   0  0  0  0  0  0  0  0  0  0  0  0
   67.6976   45.4946   52.9016 C   0  0  0  0  0  0  0  0  0  0  0  0
   68.1579   46.2718   51.7547 C   0  0  0  0  0  0  0  0  0  0  0  0
   68.9100   47.3307   51.8535 C   0  0  0  0  0  0  0  0  0  0  0  0
  7  8  2  0
  8  9  1  0
  8 10  1  0
  9  1  1  0
  1  2  2  0
  1  6  1  0
  2  3  1  0
  3  4  2  0
  4 16  1  0
  4  5  1  0
 16 17  1  0
 17 18  1  0
 18 19  2  0
 18 24  1  0
 19 20  1  0
 20 21  1  0
 21 22  2  0
 21 23  1  0
 23 24  2  0
 23 28  1  0
 24 25  1  0
 25 26  1  0
 26 27  1  0
 27 28  2  0
  5  6  2  0
 10 11  2  0
 10 15  1  0
 11 12  1  0
 12 13  2  0
 13 14  1  0
 14 15  2  0
M  END
>  <minimizedAffinity>  (448) 
-9.13953

$$$$
cs_full_output_folder/data/smiles/7005.pdb
     RDKit          3D

 28 32  0  0  0  0  0  0  0  0999 V2000
   71.7265   47.0825   59.1784 C   0  0  0  0  0  0  0  0  0  0  0  0
   70.7666   47.7431   58.4335 C   0  0  0  0  0  0  0  0  0  0  0  0
   69.9596   47.1386   57.5226 C   0  0  0  0  0  0  0  0  0  0  0  0
   70.1591   45.7480   57.3683 C   0  0  0  0  0  0  0  0  0  0  0  0
   71.1085   45.0632   58.0969 C   0  0  0  0  0  0  0  0  0  0  0  0
   71.9027   45.7260   59.0107 C   0  0  0  0  0  0  0  0  0  0  0  0
   72.8476   45.0814   59.7442 F   0  0  0  0  0  0  0  0  0  0  0  0
   72.2883   47.6758   61.3541 O   0  0  0  0  0  0  0  0  0  0  0  0
   72.5317   47.8528   60.1350 C   0  0  0  0  0  0  0  0  0  0  0  0
   73.5357   48.7519   59.7072 N   0  0  0  0  0  0  0  0  0  0  0  0
   74.4550   49.6167   60.4327 C   0  0  0  0  0  0  0  0  0  0  0  0
   74.4906   50.4882   59.1620 C   0  0  0  0  0  0  0  0  0  0  0  0
   74.0939   49.2216   58.5182 C   0  0  0  0  0  0  0  0  0  0  0  0
   73.3751   49.2411   57.2348 C   0  0  0  0  0  0  0  0  0  0  0  0
   74.6899   49.1398   56.5694 N   0  0  0  0  0  0  0  0  0  0  0  0
   75.1122   48.4282   57.7902 C   0  0  0  0  0  0  0  0  0  0  0  0
   68.9029   47.8012   56.7001 C   0  0  0  0  0  0  0  0  0  0  0  0
   69.3007   48.0776   55.3148 C   0  0  0  0  0  0  0  0  0  0  0  0
   70.2243   49.0672   55.0878 N   0  0  0  0  0  0  0  0  0  0  0  0
   70.6757   49.3428   53.8834 N   0  0  0  0  0  0  0  0  0  0  0  0
   70.2769   48.6899   52.7818 C   0  0  0  0  0  0  0  0  0  0  0  0
   70.7502   49.0025   51.6421 O   0  0  0  0  0  0  0  0  0  0  0  0
   69.3512   47.6820   52.9092 C   0  0  0  0  0  0  0  0  0  0  0  0
   68.9008   46.9981   51.8060 C   0  0  0  0  0  0  0  0  0  0  0  0
   67.9623   46.0088   51.9539 C   0  0  0  0  0  0  0  0  0  0  0  0
   67.5016   45.7382   53.2418 C   0  0  0  0  0  0  0  0  0  0  0  0
   67.9499   46.4211   54.3497 C   0  0  0  0  0  0  0  0  0  0  0  0
   68.8783   47.3983   54.1998 C   0  0  0  0  0  0  0  0  0  0  0  0
  8  9  2  0
  9  1  1  0
  9 10  1  0
  1  2  2  0
  1  6  1  0
  2  3  1  0
  3 17  1  0
  3  4  2  0
 17 18  1  0
 18 19  2  0
 18 28  1  0
 19 20  1  0
 20 21  1  0
 21 22  2  0
 21 23  1  0
 23 24  1  0
 23 28  2  0
 24 25  2  0
 25 26  1  0
 26 27  2  0
 27 28  1  0
  4  5  1  0
  5  6  2  0
  6  7  1  0
 10 11  1  0
 10 13  1  0
 11 12  1  0
 12 13  1  0
 13 14  1  0
 13 16  1  0
 14 15  1  0
 15 16  1  0
M  CHG  1  15   1
M  END
>  <minimizedAffinity>  (449) 
-9.13862

$$$$
cs_full_output_folder/data/smiles/2407.pdb
     RDKit          3D

 28 31  0  0  0  0  0  0  0  0999 V2000
   73.7920   50.3541   56.5793 C   0  0  0  0  0  0  0  0  0  0  0  0
   73.0750   51.2879   55.8668 C   0  0  0  0  0  0  0  0  0  0  0  0
   71.7059   51.2207   55.6999 C   0  0  0  0  0  0  0  0  0  0  0  0
   70.9783   50.1929   56.2505 C   0  0  0  0  0  0  0  0  0  0  0  0
   71.7328   49.2555   56.9707 C   0  0  0  0  0  0  0  0  0  0  0  0
   73.0677   49.3542   57.1133 N   0  0  0  0  0  0  0  0  0  0  0  0
   75.5495   49.4661   54.7316 O   0  0  0  0  0  0  0  0  0  0  0  0
   76.1090   49.9310   55.7755 C   0  0  0  0  0  0  0  0  0  0  0  0
   75.2015   50.4051   56.7659 N   0  0  0  0  0  0  0  0  0  0  0  0
   77.5597   49.9608   55.9165 C   0  0  0  0  0  0  0  0  0  0  0  0
   78.1317   51.1803   56.2108 C   0  0  0  0  0  0  0  0  0  0  0  0
   79.5119   51.2786   56.3575 C   0  0  0  0  0  0  0  0  0  0  0  0
   80.3302   50.1602   56.2130 C   0  0  0  0  0  0  0  0  0  0  0  0
   79.7523   48.9430   55.9183 C   0  0  0  0  0  0  0  0  0  0  0  0
   80.5486   47.8195   55.7690 O   0  0  0  0  0  0  0  0  0  0  0  0
   78.3628   48.8699   55.7745 C   0  0  0  0  0  0  0  0  0  0  0  0
   69.5108   50.0572   56.1143 C   0  0  0  0  0  0  0  0  0  0  0  0
   69.0590   48.7362   55.6488 C   0  0  0  0  0  0  0  0  0  0  0  0
   68.5719   47.9053   56.5809 N   0  0  0  0  0  0  0  0  0  0  0  0
   68.1224   46.6892   56.3426 N   0  0  0  0  0  0  0  0  0  0  0  0
   68.1417   46.2141   55.0804 C   0  0  0  0  0  0  0  0  0  0  0  0
   67.7152   45.0473   54.8250 O   0  0  0  0  0  0  0  0  0  0  0  0
   68.6235   47.0029   54.0845 C   0  0  0  0  0  0  0  0  0  0  0  0
   69.0905   48.2834   54.3493 C   0  0  0  0  0  0  0  0  0  0  0  0
   69.5522   49.1653   53.2774 C   0  0  0  0  0  0  0  0  0  0  0  0
   69.7915   48.4731   51.9833 C   0  0  0  0  0  0  0  0  0  0  0  0
   69.2625   47.1379   51.8012 C   0  0  0  0  0  0  0  0  0  0  0  0
   68.7175   46.4229   52.7433 C   0  0  0  0  0  0  0  0  0  0  0  0
  7  8  2  0
  8  9  1  0
  8 10  1  0
  9  1  1  0
  1  2  2  0
  1  6  1  0
  2  3  1  0
  3  4  2  0
  4 17  1  0
  4  5  1  0
 17 18  1  0
 18 19  2  0
 18 24  1  0
 19 20  1  0
 20 21  1  0
 21 22  2  0
 21 23  1  0
 23 24  2  0
 23 28  1  0
 24 25  1  0
 25 26  1  0
 26 27  1  0
 27 28  2  0
  5  6  2  0
 10 11  2  0
 10 16  1  0
 11 12  1  0
 12 13  2  0
 13 14  1  0
 14 15  1  0
 14 16  2  0
M  END
>  <minimizedAffinity>  (450) 
-9.13840

$$$$
cs_full_output_folder/data/smiles/1990.pdb
     RDKit          3D

 25 26  0  0  0  0  0  0  0  0999 V2000
   70.0290   49.2818   52.6169 S   0  0  0  0  0  0  0  0  0  0  0  0
   71.4279   49.3812   53.1490 O   0  0  0  0  0  0  0  0  0  0  0  0
   70.0355   49.2305   51.1003 O   0  0  0  0  0  0  0  0  0  0  0  0
   69.2669   47.8412   53.2484 C   0  0  0  0  0  0  0  0  0  0  0  0
   68.6205   46.9192   52.4530 C   0  0  0  0  0  0  0  0  0  0  0  0
   68.5689   47.1122   51.1105 F   0  0  0  0  0  0  0  0  0  0  0  0
   68.0135   45.7804   52.9640 C   0  0  0  0  0  0  0  0  0  0  0  0
   67.3957   44.9125   52.1309 F   0  0  0  0  0  0  0  0  0  0  0  0
   68.0828   45.6008   54.3305 C   0  0  0  0  0  0  0  0  0  0  0  0
   67.4993   44.4994   54.8549 F   0  0  0  0  0  0  0  0  0  0  0  0
   68.7187   46.5012   55.1534 C   0  0  0  0  0  0  0  0  0  0  0  0
   68.7763   46.3078   56.4949 F   0  0  0  0  0  0  0  0  0  0  0  0
   69.3121   47.6218   54.6207 C   0  0  0  0  0  0  0  0  0  0  0  0
   69.9485   48.5301   55.4076 F   0  0  0  0  0  0  0  0  0  0  0  0
   69.1574   50.6649   53.1473 N   0  0  0  0  0  0  0  0  0  0  0  0
   71.4929   52.6969   55.1707 C   0  0  0  0  0  0  0  0  0  0  0  0
   71.0116   51.8494   54.1950 C   0  0  0  0  0  0  0  0  0  0  0  0
   69.6802   51.5363   54.1319 C   0  0  0  0  0  0  0  0  0  0  0  0
   68.8255   52.0859   55.0664 C   0  0  0  0  0  0  0  0  0  0  0  0
   69.2655   52.9305   56.0497 C   0  0  0  0  0  0  0  0  0  0  0  0
   70.6071   53.2262   56.0855 C   0  0  0  0  0  0  0  0  0  0  0  0
   71.1160   54.0754   57.0571 O   0  0  0  0  0  0  0  0  0  0  0  0
   73.4410   53.7845   54.3959 O   0  0  0  0  0  0  0  0  0  0  0  0
   72.9273   53.0266   55.2262 C   0  0  0  0  0  0  0  0  0  0  0  0
   73.7041   52.4775   56.2265 O   0  0  0  0  0  0  0  0  0  0  0  0
 23 24  2  0
 24 25  1  0
 24 16  1  0
 16 17  2  0
 16 21  1  0
 17 18  1  0
 18 15  1  0
 18 19  2  0
 15  1  1  0
  1  2  2  0
  1  3  2  0
  1  4  1  0
  4  5  2  0
  4 13  1  0
  5  6  1  0
  5  7  1  0
  7  8  1  0
  7  9  2  0
  9 10  1  0
  9 11  1  0
 11 12  1  0
 11 13  2  0
 13 14  1  0
 19 20  1  0
 20 21  2  0
 21 22  1  0
M  END
>  <minimizedAffinity>  (451) 
-9.13815

$$$$
cs_full_output_folder/data/smiles/6785.pdb
     RDKit          3D

 29 32  0  0  0  0  0  0  0  0999 V2000
   71.1681   45.4262   58.3034 C   0  0  0  0  0  0  0  0  0  0  0  0
   72.0829   46.2276   59.0320 C   0  0  0  0  0  0  0  0  0  0  0  0
   72.0084   47.5867   59.0780 C   0  0  0  0  0  0  0  0  0  0  0  0
   71.0135   48.2120   58.3963 C   0  0  0  0  0  0  0  0  0  0  0  0
   70.1065   47.4757   57.6764 C   0  0  0  0  0  0  0  0  0  0  0  0
   70.1829   46.0821   57.6278 C   0  0  0  0  0  0  0  0  0  0  0  0
   68.8995   42.2197   61.6139 C   0  0  0  0  0  0  0  0  0  0  0  0
   68.3515   42.2151   60.2639 C   0  0  0  0  0  0  0  0  0  0  0  0
   67.2311   42.7904   60.0276 O   0  0  0  0  0  0  0  0  0  0  0  0
   68.9717   41.6209   59.1765 N   0  0  0  0  0  0  0  0  0  0  0  0
   70.2236   40.8948   59.2669 C   0  0  0  0  0  0  0  0  0  0  0  0
   71.1332   41.5626   58.2334 C   0  0  0  0  0  0  0  0  0  0  0  0
   70.5469   42.9244   57.9014 N   0  0  0  0  0  0  0  0  0  0  0  0
   71.2831   43.9938   58.3485 C   0  0  0  0  0  0  0  0  0  0  0  0
   72.3965   43.6215   58.9925 O   0  0  0  0  0  0  0  0  0  0  0  0
   69.3120   42.8978   57.1949 C   0  0  0  0  0  0  0  0  0  0  0  0
   68.4544   41.7229   57.8016 C   0  0  0  0  0  0  0  0  0  0  0  0
   68.9656   48.1188   56.9515 C   0  0  0  0  0  0  0  0  0  0  0  0
   68.6678   47.3280   55.7230 C   0  0  0  0  0  0  0  0  0  0  0  0
   68.0636   46.1239   55.8979 N   0  0  0  0  0  0  0  0  0  0  0  0
   67.7664   45.3290   54.8863 N   0  0  0  0  0  0  0  0  0  0  0  0
   68.0765   45.7320   53.6453 C   0  0  0  0  0  0  0  0  0  0  0  0
   67.7984   44.9836   52.6543 O   0  0  0  0  0  0  0  0  0  0  0  0
   68.6919   46.9457   53.4019 C   0  0  0  0  0  0  0  0  0  0  0  0
   68.9988   47.7705   54.4682 C   0  0  0  0  0  0  0  0  0  0  0  0
   69.6610   49.0968   54.3176 C   0  0  0  0  0  0  0  0  0  0  0  0
   69.6620   49.4958   52.8697 C   0  0  0  0  0  0  0  0  0  0  0  0
   70.1735   48.3089   52.0762 C   0  0  0  0  0  0  0  0  0  0  0  0
   69.0107   47.3476   51.9855 C   0  0  0  0  0  0  0  0  0  0  0  0
  7  8  1  0
  8  9  2  0
  8 10  1  0
 10 11  1  0
 10 17  1  0
 11 12  1  0
 12 13  1  0
 13 14  1  0
 13 16  1  0
 14 15  2  0
 14  1  1  0
  1  2  2  0
  1  6  1  0
  2  3  1  0
  3  4  2  0
  4  5  1  0
  5 18  1  0
  5  6  2  0
 18 19  1  0
 19 20  2  0
 19 25  1  0
 20 21  1  0
 21 22  1  0
 22 23  2  0
 22 24  1  0
 24 25  2  0
 24 29  1  0
 25 26  1  0
 26 27  1  0
 27 28  1  0
 28 29  1  0
 16 17  1  0
M  END
>  <minimizedAffinity>  (452) 
-9.13750

$$$$
cs_full_output_folder/data/smiles/508.pdb
     RDKit          3D

 27 30  0  0  0  0  0  0  0  0999 V2000
   69.1398   44.3626   56.7102 C   0  0  0  0  0  0  0  0  0  0  0  0
   69.9604   43.5034   57.4175 C   0  0  0  0  0  0  0  0  0  0  0  0
   69.6882   42.1620   57.5465 C   0  0  0  0  0  0  0  0  0  0  0  0
   68.5844   41.6147   56.9763 C   0  0  0  0  0  0  0  0  0  0  0  0
   67.7548   42.4738   56.2634 C   0  0  0  0  0  0  0  0  0  0  0  0
   68.0540   43.8015   56.1541 N   0  0  0  0  0  0  0  0  0  0  0  0
   69.3737   45.7494   56.5452 N   0  0  0  0  0  0  0  0  0  0  0  0
   67.6512   47.2830   56.5320 N   0  0  0  0  0  0  0  0  0  0  0  0
   68.4956   46.5888   55.8073 C   0  0  0  0  0  0  0  0  0  0  0  0
   68.5267   46.6815   54.3572 C   0  0  0  0  0  0  0  0  0  0  0  0
   67.8145   45.7901   53.5969 C   0  0  0  0  0  0  0  0  0  0  0  0
   67.8531   45.8918   52.2028 C   0  0  0  0  0  0  0  0  0  0  0  0
   68.6111   46.8929   51.5926 C   0  0  0  0  0  0  0  0  0  0  0  0
   69.3301   47.7929   52.3551 C   0  0  0  0  0  0  0  0  0  0  0  0
   69.2606   47.6542   53.7206 C   0  0  0  0  0  0  0  0  0  0  0  0
   68.1905   40.1977   57.0769 C   0  0  0  0  0  0  0  0  0  0  0  0
   68.1201   39.6233   58.4043 C   0  0  0  0  0  0  0  0  0  0  0  0
   66.9814   39.8319   59.1251 N   0  0  0  0  0  0  0  0  0  0  0  0
   66.8298   39.3525   60.3435 N   0  0  0  0  0  0  0  0  0  0  0  0
   67.7764   38.6277   60.9658 C   0  0  0  0  0  0  0  0  0  0  0  0
   67.5796   38.1853   62.1498 O   0  0  0  0  0  0  0  0  0  0  0  0
   68.9440   38.3838   60.2955 C   0  0  0  0  0  0  0  0  0  0  0  0
   69.0963   38.8893   59.0187 C   0  0  0  0  0  0  0  0  0  0  0  0
   70.3509   38.6275   58.2854 C   0  0  0  0  0  0  0  0  0  0  0  0
   71.1940   37.5213   58.8440 C   0  0  0  0  0  0  0  0  0  0  0  0
   70.5162   36.6460   59.8478 C   0  0  0  0  0  0  0  0  0  0  0  0
   70.0022   37.5812   60.9536 C   0  0  0  0  0  0  0  0  0  0  0  0
  8  9  2  0
  9  7  1  0
  9 10  1  0
  7  1  1  0
  1  2  2  0
  1  6  1  0
  2  3  1  0
  3  4  2  0
  4 16  1  0
  4  5  1  0
 16 17  1  0
 17 18  2  0
 17 23  1  0
 18 19  1  0
 19 20  1  0
 20 21  2  0
 20 22  1  0
 22 23  2  0
 22 27  1  0
 23 24  1  0
 24 25  1  0
 25 26  1  0
 26 27  1  0
  5  6  2  0
 10 11  2  0
 10 15  1  0
 11 12  1  0
 12 13  2  0
 13 14  1  0
 14 15  2  0
M  CHG  1   8   1
M  END
>  <minimizedAffinity>  (453) 
-9.13571

$$$$
cs_full_output_folder/data/smiles/2267.pdb
     RDKit          3D

 28 31  0  0  0  0  0  0  0  0999 V2000
   71.6670   47.4132   58.7894 C   0  0  0  0  0  0  0  0  0  0  0  0
   70.8073   48.1279   57.9908 C   0  0  0  0  0  0  0  0  0  0  0  0
   69.8725   47.5271   57.1395 C   0  0  0  0  0  0  0  0  0  0  0  0
   69.8108   46.1631   57.1036 C   0  0  0  0  0  0  0  0  0  0  0  0
   70.6644   45.4012   57.8981 C   0  0  0  0  0  0  0  0  0  0  0  0
   71.5637   46.0224   58.7136 C   0  0  0  0  0  0  0  0  0  0  0  0
   72.4080   45.3016   59.4997 F   0  0  0  0  0  0  0  0  0  0  0  0
   74.1983   50.7142   57.6096 N   0  0  0  0  0  0  0  0  0  0  0  0
   74.9679   49.5379   57.3713 C   0  0  1  0  0  0  0  0  0  0  0  0
   76.2472   49.6161   58.1692 C   0  0  0  0  0  0  0  0  0  0  0  0
   75.9815   49.7850   59.6177 C   0  0  0  0  0  0  0  0  0  0  0  0
   74.7874   49.1122   60.1564 C   0  0  0  0  0  0  0  0  0  0  0  0
   73.9122   48.4923   59.2232 N   0  0  0  0  0  0  0  0  0  0  0  0
   72.6343   48.0587   59.6685 C   0  0  0  0  0  0  0  0  0  0  0  0
   72.2589   48.2128   60.8755 O   0  0  0  0  0  0  0  0  0  0  0  0
   74.2587   48.2779   57.8351 C   0  0  0  0  0  0  0  0  0  0  0  0
   68.9813   48.4011   56.3494 C   0  0  0  0  0  0  0  0  0  0  0  0
   69.3379   48.4594   54.9100 C   0  0  0  0  0  0  0  0  0  0  0  0
   70.2491   49.4026   54.4956 N   0  0  0  0  0  0  0  0  0  0  0  0
   70.6325   49.4688   53.2445 N   0  0  0  0  0  0  0  0  0  0  0  0
   70.1848   48.6507   52.2908 C   0  0  0  0  0  0  0  0  0  0  0  0
   70.6004   48.7723   51.1049 O   0  0  0  0  0  0  0  0  0  0  0  0
   69.2674   47.6747   52.6174 C   0  0  0  0  0  0  0  0  0  0  0  0
   68.7816   46.8233   51.6387 C   0  0  0  0  0  0  0  0  0  0  0  0
   67.8587   45.8743   52.0028 C   0  0  0  0  0  0  0  0  0  0  0  0
   67.4377   45.7866   53.3127 C   0  0  0  0  0  0  0  0  0  0  0  0
   67.9357   46.6482   54.2853 C   0  0  0  0  0  0  0  0  0  0  0  0
   68.8593   47.6042   53.9501 C   0  0  0  0  0  0  0  0  0  0  0  0
  9  8  1  1
  9 10  1  0
  9 16  1  0
 10 11  1  0
 11 12  1  0
 12 13  1  0
 13 14  1  0
 13 16  1  0
 14 15  2  0
 14  1  1  0
  1  2  2  0
  1  6  1  0
  2  3  1  0
  3 17  1  0
  3  4  2  0
 17 18  1  0
 18 19  2  0
 18 28  1  0
 19 20  1  0
 20 21  1  0
 21 22  2  0
 21 23  1  0
 23 24  1  0
 23 28  2  0
 24 25  2  0
 25 26  1  0
 26 27  2  0
 27 28  1  0
  4  5  1  0
  5  6  2  0
  6  7  1  0
M  CHG  1   8   1
M  END
>  <minimizedAffinity>  (454) 
-9.13141

$$$$
cs_full_output_folder/data/smiles/312.pdb
     RDKit          3D

 25 28  0  0  0  0  0  0  0  0999 V2000
   69.3144   45.5821   56.8690 C   0  0  0  0  0  0  0  0  0  0  0  0
   70.1705   46.5244   57.3049 N   0  0  0  0  0  0  0  0  0  0  0  0
   71.2526   46.1884   58.0509 C   0  0  0  0  0  0  0  0  0  0  0  0
   71.4966   44.9071   58.3734 N   0  0  0  0  0  0  0  0  0  0  0  0
   70.6858   43.9042   57.9747 C   0  0  0  0  0  0  0  0  0  0  0  0
   70.6804   42.5704   58.1437 N   0  0  0  0  0  0  0  0  0  0  0  0
   69.6228   42.0212   57.5287 C   0  0  0  0  0  0  0  0  0  0  0  0
   69.1647   40.7249   57.4009 C   0  0  0  0  0  0  0  0  0  0  0  0
   68.0133   40.4853   56.6859 C   0  0  0  0  0  0  0  0  0  0  0  0
   67.3370   41.5381   56.1116 C   0  0  0  0  0  0  0  0  0  0  0  0
   67.7755   42.8407   56.2263 C   0  0  0  0  0  0  0  0  0  0  0  0
   68.9304   43.0790   56.9433 C   0  0  0  0  0  0  0  0  0  0  0  0
   69.5786   44.2728   57.2088 C   0  0  0  0  0  0  0  0  0  0  0  0
   68.1901   45.9688   56.0860 N   0  0  0  0  0  0  0  0  0  0  0  0
   69.2246   47.7486   52.9966 C   0  0  0  0  0  0  0  0  0  0  0  0
   68.6796   46.9060   52.0547 C   0  0  0  0  0  0  0  0  0  0  0  0
   67.9767   45.7624   52.3869 C   0  0  0  0  0  0  0  0  0  0  0  0
   67.8348   45.4839   53.7419 C   0  0  0  0  0  0  0  0  0  0  0  0
   68.3629   46.2988   54.7130 C   0  0  0  0  0  0  0  0  0  0  0  0
   69.0640   47.4411   54.3501 C   0  0  0  0  0  0  0  0  0  0  0  0
   70.0947   49.1656   52.4935 S   0  0  0  0  0  0  0  0  0  0  0  0
   71.5049   49.1991   52.9653 O   0  0  0  0  0  0  0  0  0  0  0  0
   70.1181   49.2403   50.9874 O   0  0  0  0  0  0  0  0  0  0  0  0
   70.2181   51.3246   53.9696 C   0  0  0  0  0  0  0  0  0  0  0  0
   69.3060   50.5983   53.0805 N   0  0  0  0  0  0  0  0  0  0  0  0
 24 25  1  0
 25 21  1  0
 21 22  2  0
 21 23  2  0
 21 15  1  0
 15 16  2  0
 15 20  1  0
 16 17  1  0
 17 18  2  0
 18 19  1  0
 19 14  1  0
 19 20  2  0
 14  1  1  0
  1  2  2  0
  1 13  1  0
  2  3  1  0
  3  4  2  0
  4  5  1  0
  5  6  1  0
  5 13  2  0
  6  7  1  0
  7  8  1  0
  7 12  2  0
  8  9  2  0
  9 10  1  0
 10 11  2  0
 11 12  1  0
 12 13  1  0
M  END
>  <minimizedAffinity>  (455) 
-9.12965

$$$$
cs_full_output_folder/data/smiles/316.pdb
     RDKit          3D

 23 25  0  0  0  0  0  0  0  0999 V2000
   69.9624   50.6815   54.5505 C   0  0  0  0  0  0  0  0  0  0  0  0
   68.7620   50.5402   55.3020 C   0  0  0  0  0  0  0  0  0  0  0  0
   68.4698   51.3931   56.3329 C   0  0  0  0  0  0  0  0  0  0  0  0
   66.9710   51.2022   57.2526 Cl  0  0  0  0  0  0  0  0  0  0  0  0
   69.3222   52.4164   56.6795 C   0  0  0  0  0  0  0  0  0  0  0  0
   70.4726   52.5448   55.9543 C   0  0  0  0  0  0  0  0  0  0  0  0
   70.8096   51.6705   54.8725 C   0  0  0  0  0  0  0  0  0  0  0  0
   69.7119   50.1743   51.9168 O   0  0  0  0  0  0  0  0  0  0  0  0
   70.1164   49.6023   53.2451 S   0  0  0  0  0  0  0  0  0  0  0  0
   71.5782   49.1987   53.0732 O   0  0  0  0  0  0  0  0  0  0  0  0
   69.2310   48.1319   53.5352 C   0  0  0  0  0  0  0  0  0  0  0  0
   69.1683   47.6807   54.8649 C   0  0  0  0  0  0  0  0  0  0  0  0
   68.5746   46.5157   55.2394 C   0  0  0  0  0  0  0  0  0  0  0  0
   68.0006   45.7287   54.2596 C   0  0  0  0  0  0  0  0  0  0  0  0
   68.0415   46.1365   52.9397 C   0  0  0  0  0  0  0  0  0  0  0  0
   67.4695   45.3490   51.9974 F   0  0  0  0  0  0  0  0  0  0  0  0
   68.6566   47.3367   52.5816 C   0  0  0  0  0  0  0  0  0  0  0  0
   72.0957   51.9014   54.2322 C   0  0  0  0  0  0  0  0  0  0  0  0
   73.2377   51.1828   54.6517 N   0  0  0  0  0  0  0  0  0  0  0  0
   73.7358   51.0070   55.8588 C   0  0  0  0  0  0  0  0  0  0  0  0
   74.8602   50.1766   55.7890 C   0  0  0  0  0  0  0  0  0  0  0  0
   74.9933   49.8805   54.4920 N   0  0  0  0  0  0  0  0  0  0  0  0
   74.0301   50.4797   53.8216 N   0  0  0  0  0  0  0  0  0  0  0  0
  8  9  2  0
  9 10  2  0
  9 11  1  0
  9  1  1  0
 11 12  2  0
 11 17  1  0
 12 13  1  0
 13 14  2  0
 14 15  1  0
 15 16  1  0
 15 17  2  0
  1  2  2  0
  1  7  1  0
  2  3  1  0
  3  4  1  0
  3  5  2  0
  5  6  1  0
  6  7  2  0
  7 18  1  0
 18 19  1  0
 19 20  1  0
 19 23  1  0
 20 21  2  0
 21 22  1  0
 22 23  2  0
M  END
>  <minimizedAffinity>  (456) 
-9.12894

$$$$
cs_full_output_folder/data/smiles/189.pdb
     RDKit          3D

 26 27  0  0  0  0  0  0  0  0999 V2000
   69.6455   50.8903   56.7467 C   0  0  0  0  0  0  0  0  0  0  0  0
   69.2006   52.0859   57.0436 C   0  0  0  0  0  0  0  0  0  0  0  0
   68.7658   52.8834   55.9170 C   0  0  0  0  0  0  0  0  0  0  0  0
   68.8216   52.3904   54.6555 C   0  0  0  0  0  0  0  0  0  0  0  0
   69.2843   51.1072   54.3267 C   0  0  0  0  0  0  0  0  0  0  0  0
   69.6824   50.3841   55.4024 C   0  0  0  0  0  0  0  0  0  0  0  0
   70.9612   49.2928   58.4265 C   0  0  0  0  0  0  0  0  0  0  0  0
   70.3784   49.9964   57.6789 C   0  0  0  0  0  0  0  0  0  0  0  0
   72.3028   47.7260   60.0877 C   0  0  0  0  0  0  0  0  0  0  0  0
   71.7128   48.4115   59.3480 C   0  0  0  0  0  0  0  0  0  0  0  0
   73.6120   47.5935   62.0507 C   0  0  0  0  0  0  0  0  0  0  0  0
   73.0203   46.8969   61.0030 C   0  0  0  0  0  0  0  0  0  0  0  0
   74.9479   45.7552   62.7026 O   0  0  0  0  0  0  0  0  0  0  0  0
   74.3927   46.7910   63.0551 C   0  0  0  0  0  0  0  0  0  0  0  0
   74.5053   47.1976   64.3963 N   0  0  0  0  0  0  0  0  0  0  0  0
   75.2089   46.3815   65.2746 O   0  0  0  0  0  0  0  0  0  0  0  0
   69.3588   50.6176   53.0065 N   0  0  0  0  0  0  0  0  0  0  0  0
   70.0625   49.1642   52.5443 S   0  0  0  0  0  0  0  0  0  0  0  0
   71.5005   49.0883   53.0458 O   0  0  0  0  0  0  0  0  0  0  0  0
   70.1832   49.1294   51.0286 O   0  0  0  0  0  0  0  0  0  0  0  0
   69.1845   47.7613   53.0425 C   0  0  0  0  0  0  0  0  0  0  0  0
   68.6447   46.9388   51.9112 C   0  0  0  0  0  0  0  0  0  0  0  0
   67.9689   45.8603   52.3190 C   0  0  0  0  0  0  0  0  0  0  0  0
   67.7109   45.4298   53.6144 C   0  0  0  0  0  0  0  0  0  0  0  0
   68.2167   46.2061   54.5887 C   0  0  0  0  0  0  0  0  0  0  0  0
   68.9418   47.3578   54.2723 C   0  0  0  0  0  0  0  0  0  0  0  0
 13 14  2  0
 14 11  1  0
 14 15  1  0
 11 12  2  0
 12  9  1  0
  9 10  3  0
 10  7  1  0
  7  8  3  0
  8  1  1  0
  1  2  2  0
  1  6  1  0
  2  3  1  0
  3  4  2  0
  4  5  1  0
  5 17  1  0
  5  6  2  0
 17 18  1  0
 18 19  2  0
 18 20  2  0
 18 21  1  0
 21 22  2  0
 21 26  1  0
 22 23  1  0
 23 24  2  0
 24 25  1  0
 25 26  2  0
 15 16  1  0
M  END
>  <minimizedAffinity>  (457) 
-9.12777

$$$$
cs_full_output_folder/data/smiles/8037.pdb
     RDKit          3D

 29 32  0  0  0  0  0  0  0  0999 V2000
   71.2396   49.4427   58.1153 C   0  0  0  0  0  0  0  0  0  0  0  0
   71.5614   48.2343   58.9134 C   0  0  0  0  0  0  0  0  0  0  0  0
   72.4473   48.3574   59.9920 C   0  0  0  0  0  0  0  0  0  0  0  0
   72.7933   47.2890   60.7485 C   0  0  0  0  0  0  0  0  0  0  0  0
   72.2577   46.0326   60.4500 C   0  0  0  0  0  0  0  0  0  0  0  0
   71.3956   45.8982   59.4056 C   0  0  0  0  0  0  0  0  0  0  0  0
   71.0578   47.0135   58.6492 C   0  0  0  0  0  0  0  0  0  0  0  0
   70.8212   44.6217   58.9998 C   0  0  0  0  0  0  0  0  0  0  0  0
   69.6516   44.3305   59.3124 O   0  0  0  0  0  0  0  0  0  0  0  0
   71.6472   43.7515   58.2473 N   0  0  0  0  0  0  0  0  0  0  0  0
   73.0020   44.1751   57.9234 C   0  0  0  0  0  0  0  0  0  0  0  0
   73.8920   42.9409   57.8282 C   0  0  0  0  0  0  0  0  0  0  0  0
   73.3670   41.9313   58.8094 C   0  0  0  0  0  0  0  0  0  0  0  0
   72.0801   41.3457   58.2629 C   0  0  0  0  0  0  0  0  0  0  0  0
   71.1512   42.4520   57.8029 C   0  0  0  0  0  0  0  0  0  0  0  0
   69.0853   49.9159   56.3273 O   0  0  0  0  0  0  0  0  0  0  0  0
   70.0767   49.3050   55.8842 C   0  0  0  0  0  0  0  0  0  0  0  0
   71.1785   49.0481   56.7098 N   0  0  0  0  0  0  0  0  0  0  0  0
   70.0980   48.8616   54.5000 C   0  0  0  0  0  0  0  0  0  0  0  0
   70.8594   49.5063   53.5846 N   0  0  0  0  0  0  0  0  0  0  0  0
   70.9039   49.1780   52.3154 N   0  0  0  0  0  0  0  0  0  0  0  0
   70.1698   48.1464   51.8377 C   0  0  0  0  0  0  0  0  0  0  0  0
   70.2138   47.8250   50.6204 O   0  0  0  0  0  0  0  0  0  0  0  0
   69.3601   47.4370   52.7157 C   0  0  0  0  0  0  0  0  0  0  0  0
   68.5566   46.3909   52.2711 C   0  0  0  0  0  0  0  0  0  0  0  0
   67.7231   45.7040   53.1449 C   0  0  0  0  0  0  0  0  0  0  0  0
   67.7010   46.0740   54.4699 C   0  0  0  0  0  0  0  0  0  0  0  0
   68.5000   47.1109   54.9079 C   0  0  0  0  0  0  0  0  0  0  0  0
   69.3209   47.7894   54.0513 C   0  0  0  0  0  0  0  0  0  0  0  0
 16 17  2  0
 17 18  1  0
 17 19  1  0
 18  1  1  0
  1  2  1  0
  2  3  2  0
  2  7  1  0
  3  4  1  0
  4  5  2  0
  5  6  1  0
  6  8  1  0
  6  7  2  0
  8  9  2  0
  8 10  1  0
 10 11  1  0
 10 15  1  0
 11 12  1  0
 12 13  1  0
 13 14  1  0
 14 15  1  0
 19 20  2  0
 19 29  1  0
 20 21  1  0
 21 22  1  0
 22 23  2  0
 22 24  1  0
 24 25  1  0
 24 29  2  0
 25 26  2  0
 26 27  1  0
 27 28  2  0
 28 29  1  0
M  END
>  <minimizedAffinity>  (458) 
-9.12459

$$$$
cs_full_output_folder/data/smiles/1575.pdb
     RDKit          3D

 29 32  0  0  0  0  0  0  0  0999 V2000
   71.2719   44.8968   58.1317 C   0  0  0  0  0  0  0  0  0  0  0  0
   71.9789   45.7526   58.9547 C   0  0  0  0  0  0  0  0  0  0  0  0
   71.6709   47.0854   58.9650 C   0  0  0  0  0  0  0  0  0  0  0  0
   70.6800   47.5532   58.1728 C   0  0  0  0  0  0  0  0  0  0  0  0
   69.9098   46.7490   57.3055 C   0  0  0  0  0  0  0  0  0  0  0  0
   70.2479   45.4148   57.3213 C   0  0  0  0  0  0  0  0  0  0  0  0
   72.5220   43.0571   57.3652 O   0  0  0  0  0  0  0  0  0  0  0  0
   71.5811   43.4771   58.0628 C   0  0  0  0  0  0  0  0  0  0  0  0
   70.7897   42.5827   58.8044 N   0  0  0  0  0  0  0  0  0  0  0  0
   69.7178   43.0465   59.6296 C   0  0  0  0  0  0  0  0  0  0  0  0
   68.5303   42.0912   59.6367 C   0  0  0  0  0  0  0  0  0  0  0  0
   68.5969   41.2161   58.5496 N   0  0  0  0  0  0  0  0  0  0  0  0
   69.7385   40.4449   58.3144 C   0  0  0  0  0  0  0  0  0  0  0  0
   71.0316   41.1432   58.7379 C   0  0  0  0  0  0  0  0  0  0  0  0
   67.4694   40.9813   57.7697 C   0  0  0  0  0  0  0  0  0  0  0  0
   67.6573   41.4169   56.3199 C   0  0  0  0  0  0  0  0  0  0  0  0
   67.6839   40.2590   55.5445 O   0  0  0  0  0  0  0  0  0  0  0  0
   68.8504   47.3670   56.4782 C   0  0  0  0  0  0  0  0  0  0  0  0
   69.2125   47.7438   55.1172 C   0  0  0  0  0  0  0  0  0  0  0  0
   70.0954   48.7611   54.9063 N   0  0  0  0  0  0  0  0  0  0  0  0
   70.5184   49.1436   53.7198 N   0  0  0  0  0  0  0  0  0  0  0  0
   70.1180   48.5587   52.5645 C   0  0  0  0  0  0  0  0  0  0  0  0
   70.5319   48.9311   51.4317 O   0  0  0  0  0  0  0  0  0  0  0  0
   69.2129   47.5120   52.7096 C   0  0  0  0  0  0  0  0  0  0  0  0
   68.7297   46.8772   51.5819 C   0  0  0  0  0  0  0  0  0  0  0  0
   67.8011   45.8465   51.7229 C   0  0  0  0  0  0  0  0  0  0  0  0
   67.3709   45.4661   52.9739 C   0  0  0  0  0  0  0  0  0  0  0  0
   67.8693   46.1130   54.0763 C   0  0  0  0  0  0  0  0  0  0  0  0
   68.7733   47.1167   53.9492 C   0  0  0  0  0  0  0  0  0  0  0  0
  7  8  2  0
  8  1  1  0
  8  9  1  0
  1  2  2  0
  1  6  1  0
  2  3  1  0
  3  4  2  0
  4  5  1  0
  5 18  1  0
  5  6  2  0
 18 19  1  0
 19 20  2  0
 19 29  1  0
 20 21  1  0
 21 22  1  0
 22 23  2  0
 22 24  1  0
 24 25  1  0
 24 29  2  0
 25 26  2  0
 26 27  1  0
 27 28  2  0
 28 29  1  0
  9 10  1  0
  9 14  1  0
 10 11  1  0
 11 12  1  0
 12 15  1  0
 12 13  1  0
 15 16  1  0
 16 17  1  0
 13 14  1  0
M  CHG  1  12   1
M  END
>  <minimizedAffinity>  (459) 
-9.12423

$$$$
cs_full_output_folder/data/smiles/4656.pdb
     RDKit          3D

 26 27  0  0  0  0  0  0  0  0999 V2000
   70.6309   45.9241   58.2565 C   0  0  0  0  0  0  0  0  0  0  0  0
   71.6978   46.8928   59.0029 S   0  0  0  0  0  0  0  0  0  0  0  0
   70.1989   43.5628   58.9199 C   0  0  0  0  0  0  0  0  0  0  0  0
   69.3548   44.0072   59.7523 O   0  0  0  0  0  0  0  0  0  0  0  0
   70.8681   44.5317   58.1395 N   0  0  0  0  0  0  0  0  0  0  0  0
   70.8269   39.3155   58.5460 C   0  0  0  0  0  0  0  0  0  0  0  0
   71.8892   40.2022   58.4754 C   0  0  0  0  0  0  0  0  0  0  0  0
   71.6935   41.5797   58.5964 C   0  0  0  0  0  0  0  0  0  0  0  0
   70.4531   42.1338   58.7888 C   0  0  0  0  0  0  0  0  0  0  0  0
   69.3874   41.2347   58.8590 C   0  0  0  0  0  0  0  0  0  0  0  0
   69.5805   39.8745   58.7405 C   0  0  0  0  0  0  0  0  0  0  0  0
   70.4798   37.1934   59.7112 C   0  0  0  0  0  0  0  0  0  0  0  0
   70.9800   37.8632   58.4258 C   0  0  0  0  0  0  0  0  0  0  0  0
   72.3601   37.3963   58.1085 C   0  0  0  0  0  0  0  0  0  0  0  0
   69.4553   46.4743   57.7190 N   0  0  0  0  0  0  0  0  0  0  0  0
   69.3739   46.8212   56.3440 N   0  0  0  0  0  0  0  0  0  0  0  0
   68.6930   45.9950   55.4224 C   0  0  0  0  0  0  0  0  0  0  0  0
   68.1665   44.9389   55.8951 O   0  0  0  0  0  0  0  0  0  0  0  0
   68.5590   46.2693   54.0022 C   0  0  0  0  0  0  0  0  0  0  0  0
   67.6489   45.5652   53.2527 C   0  0  0  0  0  0  0  0  0  0  0  0
   67.4909   45.7984   51.8911 C   0  0  0  0  0  0  0  0  0  0  0  0
   68.2718   46.7605   51.2953 C   0  0  0  0  0  0  0  0  0  0  0  0
   69.1819   47.4634   52.0515 C   0  0  0  0  0  0  0  0  0  0  0  0
   69.3399   47.2370   53.3890 C   0  0  0  0  0  0  0  0  0  0  0  0
   69.9703   48.4371   51.4406 O   0  0  0  0  0  0  0  0  0  0  0  0
   69.8270   49.7371   51.6933 O   0  0  0  0  0  0  0  0  0  0  0  0
 12 13  1  0
 13 14  1  0
 13  6  1  0
  6  7  2  0
  6 11  1  0
  7  8  1  0
  8  9  2  0
  9  3  1  0
  9 10  1  0
  3  4  2  0
  3  5  1  0
  5  1  1  0
  1  2  2  0
  1 15  1  0
 15 16  1  0
 16 17  1  0
 17 18  2  0
 17 19  1  0
 19 20  2  0
 19 24  1  0
 20 21  1  0
 21 22  2  0
 22 23  1  0
 23 25  1  0
 23 24  2  0
 25 26  1  0
 10 11  2  0
M  END
>  <minimizedAffinity>  (460) 
-9.12373

$$$$
cs_full_output_folder/data/smiles/6371.pdb
     RDKit          3D

 28 31  0  0  0  0  0  0  0  0999 V2000
   70.4594   45.9819   58.5694 C   0  0  0  0  0  0  0  0  0  0  0  0
   69.6984   46.7269   57.7171 C   0  0  0  0  0  0  0  0  0  0  0  0
   70.0640   48.0137   57.2653 C   0  0  0  0  0  0  0  0  0  0  0  0
   71.2521   48.5157   57.7220 C   0  0  0  0  0  0  0  0  0  0  0  0
   72.0492   47.7877   58.5865 C   0  0  0  0  0  0  0  0  0  0  0  0
   71.6737   46.5390   59.0142 C   0  0  0  0  0  0  0  0  0  0  0  0
   72.4545   45.8081   59.8697 F   0  0  0  0  0  0  0  0  0  0  0  0
   71.0855   43.3973   57.4030 O   0  0  0  0  0  0  0  0  0  0  0  0
   70.4119   43.4511   58.4494 C   0  0  0  0  0  0  0  0  0  0  0  0
   70.1078   44.6877   59.0192 N   0  0  0  0  0  0  0  0  0  0  0  0
   69.9592   42.1516   59.0453 C   0  0  2  0  0  0  0  0  0  0  0  0
   69.2987   41.2493   58.0655 C   0  0  0  0  0  0  0  0  0  0  0  0
   67.8267   41.4129   57.9091 C   0  0  0  0  0  0  0  0  0  0  0  0
   67.1078   41.6140   59.2209 C   0  0  0  0  0  0  0  0  0  0  0  0
   67.7245   42.7062   59.9466 N   0  0  0  0  0  0  0  0  0  0  0  0
   69.0920   42.3985   60.2311 C   0  0  0  0  0  0  0  0  0  0  0  0
   69.1459   48.6916   56.3178 C   0  0  0  0  0  0  0  0  0  0  0  0
   69.5748   48.6106   54.9019 C   0  0  0  0  0  0  0  0  0  0  0  0
   70.4965   49.4683   54.4178 N   0  0  0  0  0  0  0  0  0  0  0  0
   70.8808   49.4794   53.1582 N   0  0  0  0  0  0  0  0  0  0  0  0
   70.3234   48.5972   52.3359 C   0  0  0  0  0  0  0  0  0  0  0  0
   70.6949   48.6093   51.1201 O   0  0  0  0  0  0  0  0  0  0  0  0
   69.3582   47.6601   52.7284 C   0  0  0  0  0  0  0  0  0  0  0  0
   68.9782   47.6726   54.0497 C   0  0  0  0  0  0  0  0  0  0  0  0
   67.9904   46.6883   54.6097 C   0  0  0  0  0  0  0  0  0  0  0  0
   67.9611   45.5012   53.6333 C   0  0  0  0  0  0  0  0  0  0  0  0
   67.5916   46.0645   52.2553 C   0  0  0  0  0  0  0  0  0  0  0  0
   68.8149   46.7255   51.6957 C   0  0  0  0  0  0  0  0  0  0  0  0
  8  9  2  0
  9 10  1  0
 11  9  1  6
 10  1  1  0
  1  2  2  0
  1  6  1  0
  2  3  1  0
  3 17  1  0
  3  4  2  0
 17 18  1  0
 18 19  2  0
 18 24  1  0
 19 20  1  0
 20 21  1  0
 21 22  2  0
 21 23  1  0
 23 24  2  0
 23 28  1  0
 24 25  1  0
 25 26  1  0
 26 27  1  0
 27 28  1  0
  4  5  1  0
  5  6  2  0
  6  7  1  0
 11 12  1  0
 11 16  1  0
 12 13  1  0
 13 14  1  0
 14 15  1  0
 15 16  1  0
M  CHG  1  15   1
M  END
>  <minimizedAffinity>  (461) 
-9.12369

$$$$
cs_full_output_folder/data/smiles/4024.pdb
     RDKit          3D

 29 33  0  0  0  0  0  0  0  0999 V2000
   71.5551   47.1530   58.7775 C   0  0  0  0  0  0  0  0  0  0  0  0
   70.6900   47.8965   57.9707 C   0  0  0  0  0  0  0  0  0  0  0  0
   69.7649   47.3604   57.1202 C   0  0  0  0  0  0  0  0  0  0  0  0
   69.6994   45.9561   57.0719 C   0  0  0  0  0  0  0  0  0  0  0  0
   70.5314   45.1784   57.8478 C   0  0  0  0  0  0  0  0  0  0  0  0
   71.4465   45.7822   58.6893 C   0  0  0  0  0  0  0  0  0  0  0  0
   72.2814   45.0246   59.4693 F   0  0  0  0  0  0  0  0  0  0  0  0
   72.2170   47.9949   60.8454 O   0  0  0  0  0  0  0  0  0  0  0  0
   72.5097   47.8040   59.6542 C   0  0  0  0  0  0  0  0  0  0  0  0
   73.7593   48.2158   59.1563 N   0  0  0  0  0  0  0  0  0  0  0  0
   74.8170   48.8836   59.9289 C   0  0  0  0  0  0  0  0  0  0  0  0
   75.2633   49.9426   58.9762 C   0  0  1  0  0  0  0  0  0  0  0  0
   76.7029   50.3318   59.1442 C   0  0  0  0  0  0  0  0  0  0  0  0
   77.4581   49.7056   58.1990 O   0  0  0  0  0  0  0  0  0  0  0  0
   76.6850   48.8252   57.4923 C   0  0  0  0  0  0  0  0  0  0  0  0
   75.2544   49.2447   57.6401 C   0  0  1  0  0  0  0  0  0  0  0  0
   74.3124   48.0976   57.8156 C   0  0  0  0  0  0  0  0  0  0  0  0
   68.8473   48.1651   56.2849 C   0  0  0  0  0  0  0  0  0  0  0  0
   69.2342   48.2941   54.8795 C   0  0  0  0  0  0  0  0  0  0  0  0
   70.1316   49.2608   54.5295 N   0  0  0  0  0  0  0  0  0  0  0  0
   70.5727   49.4349   53.3015 N   0  0  0  0  0  0  0  0  0  0  0  0
   70.1558   48.6506   52.2807 C   0  0  0  0  0  0  0  0  0  0  0  0
   70.5940   48.8345   51.0968 O   0  0  0  0  0  0  0  0  0  0  0  0
   69.2500   47.6626   52.5825 C   0  0  0  0  0  0  0  0  0  0  0  0
   68.7994   46.8564   51.5629 C   0  0  0  0  0  0  0  0  0  0  0  0
   67.8868   45.8597   51.7953 C   0  0  0  0  0  0  0  0  0  0  0  0
   67.4284   45.6893   53.0988 C   0  0  0  0  0  0  0  0  0  0  0  0
   67.8600   46.4772   54.1342 C   0  0  0  0  0  0  0  0  0  0  0  0
   68.7776   47.4736   53.8884 C   0  0  0  0  0  0  0  0  0  0  0  0
  8  9  2  0
  9  1  1  0
  9 10  1  0
  1  2  2  0
  1  6  1  0
  2  3  1  0
  3 18  1  0
  3  4  2  0
 18 19  1  0
 19 20  2  0
 19 29  1  0
 20 21  1  0
 21 22  1  0
 22 23  2  0
 22 24  1  0
 24 25  1  0
 24 29  2  0
 25 26  2  0
 26 27  1  0
 27 28  2  0
 28 29  1  0
  4  5  1  0
  5  6  2  0
  6  7  1  0
 10 11  1  0
 10 17  1  0
 12 11  1  1
 12 13  1  0
 12 16  1  0
 13 14  1  0
 14 15  1  0
 16 15  1  1
 16 17  1  0
M  END
>  <minimizedAffinity>  (462) 
-9.12209

$$$$
cs_full_output_folder/data/smiles/9176.pdb
     RDKit          3D

 29 33  0  0  0  0  0  0  0  0999 V2000
   71.4238   47.2423   58.7569 C   0  0  0  0  0  0  0  0  0  0  0  0
   70.5902   47.9897   57.9620 C   0  0  0  0  0  0  0  0  0  0  0  0
   69.7066   47.3787   57.0589 C   0  0  0  0  0  0  0  0  0  0  0  0
   69.7040   46.0120   56.9987 C   0  0  0  0  0  0  0  0  0  0  0  0
   70.5445   45.2277   57.7992 C   0  0  0  0  0  0  0  0  0  0  0  0
   71.3969   45.8606   58.6711 C   0  0  0  0  0  0  0  0  0  0  0  0
   72.2148   45.1215   59.4528 F   0  0  0  0  0  0  0  0  0  0  0  0
   77.6698   48.0850   58.7619 C   0  0  0  0  0  0  0  0  0  0  0  0
   76.2471   47.8416   58.8726 N   0  0  1  0  0  0  0  0  0  0  0  0
   75.7878   47.9470   60.2491 C   0  0  0  0  0  0  0  0  0  0  0  0
   74.6533   48.9237   60.1569 C   0  0  1  0  0  0  0  0  0  0  0  0
   75.2729   49.9005   59.1396 C   0  0  0  0  0  0  0  0  0  0  0  0
   75.5198   48.7997   58.0910 C   0  0  2  0  0  0  0  0  0  0  0  0
   74.1019   48.2944   57.9370 C   0  0  0  0  0  0  0  0  0  0  0  0
   73.6314   48.3249   59.3279 N   0  0  0  0  0  0  0  0  0  0  0  0
   72.3552   47.8220   59.7047 C   0  0  0  0  0  0  0  0  0  0  0  0
   72.0289   47.8862   60.9123 O   0  0  0  0  0  0  0  0  0  0  0  0
   68.8355   48.2783   56.2697 C   0  0  0  0  0  0  0  0  0  0  0  0
   69.2497   48.3841   54.8522 C   0  0  0  0  0  0  0  0  0  0  0  0
   70.1581   49.3334   54.5160 N   0  0  0  0  0  0  0  0  0  0  0  0
   70.6082   49.4672   53.3000 N   0  0  0  0  0  0  0  0  0  0  0  0
   70.1721   48.6484   52.3250 C   0  0  0  0  0  0  0  0  0  0  0  0
   70.6132   48.7871   51.1610 O   0  0  0  0  0  0  0  0  0  0  0  0
   69.2592   47.6673   52.5803 C   0  0  0  0  0  0  0  0  0  0  0  0
   68.8074   46.8387   51.5797 C   0  0  0  0  0  0  0  0  0  0  0  0
   67.8702   45.8590   51.8666 C   0  0  0  0  0  0  0  0  0  0  0  0
   67.3993   45.7267   53.1544 C   0  0  0  0  0  0  0  0  0  0  0  0
   67.8550   46.5615   54.1574 C   0  0  0  0  0  0  0  0  0  0  0  0
   68.7807   47.5309   53.8894 C   0  0  0  0  0  0  0  0  0  0  0  0
  9  8  1  1
  9 10  1  0
  9 13  1  0
 11 10  1  6
 11 12  1  0
 11 15  1  0
 12 13  1  0
 13 14  1  1
 14 15  1  0
 15 16  1  0
 16 17  2  0
 16  1  1  0
  1  2  2  0
  1  6  1  0
  2  3  1  0
  3 18  1  0
  3  4  2  0
 18 19  1  0
 19 20  2  0
 19 29  1  0
 20 21  1  0
 21 22  1  0
 22 23  2  0
 22 24  1  0
 24 25  1  0
 24 29  2  0
 25 26  2  0
 26 27  1  0
 27 28  2  0
 28 29  1  0
  4  5  1  0
  5  6  2  0
  6  7  1  0
M  CHG  1   9   1
M  END
>  <minimizedAffinity>  (463) 
-9.11885

$$$$
cs_full_output_folder/data/smiles/2053.pdb
     RDKit          3D

 27 28  0  0  0  0  0  0  0  0999 V2000
   69.9712   45.5043   57.9909 C   0  0  2  0  0  0  0  0  0  0  0  0
   71.2544   46.6609   58.5838 S   0  0  0  0  0  0  0  0  0  0  0  0
   69.7697   42.9909   57.8618 C   0  0  0  0  0  0  0  0  0  0  0  0
   68.6763   43.1587   57.2618 O   0  0  0  0  0  0  0  0  0  0  0  0
   70.4583   44.1666   58.2486 N   0  0  0  0  0  0  0  0  0  0  0  0
   71.2821   39.0415   58.6055 C   0  0  0  0  0  0  0  0  0  0  0  0
   72.1099   40.1393   58.5174 C   0  0  0  0  0  0  0  0  0  0  0  0
   71.5984   41.3987   58.2777 C   0  0  0  0  0  0  0  0  0  0  0  0
   70.2487   41.6328   58.1142 C   0  0  0  0  0  0  0  0  0  0  0  0
   69.4176   40.5385   58.2004 C   0  0  0  0  0  0  0  0  0  0  0  0
   69.9309   39.2621   58.4432 C   0  0  0  0  0  0  0  0  0  0  0  0
   73.1297   37.7700   59.6601 C   0  0  0  0  0  0  0  0  0  0  0  0
   71.8389   37.6823   58.8640 C   0  0  0  0  0  0  0  0  0  0  0  0
   72.1753   36.9602   57.5742 C   0  0  0  0  0  0  0  0  0  0  0  0
   70.8469   36.8444   59.6213 C   0  0  0  0  0  0  0  0  0  0  0  0
   69.9084   45.6923   56.5372 N   0  0  0  0  0  0  0  0  0  0  0  0
   68.8359   46.3717   55.9185 C   0  0  0  0  0  0  0  0  0  0  0  0
   67.9195   46.8183   56.6787 O   0  0  0  0  0  0  0  0  0  0  0  0
   68.7187   46.5894   54.4794 C   0  0  0  0  0  0  0  0  0  0  0  0
   67.9039   45.7791   53.7162 C   0  0  0  0  0  0  0  0  0  0  0  0
   67.7588   45.9421   52.3554 C   0  0  0  0  0  0  0  0  0  0  0  0
   68.4464   46.9499   51.7091 C   0  0  0  0  0  0  0  0  0  0  0  0
   69.2673   47.7710   52.4529 C   0  0  0  0  0  0  0  0  0  0  0  0
   69.3929   47.5813   53.8236 C   0  0  0  0  0  0  0  0  0  0  0  0
   69.9732   48.8068   51.7817 N   0  0  0  0  0  0  0  0  0  0  0  0
   70.7126   48.5654   50.8172 O   0  0  0  0  0  0  0  0  0  0  0  0
   69.8729   50.1292   52.1668 O   0  0  0  0  0  0  0  0  0  0  0  0
 12 13  1  0
 13 14  1  0
 13 15  1  0
 13  6  1  0
  6  7  2  0
  6 11  1  0
  7  8  1  0
  8  9  2  0
  9  3  1  0
  9 10  1  0
  3  4  2  0
  3  5  1  0
  5  1  1  0
  1  2  1  1
  1 16  1  0
 16 17  1  0
 17 18  2  0
 17 19  1  0
 19 20  2  0
 19 24  1  0
 20 21  1  0
 21 22  2  0
 22 23  1  0
 23 25  1  0
 23 24  2  0
 25 26  2  0
 25 27  1  0
 10 11  2  0
M  CHG  2  25   1  27  -1
M  END
>  <minimizedAffinity>  (464) 
-9.11760

$$$$
cs_full_output_folder/data/smiles/2552.pdb
     RDKit          3D

 28 31  0  0  0  0  0  0  0  0999 V2000
   70.8976   45.6727   57.8841 C   0  0  0  0  0  0  0  0  0  0  0  0
   71.9568   46.2276   58.6139 C   0  0  0  0  0  0  0  0  0  0  0  0
   72.1821   47.5847   58.6694 C   0  0  0  0  0  0  0  0  0  0  0  0
   71.3256   48.4312   57.9740 C   0  0  0  0  0  0  0  0  0  0  0  0
   70.2747   47.9253   57.2465 C   0  0  0  0  0  0  0  0  0  0  0  0
   70.1054   46.5599   57.2334 C   0  0  0  0  0  0  0  0  0  0  0  0
   69.4152   44.0685   59.7486 O   0  0  0  0  0  0  0  0  0  0  0  0
   70.0569   43.4904   58.8433 C   0  0  0  0  0  0  0  0  0  0  0  0
   70.7904   44.2665   57.9198 N   0  0  0  0  0  0  0  0  0  0  0  0
   70.0313   41.9838   58.7602 C   0  0  0  0  0  0  0  0  0  0  0  0
   69.0524   41.6368   57.7031 C   0  0  0  0  0  0  0  0  0  0  0  0
   68.3994   42.5597   56.9125 C   0  0  0  0  0  0  0  0  0  0  0  0
   67.4868   42.1500   55.9343 C   0  0  0  0  0  0  0  0  0  0  0  0
   67.2300   40.8088   55.7513 C   0  0  0  0  0  0  0  0  0  0  0  0
   67.8747   39.9180   56.5305 N   0  0  0  0  0  0  0  0  0  0  0  0
   68.7522   40.3116   57.4707 C   0  0  0  0  0  0  0  0  0  0  0  0
   69.3880   48.8643   56.5226 C   0  0  0  0  0  0  0  0  0  0  0  0
   69.7442   48.7684   55.0682 C   0  0  0  0  0  0  0  0  0  0  0  0
   70.7737   49.4627   54.5511 N   0  0  0  0  0  0  0  0  0  0  0  0
   71.1501   49.4353   53.2967 N   0  0  0  0  0  0  0  0  0  0  0  0
   70.4578   48.6553   52.4641 C   0  0  0  0  0  0  0  0  0  0  0  0
   70.7460   48.5606   51.2293 O   0  0  0  0  0  0  0  0  0  0  0  0
   69.3914   47.9057   52.8887 C   0  0  0  0  0  0  0  0  0  0  0  0
   69.0253   47.9600   54.2108 C   0  0  0  0  0  0  0  0  0  0  0  0
   67.8996   47.2021   54.7633 C   0  0  0  0  0  0  0  0  0  0  0  0
   67.5568   45.9792   53.9766 C   0  0  0  0  0  0  0  0  0  0  0  0
   68.4022   45.7345   52.7687 C   0  0  0  0  0  0  0  0  0  0  0  0
   68.6149   47.0349   51.9814 C   0  0  0  0  0  0  0  0  0  0  0  0
  7  8  2  0
  8 10  1  0
  8  9  1  0
 10 11  1  0
 11 12  2  0
 11 16  1  0
 12 13  1  0
 13 14  2  0
 14 15  1  0
 15 16  2  0
  9  1  1  0
  1  2  2  0
  1  6  1  0
  2  3  1  0
  3  4  2  0
  4  5  1  0
  5 17  1  0
  5  6  2  0
 17 18  1  0
 18 19  2  0
 18 24  1  0
 19 20  1  0
 20 21  1  0
 21 22  2  0
 21 23  1  0
 23 24  2  0
 23 28  1  0
 24 25  1  0
 25 26  1  0
 26 27  1  0
 27 28  1  0
M  END
>  <minimizedAffinity>  (465) 
-9.11743

$$$$
cs_full_output_folder/data/smiles/295.pdb
     RDKit          3D

 28 31  0  0  0  0  0  0  0  0999 V2000
   70.7850   45.2484   57.9295 C   0  0  0  0  0  0  0  0  0  0  0  0
   69.8924   46.0330   57.1962 C   0  0  0  0  0  0  0  0  0  0  0  0
   69.9154   47.4011   57.1835 C   0  0  0  0  0  0  0  0  0  0  0  0
   70.9104   48.0127   57.9678 C   0  0  0  0  0  0  0  0  0  0  0  0
   71.7929   47.2606   58.6938 C   0  0  0  0  0  0  0  0  0  0  0  0
   71.7356   45.8812   58.6795 C   0  0  0  0  0  0  0  0  0  0  0  0
   72.5939   45.1032   59.3862 F   0  0  0  0  0  0  0  0  0  0  0  0
   69.2845   43.8399   59.6746 O   0  0  0  0  0  0  0  0  0  0  0  0
   69.8625   43.1267   58.8061 C   0  0  0  0  0  0  0  0  0  0  0  0
   70.6672   43.8352   57.8655 N   0  0  0  0  0  0  0  0  0  0  0  0
   69.6832   41.6791   58.8101 C   0  0  2  0  0  0  0  0  0  0  0  0
   70.9269   40.8944   58.4854 C   0  0  0  0  0  0  0  0  0  0  0  0
   70.6544   39.4351   58.4147 C   0  0  0  0  0  0  0  0  0  0  0  0
   69.1762   39.1427   58.6321 C   0  0  0  0  0  0  0  0  0  0  0  0
   68.4607   39.9055   57.6308 N   0  0  0  0  0  0  0  0  0  0  0  0
   68.4861   41.3066   57.9757 C   0  0  0  0  0  0  0  0  0  0  0  0
   68.9814   48.2779   56.4216 C   0  0  0  0  0  0  0  0  0  0  0  0
   69.3694   48.4201   54.9971 C   0  0  0  0  0  0  0  0  0  0  0  0
   70.3120   49.3254   54.6552 N   0  0  0  0  0  0  0  0  0  0  0  0
   70.7892   49.4417   53.4365 N   0  0  0  0  0  0  0  0  0  0  0  0
   70.3291   48.6312   52.4730 C   0  0  0  0  0  0  0  0  0  0  0  0
   70.7652   48.7145   51.3074 O   0  0  0  0  0  0  0  0  0  0  0  0
   69.3445   47.6623   52.7499 C   0  0  0  0  0  0  0  0  0  0  0  0
   68.8540   47.5586   54.0390 C   0  0  0  0  0  0  0  0  0  0  0  0
   67.7661   46.6581   54.4327 C   0  0  0  0  0  0  0  0  0  0  0  0
   67.7638   45.4844   53.4694 C   0  0  0  0  0  0  0  0  0  0  0  0
   67.6817   45.9989   52.0394 C   0  0  0  0  0  0  0  0  0  0  0  0
   68.8843   46.7798   51.6470 C   0  0  0  0  0  0  0  0  0  0  0  0
  8  9  2  0
  9 10  1  0
 11  9  1  6
 10  1  1  0
  1  2  2  0
  1  6  1  0
  2  3  1  0
  3 17  1  0
  3  4  2  0
 17 18  1  0
 18 19  2  0
 18 24  1  0
 19 20  1  0
 20 21  1  0
 21 22  2  0
 21 23  1  0
 23 24  2  0
 23 28  1  0
 24 25  1  0
 25 26  1  0
 26 27  1  0
 27 28  1  0
  4  5  1  0
  5  6  2  0
  6  7  1  0
 11 12  1  0
 11 16  1  0
 12 13  1  0
 13 14  1  0
 14 15  1  0
 15 16  1  0
M  CHG  1  15   1
M  END
>  <minimizedAffinity>  (466) 
-9.11718

$$$$
cs_full_output_folder/data/smiles/6453.pdb
     RDKit          3D

 29 33  0  0  0  0  0  0  0  0999 V2000
   71.4374   47.3520   58.7744 C   0  0  0  0  0  0  0  0  0  0  0  0
   70.4560   47.9403   57.9955 C   0  0  0  0  0  0  0  0  0  0  0  0
   69.6151   47.2378   57.1480 C   0  0  0  0  0  0  0  0  0  0  0  0
   69.7557   45.8868   57.0732 C   0  0  0  0  0  0  0  0  0  0  0  0
   70.7473   45.2543   57.8543 C   0  0  0  0  0  0  0  0  0  0  0  0
   71.5666   45.9812   58.6845 C   0  0  0  0  0  0  0  0  0  0  0  0
   72.5031   45.3436   59.4150 F   0  0  0  0  0  0  0  0  0  0  0  0
   72.1790   48.0180   60.9047 O   0  0  0  0  0  0  0  0  0  0  0  0
   72.3087   48.1076   59.6674 C   0  0  0  0  0  0  0  0  0  0  0  0
   73.3092   48.9515   59.1415 N   0  0  0  0  0  0  0  0  0  0  0  0
   73.6274   49.1958   57.7339 C   0  0  0  0  0  0  0  0  0  0  0  0
   75.1015   49.3637   57.7373 C   0  0  0  0  0  0  0  0  0  0  0  0
   76.1996   49.3300   57.0248 C   0  0  0  0  0  0  0  0  0  0  0  0
   77.3652   49.6507   57.8680 C   0  0  0  0  0  0  0  0  0  0  0  0
   76.7669   49.8804   59.2024 C   0  0  0  0  0  0  0  0  0  0  0  0
   75.4778   49.7099   59.0972 C   0  0  0  0  0  0  0  0  0  0  0  0
   74.2260   49.7496   59.9254 C   0  0  0  0  0  0  0  0  0  0  0  0
   68.5902   47.9853   56.3893 C   0  0  0  0  0  0  0  0  0  0  0  0
   69.0359   48.1774   54.9895 C   0  0  0  0  0  0  0  0  0  0  0  0
   69.9318   49.1746   54.7175 N   0  0  0  0  0  0  0  0  0  0  0  0
   70.4387   49.4172   53.5465 N   0  0  0  0  0  0  0  0  0  0  0  0
   70.0950   48.6740   52.5080 C   0  0  0  0  0  0  0  0  0  0  0  0
   70.5739   48.8939   51.3712 O   0  0  0  0  0  0  0  0  0  0  0  0
   69.2029   47.6448   52.6556 C   0  0  0  0  0  0  0  0  0  0  0  0
   68.8004   46.8511   51.5879 C   0  0  0  0  0  0  0  0  0  0  0  0
   67.8900   45.8292   51.7290 C   0  0  0  0  0  0  0  0  0  0  0  0
   67.3797   45.6132   52.9847 C   0  0  0  0  0  0  0  0  0  0  0  0
   67.7761   46.4037   54.0667 C   0  0  0  0  0  0  0  0  0  0  0  0
   68.6813   47.4131   53.9161 C   0  0  0  0  0  0  0  0  0  0  0  0
  8  9  2  0
  9  1  1  0
  9 10  1  0
  1  2  2  0
  1  6  1  0
  2  3  1  0
  3 18  1  0
  3  4  2  0
 18 19  1  0
 19 20  2  0
 19 29  1  0
 20 21  1  0
 21 22  1  0
 22 23  2  0
 22 24  1  0
 24 25  1  0
 24 29  2  0
 25 26  2  0
 26 27  1  0
 27 28  2  0
 28 29  1  0
  4  5  1  0
  5  6  2  0
  6  7  1  0
 10 11  1  0
 10 17  1  0
 11 12  1  0
 12 13  2  0
 12 16  1  0
 13 14  1  0
 14 15  1  0
 15 16  2  0
 16 17  1  0
M  END
>  <minimizedAffinity>  (467) 
-9.11690

$$$$
cs_full_output_folder/data/smiles/2593.pdb
     RDKit          3D

 26 28  0  0  0  0  0  0  0  0999 V2000
   70.7867   43.9936   58.1390 O   0  0  0  0  0  0  0  0  0  0  0  0
   69.7516   43.9021   57.4393 C   0  0  0  0  0  0  0  0  0  0  0  0
   69.1829   45.0665   56.9034 N   0  0  0  0  0  0  0  0  0  0  0  0
   69.1628   42.5969   57.1959 C   0  0  0  0  0  0  0  0  0  0  0  0
   68.1495   42.3769   56.2890 C   0  0  0  0  0  0  0  0  0  0  0  0
   67.6210   41.1117   56.0934 C   0  0  0  0  0  0  0  0  0  0  0  0
   66.6255   40.9165   55.1971 F   0  0  0  0  0  0  0  0  0  0  0  0
   68.1023   40.0387   56.8097 C   0  0  0  0  0  0  0  0  0  0  0  0
   69.1319   40.2121   57.7426 C   0  0  0  0  0  0  0  0  0  0  0  0
   69.6223   41.4709   57.9042 C   0  0  0  0  0  0  0  0  0  0  0  0
   69.5928   39.0343   58.4647 C   0  0  0  0  0  0  0  0  0  0  0  0
   68.8560   38.4670   59.4762 C   0  0  0  0  0  0  0  0  0  0  0  0
   69.3148   37.3318   60.1618 C   0  0  0  0  0  0  0  0  0  0  0  0
   70.5232   36.7675   59.8250 C   0  0  0  0  0  0  0  0  0  0  0  0
   71.2334   37.3649   58.8060 C   0  0  0  0  0  0  0  0  0  0  0  0
   70.7691   38.4474   58.1693 N   0  0  0  0  0  0  0  0  0  0  0  0
   69.7470   46.3548   57.1315 N   0  0  0  0  0  0  0  0  0  0  0  0
   68.7983   47.5580   56.3294 S   0  0  0  0  0  0  0  0  0  0  0  0
   67.4277   47.6322   56.9165 O   0  0  0  0  0  0  0  0  0  0  0  0
   69.4502   48.9142   56.5144 O   0  0  0  0  0  0  0  0  0  0  0  0
   68.7260   47.2511   54.6118 C   0  0  0  0  0  0  0  0  0  0  0  0
   68.0091   46.1898   54.1071 C   0  0  0  0  0  0  0  0  0  0  0  0
   67.9663   45.9655   52.7452 C   0  0  0  0  0  0  0  0  0  0  0  0
   68.6312   46.7903   51.8729 C   0  0  0  0  0  0  0  0  0  0  0  0
   69.3587   47.8657   52.3560 C   0  0  0  0  0  0  0  0  0  0  0  0
   69.3872   48.0684   53.7161 C   0  0  0  0  0  0  0  0  0  0  0  0
  1  2  2  0
  2  3  1  0
  2  4  1  0
  3 17  1  0
 17 18  1  0
 18 19  2  0
 18 20  2  0
 18 21  1  0
 21 22  2  0
 21 26  1  0
 22 23  1  0
 23 24  2  0
 24 25  1  0
 25 26  2  0
  4  5  2  0
  4 10  1  0
  5  6  1  0
  6  7  1  0
  6  8  2  0
  8  9  1  0
  9 11  1  0
  9 10  2  0
 11 12  2  0
 11 16  1  0
 12 13  1  0
 13 14  2  0
 14 15  1  0
 15 16  2  0
M  END
>  <minimizedAffinity>  (468) 
-9.11621

$$$$
cs_full_output_folder/data/smiles/940.pdb
     RDKit          3D

 28 31  0  0  0  0  0  0  0  0999 V2000
   71.3469   46.9203   58.8697 C   0  0  0  0  0  0  0  0  0  0  0  0
   70.5817   47.7468   58.0897 C   0  0  0  0  0  0  0  0  0  0  0  0
   69.7511   47.2153   57.0888 C   0  0  0  0  0  0  0  0  0  0  0  0
   69.7296   45.8723   56.9187 C   0  0  0  0  0  0  0  0  0  0  0  0
   70.4979   45.0374   57.7001 C   0  0  0  0  0  0  0  0  0  0  0  0
   71.3092   45.5629   58.6794 C   0  0  0  0  0  0  0  0  0  0  0  0
   72.0596   44.7311   59.4416 F   0  0  0  0  0  0  0  0  0  0  0  0
   75.5519   50.2052   58.9921 C   0  0  0  0  0  0  0  0  0  0  0  0
   76.0216   48.8503   59.0677 N   0  0  0  0  0  0  0  0  0  0  0  0
   75.3716   48.0762   58.0385 C   0  0  0  0  0  0  0  0  0  0  0  0
   73.8782   48.0901   58.2404 C   0  0  0  0  0  0  0  0  0  0  0  0
   73.4838   48.0018   59.6129 N   0  0  0  0  0  0  0  0  0  0  0  0
   72.2258   47.4202   59.9245 C   0  0  0  0  0  0  0  0  0  0  0  0
   71.8151   47.3108   61.1239 O   0  0  0  0  0  0  0  0  0  0  0  0
   74.2963   48.4741   60.7191 C   0  0  0  0  0  0  0  0  0  0  0  0
   75.7398   48.2184   60.3320 C   0  0  0  0  0  0  0  0  0  0  0  0
   68.9608   48.2220   56.3336 C   0  0  0  0  0  0  0  0  0  0  0  0
   69.3753   48.3282   54.9259 C   0  0  0  0  0  0  0  0  0  0  0  0
   70.3230   49.2248   54.5975 N   0  0  0  0  0  0  0  0  0  0  0  0
   70.7702   49.3441   53.3783 N   0  0  0  0  0  0  0  0  0  0  0  0
   70.3143   48.5865   52.3884 C   0  0  0  0  0  0  0  0  0  0  0  0
   70.7340   48.6865   51.2055 O   0  0  0  0  0  0  0  0  0  0  0  0
   69.3374   47.6373   52.6336 C   0  0  0  0  0  0  0  0  0  0  0  0
   68.8418   46.8552   51.6392 C   0  0  0  0  0  0  0  0  0  0  0  0
   67.8611   45.9295   51.9105 C   0  0  0  0  0  0  0  0  0  0  0  0
   67.3646   45.7737   53.1707 C   0  0  0  0  0  0  0  0  0  0  0  0
   67.8883   46.5875   54.1758 C   0  0  0  0  0  0  0  0  0  0  0  0
   68.8696   47.5227   53.9443 C   0  0  0  0  0  0  0  0  0  0  0  0
  8  9  1  0
  9 10  1  0
  9 16  1  0
 10 11  1  0
 11 12  1  0
 12 13  1  0
 12 15  1  0
 13 14  2  0
 13  1  1  0
  1  2  2  0
  1  6  1  0
  2  3  1  0
  3 17  1  0
  3  4  2  0
 17 18  1  0
 18 19  2  0
 18 28  1  0
 19 20  1  0
 20 21  1  0
 21 22  2  0
 21 23  1  0
 23 24  1  0
 23 28  2  0
 24 25  2  0
 25 26  1  0
 26 27  2  0
 27 28  1  0
  4  5  1  0
  5  6  2  0
  6  7  1  0
 15 16  1  0
M  CHG  1   9   1
M  END
>  <minimizedAffinity>  (469) 
-9.11511

$$$$
cs_full_output_folder/data/smiles/8310.pdb
     RDKit          3D

 29 32  0  0  0  0  0  0  0  0999 V2000
   71.4711   46.9427   58.7268 C   0  0  0  0  0  0  0  0  0  0  0  0
   70.6701   47.7866   57.9795 C   0  0  0  0  0  0  0  0  0  0  0  0
   69.7292   47.3527   57.0984 C   0  0  0  0  0  0  0  0  0  0  0  0
   69.6120   45.9588   56.9850 C   0  0  0  0  0  0  0  0  0  0  0  0
   70.3932   45.0920   57.7140 C   0  0  0  0  0  0  0  0  0  0  0  0
   71.3338   45.5822   58.5953 C   0  0  0  0  0  0  0  0  0  0  0  0
   72.0845   44.6811   59.2945 F   0  0  0  0  0  0  0  0  0  0  0  0
   75.7833   47.9088   58.7302 C   0  0  0  0  0  0  0  0  0  0  0  0
   75.0477   47.8998   60.0648 C   0  0  0  0  0  0  0  0  0  0  0  0
   73.8469   47.4745   59.3695 N   0  0  0  0  0  0  0  0  0  0  0  0
   72.4624   47.4499   59.6647 C   0  0  0  0  0  0  0  0  0  0  0  0
   72.1005   47.8965   60.8076 O   0  0  0  0  0  0  0  0  0  0  0  0
   74.6709   47.0754   58.2255 C   0  0  0  0  0  0  0  0  0  0  0  0
   76.0953   49.1702   58.2057 N   0  0  0  0  0  0  0  0  0  0  0  0
   77.1424   49.9666   56.2286 C   0  0  0  0  0  0  0  0  0  0  0  0
   77.3723   49.4346   57.6665 C   0  0  0  0  0  0  0  0  0  0  0  0
   78.1005   50.6026   58.3456 C   0  0  0  0  0  0  0  0  0  0  0  0
   68.8230   48.1674   56.2632 C   0  0  0  0  0  0  0  0  0  0  0  0
   69.2296   48.3243   54.8666 C   0  0  0  0  0  0  0  0  0  0  0  0
   70.1448   49.2901   54.5453 N   0  0  0  0  0  0  0  0  0  0  0  0
   70.5757   49.4216   53.3123 N   0  0  0  0  0  0  0  0  0  0  0  0
   70.1649   48.6438   52.3054 C   0  0  0  0  0  0  0  0  0  0  0  0
   70.6061   48.7990   51.1181 O   0  0  0  0  0  0  0  0  0  0  0  0
   69.2410   47.6445   52.5435 C   0  0  0  0  0  0  0  0  0  0  0  0
   68.7966   46.8470   51.5096 C   0  0  0  0  0  0  0  0  0  0  0  0
   67.8635   45.8804   51.7944 C   0  0  0  0  0  0  0  0  0  0  0  0
   67.4027   45.7403   53.0967 C   0  0  0  0  0  0  0  0  0  0  0  0
   67.8486   46.5343   54.1126 C   0  0  0  0  0  0  0  0  0  0  0  0
   68.7826   47.5084   53.8617 C   0  0  0  0  0  0  0  0  0  0  0  0
 15 16  1  0
 16 17  1  0
 16 14  1  0
 14  8  1  0
  8  9  1  0
  8 13  1  0
  9 10  1  0
 10 11  1  0
 10 13  1  0
 11 12  2  0
 11  1  1  0
  1  2  2  0
  1  6  1  0
  2  3  1  0
  3 18  1  0
  3  4  2  0
 18 19  1  0
 19 20  2  0
 19 29  1  0
 20 21  1  0
 21 22  1  0
 22 23  2  0
 22 24  1  0
 24 25  1  0
 24 29  2  0
 25 26  2  0
 26 27  1  0
 27 28  2  0
 28 29  1  0
  4  5  1  0
  5  6  2  0
  6  7  1  0
M  CHG  1  14   1
M  END
>  <minimizedAffinity>  (470) 
-9.11388

$$$$
cs_full_output_folder/data/smiles/662.pdb
     RDKit          3D

 27 30  0  0  0  0  0  0  0  0999 V2000
   71.2942   46.4664   58.9121 C   0  0  0  0  0  0  0  0  0  0  0  0
   71.1127   45.0972   58.6744 C   0  0  0  0  0  0  0  0  0  0  0  0
   70.2772   44.7010   57.6721 C   0  0  0  0  0  0  0  0  0  0  0  0
   69.6187   45.6567   56.8996 C   0  0  0  0  0  0  0  0  0  0  0  0
   69.7535   47.0120   57.0823 C   0  0  0  0  0  0  0  0  0  0  0  0
   70.6292   47.3635   58.1333 C   0  0  0  0  0  0  0  0  0  0  0  0
   75.9078   43.2711   59.8561 C   0  0  0  0  0  0  0  0  0  0  0  0
   74.9662   44.4601   59.8395 C   0  0  2  0  0  0  0  0  0  0  0  0
   75.1410   45.2690   58.5703 C   0  0  0  0  0  0  0  0  0  0  0  0
   74.1815   46.4011   58.4663 C   0  0  0  0  0  0  0  0  0  0  0  0
   73.6045   46.8306   59.7257 N   0  0  0  0  0  0  0  0  0  0  0  0
   72.2129   46.8941   59.9796 C   0  0  0  0  0  0  0  0  0  0  0  0
   71.8122   47.3068   61.0943 O   0  0  0  0  0  0  0  0  0  0  0  0
   74.5536   47.1847   60.7983 C   0  0  0  0  0  0  0  0  0  0  0  0
   75.3352   45.5822   61.2343 S   0  0  0  0  0  0  0  0  0  0  0  0
   69.1091   48.0678   56.2789 C   0  0  0  0  0  0  0  0  0  0  0  0
   69.5023   48.1630   54.8784 C   0  0  0  0  0  0  0  0  0  0  0  0
   70.4716   49.0235   54.4694 N   0  0  0  0  0  0  0  0  0  0  0  0
   70.8443   49.1978   53.2221 N   0  0  0  0  0  0  0  0  0  0  0  0
   70.2922   48.5232   52.2004 C   0  0  0  0  0  0  0  0  0  0  0  0
   70.6541   48.6920   50.9993 O   0  0  0  0  0  0  0  0  0  0  0  0
   69.2887   47.6126   52.5220 C   0  0  0  0  0  0  0  0  0  0  0  0
   68.7124   46.8712   51.5350 C   0  0  0  0  0  0  0  0  0  0  0  0
   67.7284   45.9237   51.8171 C   0  0  0  0  0  0  0  0  0  0  0  0
   67.3749   45.7819   53.1388 C   0  0  0  0  0  0  0  0  0  0  0  0
   67.9503   46.5238   54.1321 C   0  0  0  0  0  0  0  0  0  0  0  0
   68.9070   47.4422   53.8363 C   0  0  0  0  0  0  0  0  0  0  0  0
  8  7  1  6
  8  9  1  0
  8 15  1  0
  9 10  1  0
 10 11  1  0
 11 12  1  0
 11 14  1  0
 12 13  2  0
 12  1  1  0
  1  2  2  0
  1  6  1  0
  2  3  1  0
  3  4  2  0
  4  5  1  0
  5 16  1  0
  5  6  2  0
 16 17  1  0
 17 18  2  0
 17 27  1  0
 18 19  1  0
 19 20  1  0
 20 21  2  0
 20 22  1  0
 22 23  1  0
 22 27  2  0
 23 24  2  0
 24 25  1  0
 25 26  2  0
 26 27  1  0
 14 15  1  0
M  END
>  <minimizedAffinity>  (471) 
-9.11230

$$$$
cs_full_output_folder/data/smiles/1633.pdb
     RDKit          3D

 29 32  0  0  0  0  0  0  0  0999 V2000
   70.9671   44.9125   58.2006 C   0  0  0  0  0  0  0  0  0  0  0  0
   71.8826   45.6903   58.9359 C   0  0  0  0  0  0  0  0  0  0  0  0
   71.8036   47.0530   58.9615 C   0  0  0  0  0  0  0  0  0  0  0  0
   70.8168   47.7054   58.2612 C   0  0  0  0  0  0  0  0  0  0  0  0
   69.8788   46.9785   57.5125 C   0  0  0  0  0  0  0  0  0  0  0  0
   70.0045   45.6218   57.5235 C   0  0  0  0  0  0  0  0  0  0  0  0
   69.0661   42.9484   58.9600 O   0  0  0  0  0  0  0  0  0  0  0  0
   70.2035   42.5198   58.5637 C   0  0  0  0  0  0  0  0  0  0  0  0
   71.1432   43.5065   58.1949 N   0  0  0  0  0  0  0  0  0  0  0  0
   70.4305   41.0798   58.5202 C   0  0  0  0  0  0  0  0  0  0  0  0
   69.3319   40.2507   58.4522 C   0  0  0  0  0  0  0  0  0  0  0  0
   69.4110   38.8762   58.4073 C   0  0  0  0  0  0  0  0  0  0  0  0
   70.6487   38.3043   58.4318 C   0  0  0  0  0  0  0  0  0  0  0  0
   71.7700   39.0999   58.4983 C   0  0  0  0  0  0  0  0  0  0  0  0
   72.9778   38.5124   58.5192 F   0  0  0  0  0  0  0  0  0  0  0  0
   71.6601   40.5049   58.5435 C   0  0  0  0  0  0  0  0  0  0  0  0
   72.8211   41.1816   58.5922 F   0  0  0  0  0  0  0  0  0  0  0  0
   68.8824   47.7685   56.7422 C   0  0  0  0  0  0  0  0  0  0  0  0
   68.6383   47.0524   55.4532 C   0  0  0  0  0  0  0  0  0  0  0  0
   67.9841   45.8499   55.4944 N   0  0  0  0  0  0  0  0  0  0  0  0
   67.6212   45.1648   54.4476 N   0  0  0  0  0  0  0  0  0  0  0  0
   67.8849   45.6311   53.2405 C   0  0  0  0  0  0  0  0  0  0  0  0
   67.5284   44.9616   52.2257 O   0  0  0  0  0  0  0  0  0  0  0  0
   68.5507   46.8469   53.0724 C   0  0  0  0  0  0  0  0  0  0  0  0
   68.9274   47.5575   54.2092 C   0  0  0  0  0  0  0  0  0  0  0  0
   69.7241   48.8126   54.0588 C   0  0  0  0  0  0  0  0  0  0  0  0
   70.5183   48.6590   52.7390 C   0  0  0  0  0  0  0  0  0  0  0  0
   69.4241   48.6370   51.6598 C   0  0  0  0  0  0  0  0  0  0  0  0
   68.8034   47.2722   51.6874 C   0  0  0  0  0  0  0  0  0  0  0  0
  7  8  2  0
  8  9  1  0
  8 10  1  0
  9  1  1  0
  1  2  2  0
  1  6  1  0
  2  3  1  0
  3  4  2  0
  4  5  1  0
  5 18  1  0
  5  6  2  0
 18 19  1  0
 19 20  2  0
 19 25  1  0
 20 21  1  0
 21 22  1  0
 22 23  2  0
 22 24  1  0
 24 25  2  0
 24 29  1  0
 25 26  1  0
 26 27  1  0
 27 28  1  0
 28 29  1  0
 10 11  2  0
 10 16  1  0
 11 12  1  0
 12 13  2  0
 13 14  1  0
 14 15  1  0
 14 16  2  0
 16 17  1  0
M  END
>  <minimizedAffinity>  (472) 
-9.11219

$$$$
cs_full_output_folder/data/smiles/2688.pdb
     RDKit          3D

 28 31  0  0  0  0  0  0  0  0999 V2000
   71.3845   46.8311   58.9298 C   0  0  0  0  0  0  0  0  0  0  0  0
   70.5640   47.6301   58.1777 C   0  0  0  0  0  0  0  0  0  0  0  0
   69.6972   47.1298   57.1908 C   0  0  0  0  0  0  0  0  0  0  0  0
   69.6862   45.7705   56.9814 C   0  0  0  0  0  0  0  0  0  0  0  0
   70.4870   44.9243   57.7036 C   0  0  0  0  0  0  0  0  0  0  0  0
   71.3289   45.4435   58.6688 C   0  0  0  0  0  0  0  0  0  0  0  0
   72.1499   44.6321   59.4186 O   0  0  0  0  0  0  0  0  0  0  0  0
   74.2484   50.9847   58.9962 C   0  0  0  0  0  0  0  0  0  0  0  0
   75.1264   50.1350   59.7584 N   0  0  0  0  0  0  0  0  0  0  0  0
   74.4694   49.7514   61.0014 C   0  0  0  0  0  0  0  0  0  0  0  0
   74.2737   48.2506   61.0521 C   0  0  0  0  0  0  0  0  0  0  0  0
   73.5503   47.8635   59.7984 N   0  0  0  0  0  0  0  0  0  0  0  0
   72.2904   47.3053   59.9212 C   0  0  0  0  0  0  0  0  0  0  0  0
   71.8791   47.2073   61.1634 O   0  0  0  0  0  0  0  0  0  0  0  0
   74.2728   48.1523   58.6149 C   0  0  0  0  0  0  0  0  0  0  0  0
   75.5154   48.9984   58.9872 C   0  0  0  0  0  0  0  0  0  0  0  0
   68.7889   47.9704   56.3800 C   0  0  0  0  0  0  0  0  0  0  0  0
   69.1633   48.1391   54.9861 C   0  0  0  0  0  0  0  0  0  0  0  0
   70.0702   49.1191   54.6883 N   0  0  0  0  0  0  0  0  0  0  0  0
   70.5109   49.3423   53.4814 N   0  0  0  0  0  0  0  0  0  0  0  0
   70.1243   48.6409   52.4210 C   0  0  0  0  0  0  0  0  0  0  0  0
   70.5548   48.8579   51.2451 O   0  0  0  0  0  0  0  0  0  0  0  0
   69.2034   47.6195   52.6065 C   0  0  0  0  0  0  0  0  0  0  0  0
   68.7583   46.8663   51.5453 C   0  0  0  0  0  0  0  0  0  0  0  0
   67.8391   45.8709   51.7549 C   0  0  0  0  0  0  0  0  0  0  0  0
   67.3994   45.6703   53.0428 C   0  0  0  0  0  0  0  0  0  0  0  0
   67.8250   46.4064   54.1299 C   0  0  0  0  0  0  0  0  0  0  0  0
   68.7435   47.3978   53.9112 C   0  0  0  0  0  0  0  0  0  0  0  0
  8  9  1  0
  9 10  1  0
  9 16  1  0
 10 11  1  0
 11 12  1  0
 12 13  1  0
 12 15  1  0
 13 14  2  0
 13  1  1  0
  1  2  2  0
  1  6  1  0
  2  3  1  0
  3 17  1  0
  3  4  2  0
 17 18  1  0
 18 19  2  0
 18 28  1  0
 19 20  1  0
 20 21  1  0
 21 22  2  0
 21 23  1  0
 23 24  1  0
 23 28  2  0
 24 25  2  0
 25 26  1  0
 26 27  2  0
 27 28  1  0
  4  5  1  0
  5  6  2  0
  6  7  1  0
 15 16  1  0
M  CHG  1   9   1
M  END
>  <minimizedAffinity>  (473) 
-9.11171

$$$$
cs_full_output_folder/data/smiles/4292.pdb
     RDKit          3D

 27 29  0  0  0  0  0  0  0  0999 V2000
   70.2273   45.0277   57.9148 C   0  0  0  0  0  0  0  0  0  0  0  0
   69.7538   45.7353   58.8261 O   0  0  0  0  0  0  0  0  0  0  0  0
   69.8955   45.3848   56.5553 N   0  0  0  0  0  0  0  0  0  0  0  0
   69.2652   42.1913   57.6098 C   0  0  0  0  0  0  0  0  0  0  0  0
   70.6103   42.5503   58.1078 C   0  0  0  0  0  0  0  0  0  0  0  0
   71.0772   43.8721   58.2306 C   0  0  0  0  0  0  0  0  0  0  0  0
   72.3482   43.7550   58.7017 C   0  0  0  0  0  0  0  0  0  0  0  0
   72.5893   42.4225   58.8434 N   0  0  0  0  0  0  0  0  0  0  0  0
   71.5639   41.6812   58.4961 N   0  0  0  0  0  0  0  0  0  0  0  0
   71.4728   40.2700   58.5576 C   0  0  0  0  0  0  0  0  0  0  0  0
   72.6606   39.5306   58.6718 C   0  0  0  0  0  0  0  0  0  0  0  0
   72.6883   38.1633   58.7294 C   0  0  0  0  0  0  0  0  0  0  0  0
   71.5011   37.4248   58.6741 C   0  0  0  0  0  0  0  0  0  0  0  0
   71.5488   35.6874   58.7515 Cl  0  0  0  0  0  0  0  0  0  0  0  0
   70.3255   38.1582   58.5599 C   0  0  0  0  0  0  0  0  0  0  0  0
   70.3228   39.5306   58.5040 C   0  0  0  0  0  0  0  0  0  0  0  0
   68.9861   46.4934   56.3116 C   0  0  0  0  0  0  0  0  0  0  0  0
   68.8639   46.6625   54.8654 C   0  0  0  0  0  0  0  0  0  0  0  0
   69.3668   47.7867   54.2042 C   0  0  0  0  0  0  0  0  0  0  0  0
   69.1939   47.9934   52.8628 C   0  0  0  0  0  0  0  0  0  0  0  0
   68.4754   47.0246   52.1465 C   0  0  0  0  0  0  0  0  0  0  0  0
   67.9557   45.8991   52.7377 C   0  0  0  0  0  0  0  0  0  0  0  0
   68.1769   45.7588   54.1042 C   0  0  0  0  0  0  0  0  0  0  0  0
   67.6479   44.5902   54.6238 F   0  0  0  0  0  0  0  0  0  0  0  0
   69.6500   49.1481   52.0836 C   0  0  1  0  0  0  0  0  0  0  0  0
   70.4845   50.0461   52.8884 N   0  0  0  0  0  0  0  0  0  0  0  0
   70.4974   48.6946   51.0366 O   0  0  0  0  0  0  0  0  0  0  0  0
  4  5  1  0
  5  6  2  0
  5  9  1  0
  6  1  1  0
  6  7  1  0
  1  2  2  0
  1  3  1  0
  3 17  1  0
 17 18  1  0
 18 19  2  0
 18 23  1  0
 19 20  1  0
 20 25  1  0
 20 21  2  0
 25 26  1  1
 25 27  1  0
 21 22  1  0
 22 23  2  0
 23 24  1  0
  7  8  2  0
  8  9  1  0
  9 10  1  0
 10 11  2  0
 10 16  1  0
 11 12  1  0
 12 13  2  0
 13 14  1  0
 13 15  1  0
 15 16  2  0
M  CHG  1  26   1
M  END
>  <minimizedAffinity>  (474) 
-9.11124

$$$$
cs_full_output_folder/data/smiles/1875.pdb
     RDKit          3D

 26 27  0  0  0  0  0  0  0  0999 V2000
   70.0640   49.2092   52.6108 S   0  0  0  0  0  0  0  0  0  0  0  0
   71.5489   49.1301   52.9053 O   0  0  0  0  0  0  0  0  0  0  0  0
   69.9845   49.1344   51.0876 O   0  0  0  0  0  0  0  0  0  0  0  0
   69.2610   47.7852   53.2010 C   0  0  0  0  0  0  0  0  0  0  0  0
   69.2591   47.4998   54.5467 C   0  0  0  0  0  0  0  0  0  0  0  0
   69.8947   48.3537   55.3795 F   0  0  0  0  0  0  0  0  0  0  0  0
   68.6242   46.3720   55.0229 C   0  0  0  0  0  0  0  0  0  0  0  0
   68.6348   46.1076   56.3570 F   0  0  0  0  0  0  0  0  0  0  0  0
   67.9702   45.4854   54.1984 C   0  0  0  0  0  0  0  0  0  0  0  0
   67.3474   44.3810   54.6507 F   0  0  0  0  0  0  0  0  0  0  0  0
   67.9801   45.7873   52.8401 C   0  0  0  0  0  0  0  0  0  0  0  0
   67.3422   44.9285   52.0065 F   0  0  0  0  0  0  0  0  0  0  0  0
   68.6031   46.8992   52.3468 C   0  0  0  0  0  0  0  0  0  0  0  0
   68.6184   47.2060   51.0126 F   0  0  0  0  0  0  0  0  0  0  0  0
   69.3895   50.6809   53.1049 N   0  0  0  0  0  0  0  0  0  0  0  0
   71.2167   52.2454   55.9830 C   0  0  0  0  0  0  0  0  0  0  0  0
   70.1341   52.9668   56.5143 C   0  0  0  0  0  0  0  0  0  0  0  0
   68.8755   52.9335   55.9573 C   0  0  0  0  0  0  0  0  0  0  0  0
   68.6518   52.1689   54.8348 C   0  0  0  0  0  0  0  0  0  0  0  0
   69.6821   51.4356   54.2643 C   0  0  0  0  0  0  0  0  0  0  0  0
   70.9176   51.5119   54.8711 C   0  0  0  0  0  0  0  0  0  0  0  0
   74.5346   51.0007   59.4883 C   0  0  0  0  0  0  0  0  0  0  0  0
   74.1662   51.8034   58.3549 N   0  0  0  0  0  0  0  0  0  0  0  0
   72.8654   51.6011   57.7530 C   0  0  0  0  0  0  0  0  0  0  0  0
   72.1064   50.7369   58.2360 O   0  0  0  0  0  0  0  0  0  0  0  0
   72.4521   52.3602   56.6407 N   0  0  0  0  0  0  0  0  0  0  0  0
 22 23  1  0
 23 24  1  0
 24 25  2  0
 24 26  1  0
 26 16  1  0
 16 17  2  0
 16 21  1  0
 17 18  1  0
 18 19  2  0
 19 20  1  0
 20 15  1  0
 20 21  2  0
 15  1  1  0
  1  2  2  0
  1  3  2  0
  1  4  1  0
  4  5  2  0
  4 13  1  0
  5  6  1  0
  5  7  1  0
  7  8  1  0
  7  9  2  0
  9 10  1  0
  9 11  1  0
 11 12  1  0
 11 13  2  0
 13 14  1  0
M  END
>  <minimizedAffinity>  (475) 
-9.10838

$$$$
cs_full_output_folder/data/smiles/2147.pdb
     RDKit          3D

 29 32  0  0  0  0  0  0  0  0999 V2000
   71.4563   46.7968   58.7814 C   0  0  0  0  0  0  0  0  0  0  0  0
   70.6621   47.6949   58.0589 C   0  0  0  0  0  0  0  0  0  0  0  0
   69.7435   47.3259   57.1406 C   0  0  0  0  0  0  0  0  0  0  0  0
   69.6309   45.9282   56.9503 C   0  0  0  0  0  0  0  0  0  0  0  0
   70.3853   45.0216   57.6324 C   0  0  0  0  0  0  0  0  0  0  0  0
   71.3105   45.4481   58.5589 C   0  0  0  0  0  0  0  0  0  0  0  0
   72.0494   44.5169   59.2213 F   0  0  0  0  0  0  0  0  0  0  0  0
   72.4136   47.3218   59.7423 C   0  0  0  0  0  0  0  0  0  0  0  0
   71.9500   47.8200   60.8073 O   0  0  0  0  0  0  0  0  0  0  0  0
   73.8619   47.3184   59.5674 C   0  0  0  0  0  0  0  0  0  0  0  0
   77.9135   50.6573   58.3965 C   0  0  0  0  0  0  0  0  0  0  0  0
   76.4963   50.3449   58.2130 N   0  0  0  0  0  0  0  0  0  0  0  0
   76.4335   48.9791   57.7469 C   0  0  0  0  0  0  0  0  0  0  0  0
   75.0522   48.3984   57.7463 C   0  0  0  0  0  0  0  0  0  0  0  0
   74.4601   48.4768   59.0243 N   0  0  0  0  0  0  0  0  0  0  0  0
   75.2946   49.1425   59.9737 C   0  0  0  0  0  0  0  0  0  0  0  0
   75.8023   50.4819   59.4625 C   0  0  0  0  0  0  0  0  0  0  0  0
   68.8740   48.2022   56.3192 C   0  0  0  0  0  0  0  0  0  0  0  0
   69.2830   48.3065   54.8990 C   0  0  0  0  0  0  0  0  0  0  0  0
   70.2321   49.1944   54.5532 N   0  0  0  0  0  0  0  0  0  0  0  0
   70.7392   49.3525   53.3656 N   0  0  0  0  0  0  0  0  0  0  0  0
   70.2944   48.5672   52.3652 C   0  0  0  0  0  0  0  0  0  0  0  0
   70.7493   48.6785   51.2101 O   0  0  0  0  0  0  0  0  0  0  0  0
   69.3171   47.6184   52.6105 C   0  0  0  0  0  0  0  0  0  0  0  0
   68.8398   46.8170   51.5759 C   0  0  0  0  0  0  0  0  0  0  0  0
   67.8411   45.8912   51.8670 C   0  0  0  0  0  0  0  0  0  0  0  0
   67.3613   45.7981   53.1545 C   0  0  0  0  0  0  0  0  0  0  0  0
   67.8324   46.5900   54.1791 C   0  0  0  0  0  0  0  0  0  0  0  0
   68.8206   47.5008   53.8838 C   0  0  0  0  0  0  0  0  0  0  0  0
 11 12  1  0
 12 13  1  0
 12 17  1  0
 13 14  1  0
 14 15  1  0
 15 10  1  0
 15 16  1  0
 10  8  1  0
  8  9  2  0
  8  1  1  0
  1  2  2  0
  1  6  1  0
  2  3  1  0
  3 18  1  0
  3  4  2  0
 18 19  1  0
 19 20  2  0
 19 29  1  0
 20 21  1  0
 21 22  1  0
 22 23  2  0
 22 24  1  0
 24 25  1  0
 24 29  2  0
 25 26  2  0
 26 27  1  0
 27 28  2  0
 28 29  1  0
  4  5  1  0
  5  6  2  0
  6  7  1  0
 16 17  1  0
M  CHG  2  12   1  15   1
M  END
>  <minimizedAffinity>  (476) 
-9.10619

$$$$
cs_full_output_folder/data/smiles/2137.pdb
     RDKit          3D

 26 29  0  0  0  0  0  0  0  0999 V2000
   71.1559   47.1533   58.3639 C   0  0  0  0  0  0  0  0  0  0  0  0
   71.0404   45.7607   58.3867 C   0  0  0  0  0  0  0  0  0  0  0  0
   70.1862   45.0844   57.5557 C   0  0  0  0  0  0  0  0  0  0  0  0
   69.4251   45.8482   56.6739 C   0  0  0  0  0  0  0  0  0  0  0  0
   69.5118   47.2050   56.6229 N   0  0  0  0  0  0  0  0  0  0  0  0
   70.3654   47.8327   57.4598 C   0  0  0  0  0  0  0  0  0  0  0  0
   70.4442   49.0759   57.4175 O   0  0  0  0  0  0  0  0  0  0  0  0
   73.4488   48.1316   58.8238 C   0  0  0  0  0  0  0  0  0  0  0  0
   72.0698   47.8466   59.2568 C   0  0  0  0  0  0  0  0  0  0  0  0
   71.6916   48.2012   60.3900 O   0  0  0  0  0  0  0  0  0  0  0  0
   70.0367   43.6325   57.5468 C   0  0  0  0  0  0  0  0  0  0  0  0
   71.0514   42.8957   57.4438 O   0  0  0  0  0  0  0  0  0  0  0  0
   68.7943   42.9802   57.6479 N   0  0  0  0  0  0  0  0  0  0  0  0
   68.6280   41.5402   57.6412 C   0  0  0  0  0  0  0  0  0  0  0  0
   67.1682   41.1244   57.9165 C   0  0  0  0  0  0  0  0  0  0  0  0
   67.7913   40.8814   56.6035 C   0  0  0  0  0  0  0  0  0  0  0  0
   68.7255   48.0136   55.7222 C   0  0  0  0  0  0  0  0  0  0  0  0
   68.6567   47.4081   54.3867 C   0  0  0  0  0  0  0  0  0  0  0  0
   67.8019   46.3401   54.1395 C   0  0  0  0  0  0  0  0  0  0  0  0
   67.6591   45.7577   52.8845 C   0  0  0  0  0  0  0  0  0  0  0  0
   68.4068   46.2778   51.8606 C   0  0  0  0  0  0  0  0  0  0  0  0
   69.2664   47.3332   52.0709 C   0  0  0  0  0  0  0  0  0  0  0  0
   70.1147   47.9977   51.2496 N   0  0  0  0  0  0  0  0  0  0  0  0
   70.7563   48.9289   51.9148 N   0  0  0  0  0  0  0  0  0  0  0  0
   70.3376   48.8984   53.2076 C   0  0  0  0  0  0  0  0  0  0  0  0
   69.3950   47.9064   53.3432 C   0  0  0  0  0  0  0  0  0  0  0  0
  8  9  1  0
  9 10  2  0
  9  1  1  0
  1  2  2  0
  1  6  1  0
  2  3  1  0
  3 11  1  0
  3  4  2  0
 11 12  2  0
 11 13  1  0
 13 14  1  0
 14 15  1  0
 14 16  1  0
 15 16  1  0
  4  5  1  0
  5 17  1  0
  5  6  1  0
 17 18  1  0
 18 19  2  0
 18 26  1  0
 19 20  1  0
 20 21  2  0
 21 22  1  0
 22 23  1  0
 22 26  2  0
 23 24  1  0
 24 25  2  0
 25 26  1  0
  6  7  2  0
M  END
>  <minimizedAffinity>  (477) 
-9.10496

$$$$
cs_full_output_folder/data/smiles/858.pdb
     RDKit          3D

 28 29  0  0  0  0  0  0  0  0999 V2000
   70.6319   42.9490   59.1571 C   0  0  0  0  0  0  0  0  0  0  0  0
   69.6667   43.2456   59.9427 O   0  0  0  0  0  0  0  0  0  0  0  0
   71.2544   44.0085   58.4626 N   0  0  0  0  0  0  0  0  0  0  0  0
   71.7995   38.8069   58.9146 C   0  0  0  0  0  0  0  0  0  0  0  0
   70.6065   39.2320   58.3924 C   0  0  0  0  0  0  0  0  0  0  0  0
   70.2143   40.5677   58.4710 C   0  0  0  0  0  0  0  0  0  0  0  0
   70.9872   41.5429   59.0730 C   0  0  0  0  0  0  0  0  0  0  0  0
   72.2041   41.0859   59.5989 C   0  0  0  0  0  0  0  0  0  0  0  0
   72.5861   39.7680   59.5176 C   0  0  0  0  0  0  0  0  0  0  0  0
   72.2332   37.3946   58.9151 C   0  0  0  0  0  0  0  0  0  0  0  0
   73.6346   37.2251   59.4814 C   0  0  0  0  0  0  0  0  0  0  0  0
   72.3215   36.8558   57.4805 C   0  0  0  0  0  0  0  0  0  0  0  0
   71.4234   35.0305   59.3840 C   0  0  0  0  0  0  0  0  0  0  0  0
   71.3087   36.4790   59.6574 C   0  0  0  0  0  0  0  0  0  0  0  0
   70.8327   45.3677   58.5987 C   0  0  0  0  0  0  0  0  0  0  0  0
   71.7709   46.3150   59.5841 S   0  0  0  0  0  0  0  0  0  0  0  0
   69.7746   45.9753   57.9279 N   0  0  0  0  0  0  0  0  0  0  0  0
   69.6638   45.9483   56.5450 N   0  0  0  0  0  0  0  0  0  0  0  0
   68.5826   46.6954   55.9416 C   0  0  0  0  0  0  0  0  0  0  0  0
   67.7868   47.3450   56.6539 O   0  0  0  0  0  0  0  0  0  0  0  0
   68.4768   46.6444   54.4820 C   0  0  0  0  0  0  0  0  0  0  0  0
   67.8626   45.6249   53.8165 C   0  0  0  0  0  0  0  0  0  0  0  0
   67.7649   45.5753   52.4159 C   0  0  0  0  0  0  0  0  0  0  0  0
   68.3070   46.5923   51.6763 C   0  0  0  0  0  0  0  0  0  0  0  0
   68.9269   47.6248   52.3153 C   0  0  0  0  0  0  0  0  0  0  0  0
   69.0215   47.6664   53.7085 C   0  0  0  0  0  0  0  0  0  0  0  0
   69.5072   48.6762   51.6077 N   0  0  0  0  0  0  0  0  0  0  0  0
   69.9873   49.5658   50.9938 N   0  0  0  0  0  0  0  0  0  0  0  0
 13 14  1  0
 14 10  1  0
 10 11  1  0
 10 12  1  0
 10  4  1  0
  4  5  2  0
  4  9  1  0
  5  6  1  0
  6  7  2  0
  7  1  1  0
  7  8  1  0
  1  2  2  0
  1  3  1  0
  3 15  1  0
 15 16  2  0
 15 17  1  0
 17 18  1  0
 18 19  1  0
 19 20  2  0
 19 21  1  0
 21 22  2  0
 21 26  1  0
 22 23  1  0
 23 24  2  0
 24 25  1  0
 25 27  1  0
 25 26  2  0
 27 28  3  0
  8  9  2  0
M  CHG  1  27   1
M  END
>  <minimizedAffinity>  (478) 
-9.10421

$$$$
cs_full_output_folder/data/smiles/7385.pdb
     RDKit          3D

 27 30  0  0  0  0  0  0  0  0999 V2000
   71.5300   47.1722   58.8737 C   0  0  0  0  0  0  0  0  0  0  0  0
   70.7085   48.0193   58.1184 C   0  0  0  0  0  0  0  0  0  0  0  0
   69.8094   47.5244   57.2224 C   0  0  0  0  0  0  0  0  0  0  0  0
   69.7623   46.1317   57.1102 C   0  0  0  0  0  0  0  0  0  0  0  0
   70.5592   45.2857   57.8428 C   0  0  0  0  0  0  0  0  0  0  0  0
   71.4632   45.8082   58.7432 C   0  0  0  0  0  0  0  0  0  0  0  0
   72.2506   44.9624   59.4661 F   0  0  0  0  0  0  0  0  0  0  0  0
   74.2372   50.8975   59.6102 N   0  0  0  0  0  0  0  0  0  0  0  0
   75.2572   49.8748   59.4416 C   0  0  2  0  0  0  0  0  0  0  0  0
   75.1333   49.3666   58.0151 C   0  0  0  0  0  0  0  0  0  0  0  0
   74.3864   48.0570   58.1074 C   0  0  0  0  0  0  0  0  0  0  0  0
   73.7973   48.1220   59.4274 N   0  0  0  0  0  0  0  0  0  0  0  0
   72.4980   47.7299   59.8345 C   0  0  0  0  0  0  0  0  0  0  0  0
   72.1809   47.8670   61.0405 O   0  0  0  0  0  0  0  0  0  0  0  0
   74.8067   48.6802   60.2933 C   0  0  0  0  0  0  0  0  0  0  0  0
   68.9054   48.3052   56.3673 C   0  0  0  0  0  0  0  0  0  0  0  0
   69.3691   48.3277   54.9586 C   0  0  0  0  0  0  0  0  0  0  0  0
   70.3402   49.2278   54.5940 N   0  0  0  0  0  0  0  0  0  0  0  0
   70.7655   49.3361   53.3526 N   0  0  0  0  0  0  0  0  0  0  0  0
   70.2910   48.5848   52.3481 C   0  0  0  0  0  0  0  0  0  0  0  0
   70.6899   48.6805   51.1587 O   0  0  0  0  0  0  0  0  0  0  0  0
   69.3126   47.6501   52.6171 C   0  0  0  0  0  0  0  0  0  0  0  0
   68.8132   46.8507   51.6105 C   0  0  0  0  0  0  0  0  0  0  0  0
   67.8501   45.9120   51.8967 C   0  0  0  0  0  0  0  0  0  0  0  0
   67.4233   45.8152   53.2014 C   0  0  0  0  0  0  0  0  0  0  0  0
   67.9157   46.6113   54.2228 C   0  0  0  0  0  0  0  0  0  0  0  0
   68.8773   47.5509   53.9393 C   0  0  0  0  0  0  0  0  0  0  0  0
  9  8  1  6
  9 10  1  0
  9 15  1  0
 10 11  1  0
 11 12  1  0
 12 13  1  0
 12 15  1  0
 13 14  2  0
 13  1  1  0
  1  2  2  0
  1  6  1  0
  2  3  1  0
  3 16  1  0
  3  4  2  0
 16 17  1  0
 17 18  2  0
 17 27  1  0
 18 19  1  0
 19 20  1  0
 20 21  2  0
 20 22  1  0
 22 23  1  0
 22 27  2  0
 23 24  2  0
 24 25  1  0
 25 26  2  0
 26 27  1  0
  4  5  1  0
  5  6  2  0
  6  7  1  0
M  CHG  1   8   1
M  END
>  <minimizedAffinity>  (479) 
-9.10333

$$$$
cs_full_output_folder/data/smiles/5857.pdb
     RDKit          3D

 25 26  0  0  0  0  0  0  0  0999 V2000
   70.0767   49.2971   52.5772 S   0  0  0  0  0  0  0  0  0  0  0  0
   70.1322   49.2691   51.0445 O   0  0  0  0  0  0  0  0  0  0  0  0
   71.5532   49.1794   52.9612 O   0  0  0  0  0  0  0  0  0  0  0  0
   69.2537   47.8527   53.0841 C   0  0  0  0  0  0  0  0  0  0  0  0
   68.6109   47.0710   52.1185 C   0  0  0  0  0  0  0  0  0  0  0  0
   67.9044   45.9317   52.4118 C   0  0  0  0  0  0  0  0  0  0  0  0
   67.2976   45.2055   51.4447 F   0  0  0  0  0  0  0  0  0  0  0  0
   67.8315   45.5487   53.7329 C   0  0  0  0  0  0  0  0  0  0  0  0
   67.1375   44.4244   54.0559 F   0  0  0  0  0  0  0  0  0  0  0  0
   68.4478   46.2840   54.7258 C   0  0  0  0  0  0  0  0  0  0  0  0
   68.3780   45.9086   56.0318 F   0  0  0  0  0  0  0  0  0  0  0  0
   69.1459   47.4197   54.3767 C   0  0  0  0  0  0  0  0  0  0  0  0
   69.7650   48.0948   55.3665 F   0  0  0  0  0  0  0  0  0  0  0  0
   69.4129   50.7525   53.0680 N   0  0  0  0  0  0  0  0  0  0  0  0
   70.2083   52.7851   56.1383 C   0  0  0  0  0  0  0  0  0  0  0  0
   69.0871   52.5650   56.8732 C   0  0  0  0  0  0  0  0  0  0  0  0
   68.0978   51.7560   56.3667 C   0  0  0  0  0  0  0  0  0  0  0  0
   68.2194   51.1713   55.1405 C   0  0  0  0  0  0  0  0  0  0  0  0
   69.3655   51.3716   54.3409 C   0  0  0  0  0  0  0  0  0  0  0  0
   70.3269   52.1735   54.8657 C   0  0  0  0  0  0  0  0  0  0  0  0
   72.0089   52.2684   58.2826 O   0  0  0  0  0  0  0  0  0  0  0  0
   72.1553   53.3007   57.6083 C   0  0  0  0  0  0  0  0  0  0  0  0
   71.2852   53.5868   56.5429 N   0  0  0  0  0  0  0  0  0  0  0  0
   73.2925   54.2634   57.9438 C   0  0  0  0  0  0  0  0  0  0  0  0
   74.3100   53.5480   58.5688 O   0  0  0  0  0  0  0  0  0  0  0  0
 21 22  2  0
 22 24  1  0
 22 23  1  0
 24 25  1  0
 23 15  1  0
 15 16  2  0
 15 20  1  0
 16 17  1  0
 17 18  2  0
 18 19  1  0
 19 14  1  0
 19 20  2  0
 14  1  1  0
  1  2  2  0
  1  3  2  0
  1  4  1  0
  4  5  2  0
  4 12  1  0
  5  6  1  0
  6  7  1  0
  6  8  2  0
  8  9  1  0
  8 10  1  0
 10 11  1  0
 10 12  2  0
 12 13  1  0
M  END
>  <minimizedAffinity>  (480) 
-9.10332

$$$$
cs_full_output_folder/data/smiles/8103.pdb
     RDKit          3D

 28 31  0  0  0  0  0  0  0  0999 V2000
   70.7190   46.4157   58.5294 C   0  0  0  0  0  0  0  0  0  0  0  0
   69.8475   46.9416   57.5847 C   0  0  0  0  0  0  0  0  0  0  0  0
   69.7569   48.2729   57.2712 C   0  0  0  0  0  0  0  0  0  0  0  0
   70.6178   49.1352   57.9707 C   0  0  0  0  0  0  0  0  0  0  0  0
   71.4999   48.6689   58.9151 C   0  0  0  0  0  0  0  0  0  0  0  0
   71.5369   47.3100   59.1816 C   0  0  0  0  0  0  0  0  0  0  0  0
   72.4016   46.8328   60.1114 F   0  0  0  0  0  0  0  0  0  0  0  0
   75.0310   45.0754   58.8909 O   0  0  0  0  0  0  0  0  0  0  0  0
   74.2401   44.3202   58.3520 C   0  0  0  0  0  0  0  0  0  0  0  0
   74.4447   42.8425   58.3005 C   0  0  0  0  0  0  0  0  0  0  0  0
   73.1271   42.1832   57.9054 C   0  0  0  0  0  0  0  0  0  0  0  0
   71.9535   42.8110   58.6205 C   0  0  0  0  0  0  0  0  0  0  0  0
   71.8841   44.2378   58.3792 N   0  0  0  0  0  0  0  0  0  0  0  0
   70.7413   44.9624   58.7974 C   0  0  0  0  0  0  0  0  0  0  0  0
   69.8074   44.3766   59.3641 O   0  0  0  0  0  0  0  0  0  0  0  0
   73.0108   44.8549   57.7088 C   0  0  0  0  0  0  0  0  0  0  0  0
   68.8119   48.8550   56.2642 C   0  0  0  0  0  0  0  0  0  0  0  0
   69.2725   48.6951   54.8697 C   0  0  0  0  0  0  0  0  0  0  0  0
   70.1672   49.6128   54.3957 N   0  0  0  0  0  0  0  0  0  0  0  0
   70.6387   49.6285   53.1753 N   0  0  0  0  0  0  0  0  0  0  0  0
   70.2456   48.6999   52.2988 C   0  0  0  0  0  0  0  0  0  0  0  0
   70.6838   48.6979   51.1262 O   0  0  0  0  0  0  0  0  0  0  0  0
   69.3452   47.7497   52.7250 C   0  0  0  0  0  0  0  0  0  0  0  0
   68.9037   46.7508   51.8627 C   0  0  0  0  0  0  0  0  0  0  0  0
   68.0112   45.7845   52.2727 C   0  0  0  0  0  0  0  0  0  0  0  0
   67.5362   45.7999   53.5703 C   0  0  0  0  0  0  0  0  0  0  0  0
   67.9450   46.7681   54.4541 C   0  0  0  0  0  0  0  0  0  0  0  0
   68.8371   47.7298   54.0338 C   0  0  0  0  0  0  0  0  0  0  0  0
  8  9  2  0
  9 10  1  0
  9 16  1  0
 10 11  1  0
 11 12  1  0
 12 13  1  0
 13 14  1  0
 13 16  1  0
 14 15  2  0
 14  1  1  0
  1  2  2  0
  1  6  1  0
  2  3  1  0
  3 17  1  0
  3  4  2  0
 17 18  1  0
 18 19  2  0
 18 28  1  0
 19 20  1  0
 20 21  1  0
 21 22  2  0
 21 23  1  0
 23 24  1  0
 23 28  2  0
 24 25  2  0
 25 26  1  0
 26 27  2  0
 27 28  1  0
  4  5  1  0
  5  6  2  0
  6  7  1  0
M  END
>  <minimizedAffinity>  (481) 
-9.10318

$$$$
cs_full_output_folder/data/smiles/5848.pdb
     RDKit          3D

 29 32  0  0  0  0  0  0  0  0999 V2000
   71.5527   47.2033   58.8559 C   0  0  0  0  0  0  0  0  0  0  0  0
   70.7200   48.0353   58.0938 C   0  0  0  0  0  0  0  0  0  0  0  0
   69.8191   47.5286   57.2059 C   0  0  0  0  0  0  0  0  0  0  0  0
   69.7754   46.1321   57.0993 C   0  0  0  0  0  0  0  0  0  0  0  0
   70.5643   45.2872   57.8187 C   0  0  0  0  0  0  0  0  0  0  0  0
   71.4547   45.8523   58.7003 C   0  0  0  0  0  0  0  0  0  0  0  0
   72.2438   45.0083   59.4207 F   0  0  0  0  0  0  0  0  0  0  0  0
   77.6671   48.8663   57.7985 C   0  0  0  0  0  0  0  0  0  0  0  0
   76.3608   48.8364   58.3964 N   0  0  0  0  0  0  0  0  0  0  0  0
   75.1344   49.0894   57.6255 C   0  0  0  0  0  0  0  0  0  0  0  0
   74.2163   47.9224   57.9766 C   0  0  0  0  0  0  0  0  0  0  0  0
   73.8101   48.1085   59.3735 N   0  0  0  0  0  0  0  0  0  0  0  0
   72.5082   47.7546   59.7957 C   0  0  0  0  0  0  0  0  0  0  0  0
   72.1752   47.9157   60.9841 O   0  0  0  0  0  0  0  0  0  0  0  0
   74.7820   48.6646   60.3084 C   0  0  0  0  0  0  0  0  0  0  0  0
   76.1554   48.5593   59.7713 C   0  0  0  0  0  0  0  0  0  0  0  0
   77.1138   48.2348   60.5110 O   0  0  0  0  0  0  0  0  0  0  0  0
   68.8873   48.2715   56.3407 C   0  0  0  0  0  0  0  0  0  0  0  0
   69.3365   48.2770   54.9570 C   0  0  0  0  0  0  0  0  0  0  0  0
   70.3039   49.1750   54.5987 N   0  0  0  0  0  0  0  0  0  0  0  0
   70.7348   49.3002   53.3578 N   0  0  0  0  0  0  0  0  0  0  0  0
   70.2598   48.5557   52.3408 C   0  0  0  0  0  0  0  0  0  0  0  0
   70.7073   48.7169   51.1704 O   0  0  0  0  0  0  0  0  0  0  0  0
   69.2829   47.6231   52.6150 C   0  0  0  0  0  0  0  0  0  0  0  0
   68.7875   46.8307   51.6026 C   0  0  0  0  0  0  0  0  0  0  0  0
   67.8251   45.8849   51.8848 C   0  0  0  0  0  0  0  0  0  0  0  0
   67.4012   45.7812   53.1940 C   0  0  0  0  0  0  0  0  0  0  0  0
   67.8925   46.5727   54.2175 C   0  0  0  0  0  0  0  0  0  0  0  0
   68.8389   47.5048   53.9388 C   0  0  0  0  0  0  0  0  0  0  0  0
  8  9  1  0
  9 10  1  0
  9 16  1  0
 10 11  1  0
 11 12  1  0
 12 13  1  0
 12 15  1  0
 13 14  2  0
 13  1  1  0
  1  2  2  0
  1  6  1  0
  2  3  1  0
  3 18  1  0
  3  4  2  0
 18 19  1  0
 19 20  2  0
 19 29  1  0
 20 21  1  0
 21 22  1  0
 22 23  2  0
 22 24  1  0
 24 25  1  0
 24 29  2  0
 25 26  2  0
 26 27  1  0
 27 28  2  0
 28 29  1  0
  4  5  1  0
  5  6  2  0
  6  7  1  0
 15 16  1  0
 16 17  2  0
M  END
>  <minimizedAffinity>  (482) 
-9.10083

$$$$
cs_full_output_folder/data/smiles/2606.pdb
     RDKit          3D

 27 30  0  0  0  0  0  0  0  0999 V2000
   71.4467   47.1324   58.8174 C   0  0  0  0  0  0  0  0  0  0  0  0
   70.6144   47.9519   58.0349 C   0  0  0  0  0  0  0  0  0  0  0  0
   69.7361   47.4353   57.1334 C   0  0  0  0  0  0  0  0  0  0  0  0
   69.7113   46.0328   57.0336 C   0  0  0  0  0  0  0  0  0  0  0  0
   70.5263   45.2287   57.8008 C   0  0  0  0  0  0  0  0  0  0  0  0
   71.4101   45.7644   58.7073 C   0  0  0  0  0  0  0  0  0  0  0  0
   72.2210   44.9603   59.4697 F   0  0  0  0  0  0  0  0  0  0  0  0
   72.0170   47.7893   60.9720 O   0  0  0  0  0  0  0  0  0  0  0  0
   72.3756   47.7380   59.7709 C   0  0  0  0  0  0  0  0  0  0  0  0
   73.6380   48.2513   59.3755 N   0  0  0  0  0  0  0  0  0  0  0  0
   74.5447   48.8442   60.3365 C   0  0  0  0  0  0  0  0  0  0  0  0
   75.8646   48.1404   60.2469 C   0  0  0  0  0  0  0  0  0  0  0  0
   76.1162   47.4450   58.9654 C   0  0  0  0  0  0  0  0  0  0  0  0
   75.3237   47.4979   57.9892 N   0  0  0  0  0  0  0  0  0  0  0  0
   74.1102   48.2269   58.0076 C   0  0  0  0  0  0  0  0  0  0  0  0
   68.8368   48.2369   56.2569 C   0  0  0  0  0  0  0  0  0  0  0  0
   69.2684   48.2983   54.8663 C   0  0  0  0  0  0  0  0  0  0  0  0
   70.1733   49.2411   54.5061 N   0  0  0  0  0  0  0  0  0  0  0  0
   70.5815   49.3994   53.2579 N   0  0  0  0  0  0  0  0  0  0  0  0
   70.1286   48.6347   52.2455 C   0  0  0  0  0  0  0  0  0  0  0  0
   70.5488   48.8197   51.0502 O   0  0  0  0  0  0  0  0  0  0  0  0
   69.2133   47.6606   52.5345 C   0  0  0  0  0  0  0  0  0  0  0  0
   68.7491   46.8636   51.5238 C   0  0  0  0  0  0  0  0  0  0  0  0
   67.8425   45.8781   51.8138 C   0  0  0  0  0  0  0  0  0  0  0  0
   67.4059   45.7013   53.1358 C   0  0  0  0  0  0  0  0  0  0  0  0
   67.9005   46.5279   54.1204 C   0  0  0  0  0  0  0  0  0  0  0  0
   68.7949   47.5078   53.8538 C   0  0  0  0  0  0  0  0  0  0  0  0
  8  9  2  0
  9  1  1  0
  9 10  1  0
  1  2  2  0
  1  6  1  0
  2  3  1  0
  3 16  1  0
  3  4  2  0
 16 17  1  0
 17 18  2  0
 17 27  1  0
 18 19  1  0
 19 20  1  0
 20 21  2  0
 20 22  1  0
 22 23  1  0
 22 27  2  0
 23 24  2  0
 24 25  1  0
 25 26  2  0
 26 27  1  0
  4  5  1  0
  5  6  2  0
  6  7  1  0
 10 11  1  0
 10 15  1  0
 11 12  1  0
 12 13  1  0
 13 14  2  0
 14 15  1  0
M  END
>  <minimizedAffinity>  (483) 
-9.09708

$$$$
cs_full_output_folder/data/smiles/1021.pdb
     RDKit          3D

 27 30  0  0  0  0  0  0  0  0999 V2000
   71.5873   47.3298   59.0430 C   0  0  0  0  0  0  0  0  0  0  0  0
   70.5539   47.8835   58.3482 C   0  0  0  0  0  0  0  0  0  0  0  0
   69.7264   47.1822   57.4948 C   0  0  0  0  0  0  0  0  0  0  0  0
   69.9887   45.8284   57.3564 C   0  0  0  0  0  0  0  0  0  0  0  0
   71.0198   45.2089   58.0321 C   0  0  0  0  0  0  0  0  0  0  0  0
   71.8160   45.9742   58.8769 C   0  0  0  0  0  0  0  0  0  0  0  0
   72.8273   45.3582   59.5363 F   0  0  0  0  0  0  0  0  0  0  0  0
   72.4631   47.9539   61.1750 O   0  0  0  0  0  0  0  0  0  0  0  0
   72.4646   48.0829   59.9366 C   0  0  0  0  0  0  0  0  0  0  0  0
   73.3663   49.0117   59.3223 N   0  0  0  0  0  0  0  0  0  0  0  0
   73.4065   49.1940   57.8870 C   0  0  0  0  0  0  0  0  0  0  0  0
   74.3352   50.2152   57.4010 C   0  0  0  0  0  0  0  0  0  0  0  0
   75.4359   50.4992   58.1358 O   0  0  0  0  0  0  0  0  0  0  0  0
   75.5800   49.8344   59.3240 C   0  0  0  0  0  0  0  0  0  0  0  0
   74.2730   49.8119   60.1155 C   0  0  0  0  0  0  0  0  0  0  0  0
   68.6093   47.8236   56.7641 C   0  0  0  0  0  0  0  0  0  0  0  0
   69.1476   48.0374   55.3365 C   0  0  0  0  0  0  0  0  0  0  0  0
   70.0445   48.9962   55.2109 N   0  0  0  0  0  0  0  0  0  0  0  0
   70.5979   49.3052   54.0384 N   0  0  0  0  0  0  0  0  0  0  0  0
   70.1907   48.5777   52.9617 C   0  0  0  0  0  0  0  0  0  0  0  0
   70.7912   48.9535   51.8497 O   0  0  0  0  0  0  0  0  0  0  0  0
   69.3562   47.6406   52.9051 C   0  0  0  0  0  0  0  0  0  0  0  0
   68.6157   47.2190   54.4440 C   0  0  0  0  0  0  0  0  0  0  0  0
   68.2002   46.5661   53.6907 C   0  0  0  0  0  0  0  0  0  0  0  0
   67.9590   46.1816   53.2334 C   0  0  0  0  0  0  0  0  0  0  0  0
   67.5653   45.5460   52.4560 C   0  0  0  0  0  0  0  0  0  0  0  0
   68.8672   46.7940   51.7287 C   0  0  0  0  0  0  0  0  0  0  0  0
  8  9  2  0
  9  1  1  0
  9 10  1  0
  1  2  2  0
  1  6  1  0
  2  3  1  0
  3 16  1  0
  3  4  2  0
 16 17  1  0
 17 18  2  0
 17 23  1  0
 18 19  1  0
 19 20  1  0
 20 21  2  0
 20 22  1  0
 22 23  2  0
 22 27  1  0
 23 24  1  0
 24 25  3  0
 25 26  1  0
 26 27  1  0
  4  5  1  0
  5  6  2  0
  6  7  1  0
 10 11  1  0
 10 15  1  0
 11 12  1  0
 12 13  1  0
 13 14  1  0
 14 15  1  0
M  END
>  <minimizedAffinity>  (484) 
-9.09707

$$$$
cs_full_output_folder/data/smiles/5241.pdb
     RDKit          3D

 29 32  0  0  0  0  0  0  0  0999 V2000
   71.2475   46.7497   58.8651 C   0  0  0  0  0  0  0  0  0  0  0  0
   70.3072   47.4040   58.1042 C   0  0  0  0  0  0  0  0  0  0  0  0
   69.5316   46.7596   57.1406 C   0  0  0  0  0  0  0  0  0  0  0  0
   69.6796   45.4386   56.9147 C   0  0  0  0  0  0  0  0  0  0  0  0
   70.6266   44.7437   57.6700 C   0  0  0  0  0  0  0  0  0  0  0  0
   71.3837   45.3950   58.6177 C   0  0  0  0  0  0  0  0  0  0  0  0
   72.2939   44.7002   59.3342 F   0  0  0  0  0  0  0  0  0  0  0  0
   71.8377   47.1855   61.1082 O   0  0  0  0  0  0  0  0  0  0  0  0
   72.0616   47.4180   59.8717 C   0  0  0  0  0  0  0  0  0  0  0  0
   73.0965   48.3191   59.5584 N   0  0  0  0  0  0  0  0  0  0  0  0
   73.8729   48.9554   60.5990 C   0  0  0  0  0  0  0  0  0  0  0  0
   74.4769   50.2152   59.9639 C   0  0  1  0  0  0  0  0  0  0  0  0
   74.9878   51.0767   60.9264 O   0  0  0  0  0  0  0  0  0  0  0  0
   75.5128   49.8172   58.9470 C   0  0  0  0  0  0  0  0  0  0  0  0
   74.9555   48.7007   58.0977 C   0  0  2  0  0  0  0  0  0  0  0  0
   75.3199   48.8072   56.7788 F   0  0  0  0  0  0  0  0  0  0  0  0
   73.4300   48.6490   58.1864 C   0  0  0  0  0  0  0  0  0  0  0  0
   68.5556   47.6285   56.4419 C   0  0  0  0  0  0  0  0  0  0  0  0
   69.0668   47.9334   55.1174 C   0  0  0  0  0  0  0  0  0  0  0  0
   70.0265   48.9053   55.0304 N   0  0  0  0  0  0  0  0  0  0  0  0
   70.6044   49.2399   53.8936 N   0  0  0  0  0  0  0  0  0  0  0  0
   70.2602   48.6216   52.7533 C   0  0  0  0  0  0  0  0  0  0  0  0
   70.8228   48.9514   51.6693 O   0  0  0  0  0  0  0  0  0  0  0  0
   69.2969   47.6212   52.7258 C   0  0  0  0  0  0  0  0  0  0  0  0
   68.9458   47.0053   51.5448 C   0  0  0  0  0  0  0  0  0  0  0  0
   67.9745   46.0346   51.5874 C   0  0  0  0  0  0  0  0  0  0  0  0
   67.3909   45.7154   52.7980 C   0  0  0  0  0  0  0  0  0  0  0  0
   67.7521   46.3409   53.9797 C   0  0  0  0  0  0  0  0  0  0  0  0
   68.7127   47.3027   53.9598 C   0  0  0  0  0  0  0  0  0  0  0  0
  8  9  2  0
  9  1  1  0
  9 10  1  0
  1  2  2  0
  1  6  1  0
  2  3  1  0
  3 18  1  0
  3  4  2  0
 18 19  1  0
 19 20  2  0
 19 29  1  0
 20 21  1  0
 21 22  1  0
 22 23  2  0
 22 24  1  0
 24 25  1  0
 24 29  2  0
 25 26  2  0
 26 27  1  0
 27 28  2  0
 28 29  1  0
  4  5  1  0
  5  6  2  0
  6  7  1  0
 10 11  1  0
 10 17  1  0
 11 12  1  0
 12 13  1  1
 12 14  1  0
 14 15  1  0
 15 16  1  6
 15 17  1  0
M  END
>  <minimizedAffinity>  (485) 
-9.09517

$$$$
cs_full_output_folder/data/smiles/2361.pdb
     RDKit          3D

 25 27  0  0  0  0  0  0  0  0999 V2000
   71.2307   43.4640   57.6690 O   0  0  0  0  0  0  0  0  0  0  0  0
   70.0069   43.3886   57.4452 C   0  0  0  0  0  0  0  0  0  0  0  0
   69.3417   44.5938   57.1957 N   0  0  0  0  0  0  0  0  0  0  0  0
   69.3802   42.0704   57.4627 C   0  0  0  0  0  0  0  0  0  0  0  0
   68.1205   41.8241   56.9777 C   0  0  0  0  0  0  0  0  0  0  0  0
   67.5577   40.5547   57.0123 C   0  0  0  0  0  0  0  0  0  0  0  0
   68.2793   39.5181   57.5450 C   0  0  0  0  0  0  0  0  0  0  0  0
   69.5719   39.7140   58.0543 C   0  0  0  0  0  0  0  0  0  0  0  0
   70.0682   40.9715   57.9943 C   0  0  0  0  0  0  0  0  0  0  0  0
   70.2442   38.5422   58.5945 C   0  0  0  0  0  0  0  0  0  0  0  0
   71.4699   38.1540   58.1215 C   0  0  0  0  0  0  0  0  0  0  0  0
   72.1616   37.0428   58.5992 C   0  0  0  0  0  0  0  0  0  0  0  0
   71.5597   36.3154   59.5981 C   0  0  0  0  0  0  0  0  0  0  0  0
   70.3392   36.7197   60.0534 C   0  0  0  0  0  0  0  0  0  0  0  0
   69.6994   37.7951   59.5722 N   0  0  0  0  0  0  0  0  0  0  0  0
   69.7401   45.8599   57.1321 N   0  0  0  0  0  0  0  0  0  0  0  0
   69.0589   47.1107   56.3330 S   0  0  0  0  0  0  0  0  0  0  0  0
   69.7693   48.4430   56.4796 O   0  0  0  0  0  0  0  0  0  0  0  0
   67.6906   47.3914   56.9758 O   0  0  0  0  0  0  0  0  0  0  0  0
   68.6952   46.7948   54.6523 C   0  0  0  0  0  0  0  0  0  0  0  0
   69.2313   47.7066   53.7349 C   0  0  0  0  0  0  0  0  0  0  0  0
   69.0393   47.5536   52.3881 C   0  0  0  0  0  0  0  0  0  0  0  0
   68.3130   46.4944   51.9124 C   0  0  0  0  0  0  0  0  0  0  0  0
   67.7955   45.6124   52.8166 C   0  0  0  0  0  0  0  0  0  0  0  0
   67.9740   45.7443   54.1754 C   0  0  0  0  0  0  0  0  0  0  0  0
  1  2  2  0
  2  3  1  0
  2  4  1  0
  3 16  1  0
 16 17  1  0
 17 18  2  0
 17 19  2  0
 17 20  1  0
 20 21  2  0
 20 25  1  0
 21 22  1  0
 22 23  2  0
 23 24  1  0
 24 25  2  0
  4  5  2  0
  4  9  1  0
  5  6  1  0
  6  7  2  0
  7  8  1  0
  8 10  1  0
  8  9  2  0
 10 11  2  0
 10 15  1  0
 11 12  1  0
 12 13  2  0
 13 14  1  0
 14 15  2  0
M  END
>  <minimizedAffinity>  (486) 
-9.09476

$$$$
cs_full_output_folder/data/smiles/9291.pdb
     RDKit          3D

 24 25  0  0  0  0  0  0  0  0999 V2000
   70.1525   49.0464   51.1319 O   0  0  0  0  0  0  0  0  0  0  0  0
   70.0454   49.2887   52.6385 S   0  0  0  0  0  0  0  0  0  0  0  0
   71.4706   49.3176   53.1172 O   0  0  0  0  0  0  0  0  0  0  0  0
   69.2779   47.8778   53.3161 C   0  0  0  0  0  0  0  0  0  0  0  0
   69.3299   47.5821   54.6547 C   0  0  0  0  0  0  0  0  0  0  0  0
   69.9826   48.4510   55.4764 F   0  0  0  0  0  0  0  0  0  0  0  0
   68.7414   46.4451   55.1398 C   0  0  0  0  0  0  0  0  0  0  0  0
   68.8161   46.1852   56.4912 F   0  0  0  0  0  0  0  0  0  0  0  0
   68.0867   45.5771   54.3093 C   0  0  0  0  0  0  0  0  0  0  0  0
   67.5113   44.4495   54.8423 F   0  0  0  0  0  0  0  0  0  0  0  0
   68.0252   45.8566   52.9705 C   0  0  0  0  0  0  0  0  0  0  0  0
   67.3662   44.9736   52.1549 F   0  0  0  0  0  0  0  0  0  0  0  0
   68.6165   46.9980   52.4774 C   0  0  0  0  0  0  0  0  0  0  0  0
   68.5372   47.2430   51.1566 F   0  0  0  0  0  0  0  0  0  0  0  0
   69.2532   50.7467   52.9732 N   0  0  0  0  0  0  0  0  0  0  0  0
   69.1469   51.3400   54.2461 C   0  0  0  0  0  0  0  0  0  0  0  0
   69.9975   52.3983   54.6075 C   0  0  0  0  0  0  0  0  0  0  0  0
   69.8615   52.9761   55.8457 C   0  0  0  0  0  0  0  0  0  0  0  0
   68.9146   52.5536   56.7545 C   0  0  0  0  0  0  0  0  0  0  0  0
   68.0784   51.5189   56.4109 C   0  0  0  0  0  0  0  0  0  0  0  0
   68.2314   50.9529   55.1632 C   0  0  0  0  0  0  0  0  0  0  0  0
   67.0479   51.0155   57.3255 C   0  0  0  0  0  0  0  0  0  0  0  0
   67.4514   49.7387   58.0257 C   0  0  0  0  0  0  0  0  0  0  0  0
   67.1353   48.6024   57.3112 O   0  0  0  0  0  0  0  0  0  0  0  0
  1  2  2  0
  2  3  2  0
  2 15  1  0
  2  4  1  0
 15 16  1  0
 16 17  2  0
 16 21  1  0
 17 18  1  0
 18 19  2  0
 19 20  1  0
 20 22  1  0
 20 21  2  0
 22 23  1  0
 23 24  1  0
  4  5  2  0
  4 13  1  0
  5  6  1  0
  5  7  1  0
  7  8  1  0
  7  9  2  0
  9 10  1  0
  9 11  1  0
 11 12  1  0
 11 13  2  0
 13 14  1  0
M  END
>  <minimizedAffinity>  (487) 
-9.09407

$$$$
cs_full_output_folder/data/smiles/5502.pdb
     RDKit          3D

 26 29  0  0  0  0  0  0  0  0999 V2000
   71.8465   46.9759   59.3818 C   0  0  0  0  0  0  0  0  0  0  0  0
   72.0808   45.6211   59.2135 C   0  0  0  0  0  0  0  0  0  0  0  0
   71.3430   44.8669   58.3231 C   0  0  0  0  0  0  0  0  0  0  0  0
   70.3547   45.4697   57.5870 C   0  0  0  0  0  0  0  0  0  0  0  0
   70.1042   46.8215   57.7421 C   0  0  0  0  0  0  0  0  0  0  0  0
   70.8504   47.5524   58.6329 C   0  0  0  0  0  0  0  0  0  0  0  0
   72.4167   47.6887   61.5344 O   0  0  0  0  0  0  0  0  0  0  0  0
   72.6492   47.7737   60.3177 C   0  0  0  0  0  0  0  0  0  0  0  0
   73.6569   48.6109   59.8143 N   0  0  0  0  0  0  0  0  0  0  0  0
   74.4688   49.4226   60.6984 C   0  0  0  0  0  0  0  0  0  0  0  0
   75.1208   50.5165   59.8640 C   0  0  0  0  0  0  0  0  0  0  0  0
   74.0768   51.1150   58.9386 C   0  0  0  0  0  0  0  0  0  0  0  0
   73.6862   50.1127   57.8705 C   0  0  0  0  0  0  0  0  0  0  0  0
   73.9545   48.7194   58.3892 C   0  0  0  0  0  0  0  0  0  0  0  0
   69.0601   47.5458   56.9530 C   0  0  0  0  0  0  0  0  0  0  0  0
   68.6984   46.8622   55.6913 C   0  0  0  0  0  0  0  0  0  0  0  0
   68.0915   45.6459   55.7311 N   0  0  0  0  0  0  0  0  0  0  0  0
   67.7194   44.9594   54.6804 N   0  0  0  0  0  0  0  0  0  0  0  0
   67.9556   45.4957   53.4763 C   0  0  0  0  0  0  0  0  0  0  0  0
   67.6220   44.8882   52.4310 O   0  0  0  0  0  0  0  0  0  0  0  0
   68.5692   46.7308   53.2966 C   0  0  0  0  0  0  0  0  0  0  0  0
   68.9414   47.4134   54.4374 C   0  0  0  0  0  0  0  0  0  0  0  0
   69.6163   48.7355   54.4121 C   0  0  0  0  0  0  0  0  0  0  0  0
   69.6213   49.2515   52.9981 C   0  0  0  0  0  0  0  0  0  0  0  0
   70.0644   48.1341   52.0835 C   0  0  0  0  0  0  0  0  0  0  0  0
   68.8104   47.2582   51.9225 C   0  0  0  0  0  0  0  0  0  0  0  0
  7  8  2  0
  8  1  1  0
  8  9  1  0
  1  2  2  0
  1  6  1  0
  2  3  1  0
  3  4  2  0
  4  5  1  0
  5 15  1  0
  5  6  2  0
 15 16  1  0
 16 17  2  0
 16 22  1  0
 17 18  1  0
 18 19  1  0
 19 20  2  0
 19 21  1  0
 21 22  2  0
 21 26  1  0
 22 23  1  0
 23 24  1  0
 24 25  1  0
 25 26  1  0
  9 10  1  0
  9 14  1  0
 10 11  1  0
 11 12  1  0
 12 13  1  0
 13 14  1  0
M  END
>  <minimizedAffinity>  (488) 
-9.09319

$$$$
cs_full_output_folder/data/smiles/1924.pdb
     RDKit          3D

 27 30  0  0  0  0  0  0  0  0999 V2000
   71.8340   47.1654   59.2135 C   0  0  0  0  0  0  0  0  0  0  0  0
   72.0713   45.8153   59.0213 C   0  0  0  0  0  0  0  0  0  0  0  0
   71.2870   45.0794   58.1625 C   0  0  0  0  0  0  0  0  0  0  0  0
   70.2617   45.6880   57.4879 C   0  0  0  0  0  0  0  0  0  0  0  0
   70.0179   47.0267   57.6703 C   0  0  0  0  0  0  0  0  0  0  0  0
   70.8000   47.7487   58.5261 C   0  0  0  0  0  0  0  0  0  0  0  0
   78.0094   49.8422   59.0591 N   0  0  0  0  0  0  0  0  0  0  0  0
   76.3939   50.0378   58.7341 S   0  0  0  0  0  0  0  0  0  0  0  0
   75.5228   48.5147   58.2001 C   0  0  0  0  0  0  0  0  0  0  0  0
   74.0594   48.8743   58.2998 C   0  0  0  0  0  0  0  0  0  0  0  0
   73.7200   48.7609   59.7119 N   0  0  0  0  0  0  0  0  0  0  0  0
   72.6579   47.9440   60.1580 C   0  0  0  0  0  0  0  0  0  0  0  0
   72.4042   47.8751   61.3704 O   0  0  0  0  0  0  0  0  0  0  0  0
   74.5216   49.5232   60.6276 C   0  0  0  0  0  0  0  0  0  0  0  0
   75.2836   50.6356   59.9089 C   0  0  0  0  0  0  0  0  0  0  0  0
   68.8637   47.6677   56.9604 C   0  0  0  0  0  0  0  0  0  0  0  0
   68.6078   47.0383   55.6600 C   0  0  0  0  0  0  0  0  0  0  0  0
   67.9996   45.8113   55.6986 N   0  0  0  0  0  0  0  0  0  0  0  0
   67.6943   45.1053   54.6566 N   0  0  0  0  0  0  0  0  0  0  0  0
   67.9746   45.5736   53.4220 C   0  0  0  0  0  0  0  0  0  0  0  0
   67.6695   44.8748   52.4268 O   0  0  0  0  0  0  0  0  0  0  0  0
   68.5854   46.8015   53.3332 C   0  0  0  0  0  0  0  0  0  0  0  0
   68.9183   47.5683   54.4600 C   0  0  0  0  0  0  0  0  0  0  0  0
   69.5738   48.8800   54.3511 C   0  0  0  0  0  0  0  0  0  0  0  0
   69.7801   49.3417   52.9376 C   0  0  0  0  0  0  0  0  0  0  0  0
   70.0899   48.2123   51.9783 C   0  0  0  0  0  0  0  0  0  0  0  0
   68.8982   47.2743   51.9518 C   0  0  0  0  0  0  0  0  0  0  0  0
  7  8  1  0
  8  9  1  0
  8 15  1  0
  9 10  1  0
 10 11  1  0
 11 12  1  0
 11 14  1  0
 12 13  2  0
 12  1  1  0
  1  2  2  0
  1  6  1  0
  2  3  1  0
  3  4  2  0
  4  5  1  0
  5 16  1  0
  5  6  2  0
 16 17  1  0
 17 18  2  0
 17 23  1  0
 18 19  1  0
 19 20  1  0
 20 21  2  0
 20 22  1  0
 22 23  2  0
 22 27  1  0
 23 24  1  0
 24 25  1  0
 25 26  1  0
 26 27  1  0
 14 15  1  0
M  END
>  <minimizedAffinity>  (489) 
-9.09300

$$$$
cs_full_output_folder/data/smiles/9520.pdb
     RDKit          3D

 28 31  0  0  0  0  0  0  0  0999 V2000
   68.8201   41.0813   57.5005 C   0  0  0  0  0  0  0  0  0  0  0  0
   67.7337   40.7958   56.7013 C   0  0  0  0  0  0  0  0  0  0  0  0
   67.1389   41.7318   55.8931 C   0  0  0  0  0  0  0  0  0  0  0  0
   67.6545   43.0199   55.8806 C   0  0  0  0  0  0  0  0  0  0  0  0
   68.7390   43.3702   56.6565 C   0  0  0  0  0  0  0  0  0  0  0  0
   69.2897   42.3732   57.4489 C   0  0  0  0  0  0  0  0  0  0  0  0
   69.3291   40.2259   59.5838 O   0  0  0  0  0  0  0  0  0  0  0  0
   69.4288   40.0458   58.3535 C   0  0  0  0  0  0  0  0  0  0  0  0
   70.0935   38.9056   57.8931 N   0  0  0  0  0  0  0  0  0  0  0  0
   70.6989   37.8772   58.6361 C   0  0  0  0  0  0  0  0  0  0  0  0
   70.1619   37.2887   59.7471 C   0  0  0  0  0  0  0  0  0  0  0  0
   70.8396   36.2615   60.4320 C   0  0  0  0  0  0  0  0  0  0  0  0
   72.0608   35.8045   60.0204 C   0  0  0  0  0  0  0  0  0  0  0  0
   72.6113   36.3901   58.9028 C   0  0  0  0  0  0  0  0  0  0  0  0
   71.9441   37.3914   58.2403 C   0  0  0  0  0  0  0  0  0  0  0  0
   69.2582   44.7538   56.6135 C   0  0  0  0  0  0  0  0  0  0  0  0
   68.3035   45.6646   56.1032 O   0  0  0  0  0  0  0  0  0  0  0  0
   68.6892   46.7495   55.3412 C   0  0  0  0  0  0  0  0  0  0  0  0
   68.8476   47.9953   55.9110 C   0  0  0  0  0  0  0  0  0  0  0  0
   69.2326   49.0743   55.1420 C   0  0  0  0  0  0  0  0  0  0  0  0
   69.4761   48.9681   53.7903 C   0  0  0  0  0  0  0  0  0  0  0  0
   69.3207   47.7300   53.2130 C   0  0  0  0  0  0  0  0  0  0  0  0
   68.9359   46.6484   53.9773 C   0  0  0  0  0  0  0  0  0  0  0  0
   69.6378   47.9033   51.7934 C   0  0  0  0  0  0  0  0  0  0  0  0
   69.6025   46.9798   50.9558 O   0  0  0  0  0  0  0  0  0  0  0  0
   69.9846   49.2631   51.5312 N   0  0  0  0  0  0  0  0  0  0  0  0
   69.8877   49.9409   52.7687 C   0  0  0  0  0  0  0  0  0  0  0  0
   70.1210   51.1748   52.9461 O   0  0  0  0  0  0  0  0  0  0  0  0
  7  8  2  0
  8  9  1  0
  8  1  1  0
  9 10  1  0
 10 11  2  0
 10 15  1  0
 11 12  1  0
 12 13  2  0
 13 14  1  0
 14 15  2  0
  1  2  2  0
  1  6  1  0
  2  3  1  0
  3  4  2  0
  4  5  1  0
  5 16  1  0
  5  6  2  0
 16 17  1  0
 17 18  1  0
 18 19  2  0
 18 23  1  0
 19 20  1  0
 20 21  2  0
 21 22  1  0
 21 27  1  0
 22 23  2  0
 22 24  1  0
 24 25  2  0
 24 26  1  0
 26 27  1  0
 27 28  2  0
M  END
>  <minimizedAffinity>  (490) 
-9.09253

$$$$
cs_full_output_folder/data/smiles/2323.pdb
     RDKit          3D

 26 27  0  0  0  0  0  0  0  0999 V2000
   69.2962   50.6305   52.9380 N   0  0  0  0  0  0  0  0  0  0  0  0
   70.9964   53.1420   55.8375 C   0  0  0  0  0  0  0  0  0  0  0  0
   69.6412   52.9711   55.7870 C   0  0  0  0  0  0  0  0  0  0  0  0
   69.0462   52.1473   54.8547 C   0  0  0  0  0  0  0  0  0  0  0  0
   69.8158   51.4723   53.9443 C   0  0  0  0  0  0  0  0  0  0  0  0
   71.2135   51.6614   54.0112 C   0  0  0  0  0  0  0  0  0  0  0  0
   71.8299   52.4703   54.9231 C   0  0  0  0  0  0  0  0  0  0  0  0
   73.2272   52.6703   55.0025 N   0  0  0  0  0  0  0  0  0  0  0  0
   74.1944   51.6569   55.0878 C   0  0  0  0  0  0  0  0  0  0  0  0
   75.5904   51.9476   55.1644 N   0  0  0  0  0  0  0  0  0  0  0  0
   73.9040   50.4402   55.1011 O   0  0  0  0  0  0  0  0  0  0  0  0
   72.1093   53.4049   57.9762 C   0  0  0  0  0  0  0  0  0  0  0  0
   71.5888   53.9877   56.7974 O   0  0  0  0  0  0  0  0  0  0  0  0
   69.9940   49.1573   52.4776 S   0  0  0  0  0  0  0  0  0  0  0  0
   71.4340   49.1472   53.0070 O   0  0  0  0  0  0  0  0  0  0  0  0
   70.1133   49.0898   50.9706 O   0  0  0  0  0  0  0  0  0  0  0  0
   69.1642   47.7574   53.0994 C   0  0  0  0  0  0  0  0  0  0  0  0
   68.4898   46.8516   52.2888 C   0  0  0  0  0  0  0  0  0  0  0  0
   68.4937   47.0931   50.9565 F   0  0  0  0  0  0  0  0  0  0  0  0
   67.8494   45.7598   52.8308 C   0  0  0  0  0  0  0  0  0  0  0  0
   67.1913   44.8810   52.0088 F   0  0  0  0  0  0  0  0  0  0  0  0
   67.8445   45.5132   54.1792 C   0  0  0  0  0  0  0  0  0  0  0  0
   68.5030   46.3910   55.0090 C   0  0  0  0  0  0  0  0  0  0  0  0
   68.5291   46.1944   56.3502 F   0  0  0  0  0  0  0  0  0  0  0  0
   69.1439   47.4836   54.4675 C   0  0  0  0  0  0  0  0  0  0  0  0
   69.8086   48.3766   55.2588 F   0  0  0  0  0  0  0  0  0  0  0  0
 12 13  1  0
 13  2  1  0
  2  3  2  0
  2  7  1  0
  3  4  1  0
  4  5  2  0
  5  1  1  0
  5  6  1  0
  1 14  1  0
 14 15  2  0
 14 16  2  0
 14 17  1  0
 17 18  2  0
 17 25  1  0
 18 19  1  0
 18 20  1  0
 20 21  1  0
 20 22  2  0
 22 23  1  0
 23 24  1  0
 23 25  2  0
 25 26  1  0
  6  7  2  0
  7  8  1  0
  8  9  1  0
  9 10  1  0
  9 11  2  0
M  END
>  <minimizedAffinity>  (491) 
-9.08970

$$$$
cs_full_output_folder/data/smiles/2067.pdb
     RDKit          3D

 28 31  0  0  0  0  0  0  0  0999 V2000
   71.5441   47.2129   58.9015 C   0  0  0  0  0  0  0  0  0  0  0  0
   70.6242   47.8801   58.1342 C   0  0  0  0  0  0  0  0  0  0  0  0
   69.7960   47.2288   57.2315 C   0  0  0  0  0  0  0  0  0  0  0  0
   69.9124   45.8783   57.1187 C   0  0  0  0  0  0  0  0  0  0  0  0
   70.8418   45.1877   57.8905 C   0  0  0  0  0  0  0  0  0  0  0  0
   71.6607   45.8412   58.7841 C   0  0  0  0  0  0  0  0  0  0  0  0
   72.8433   44.9712   59.7686 Cl  0  0  0  0  0  0  0  0  0  0  0  0
   77.5420   48.2024   58.4785 C   0  0  0  0  0  0  0  0  0  0  0  0
   76.1452   48.6661   58.6092 C   0  0  0  0  0  0  0  0  0  0  0  0
   75.2011   48.1911   57.8026 C   0  0  0  0  0  0  0  0  0  0  0  0
   73.8295   48.7021   57.9932 C   0  0  0  0  0  0  0  0  0  0  0  0
   73.5508   48.6377   59.4159 N   0  0  0  0  0  0  0  0  0  0  0  0
   72.4223   47.9019   59.8555 C   0  0  0  0  0  0  0  0  0  0  0  0
   72.1506   47.8256   61.0902 O   0  0  0  0  0  0  0  0  0  0  0  0
   74.4448   49.3281   60.3093 C   0  0  0  0  0  0  0  0  0  0  0  0
   75.7580   49.6729   59.6405 C   0  0  0  0  0  0  0  0  0  0  0  0
   68.7883   47.9686   56.4337 C   0  0  0  0  0  0  0  0  0  0  0  0
   69.1590   48.1592   55.0194 C   0  0  0  0  0  0  0  0  0  0  0  0
   70.0446   49.1775   54.7763 N   0  0  0  0  0  0  0  0  0  0  0  0
   70.4762   49.4040   53.5554 N   0  0  0  0  0  0  0  0  0  0  0  0
   70.0978   48.6819   52.4985 C   0  0  0  0  0  0  0  0  0  0  0  0
   70.5117   48.8999   51.3313 O   0  0  0  0  0  0  0  0  0  0  0  0
   69.2112   47.6488   52.6817 C   0  0  0  0  0  0  0  0  0  0  0  0
   68.7888   46.8924   51.6205 C   0  0  0  0  0  0  0  0  0  0  0  0
   67.8783   45.8590   51.8392 C   0  0  0  0  0  0  0  0  0  0  0  0
   67.4321   45.6348   53.1274 C   0  0  0  0  0  0  0  0  0  0  0  0
   67.8539   46.3930   54.1948 C   0  0  0  0  0  0  0  0  0  0  0  0
   68.7524   47.4074   53.9665 C   0  0  0  0  0  0  0  0  0  0  0  0
  8  9  1  0
  9 10  2  0
  9 16  1  0
 10 11  1  0
 11 12  1  0
 12 13  1  0
 12 15  1  0
 13 14  2  0
 13  1  1  0
  1  2  2  0
  1  6  1  0
  2  3  1  0
  3 17  1  0
  3  4  2  0
 17 18  1  0
 18 19  2  0
 18 28  1  0
 19 20  1  0
 20 21  1  0
 21 22  2  0
 21 23  1  0
 23 24  1  0
 23 28  2  0
 24 25  2  0
 25 26  1  0
 26 27  2  0
 27 28  1  0
  4  5  1  0
  5  6  2  0
  6  7  1  0
 15 16  1  0
M  END
>  <minimizedAffinity>  (492) 
-9.08795

$$$$
cs_full_output_folder/data/smiles/2656.pdb
     RDKit          3D

 27 30  0  0  0  0  0  0  0  0999 V2000
   71.4525   47.1834   58.8484 C   0  0  0  0  0  0  0  0  0  0  0  0
   70.5650   47.8683   58.0452 C   0  0  0  0  0  0  0  0  0  0  0  0
   69.7388   47.2321   57.1426 C   0  0  0  0  0  0  0  0  0  0  0  0
   69.7956   45.8611   57.0303 C   0  0  0  0  0  0  0  0  0  0  0  0
   70.6718   45.1670   57.8197 C   0  0  0  0  0  0  0  0  0  0  0  0
   71.5073   45.8126   58.7340 C   0  0  0  0  0  0  0  0  0  0  0  0
   72.3669   45.0757   59.5023 F   0  0  0  0  0  0  0  0  0  0  0  0
   72.0304   47.7354   61.0179 O   0  0  0  0  0  0  0  0  0  0  0  0
   72.3244   47.8535   59.8022 C   0  0  0  0  0  0  0  0  0  0  0  0
   73.4517   48.6082   59.4393 N   0  0  0  0  0  0  0  0  0  0  0  0
   74.2714   49.2464   60.4512 C   0  0  0  0  0  0  0  0  0  0  0  0
   75.6905   48.8808   60.2047 C   0  0  0  0  0  0  0  0  0  0  0  0
   76.1255   48.4525   59.0444 C   0  0  0  0  0  0  0  0  0  0  0  0
   75.2784   48.2757   57.8349 C   0  0  0  0  0  0  0  0  0  0  0  0
   73.8743   48.8030   58.0600 C   0  0  0  0  0  0  0  0  0  0  0  0
   68.7850   47.9615   56.2758 C   0  0  0  0  0  0  0  0  0  0  0  0
   69.3185   48.1902   54.9201 C   0  0  0  0  0  0  0  0  0  0  0  0
   70.2622   49.1021   54.6407 N   0  0  0  0  0  0  0  0  0  0  0  0
   70.7596   49.3347   53.4399 N   0  0  0  0  0  0  0  0  0  0  0  0
   70.2798   48.5972   52.4260 C   0  0  0  0  0  0  0  0  0  0  0  0
   70.6937   48.7418   51.2268 O   0  0  0  0  0  0  0  0  0  0  0  0
   69.2995   47.6278   52.6234 C   0  0  0  0  0  0  0  0  0  0  0  0
   68.8193   46.8773   51.5582 C   0  0  0  0  0  0  0  0  0  0  0  0
   67.8491   45.9269   51.7975 C   0  0  0  0  0  0  0  0  0  0  0  0
   67.3607   45.7232   53.0739 C   0  0  0  0  0  0  0  0  0  0  0  0
   67.8169   46.4514   54.1524 C   0  0  0  0  0  0  0  0  0  0  0  0
   68.7968   47.4056   53.8901 C   0  0  0  0  0  0  0  0  0  0  0  0
  8  9  2  0
  9  1  1  0
  9 10  1  0
  1  2  2  0
  1  6  1  0
  2  3  1  0
  3 16  1  0
  3  4  2  0
 16 17  1  0
 17 18  2  0
 17 27  1  0
 18 19  1  0
 19 20  1  0
 20 21  2  0
 20 22  1  0
 22 23  1  0
 22 27  2  0
 23 24  2  0
 24 25  1  0
 25 26  2  0
 26 27  1  0
  4  5  1  0
  5  6  2  0
  6  7  1  0
 10 11  1  0
 10 15  1  0
 11 12  1  0
 12 13  2  0
 13 14  1  0
 14 15  1  0
M  END
>  <minimizedAffinity>  (493) 
-9.08744

$$$$
cs_full_output_folder/data/smiles/1836.pdb
     RDKit          3D

 27 30  0  0  0  0  0  0  0  0999 V2000
   71.5615   47.1769   58.8942 C   0  0  0  0  0  0  0  0  0  0  0  0
   70.7021   47.9195   58.1076 C   0  0  0  0  0  0  0  0  0  0  0  0
   69.8299   47.3689   57.2091 C   0  0  0  0  0  0  0  0  0  0  0  0
   69.8150   45.9991   57.0893 C   0  0  0  0  0  0  0  0  0  0  0  0
   70.6747   45.2367   57.8746 C   0  0  0  0  0  0  0  0  0  0  0  0
   71.5527   45.7944   58.7793 C   0  0  0  0  0  0  0  0  0  0  0  0
   72.3888   45.0586   59.5442 F   0  0  0  0  0  0  0  0  0  0  0  0
   75.9827   49.5149   56.7973 C   0  0  0  0  0  0  0  0  0  0  0  0
   75.0646   49.6866   57.9821 C   0  0  2  0  0  0  0  0  0  0  0  0
   75.7716   49.3982   59.3077 C   0  0  0  0  0  0  0  0  0  0  0  0
   74.5603   49.1932   60.2080 C   0  0  0  0  0  0  0  0  0  0  0  0
   73.6311   48.4854   59.3589 N   0  0  0  0  0  0  0  0  0  0  0  0
   72.4426   47.8629   59.8091 C   0  0  0  0  0  0  0  0  0  0  0  0
   72.1498   47.9078   61.0246 O   0  0  0  0  0  0  0  0  0  0  0  0
   74.0896   48.5050   57.9714 C   0  0  0  0  0  0  0  0  0  0  0  0
   68.9048   48.1703   56.3688 C   0  0  0  0  0  0  0  0  0  0  0  0
   69.3840   48.2937   54.9690 C   0  0  0  0  0  0  0  0  0  0  0  0
   70.3333   49.1770   54.6008 N   0  0  0  0  0  0  0  0  0  0  0  0
   70.7742   49.3254   53.3747 N   0  0  0  0  0  0  0  0  0  0  0  0
   70.2698   48.5602   52.3783 C   0  0  0  0  0  0  0  0  0  0  0  0
   70.7042   48.7194   51.2225 O   0  0  0  0  0  0  0  0  0  0  0  0
   69.2949   47.6228   52.6419 C   0  0  0  0  0  0  0  0  0  0  0  0
   68.7881   46.8404   51.6256 C   0  0  0  0  0  0  0  0  0  0  0  0
   67.8115   45.8899   51.8826 C   0  0  0  0  0  0  0  0  0  0  0  0
   67.3775   45.7688   53.1895 C   0  0  0  0  0  0  0  0  0  0  0  0
   67.8926   46.5616   54.2113 C   0  0  0  0  0  0  0  0  0  0  0  0
   68.8645   47.5043   53.9482 C   0  0  0  0  0  0  0  0  0  0  0  0
  9  8  1  6
  9 10  1  0
  9 15  1  0
 10 11  1  0
 11 12  1  0
 12 13  1  0
 12 15  1  0
 13 14  2  0
 13  1  1  0
  1  2  2  0
  1  6  1  0
  2  3  1  0
  3 16  1  0
  3  4  2  0
 16 17  1  0
 17 18  2  0
 17 27  1  0
 18 19  1  0
 19 20  1  0
 20 21  2  0
 20 22  1  0
 22 23  1  0
 22 27  2  0
 23 24  2  0
 24 25  1  0
 25 26  2  0
 26 27  1  0
  4  5  1  0
  5  6  2  0
  6  7  1  0
M  END
>  <minimizedAffinity>  (494) 
-9.08709

$$$$
cs_full_output_folder/data/smiles/8425.pdb
     RDKit          3D

 29 32  0  0  0  0  0  0  0  0999 V2000
   71.4811   47.3356   58.8765 C   0  0  0  0  0  0  0  0  0  0  0  0
   71.4468   45.9464   58.8008 C   0  0  0  0  0  0  0  0  0  0  0  0
   70.5968   45.3394   57.9064 C   0  0  0  0  0  0  0  0  0  0  0  0
   69.7686   46.0526   57.0743 C   0  0  0  0  0  0  0  0  0  0  0  0
   69.7995   47.4337   57.1453 C   0  0  0  0  0  0  0  0  0  0  0  0
   70.6287   48.0447   58.0187 C   0  0  0  0  0  0  0  0  0  0  0  0
   75.7292   47.5460   59.8765 N   0  0  2  0  0  0  0  0  0  0  0  0
   75.7633   47.5117   58.4752 C   0  0  0  0  0  0  0  0  0  0  0  0
   75.1815   48.6567   57.7400 C   0  0  0  0  0  0  0  0  0  0  0  0
   73.7475   48.9857   58.0606 C   0  0  0  0  0  0  0  0  0  0  0  0
   73.4730   48.8062   59.4607 N   0  0  0  0  0  0  0  0  0  0  0  0
   72.3759   48.0043   59.8074 C   0  0  0  0  0  0  0  0  0  0  0  0
   72.1271   47.8368   61.0502 O   0  0  0  0  0  0  0  0  0  0  0  0
   74.2577   49.3970   60.5271 C   0  0  0  0  0  0  0  0  0  0  0  0
   75.6344   48.7741   60.5481 C   0  0  0  0  0  0  0  0  0  0  0  0
   75.1687   45.1515   60.1736 C   0  0  0  0  0  0  0  0  0  0  0  0
   75.9147   46.3625   60.6023 C   0  0  0  0  0  0  0  0  0  0  0  0
   68.8781   48.1846   56.2725 C   0  0  0  0  0  0  0  0  0  0  0  0
   69.2792   48.2573   54.8559 C   0  0  0  0  0  0  0  0  0  0  0  0
   70.1835   49.2120   54.4694 N   0  0  0  0  0  0  0  0  0  0  0  0
   70.5810   49.3946   53.2319 N   0  0  0  0  0  0  0  0  0  0  0  0
   70.1292   48.6473   52.2054 C   0  0  0  0  0  0  0  0  0  0  0  0
   70.5346   48.8549   51.0283 O   0  0  0  0  0  0  0  0  0  0  0  0
   69.2156   47.6674   52.5267 C   0  0  0  0  0  0  0  0  0  0  0  0
   68.7092   46.8443   51.5426 C   0  0  0  0  0  0  0  0  0  0  0  0
   67.8044   45.8366   51.8057 C   0  0  0  0  0  0  0  0  0  0  0  0
   67.4019   45.6590   53.1120 C   0  0  0  0  0  0  0  0  0  0  0  0
   67.8899   46.4698   54.1341 C   0  0  0  0  0  0  0  0  0  0  0  0
   68.7900   47.4687   53.8442 C   0  0  0  0  0  0  0  0  0  0  0  0
 16 17  1  0
  7 17  1  1
  7  8  1  0
  7 15  1  0
  8  9  1  0
  9 10  1  0
 10 11  1  0
 11 12  1  0
 11 14  1  0
 12 13  2  0
 12  1  1  0
  1  2  2  0
  1  6  1  0
  2  3  1  0
  3  4  2  0
  4  5  1  0
  5 18  1  0
  5  6  2  0
 18 19  1  0
 19 20  2  0
 19 29  1  0
 20 21  1  0
 21 22  1  0
 22 23  2  0
 22 24  1  0
 24 25  1  0
 24 29  2  0
 25 26  2  0
 26 27  1  0
 27 28  2  0
 28 29  1  0
 14 15  1  0
M  CHG  1   7   1
M  END
>  <minimizedAffinity>  (495) 
-9.08503

$$$$
cs_full_output_folder/data/smiles/2946.pdb
     RDKit          3D

 29 32  0  0  0  0  0  0  0  0999 V2000
   71.2882   46.7604   58.7935 C   0  0  0  0  0  0  0  0  0  0  0  0
   70.4907   47.6110   58.0847 C   0  0  0  0  0  0  0  0  0  0  0  0
   69.6220   47.1784   57.0782 C   0  0  0  0  0  0  0  0  0  0  0  0
   69.5636   45.8512   56.7888 C   0  0  0  0  0  0  0  0  0  0  0  0
   70.3602   44.9407   57.4878 C   0  0  0  0  0  0  0  0  0  0  0  0
   71.2073   45.4087   58.4759 C   0  0  0  0  0  0  0  0  0  0  0  0
   71.9805   44.5279   59.1558 F   0  0  0  0  0  0  0  0  0  0  0  0
   71.8350   47.3731   61.0298 O   0  0  0  0  0  0  0  0  0  0  0  0
   72.2112   47.1583   59.8486 C   0  0  0  0  0  0  0  0  0  0  0  0
   73.5870   47.3123   59.5322 N   0  0  0  0  0  0  0  0  0  0  0  0
   74.0708   47.0766   58.1774 C   0  0  0  0  0  0  0  0  0  0  0  0
   74.6715   48.4029   57.7293 C   0  0  0  0  0  0  0  0  0  0  0  0
   75.9259   48.5932   58.5592 C   0  0  0  0  0  0  0  0  0  0  0  0
   75.9274   47.7623   59.8127 C   0  0  0  0  0  0  0  0  0  0  0  0
   74.5894   47.7041   60.5028 C   0  0  0  0  0  0  0  0  0  0  0  0
   76.0822   50.0525   58.8505 C   0  0  0  0  0  0  0  0  0  0  0  0
   77.3826   50.2689   59.2635 F   0  0  0  0  0  0  0  0  0  0  0  0
   68.8336   48.1936   56.3537 C   0  0  0  0  0  0  0  0  0  0  0  0
   69.3231   48.2437   54.9597 C   0  0  0  0  0  0  0  0  0  0  0  0
   70.3093   49.1362   54.6401 N   0  0  0  0  0  0  0  0  0  0  0  0
   70.7619   49.2712   53.4130 N   0  0  0  0  0  0  0  0  0  0  0  0
   70.3011   48.5542   52.3824 C   0  0  0  0  0  0  0  0  0  0  0  0
   70.7584   48.7072   51.2021 O   0  0  0  0  0  0  0  0  0  0  0  0
   69.3059   47.6326   52.6299 C   0  0  0  0  0  0  0  0  0  0  0  0
   68.8302   46.8798   51.5977 C   0  0  0  0  0  0  0  0  0  0  0  0
   67.8456   45.9478   51.8537 C   0  0  0  0  0  0  0  0  0  0  0  0
   67.3622   45.7936   53.1379 C   0  0  0  0  0  0  0  0  0  0  0  0
   67.8395   46.5536   54.1919 C   0  0  0  0  0  0  0  0  0  0  0  0
   68.8164   47.4816   53.9433 C   0  0  0  0  0  0  0  0  0  0  0  0
  8  9  2  0
  9  1  1  0
  9 10  1  0
  1  2  2  0
  1  6  1  0
  2  3  1  0
  3 18  1  0
  3  4  2  0
 18 19  1  0
 19 20  2  0
 19 29  1  0
 20 21  1  0
 21 22  1  0
 22 23  2  0
 22 24  1  0
 24 25  1  0
 24 29  2  0
 25 26  2  0
 26 27  1  0
 27 28  2  0
 28 29  1  0
  4  5  1  0
  5  6  2  0
  6  7  1  0
 10 11  1  0
 10 15  1  0
 11 12  1  0
 12 13  1  0
 13 16  1  0
 13 14  1  0
 16 17  1  0
 14 15  1  0
M  END
>  <minimizedAffinity>  (496) 
-9.08391

$$$$
cs_full_output_folder/data/smiles/394.pdb
     RDKit          3D

 26 27  0  0  0  0  0  0  0  0999 V2000
   69.5025   50.3115   56.8761 C   0  0  0  0  0  0  0  0  0  0  0  0
   69.2420   51.5672   57.1431 C   0  0  0  0  0  0  0  0  0  0  0  0
   68.9314   52.3762   56.2371 C   0  0  0  0  0  0  0  0  0  0  0  0
   68.7807   52.2064   54.8556 C   0  0  0  0  0  0  0  0  0  0  0  0
   69.0044   51.0101   54.3776 C   0  0  0  0  0  0  0  0  0  0  0  0
   69.3724   49.9866   55.2912 C   0  0  0  0  0  0  0  0  0  0  0  0
   69.9706   48.0355   57.4034 C   0  0  0  0  0  0  0  0  0  0  0  0
   69.8043   48.8441   57.2178 C   0  0  0  0  0  0  0  0  0  0  0  0
   70.5575   45.3368   58.0281 C   0  0  0  0  0  0  0  0  0  0  0  0
   70.3164   46.4885   57.7619 S   0  0  0  0  0  0  0  0  0  0  0  0
   69.7495   43.3843   57.5746 C   0  0  0  0  0  0  0  0  0  0  0  0
   70.8800   43.7673   58.3789 C   0  0  0  0  0  0  0  0  0  0  0  0
   68.6050   41.3987   56.8131 O   0  0  0  0  0  0  0  0  0  0  0  0
   68.8044   42.5702   56.9789 C   0  0  0  0  0  0  0  0  0  0  0  0
   67.6176   43.2397   56.2557 N   0  0  0  0  0  0  0  0  0  0  0  0
   66.7446   42.3970   55.7537 O   0  0  0  0  0  0  0  0  0  0  0  0
   69.1411   50.6155   53.0326 N   0  0  0  0  0  0  0  0  0  0  0  0
   69.8875   49.1726   52.5533 S   0  0  0  0  0  0  0  0  0  0  0  0
   71.2494   49.0942   53.2715 O   0  0  0  0  0  0  0  0  0  0  0  0
   70.2027   49.1888   51.0436 O   0  0  0  0  0  0  0  0  0  0  0  0
   68.9649   47.6766   52.9396 C   0  0  0  0  0  0  0  0  0  0  0  0
   68.8417   47.2000   54.1777 C   0  0  0  0  0  0  0  0  0  0  0  0
   68.0929   45.8845   54.1249 C   0  0  0  0  0  0  0  0  0  0  0  0
   67.7457   45.4539   53.2232 C   0  0  0  0  0  0  0  0  0  0  0  0
   67.7724   45.7865   51.6733 C   0  0  0  0  0  0  0  0  0  0  0  0
   68.5205   47.1047   51.8125 C   0  0  0  0  0  0  0  0  0  0  0  0
 13 14  2  0
 14 11  1  0
 14 15  1  0
 11 12  2  0
 12  9  1  0
  9 10  3  0
 10  7  1  0
  7  8  3  0
  8  1  1  0
  1  2  2  0
  1  6  1  0
  2  3  1  0
  3  4  2  0
  4  5  1  0
  5 17  1  0
  5  6  2  0
 17 18  1  0
 18 19  2  0
 18 20  2  0
 18 21  1  0
 21 22  2  0
 21 26  1  0
 22 23  1  0
 23 24  2  0
 24 25  1  0
 25 26  2  0
 15 16  1  0
M  END
>  <minimizedAffinity>  (497) 
-9.08143

$$$$
cs_full_output_folder/data/smiles/3235.pdb
     RDKit          3D

 27 30  0  0  0  0  0  0  0  0999 V2000
   75.0051   35.3867   53.5371 C   0  0  0  0  0  0  0  0  0  0  0  0
   73.6437   35.4429   53.7127 C   0  0  0  0  0  0  0  0  0  0  0  0
   73.0601   35.2588   54.9657 C   0  0  0  0  0  0  0  0  0  0  0  0
   73.8012   35.0109   56.0910 C   0  0  0  0  0  0  0  0  0  0  0  0
   75.1932   34.9533   55.9098 C   0  0  0  0  0  0  0  0  0  0  0  0
   75.7494   35.1381   54.6686 C   0  0  0  0  0  0  0  0  0  0  0  0
   75.4683   33.3791   51.7151 O   0  0  0  0  0  0  0  0  0  0  0  0
   75.8623   34.5170   51.3422 C   0  0  0  0  0  0  0  0  0  0  0  0
   75.6314   35.5773   52.2787 N   0  0  0  0  0  0  0  0  0  0  0  0
   76.4945   34.7041   50.0639 C   0  0  0  0  0  0  0  0  0  0  0  0
   77.5522   35.5861   49.9707 C   0  0  0  0  0  0  0  0  0  0  0  0
   78.2199   35.8322   48.7945 C   0  0  0  0  0  0  0  0  0  0  0  0
   77.8392   35.1874   47.6459 C   0  0  0  0  0  0  0  0  0  0  0  0
   76.7882   34.3002   47.6982 C   0  0  0  0  0  0  0  0  0  0  0  0
   76.1232   34.0637   48.9047 C   0  0  0  0  0  0  0  0  0  0  0  0
   73.2202   34.8144   57.4302 C   0  0  0  0  0  0  0  0  0  0  0  0
   72.3529   35.8675   57.9394 C   0  0  0  0  0  0  0  0  0  0  0  0
   72.3389   37.1144   57.3908 N   0  0  0  0  0  0  0  0  0  0  0  0
   71.5683   38.0962   57.8106 N   0  0  0  0  0  0  0  0  0  0  0  0
   70.7132   37.9571   58.8366 C   0  0  0  0  0  0  0  0  0  0  0  0
   69.9950   38.9232   59.2044 O   0  0  0  0  0  0  0  0  0  0  0  0
   70.6836   36.7170   59.4348 C   0  0  0  0  0  0  0  0  0  0  0  0
   71.4956   35.6617   58.9942 C   0  0  0  0  0  0  0  0  0  0  0  0
   71.3475   34.3453   59.6349 C   0  0  0  0  0  0  0  0  0  0  0  0
   70.6702   34.3399   60.9529 C   0  0  0  0  0  0  0  0  0  0  0  0
   69.8499   35.4925   61.3048 C   0  0  0  0  0  0  0  0  0  0  0  0
   69.8507   36.5941   60.6157 C   0  0  0  0  0  0  0  0  0  0  0  0
  7  8  2  0
  8  9  1  0
  8 10  1  0
  9  1  1  0
  1  2  2  0
  1  6  1  0
  2  3  1  0
  3  4  2  0
  4 16  1  0
  4  5  1  0
 16 17  1  0
 17 18  2  0
 17 23  1  0
 18 19  1  0
 19 20  1  0
 20 21  2  0
 20 22  1  0
 22 23  2  0
 22 27  1  0
 23 24  1  0
 24 25  1  0
 25 26  1  0
 26 27  2  0
  5  6  2  0
 10 11  2  0
 10 15  1  0
 11 12  1  0
 12 13  2  0
 13 14  1  0
 14 15  2  0
M  END
>  <minimizedAffinity>  (498) 
-9.07989

$$$$
cs_full_output_folder/data/smiles/1001.pdb
     RDKit          3D

 28 31  0  0  0  0  0  0  0  0999 V2000
   71.4812   47.1618   58.8685 C   0  0  0  0  0  0  0  0  0  0  0  0
   70.5792   47.8199   58.0630 C   0  0  0  0  0  0  0  0  0  0  0  0
   69.7324   47.1527   57.1668 C   0  0  0  0  0  0  0  0  0  0  0  0
   69.8354   45.7943   57.1206 C   0  0  0  0  0  0  0  0  0  0  0  0
   70.7358   45.0692   57.9182 C   0  0  0  0  0  0  0  0  0  0  0  0
   71.5392   45.7893   58.7760 C   0  0  0  0  0  0  0  0  0  0  0  0
   72.4392   45.1333   59.5829 F   0  0  0  0  0  0  0  0  0  0  0  0
   76.9730   46.9154   59.1872 N   0  0  0  0  0  0  0  0  0  0  0  0
   75.7507   47.6535   59.1901 C   0  0  0  0  0  0  0  0  0  0  0  0
   75.7723   48.8098   60.1933 C   0  0  0  0  0  0  0  0  0  0  0  0
   74.3469   49.3218   60.2873 C   0  0  0  0  0  0  0  0  0  0  0  0
   73.4835   48.6116   59.3653 N   0  0  0  0  0  0  0  0  0  0  0  0
   72.3600   47.8853   59.8002 C   0  0  0  0  0  0  0  0  0  0  0  0
   72.1120   47.8628   61.0292 O   0  0  0  0  0  0  0  0  0  0  0  0
   73.9013   48.7170   57.9596 C   0  0  0  0  0  0  0  0  0  0  0  0
   75.3413   48.2077   57.8631 C   0  0  0  0  0  0  0  0  0  0  0  0
   68.7733   47.9373   56.3655 C   0  0  0  0  0  0  0  0  0  0  0  0
   69.2032   48.1214   55.0098 C   0  0  0  0  0  0  0  0  0  0  0  0
   70.0863   49.1023   54.7055 N   0  0  0  0  0  0  0  0  0  0  0  0
   70.5018   49.3629   53.4764 N   0  0  0  0  0  0  0  0  0  0  0  0
   70.0756   48.6645   52.4135 C   0  0  0  0  0  0  0  0  0  0  0  0
   70.4765   48.9197   51.2359 O   0  0  0  0  0  0  0  0  0  0  0  0
   69.1734   47.6436   52.6315 C   0  0  0  0  0  0  0  0  0  0  0  0
   68.7280   46.8898   51.5682 C   0  0  0  0  0  0  0  0  0  0  0  0
   67.8476   45.8633   51.8234 C   0  0  0  0  0  0  0  0  0  0  0  0
   67.4154   45.5904   53.1140 C   0  0  0  0  0  0  0  0  0  0  0  0
   67.8664   46.3509   54.1645 C   0  0  0  0  0  0  0  0  0  0  0  0
   68.7496   47.3877   53.9406 C   0  0  0  0  0  0  0  0  0  0  0  0
  8  9  1  0
  9 10  1  0
  9 16  1  0
 10 11  1  0
 11 12  1  0
 12 13  1  0
 12 15  1  0
 13 14  2  0
 13  1  1  0
  1  2  2  0
  1  6  1  0
  2  3  1  0
  3 17  1  0
  3  4  2  0
 17 18  1  0
 18 19  2  0
 18 28  1  0
 19 20  1  0
 20 21  1  0
 21 22  2  0
 21 23  1  0
 23 24  1  0
 23 28  2  0
 24 25  2  0
 25 26  1  0
 26 27  2  0
 27 28  1  0
  4  5  1  0
  5  6  2  0
  6  7  1  0
 15 16  1  0
M  CHG  1   8   1
M  END
>  <minimizedAffinity>  (499) 
-9.07978

$$$$
cs_full_output_folder/data/smiles/877.pdb
     RDKit          3D

 27 30  0  0  0  0  0  0  0  0999 V2000
   71.3350   46.7118   58.8528 C   0  0  0  0  0  0  0  0  0  0  0  0
   71.2317   45.3709   58.5737 C   0  0  0  0  0  0  0  0  0  0  0  0
   70.4068   44.8817   57.5771 C   0  0  0  0  0  0  0  0  0  0  0  0
   69.6790   45.8137   56.8660 C   0  0  0  0  0  0  0  0  0  0  0  0
   69.7727   47.1784   57.1389 C   0  0  0  0  0  0  0  0  0  0  0  0
   70.5926   47.6513   58.1272 C   0  0  0  0  0  0  0  0  0  0  0  0
   75.8536   50.2292   59.0746 C   0  0  0  0  0  0  0  0  0  0  0  0
   76.0072   48.8198   59.0702 N   0  0  0  0  0  0  0  0  0  0  0  0
   75.3709   48.1119   58.0092 C   0  0  0  0  0  0  0  0  0  0  0  0
   74.0302   47.5648   58.2867 C   0  0  0  0  0  0  0  0  0  0  0  0
   73.5491   47.6600   59.6412 N   0  0  0  0  0  0  0  0  0  0  0  0
   72.2212   47.2371   59.9066 C   0  0  0  0  0  0  0  0  0  0  0  0
   71.7616   47.3050   61.0776 O   0  0  0  0  0  0  0  0  0  0  0  0
   74.3596   48.1619   60.7340 C   0  0  0  0  0  0  0  0  0  0  0  0
   75.8215   48.1541   60.3225 C   0  0  0  0  0  0  0  0  0  0  0  0
   68.9573   48.1568   56.3547 C   0  0  0  0  0  0  0  0  0  0  0  0
   69.3760   48.2859   54.9560 C   0  0  0  0  0  0  0  0  0  0  0  0
   70.3256   49.1711   54.5969 N   0  0  0  0  0  0  0  0  0  0  0  0
   70.7850   49.3287   53.3707 N   0  0  0  0  0  0  0  0  0  0  0  0
   70.2792   48.5543   52.3863 C   0  0  0  0  0  0  0  0  0  0  0  0
   70.7199   48.7109   51.2284 O   0  0  0  0  0  0  0  0  0  0  0  0
   69.3086   47.6207   52.6325 C   0  0  0  0  0  0  0  0  0  0  0  0
   68.8061   46.8558   51.6192 C   0  0  0  0  0  0  0  0  0  0  0  0
   67.8013   45.9012   51.8711 C   0  0  0  0  0  0  0  0  0  0  0  0
   67.3605   45.7865   53.1802 C   0  0  0  0  0  0  0  0  0  0  0  0
   67.8838   46.5712   54.1894 C   0  0  0  0  0  0  0  0  0  0  0  0
   68.8685   47.5026   53.9315 C   0  0  0  0  0  0  0  0  0  0  0  0
  7  8  1  0
  8  9  1  0
  8 15  1  0
  9 10  1  0
 10 11  1  0
 11 12  1  0
 11 14  1  0
 12 13  2  0
 12  1  1  0
  1  2  2  0
  1  6  1  0
  2  3  1  0
  3  4  2  0
  4  5  1  0
  5 16  1  0
  5  6  2  0
 16 17  1  0
 17 18  2  0
 17 27  1  0
 18 19  1  0
 19 20  1  0
 20 21  2  0
 20 22  1  0
 22 23  1  0
 22 27  2  0
 23 24  2  0
 24 25  1  0
 25 26  2  0
 26 27  1  0
 14 15  1  0
M  CHG  1   8   1
M  END
>  <minimizedAffinity>  (500) 
-9.07806

$$$$
cs_full_output_folder/data/smiles/1661.pdb
     RDKit          3D

 29 32  0  0  0  0  0  0  0  0999 V2000
   72.2021   49.6783   57.7374 C   0  0  0  0  0  0  0  0  0  0  0  0
   71.8908   50.6130   58.7000 C   0  0  0  0  0  0  0  0  0  0  0  0
   70.5658   50.9698   58.8607 C   0  0  0  0  0  0  0  0  0  0  0  0
   69.5683   50.4156   58.0880 C   0  0  0  0  0  0  0  0  0  0  0  0
   69.8657   49.4612   57.1013 C   0  0  0  0  0  0  0  0  0  0  0  0
   71.1806   49.1295   56.9665 C   0  0  0  0  0  0  0  0  0  0  0  0
   74.5074   50.1687   56.9481 C   0  0  0  0  0  0  0  0  0  0  0  0
   74.0762   51.3120   56.5771 O   0  0  0  0  0  0  0  0  0  0  0  0
   73.5731   49.2962   57.5529 N   0  0  0  0  0  0  0  0  0  0  0  0
   80.0493   48.8999   55.9366 C   0  0  0  0  0  0  0  0  0  0  0  0
   78.6277   49.2305   56.2139 C   0  0  0  0  0  0  0  0  0  0  0  0
   78.1937   49.5709   57.4797 C   0  0  0  0  0  0  0  0  0  0  0  0
   76.8550   49.8790   57.7294 C   0  0  0  0  0  0  0  0  0  0  0  0
   75.9096   49.8570   56.7246 C   0  0  0  0  0  0  0  0  0  0  0  0
   76.3642   49.5115   55.4563 C   0  0  0  0  0  0  0  0  0  0  0  0
   75.4151   49.4848   54.4248 O   0  0  0  0  0  0  0  0  0  0  0  0
   77.6857   49.2068   55.2075 C   0  0  0  0  0  0  0  0  0  0  0  0
   68.7262   48.9172   56.3289 C   0  0  0  0  0  0  0  0  0  0  0  0
   69.0130   48.9708   54.9217 C   0  0  0  0  0  0  0  0  0  0  0  0
   69.3317   50.1680   54.3883 N   0  0  0  0  0  0  0  0  0  0  0  0
   69.6616   50.3899   53.1383 N   0  0  0  0  0  0  0  0  0  0  0  0
   69.6984   49.3587   52.2775 C   0  0  0  0  0  0  0  0  0  0  0  0
   70.0072   49.5098   51.0675 O   0  0  0  0  0  0  0  0  0  0  0  0
   69.3853   48.1072   52.7460 C   0  0  0  0  0  0  0  0  0  0  0  0
   69.0403   47.8988   54.0660 C   0  0  0  0  0  0  0  0  0  0  0  0
   68.6848   46.5745   54.4968 C   0  0  0  0  0  0  0  0  0  0  0  0
   67.7077   45.9603   53.4850 C   0  0  0  0  0  0  0  0  0  0  0  0
   68.0375   46.2548   52.0646 C   0  0  0  0  0  0  0  0  0  0  0  0
   69.3995   46.8980   51.8805 C   0  0  0  0  0  0  0  0  0  0  0  0
 10 11  1  0
 11 12  2  0
 11 17  1  0
 12 13  1  0
 13 14  2  0
 14  7  1  0
 14 15  1  0
  7  8  2  0
  7  9  1  0
  9  1  1  0
  1  2  2  0
  1  6  1  0
  2  3  1  0
  3  4  2  0
  4  5  1  0
  5 18  1  0
  5  6  2  0
 18 19  1  0
 19 20  2  0
 19 25  1  0
 20 21  1  0
 21 22  1  0
 22 23  2  0
 22 24  1  0
 24 25  2  0
 24 29  1  0
 25 26  1  0
 26 27  1  0
 27 28  1  0
 28 29  1  0
 15 16  1  0
 15 17  2  0
M  END
>  <minimizedAffinity>  (501) 
-9.07730

$$$$
cs_full_output_folder/data/smiles/7678.pdb
     RDKit          3D

 29 33  0  0  0  0  0  0  0  0999 V2000
   71.4473   47.3731   58.7433 C   0  0  0  0  0  0  0  0  0  0  0  0
   70.4674   47.9460   57.9708 C   0  0  0  0  0  0  0  0  0  0  0  0
   69.6218   47.2086   57.1414 C   0  0  0  0  0  0  0  0  0  0  0  0
   69.8185   45.8543   57.1322 C   0  0  0  0  0  0  0  0  0  0  0  0
   70.8035   45.2343   57.9025 C   0  0  0  0  0  0  0  0  0  0  0  0
   71.6115   46.0022   58.7037 C   0  0  0  0  0  0  0  0  0  0  0  0
   72.5519   45.3852   59.4340 F   0  0  0  0  0  0  0  0  0  0  0  0
   72.1941   47.9828   60.8768 O   0  0  0  0  0  0  0  0  0  0  0  0
   72.3347   48.1332   59.6136 C   0  0  0  0  0  0  0  0  0  0  0  0
   73.3232   49.0110   59.1599 N   0  0  0  0  0  0  0  0  0  0  0  0
   73.6934   49.3579   57.7859 C   0  0  0  0  0  0  0  0  0  0  0  0
   75.1809   49.3530   57.9148 C   0  0  0  0  0  0  0  0  0  0  0  0
   75.5005   49.6162   59.2005 C   0  0  0  0  0  0  0  0  0  0  0  0
   76.9801   49.6185   59.3593 C   0  0  0  0  0  0  0  0  0  0  0  0
   77.3716   48.6510   58.2337 C   0  0  0  0  0  0  0  0  0  0  0  0
   76.4333   49.1618   57.1318 C   0  0  0  0  0  0  0  0  0  0  0  0
   74.2310   49.8011   59.9659 C   0  0  0  0  0  0  0  0  0  0  0  0
   68.5898   47.9526   56.3767 C   0  0  0  0  0  0  0  0  0  0  0  0
   69.0046   48.1316   55.0055 C   0  0  0  0  0  0  0  0  0  0  0  0
   69.8865   49.1417   54.7259 N   0  0  0  0  0  0  0  0  0  0  0  0
   70.3627   49.3822   53.5306 N   0  0  0  0  0  0  0  0  0  0  0  0
   70.0264   48.6555   52.4664 C   0  0  0  0  0  0  0  0  0  0  0  0
   70.5029   48.9075   51.3118 O   0  0  0  0  0  0  0  0  0  0  0  0
   69.1390   47.6066   52.6274 C   0  0  0  0  0  0  0  0  0  0  0  0
   68.7493   46.8328   51.5614 C   0  0  0  0  0  0  0  0  0  0  0  0
   67.8579   45.8091   51.7521 C   0  0  0  0  0  0  0  0  0  0  0  0
   67.3772   45.5892   53.0271 C   0  0  0  0  0  0  0  0  0  0  0  0
   67.7614   46.3581   54.1056 C   0  0  0  0  0  0  0  0  0  0  0  0
   68.6447   47.3724   53.9187 C   0  0  0  0  0  0  0  0  0  0  0  0
  8  9  2  0
  9  1  1  0
  9 10  1  0
  1  2  2  0
  1  6  1  0
  2  3  1  0
  3 18  1  0
  3  4  2  0
 18 19  1  0
 19 20  2  0
 19 29  1  0
 20 21  1  0
 21 22  1  0
 22 23  2  0
 22 24  1  0
 24 25  1  0
 24 29  2  0
 25 26  2  0
 26 27  1  0
 27 28  2  0
 28 29  1  0
  4  5  1  0
  5  6  2  0
  6  7  1  0
 10 11  1  0
 10 17  1  0
 11 12  1  0
 12 13  2  0
 12 16  1  0
 13 14  1  0
 13 17  1  0
 14 15  1  0
 15 16  1  0
M  END
>  <minimizedAffinity>  (502) 
-9.07541

$$$$
cs_full_output_folder/data/smiles/2649.pdb
     RDKit          3D

 30 34  0  0  0  0  0  0  0  0999 V2000
   70.6631   47.3377   58.6623 C   0  0  1  0  0  0  0  0  0  0  0  0
   70.7530   45.7979   58.6328 C   0  0  0  0  0  0  0  0  0  0  0  0
   71.7535   45.1158   58.0573 N   0  0  0  0  0  0  0  0  0  0  0  0
   71.5163   43.7976   58.1737 C   0  0  0  0  0  0  0  0  0  0  0  0
   72.1742   42.6513   57.7755 C   0  0  0  0  0  0  0  0  0  0  0  0
   71.6663   41.3919   58.0330 C   0  0  0  0  0  0  0  0  0  0  0  0
   70.4624   41.2537   58.7113 C   0  0  0  0  0  0  0  0  0  0  0  0
   69.7996   42.3980   59.1136 C   0  0  0  0  0  0  0  0  0  0  0  0
   70.3210   43.6455   58.8476 C   0  0  0  0  0  0  0  0  0  0  0  0
   69.8914   44.9154   59.1080 N   0  0  0  0  0  0  0  0  0  0  0  0
   71.7670   47.7953   59.4918 C   0  0  0  0  0  0  0  0  0  0  0  0
   72.1666   47.1138   60.6272 C   0  0  0  0  0  0  0  0  0  0  0  0
   73.2462   47.5215   61.3839 C   0  0  0  0  0  0  0  0  0  0  0  0
   73.9837   48.6430   61.0332 C   0  0  0  0  0  0  0  0  0  0  0  0
   73.5792   49.3252   59.8946 C   0  0  0  0  0  0  0  0  0  0  0  0
   72.5019   48.9076   59.1504 C   0  0  0  0  0  0  0  0  0  0  0  0
   68.4729   47.3915   57.1349 O   0  0  0  0  0  0  0  0  0  0  0  0
   69.5454   47.7208   56.5087 C   0  0  0  0  0  0  0  0  0  0  0  0
   70.7456   47.7312   57.2513 N   0  0  0  0  0  0  0  0  0  0  0  0
   69.4212   48.0449   55.0962 C   0  0  0  0  0  0  0  0  0  0  0  0
   69.9487   49.2439   54.6222 C   0  0  0  0  0  0  0  0  0  0  0  0
   69.8947   49.5681   53.2849 C   0  0  0  0  0  0  0  0  0  0  0  0
   70.3517   50.6266   52.8068 O   0  0  0  0  0  0  0  0  0  0  0  0
   69.3197   48.7076   52.4244 N   0  0  0  0  0  0  0  0  0  0  0  0
   68.7892   47.5316   52.8155 C   0  0  0  0  0  0  0  0  0  0  0  0
   68.2146   46.7022   51.8844 C   0  0  0  0  0  0  0  0  0  0  0  0
   67.6564   45.4840   52.2660 C   0  0  0  0  0  0  0  0  0  0  0  0
   67.7233   45.1829   53.6209 C   0  0  0  0  0  0  0  0  0  0  0  0
   68.2945   46.0025   54.5542 C   0  0  0  0  0  0  0  0  0  0  0  0
   68.8447   47.2037   54.1726 C   0  0  0  0  0  0  0  0  0  0  0  0
 17 18  2  0
 18 19  1  0
 18 20  1  0
  1 19  1  6
  1 11  1  0
  1  2  1  0
 11 12  2  0
 11 16  1  0
 12 13  1  0
 13 14  2  0
 14 15  1  0
 15 16  2  0
  2  3  2  0
  2 10  1  0
  3  4  1  0
  4  5  2  0
  4  9  1  0
  5  6  1  0
  6  7  2  0
  7  8  1  0
  8  9  2  0
  9 10  1  0
 20 21  2  0
 20 30  1  0
 21 22  1  0
 22 23  2  0
 22 24  1  0
 24 25  1  0
 25 26  1  0
 25 30  2  0
 26 27  2  0
 27 28  1  0
 28 29  2  0
 29 30  1  0
M  CHG  1   3   1
M  END
>  <minimizedAffinity>  (503) 
-9.07364

$$$$
cs_full_output_folder/data/smiles/4206.pdb
     RDKit          3D

 27 29  0  0  0  0  0  0  0  0999 V2000
   67.5377   42.0384   57.0476 N   0  0  0  0  0  0  0  0  0  0  0  0
   67.8496   40.6849   56.8958 C   0  0  0  0  0  0  0  0  0  0  0  0
   67.7585   40.2240   55.7163 O   0  0  0  0  0  0  0  0  0  0  0  0
   68.2671   39.7517   57.9452 C   0  0  0  0  0  0  0  0  0  0  0  0
   69.4970   39.1183   57.7882 C   0  0  0  0  0  0  0  0  0  0  0  0
   69.9809   38.2264   58.7136 C   0  0  0  0  0  0  0  0  0  0  0  0
   71.2208   37.6144   58.5153 C   0  0  0  0  0  0  0  0  0  0  0  0
   71.6726   36.7275   59.4621 C   0  0  0  0  0  0  0  0  0  0  0  0
   70.9245   36.4503   60.5727 C   0  0  0  0  0  0  0  0  0  0  0  0
   69.7082   37.0494   60.7703 C   0  0  0  0  0  0  0  0  0  0  0  0
   69.2322   37.9468   59.8296 C   0  0  0  0  0  0  0  0  0  0  0  0
   68.0213   38.5645   59.9908 C   0  0  0  0  0  0  0  0  0  0  0  0
   67.5377   39.4653   59.0522 C   0  0  0  0  0  0  0  0  0  0  0  0
   66.3208   40.0460   59.2786 O   0  0  0  0  0  0  0  0  0  0  0  0
   68.8692   44.3008   56.1858 O   0  0  0  0  0  0  0  0  0  0  0  0
   67.8481   43.9786   55.5229 C   0  0  0  0  0  0  0  0  0  0  0  0
   67.1503   42.8170   55.9521 N   0  0  0  0  0  0  0  0  0  0  0  0
   67.4516   44.7626   54.4129 N   0  0  0  0  0  0  0  0  0  0  0  0
   68.1767   45.9200   54.0148 C   0  0  0  0  0  0  0  0  0  0  0  0
   68.5748   46.1074   52.7042 C   0  0  0  0  0  0  0  0  0  0  0  0
   69.2788   47.2218   52.2965 C   0  0  0  0  0  0  0  0  0  0  0  0
   69.6196   48.2105   53.1944 C   0  0  0  0  0  0  0  0  0  0  0  0
   69.2300   48.0393   54.5086 C   0  0  0  0  0  0  0  0  0  0  0  0
   68.5252   46.9176   54.9048 C   0  0  0  0  0  0  0  0  0  0  0  0
   70.3485   49.3599   52.7623 N   0  0  0  0  0  0  0  0  0  0  0  0
   71.4696   49.5764   53.2630 O   0  0  0  0  0  0  0  0  0  0  0  0
   69.8128   50.1794   51.8293 O   0  0  0  0  0  0  0  0  0  0  0  0
 15 16  2  0
 16 17  1  0
 16 18  1  0
 17  1  1  0
  1  2  1  0
  2  3  2  0
  2  4  1  0
  4  5  2  0
  4 13  1  0
  5  6  1  0
  6  7  2  0
  6 11  1  0
  7  8  1  0
  8  9  2  0
  9 10  1  0
 10 11  2  0
 11 12  1  0
 12 13  2  0
 13 14  1  0
 18 19  1  0
 19 20  2  0
 19 24  1  0
 20 21  1  0
 21 22  2  0
 22 25  1  0
 22 23  1  0
 25 26  2  0
 25 27  1  0
 23 24  2  0
M  CHG  2  25   1  27  -1
M  END
>  <minimizedAffinity>  (504) 
-9.07307

$$$$
cs_full_output_folder/data/smiles/1167.pdb
     RDKit          3D

 26 29  0  0  0  0  0  0  0  0999 V2000
   69.7442   47.6263   57.4634 C   0  0  0  0  0  0  0  0  0  0  0  0
   70.4406   48.5732   58.1471 C   0  0  0  0  0  0  0  0  0  0  0  0
   71.4947   48.1766   58.9587 C   0  0  0  0  0  0  0  0  0  0  0  0
   71.8352   46.8430   59.0761 C   0  0  0  0  0  0  0  0  0  0  0  0
   72.8583   46.4390   59.8604 F   0  0  0  0  0  0  0  0  0  0  0  0
   71.1321   45.8849   58.3862 C   0  0  0  0  0  0  0  0  0  0  0  0
   70.0924   46.2913   57.5862 C   0  0  0  0  0  0  0  0  0  0  0  0
   71.4024   44.4873   58.4422 N   0  0  0  0  0  0  0  0  0  0  0  0
   72.5552   43.9984   57.7490 C   0  0  0  0  0  0  0  0  0  0  0  0
   72.7441   42.5311   57.7694 C   0  0  0  0  0  0  0  0  0  0  0  0
   71.5827   41.7156   58.2056 C   0  0  0  0  0  0  0  0  0  0  0  0
   70.8475   42.2195   59.3969 C   0  0  0  0  0  0  0  0  0  0  0  0
   70.5187   43.6651   59.1790 C   0  0  0  0  0  0  0  0  0  0  0  0
   69.4565   44.1739   59.6453 O   0  0  0  0  0  0  0  0  0  0  0  0
   68.6048   47.9307   56.5533 C   0  0  0  0  0  0  0  0  0  0  0  0
   70.4684   48.9517   51.2554 N   0  0  0  0  0  0  0  0  0  0  0  0
   69.9895   48.6526   52.5648 C   0  0  0  0  0  0  0  0  0  0  0  0
   70.3331   49.3875   53.6379 N   0  0  0  0  0  0  0  0  0  0  0  0
   69.9169   49.1489   54.8530 N   0  0  0  0  0  0  0  0  0  0  0  0
   69.0789   48.1078   55.1410 C   0  0  0  0  0  0  0  0  0  0  0  0
   68.6940   47.3195   54.0895 C   0  0  0  0  0  0  0  0  0  0  0  0
   67.8547   46.2294   54.3088 C   0  0  0  0  0  0  0  0  0  0  0  0
   67.4663   45.4181   53.2637 C   0  0  0  0  0  0  0  0  0  0  0  0
   67.9139   45.6886   51.9940 C   0  0  0  0  0  0  0  0  0  0  0  0
   68.7511   46.7732   51.7729 C   0  0  0  0  0  0  0  0  0  0  0  0
   69.1467   47.5928   52.8124 C   0  0  0  0  0  0  0  0  0  0  0  0
 16 17  1  0
 17 18  2  0
 17 26  1  0
 18 19  1  0
 19 20  2  0
 20 15  1  0
 20 21  1  0
 15  1  1  0
  1  2  2  0
  1  7  1  0
  2  3  1  0
  3  4  2  0
  4  5  1  0
  4  6  1  0
  6  8  1  0
  6  7  2  0
  8  9  1  0
  8 13  1  0
  9 10  1  0
 10 11  1  0
 11 12  1  0
 12 13  1  0
 13 14  2  0
 21 22  1  0
 21 26  2  0
 22 23  2  0
 23 24  1  0
 24 25  2  0
 25 26  1  0
M  END
>  <minimizedAffinity>  (505) 
-9.07288

$$$$
cs_full_output_folder/data/smiles/8532.pdb
     RDKit          3D

 29 32  0  0  0  0  0  0  0  0999 V2000
   71.2859   46.8296   58.8004 C   0  0  0  0  0  0  0  0  0  0  0  0
   71.2389   45.4451   58.6316 C   0  0  0  0  0  0  0  0  0  0  0  0
   70.4167   44.9155   57.6800 C   0  0  0  0  0  0  0  0  0  0  0  0
   69.6288   45.7155   56.8774 C   0  0  0  0  0  0  0  0  0  0  0  0
   69.6700   47.0736   57.0377 C   0  0  0  0  0  0  0  0  0  0  0  0
   70.4961   47.6182   57.9944 C   0  0  0  0  0  0  0  0  0  0  0  0
   75.8252   47.3175   59.2676 C   0  0  0  0  0  0  0  0  0  0  0  0
   75.5921   48.1815   60.4690 C   0  0  0  0  0  0  0  0  0  0  0  0
   74.1665   48.6691   60.5718 C   0  0  0  0  0  0  0  0  0  0  0  0
   73.3370   48.0985   59.5272 N   0  0  0  0  0  0  0  0  0  0  0  0
   72.1460   47.4176   59.8241 C   0  0  0  0  0  0  0  0  0  0  0  0
   71.7948   47.3029   61.0283 O   0  0  0  0  0  0  0  0  0  0  0  0
   73.7785   48.2527   58.1657 C   0  0  0  0  0  0  0  0  0  0  0  0
   75.2520   47.9474   58.0175 C   0  0  0  0  0  0  0  0  0  0  0  0
   75.3313   46.0309   59.4344 O   0  0  0  0  0  0  0  0  0  0  0  0
   75.7584   43.7432   58.8376 C   0  0  0  0  0  0  0  0  0  0  0  0
   76.3181   45.0722   59.2365 C   0  0  0  0  0  0  0  0  0  0  0  0
   68.8079   48.0036   56.2487 C   0  0  0  0  0  0  0  0  0  0  0  0
   69.2755   48.1367   54.8667 C   0  0  0  0  0  0  0  0  0  0  0  0
   70.2235   49.0553   54.5724 N   0  0  0  0  0  0  0  0  0  0  0  0
   70.6845   49.2685   53.3585 N   0  0  0  0  0  0  0  0  0  0  0  0
   70.2209   48.5607   52.3200 C   0  0  0  0  0  0  0  0  0  0  0  0
   70.6941   48.8048   51.1936 O   0  0  0  0  0  0  0  0  0  0  0  0
   69.2464   47.6003   52.5492 C   0  0  0  0  0  0  0  0  0  0  0  0
   68.7763   46.8804   51.4603 C   0  0  0  0  0  0  0  0  0  0  0  0
   67.8083   45.9214   51.6453 C   0  0  0  0  0  0  0  0  0  0  0  0
   67.3349   45.7045   52.9186 C   0  0  0  0  0  0  0  0  0  0  0  0
   67.8082   46.4263   54.0079 C   0  0  0  0  0  0  0  0  0  0  0  0
   68.7801   47.3951   53.8267 C   0  0  0  0  0  0  0  0  0  0  0  0
 16 17  1  0
 17 15  1  0
 15  7  1  0
  7  8  1  0
  7 14  1  0
  8  9  1  0
  9 10  1  0
 10 11  1  0
 10 13  1  0
 11 12  2  0
 11  1  1  0
  1  2  2  0
  1  6  1  0
  2  3  1  0
  3  4  2  0
  4  5  1  0
  5 18  1  0
  5  6  2  0
 18 19  1  0
 19 20  2  0
 19 29  1  0
 20 21  1  0
 21 22  1  0
 22 23  2  0
 22 24  1  0
 24 25  1  0
 24 29  2  0
 25 26  2  0
 26 27  1  0
 27 28  2  0
 28 29  1  0
 13 14  1  0
M  END
>  <minimizedAffinity>  (506) 
-9.07168

$$$$
cs_full_output_folder/data/smiles/1835.pdb
     RDKit          3D

 25 26  0  0  0  0  0  0  0  0999 V2000
   69.9914   49.3084   52.6066 S   0  0  0  0  0  0  0  0  0  0  0  0
   71.4128   49.3313   53.1125 O   0  0  0  0  0  0  0  0  0  0  0  0
   70.0314   49.2286   51.0884 O   0  0  0  0  0  0  0  0  0  0  0  0
   69.2398   47.8571   53.2255 C   0  0  0  0  0  0  0  0  0  0  0  0
   68.6051   46.9472   52.4319 C   0  0  0  0  0  0  0  0  0  0  0  0
   68.5429   47.1537   51.0951 F   0  0  0  0  0  0  0  0  0  0  0  0
   68.0233   45.8049   52.9886 C   0  0  0  0  0  0  0  0  0  0  0  0
   67.3956   44.9084   52.1932 F   0  0  0  0  0  0  0  0  0  0  0  0
   68.0903   45.5960   54.3576 C   0  0  0  0  0  0  0  0  0  0  0  0
   67.5201   44.4834   54.8863 F   0  0  0  0  0  0  0  0  0  0  0  0
   68.7238   46.5027   55.1631 C   0  0  0  0  0  0  0  0  0  0  0  0
   68.7905   46.3015   56.4951 F   0  0  0  0  0  0  0  0  0  0  0  0
   69.2927   47.6275   54.5829 C   0  0  0  0  0  0  0  0  0  0  0  0
   69.9238   48.5276   55.3958 F   0  0  0  0  0  0  0  0  0  0  0  0
   69.1744   50.7267   53.1232 N   0  0  0  0  0  0  0  0  0  0  0  0
   71.5447   52.6934   55.2115 C   0  0  0  0  0  0  0  0  0  0  0  0
   71.0356   51.8741   54.2272 C   0  0  0  0  0  0  0  0  0  0  0  0
   69.6908   51.5725   54.1406 C   0  0  0  0  0  0  0  0  0  0  0  0
   68.8639   52.1420   55.1035 C   0  0  0  0  0  0  0  0  0  0  0  0
   69.3743   52.9606   56.0848 C   0  0  0  0  0  0  0  0  0  0  0  0
   70.7147   53.2622   56.1739 C   0  0  0  0  0  0  0  0  0  0  0  0
   71.2431   54.0878   57.1613 O   0  0  0  0  0  0  0  0  0  0  0  0
   73.4795   53.7479   54.4531 O   0  0  0  0  0  0  0  0  0  0  0  0
   72.9328   52.9812   55.2660 N   0  0  0  0  0  0  0  0  0  0  0  0
   73.7144   52.4073   56.2366 O   0  0  0  0  0  0  0  0  0  0  0  0
 23 24  2  0
 24 25  1  0
 24 16  1  0
 16 17  2  0
 16 21  1  0
 17 18  1  0
 18 15  1  0
 18 19  2  0
 15  1  1  0
  1  2  2  0
  1  3  2  0
  1  4  1  0
  4  5  2  0
  4 13  1  0
  5  6  1  0
  5  7  1  0
  7  8  1  0
  7  9  2  0
  9 10  1  0
  9 11  1  0
 11 12  1  0
 11 13  2  0
 13 14  1  0
 19 20  1  0
 20 21  2  0
 21 22  1  0
M  CHG  2  24   1  25  -1
M  END
>  <minimizedAffinity>  (507) 
-9.06741

$$$$
cs_full_output_folder/data/smiles/1153.pdb
     RDKit          3D

 27 29  0  0  0  0  0  0  0  0999 V2000
   72.8780   44.3277   58.0385 C   0  0  0  0  0  0  0  0  0  0  0  0
   71.9554   43.1758   58.0947 C   0  0  0  0  0  0  0  0  0  0  0  0
   72.2253   41.8966   58.3617 N   0  0  0  0  0  0  0  0  0  0  0  0
   71.1467   41.1468   58.3284 N   0  0  0  0  0  0  0  0  0  0  0  0
   70.1196   42.0003   58.0201 C   0  0  0  0  0  0  0  0  0  0  0  0
   68.7559   41.4557   57.8851 C   0  0  0  0  0  0  0  0  0  0  0  0
   70.5792   43.2744   57.8666 C   0  0  0  0  0  0  0  0  0  0  0  0
   71.1050   39.7595   58.5636 C   0  0  0  0  0  0  0  0  0  0  0  0
   70.0709   39.1514   59.2523 C   0  0  0  0  0  0  0  0  0  0  0  0
   70.0620   37.7718   59.4733 C   0  0  0  0  0  0  0  0  0  0  0  0
   71.0798   36.9619   59.0165 C   0  0  0  0  0  0  0  0  0  0  0  0
   71.0752   35.2236   59.2968 Cl  0  0  0  0  0  0  0  0  0  0  0  0
   72.1087   37.5727   58.3304 C   0  0  0  0  0  0  0  0  0  0  0  0
   72.1161   38.9373   58.1113 C   0  0  0  0  0  0  0  0  0  0  0  0
   69.8659   44.4920   57.5147 C   0  0  0  0  0  0  0  0  0  0  0  0
   69.7615   45.4284   58.3783 O   0  0  0  0  0  0  0  0  0  0  0  0
   69.2700   44.7111   56.2658 N   0  0  0  0  0  0  0  0  0  0  0  0
   68.5675   45.9554   55.9493 C   0  0  0  0  0  0  0  0  0  0  0  0
   68.5611   46.2780   54.5160 C   0  0  0  0  0  0  0  0  0  0  0  0
   67.8079   45.5955   53.6055 C   0  0  0  0  0  0  0  0  0  0  0  0
   67.8235   45.9386   52.2545 C   0  0  0  0  0  0  0  0  0  0  0  0
   68.6010   46.9761   51.8046 C   0  0  0  0  0  0  0  0  0  0  0  0
   69.3669   47.6756   52.7069 C   0  0  0  0  0  0  0  0  0  0  0  0
   69.3444   47.3262   54.0503 C   0  0  0  0  0  0  0  0  0  0  0  0
   70.1835   48.7713   52.2144 C   0  0  0  0  0  0  0  0  0  0  0  0
   69.7849   49.5277   51.0822 N   0  0  0  0  0  0  0  0  0  0  0  0
   71.2745   49.1030   52.7617 O   0  0  0  0  0  0  0  0  0  0  0  0
  1  2  1  0
  2  3  2  0
  2  7  1  0
  3  4  1  0
  4  8  1  0
  4  5  1  0
  8  9  2  0
  8 14  1  0
  9 10  1  0
 10 11  2  0
 11 12  1  0
 11 13  1  0
 13 14  2  0
  5  6  1  0
  5  7  2  0
  7 15  1  0
 15 16  2  0
 15 17  1  0
 17 18  1  0
 18 19  1  0
 19 20  2  0
 19 24  1  0
 20 21  1  0
 21 22  2  0
 22 23  1  0
 23 25  1  0
 23 24  2  0
 25 26  1  0
 25 27  2  0
M  END
>  <minimizedAffinity>  (508) 
-9.06671

$$$$
cs_full_output_folder/data/smiles/5567.pdb
     RDKit          3D

 24 25  0  0  0  0  0  0  0  0999 V2000
   70.0151   49.0921   51.1615 O   0  0  0  0  0  0  0  0  0  0  0  0
   70.1005   49.2207   52.6638 S   0  0  0  0  0  0  0  0  0  0  0  0
   71.5714   49.1954   52.9860 O   0  0  0  0  0  0  0  0  0  0  0  0
   69.3051   47.8071   53.3364 C   0  0  0  0  0  0  0  0  0  0  0  0
   69.2857   47.5538   54.6715 C   0  0  0  0  0  0  0  0  0  0  0  0
   69.9024   48.3835   55.5265 F   0  0  0  0  0  0  0  0  0  0  0  0
   68.6261   46.4187   55.1379 C   0  0  0  0  0  0  0  0  0  0  0  0
   68.6225   46.1894   56.4834 F   0  0  0  0  0  0  0  0  0  0  0  0
   68.0049   45.5693   54.2465 C   0  0  0  0  0  0  0  0  0  0  0  0
   67.3648   44.4696   54.6943 F   0  0  0  0  0  0  0  0  0  0  0  0
   68.0300   45.8339   52.8998 C   0  0  0  0  0  0  0  0  0  0  0  0
   67.4282   45.0207   51.9825 F   0  0  0  0  0  0  0  0  0  0  0  0
   68.6761   46.9495   52.4248 C   0  0  0  0  0  0  0  0  0  0  0  0
   68.7126   47.2297   51.0925 F   0  0  0  0  0  0  0  0  0  0  0  0
   69.3460   50.6534   53.1979 N   0  0  0  0  0  0  0  0  0  0  0  0
   69.8647   51.5343   54.1718 C   0  0  0  0  0  0  0  0  0  0  0  0
   71.1950   51.9060   54.2422 C   0  0  0  0  0  0  0  0  0  0  0  0
   71.6437   52.7917   55.2172 C   0  0  0  0  0  0  0  0  0  0  0  0
   70.7868   53.3267   56.1393 C   0  0  0  0  0  0  0  0  0  0  0  0
   71.1761   54.1920   57.1056 F   0  0  0  0  0  0  0  0  0  0  0  0
   69.4592   52.9793   56.0972 C   0  0  0  0  0  0  0  0  0  0  0  0
   68.5679   53.4825   56.9883 F   0  0  0  0  0  0  0  0  0  0  0  0
   69.0370   52.1158   55.1426 C   0  0  0  0  0  0  0  0  0  0  0  0
   67.7140   51.7747   55.1059 F   0  0  0  0  0  0  0  0  0  0  0  0
  1  2  2  0
  2  3  2  0
  2 15  1  0
  2  4  1  0
 15 16  1  0
 16 17  2  0
 16 23  1  0
 17 18  1  0
 18 19  2  0
 19 20  1  0
 19 21  1  0
 21 22  1  0
 21 23  2  0
 23 24  1  0
  4  5  2  0
  4 13  1  0
  5  6  1  0
  5  7  1  0
  7  8  1  0
  7  9  2  0
  9 10  1  0
  9 11  1  0
 11 12  1  0
 11 13  2  0
 13 14  1  0
M  END
>  <minimizedAffinity>  (509) 
-9.06619

$$$$
cs_full_output_folder/data/smiles/2084.pdb
     RDKit          3D

 29 32  0  0  0  0  0  0  0  0999 V2000
   71.5664   47.2001   58.8782 C   0  0  0  0  0  0  0  0  0  0  0  0
   70.7487   47.9822   58.0759 C   0  0  0  0  0  0  0  0  0  0  0  0
   69.8546   47.4636   57.1831 C   0  0  0  0  0  0  0  0  0  0  0  0
   69.8029   46.0539   57.1124 C   0  0  0  0  0  0  0  0  0  0  0  0
   70.5961   45.2475   57.8917 C   0  0  0  0  0  0  0  0  0  0  0  0
   71.4791   45.8295   58.7754 C   0  0  0  0  0  0  0  0  0  0  0  0
   72.2779   45.0692   59.5591 F   0  0  0  0  0  0  0  0  0  0  0  0
   72.1285   47.8744   61.0201 O   0  0  0  0  0  0  0  0  0  0  0  0
   72.5100   47.7892   59.8241 C   0  0  0  0  0  0  0  0  0  0  0  0
   73.7961   48.2503   59.4483 N   0  0  0  0  0  0  0  0  0  0  0  0
   74.2217   48.1415   58.0931 C   0  0  0  0  0  0  0  0  0  0  0  0
   75.2277   49.1283   57.6309 C   0  0  0  0  0  0  0  0  0  0  0  0
   76.0855   49.7275   58.7096 C   0  0  0  0  0  0  0  0  0  0  0  0
   76.0631   48.9541   59.9851 C   0  0  1  0  0  0  0  0  0  0  0  0
   74.6572   48.8281   60.4488 C   0  0  0  0  0  0  0  0  0  0  0  0
   76.8310   47.6616   59.9328 C   0  0  0  0  0  0  0  0  0  0  0  0
   76.1406   46.7627   60.7550 F   0  0  0  0  0  0  0  0  0  0  0  0
   68.9515   48.2588   56.2934 C   0  0  0  0  0  0  0  0  0  0  0  0
   69.3508   48.2555   54.9001 C   0  0  0  0  0  0  0  0  0  0  0  0
   70.3086   49.1565   54.5040 N   0  0  0  0  0  0  0  0  0  0  0  0
   70.7163   49.2882   53.2692 N   0  0  0  0  0  0  0  0  0  0  0  0
   70.2441   48.5542   52.2419 C   0  0  0  0  0  0  0  0  0  0  0  0
   70.6671   48.7231   51.0896 O   0  0  0  0  0  0  0  0  0  0  0  0
   69.2773   47.6258   52.5707 C   0  0  0  0  0  0  0  0  0  0  0  0
   68.7562   46.8253   51.5972 C   0  0  0  0  0  0  0  0  0  0  0  0
   67.7898   45.8573   51.8807 C   0  0  0  0  0  0  0  0  0  0  0  0
   67.3957   45.7582   53.2010 C   0  0  0  0  0  0  0  0  0  0  0  0
   67.9115   46.5585   54.1949 C   0  0  0  0  0  0  0  0  0  0  0  0
   68.8534   47.4920   53.8711 C   0  0  0  0  0  0  0  0  0  0  0  0
  8  9  2  0
  9  1  1  0
  9 10  1  0
  1  2  2  0
  1  6  1  0
  2  3  1  0
  3 18  1  0
  3  4  2  0
 18 19  1  0
 19 20  2  0
 19 29  1  0
 20 21  1  0
 21 22  1  0
 22 23  2  0
 22 24  1  0
 24 25  1  0
 24 29  2  0
 25 26  2  0
 26 27  1  0
 27 28  2  0
 28 29  1  0
  4  5  1  0
  5  6  2  0
  6  7  1  0
 10 11  1  0
 10 15  1  0
 11 12  1  0
 12 13  1  0
 13 14  1  0
 14 16  1  6
 14 15  1  0
 16 17  1  0
M  END
>  <minimizedAffinity>  (510) 
-9.06563

$$$$
cs_full_output_folder/data/smiles/3191.pdb
     RDKit          3D

 26 29  0  0  0  0  0  0  0  0999 V2000
   70.7403   44.9415   58.6751 C   0  0  0  0  0  0  0  0  0  0  0  0
   69.9120   45.6431   57.8949 N   0  0  0  0  0  0  0  0  0  0  0  0
   70.0214   46.9783   57.7837 C   0  0  0  0  0  0  0  0  0  0  0  0
   71.0091   47.6179   58.4900 C   0  0  0  0  0  0  0  0  0  0  0  0
   71.8858   46.9205   59.3070 C   0  0  0  0  0  0  0  0  0  0  0  0
   71.7257   45.5543   59.3837 C   0  0  0  0  0  0  0  0  0  0  0  0
   72.5303   44.7762   60.1545 F   0  0  0  0  0  0  0  0  0  0  0  0
   68.8312   43.6049   60.2804 O   0  0  0  0  0  0  0  0  0  0  0  0
   69.7116   42.9143   59.7068 C   0  0  0  0  0  0  0  0  0  0  0  0
   69.9271   41.5397   59.9967 N   0  0  0  0  0  0  0  0  0  0  0  0
   71.1692   40.9070   59.6161 C   0  0  0  0  0  0  0  0  0  0  0  0
   71.7959   41.4330   58.3776 C   0  0  0  0  0  0  0  0  0  0  0  0
   71.1673   42.6331   57.7673 C   0  0  0  0  0  0  0  0  0  0  0  0
   70.5363   43.5127   58.7230 N   0  0  0  0  0  0  0  0  0  0  0  0
   69.0767   47.7235   56.9307 C   0  0  0  0  0  0  0  0  0  0  0  0
   68.7249   47.0605   55.6642 C   0  0  0  0  0  0  0  0  0  0  0  0
   68.0226   45.8932   55.7094 N   0  0  0  0  0  0  0  0  0  0  0  0
   67.6731   45.2303   54.6426 N   0  0  0  0  0  0  0  0  0  0  0  0
   68.0088   45.7019   53.4405 C   0  0  0  0  0  0  0  0  0  0  0  0
   67.6838   45.0788   52.3848 O   0  0  0  0  0  0  0  0  0  0  0  0
   68.7260   46.8869   53.2917 C   0  0  0  0  0  0  0  0  0  0  0  0
   69.0795   47.5614   54.4409 C   0  0  0  0  0  0  0  0  0  0  0  0
   69.8484   48.8571   54.3501 C   0  0  0  0  0  0  0  0  0  0  0  0
   69.5714   49.4523   52.9811 C   0  0  0  0  0  0  0  0  0  0  0  0
   70.0681   48.4426   51.9494 C   0  0  0  0  0  0  0  0  0  0  0  0
   69.0555   47.3419   51.9222 C   0  0  0  0  0  0  0  0  0  0  0  0
  8  9  2  0
  9 10  1  0
  9 14  1  0
 10 11  1  0
 11 12  1  0
 12 13  1  0
 13 14  1  0
 14  1  1  0
  1  2  2  0
  1  6  1  0
  2  3  1  0
  3 15  1  0
  3  4  2  0
 15 16  1  0
 16 17  2  0
 16 22  1  0
 17 18  1  0
 18 19  1  0
 19 20  2  0
 19 21  1  0
 21 22  2  0
 21 26  1  0
 22 23  1  0
 23 24  1  0
 24 25  1  0
 25 26  1  0
  4  5  1  0
  5  6  2  0
  6  7  1  0
M  END
>  <minimizedAffinity>  (511) 
-9.06562

$$$$
cs_full_output_folder/data/smiles/1816.pdb
     RDKit          3D

 27 30  0  0  0  0  0  0  0  0999 V2000
   68.8264   47.7804   52.6238 C   0  0  0  0  0  0  0  0  0  0  0  0
   68.3519   46.7697   51.8359 C   0  0  0  0  0  0  0  0  0  0  0  0
   67.8830   45.6070   52.3831 C   0  0  0  0  0  0  0  0  0  0  0  0
   67.8830   45.4370   53.7669 C   0  0  0  0  0  0  0  0  0  0  0  0
   68.3566   46.4404   54.5937 C   0  0  0  0  0  0  0  0  0  0  0  0
   68.8170   47.5890   53.9983 C   0  0  0  0  0  0  0  0  0  0  0  0
   69.3637   49.0796   52.1040 C   0  0  0  0  0  0  0  0  0  0  0  0
   70.4755   51.4288   57.5707 N   0  0  0  0  0  0  0  0  0  0  0  0
   70.5234   52.0693   56.4762 C   0  0  0  0  0  0  0  0  0  0  0  0
   69.3541   52.9171   56.1939 C   0  0  0  0  0  0  0  0  0  0  0  0
   68.9792   52.7670   54.7452 C   0  0  0  0  0  0  0  0  0  0  0  0
   68.8701   51.3278   54.3095 C   0  0  0  0  0  0  0  0  0  0  0  0
   70.1429   50.7009   53.9958 C   0  0  0  0  0  0  0  0  0  0  0  0
   70.3157   49.7281   53.0528 C   0  0  0  0  0  0  0  0  0  0  0  0
   71.6530   49.4051   53.0919 N   0  0  0  0  0  0  0  0  0  0  0  0
   72.2926   50.1012   53.9768 N   0  0  0  0  0  0  0  0  0  0  0  0
   71.4028   50.9132   54.5583 C   0  0  0  0  0  0  0  0  0  0  0  0
   71.7351   51.8807   55.6360 C   0  0  0  0  0  0  0  0  0  0  0  0
   68.3615   46.2843   56.0227 N   0  0  0  0  0  0  0  0  0  0  0  0
   69.0237   47.4153   57.1153 S   0  0  0  0  0  0  0  0  0  0  0  0
   70.2783   47.9948   56.5304 O   0  0  0  0  0  0  0  0  0  0  0  0
   69.4260   46.7463   58.4162 O   0  0  0  0  0  0  0  0  0  0  0  0
   67.8765   48.7039   57.4831 C   0  0  0  0  0  0  0  0  0  0  0  0
   66.6792   48.5891   58.1426 C   0  0  0  0  0  0  0  0  0  0  0  0
   66.1170   49.8431   58.2060 C   0  0  0  0  0  0  0  0  0  0  0  0
   67.0075   50.6753   57.5749 C   0  0  0  0  0  0  0  0  0  0  0  0
   68.0244   49.9583   57.1674 O   0  0  0  0  0  0  0  0  0  0  0  0
  8  9  2  0
  9 10  1  0
  9 18  1  0
 10 11  1  0
 11 12  1  0
 12 13  1  0
 13 14  1  0
 13 17  2  0
 14  7  1  0
 14 15  2  0
  7  1  1  0
  1  2  2  0
  1  6  1  0
  2  3  1  0
  3  4  2  0
  4  5  1  0
  5 19  1  0
  5  6  2  0
 19 20  1  0
 20 21  2  0
 20 22  2  0
 20 23  1  0
 23 24  2  0
 23 27  1  0
 24 25  1  0
 25 26  2  0
 26 27  1  0
 15 16  1  0
 16 17  1  0
 17 18  1  0
M  END
>  <minimizedAffinity>  (512) 
-9.06531

$$$$
cs_full_output_folder/data/smiles/3210.pdb
     RDKit          3D

 26 27  0  0  0  0  0  0  0  0999 V2000
   69.9769   49.2674   52.6914 S   0  0  0  0  0  0  0  0  0  0  0  0
   71.3207   49.4804   53.3606 O   0  0  0  0  0  0  0  0  0  0  0  0
   70.1825   49.1282   51.2013 O   0  0  0  0  0  0  0  0  0  0  0  0
   69.2280   47.8004   53.2754 C   0  0  0  0  0  0  0  0  0  0  0  0
   68.5610   46.9030   52.4754 C   0  0  0  0  0  0  0  0  0  0  0  0
   68.4840   47.1533   51.1442 F   0  0  0  0  0  0  0  0  0  0  0  0
   67.9707   45.7497   52.9786 C   0  0  0  0  0  0  0  0  0  0  0  0
   67.3203   44.8818   52.1730 F   0  0  0  0  0  0  0  0  0  0  0  0
   68.0407   45.4675   54.3247 C   0  0  0  0  0  0  0  0  0  0  0  0
   67.4697   44.3400   54.8502 F   0  0  0  0  0  0  0  0  0  0  0  0
   68.7064   46.3599   55.1347 C   0  0  0  0  0  0  0  0  0  0  0  0
   68.7785   46.0882   56.4577 F   0  0  0  0  0  0  0  0  0  0  0  0
   69.2924   47.5044   54.6422 C   0  0  0  0  0  0  0  0  0  0  0  0
   69.9477   48.3829   55.4383 F   0  0  0  0  0  0  0  0  0  0  0  0
   68.9676   50.6048   53.0585 N   0  0  0  0  0  0  0  0  0  0  0  0
   70.4263   52.9433   55.5633 C   0  0  0  0  0  0  0  0  0  0  0  0
   69.4931   52.7048   56.5837 C   0  0  0  0  0  0  0  0  0  0  0  0
   68.4471   51.8221   56.4437 C   0  0  0  0  0  0  0  0  0  0  0  0
   68.2748   51.1234   55.2701 C   0  0  0  0  0  0  0  0  0  0  0  0
   69.1705   51.3327   54.2511 C   0  0  0  0  0  0  0  0  0  0  0  0
   70.2181   52.2307   54.4205 C   0  0  0  0  0  0  0  0  0  0  0  0
   73.1911   52.3641   56.0490 O   0  0  0  0  0  0  0  0  0  0  0  0
   72.8087   53.5538   56.0666 C   0  0  0  0  0  0  0  0  0  0  0  0
   71.4511   53.8714   55.8311 N   0  0  0  0  0  0  0  0  0  0  0  0
   73.8122   54.6603   56.3445 C   0  0  0  0  0  0  0  0  0  0  0  0
   74.3764   54.4216   57.5899 O   0  0  0  0  0  0  0  0  0  0  0  0
 22 23  2  0
 23 25  1  0
 23 24  1  0
 25 26  1  0
 24 16  1  0
 16 17  2  0
 16 21  1  0
 17 18  1  0
 18 19  2  0
 19 20  1  0
 20 15  1  0
 20 21  2  0
 15  1  1  0
  1  2  2  0
  1  3  2  0
  1  4  1  0
  4  5  2  0
  4 13  1  0
  5  6  1  0
  5  7  1  0
  7  8  1  0
  7  9  2  0
  9 10  1  0
  9 11  1  0
 11 12  1  0
 11 13  2  0
 13 14  1  0
M  END
>  <minimizedAffinity>  (513) 
-9.06406

$$$$
cs_full_output_folder/data/smiles/8406.pdb
     RDKit          3D

 29 33  0  0  0  0  0  0  0  0999 V2000
   75.1218   35.6401   53.8652 C   0  0  0  0  0  0  0  0  0  0  0  0
   75.7194   35.2820   55.0525 C   0  0  0  0  0  0  0  0  0  0  0  0
   74.9884   34.9480   56.1701 C   0  0  0  0  0  0  0  0  0  0  0  0
   73.5884   34.9765   56.0889 C   0  0  0  0  0  0  0  0  0  0  0  0
   72.9610   35.3265   54.9243 C   0  0  0  0  0  0  0  0  0  0  0  0
   73.7354   35.6487   53.8425 C   0  0  0  0  0  0  0  0  0  0  0  0
   72.8172   34.6993   57.3159 C   0  0  0  0  0  0  0  0  0  0  0  0
   72.7608   33.4173   57.7687 N   0  0  0  0  0  0  0  0  0  0  0  0
   72.1070   33.0841   58.8606 N   0  0  0  0  0  0  0  0  0  0  0  0
   71.4590   33.9883   59.5932 C   0  0  0  0  0  0  0  0  0  0  0  0
   70.8319   33.6679   60.6461 O   0  0  0  0  0  0  0  0  0  0  0  0
   71.4688   35.3005   59.2013 C   0  0  0  0  0  0  0  0  0  0  0  0
   70.7812   36.2470   59.9567 C   0  0  0  0  0  0  0  0  0  0  0  0
   70.8056   37.5438   59.5215 C   0  0  0  0  0  0  0  0  0  0  0  0
   71.4806   37.9191   58.3767 C   0  0  0  0  0  0  0  0  0  0  0  0
   72.1622   36.9580   57.6347 C   0  0  0  0  0  0  0  0  0  0  0  0
   72.1594   35.6606   58.0430 C   0  0  0  0  0  0  0  0  0  0  0  0
   75.8427   36.0607   52.6476 C   0  0  0  0  0  0  0  0  0  0  0  0
   78.0752   35.5851   53.2081 O   0  0  0  0  0  0  0  0  0  0  0  0
   77.1309   35.4399   52.3990 C   0  0  0  0  0  0  0  0  0  0  0  0
   77.4034   34.6326   51.2314 N   0  0  0  0  0  0  0  0  0  0  0  0
   76.4359   34.2568   50.2055 C   0  0  0  0  0  0  0  0  0  0  0  0
   77.2379   34.4188   48.9617 C   0  0  0  0  0  0  0  0  0  0  0  0
   76.9065   34.6518   47.6430 C   0  0  0  0  0  0  0  0  0  0  0  0
   77.8674   34.7626   46.6543 C   0  0  0  0  0  0  0  0  0  0  0  0
   79.1968   34.6264   47.0575 C   0  0  0  0  0  0  0  0  0  0  0  0
   79.5535   34.3942   48.3668 C   0  0  0  0  0  0  0  0  0  0  0  0
   78.5575   34.2929   49.3120 C   0  0  0  0  0  0  0  0  0  0  0  0
   78.6553   34.0439   50.8037 C   0  0  0  0  0  0  0  0  0  0  0  0
 19 20  2  0
 20 18  1  0
 20 21  1  0
 18  1  1  0
  1  2  2  0
  1  6  1  0
  2  3  1  0
  3  4  2  0
  4  7  1  0
  4  5  1  0
  7  8  2  0
  7 17  1  0
  8  9  1  0
  9 10  1  0
 10 11  2  0
 10 12  1  0
 12 13  1  0
 12 17  2  0
 13 14  2  0
 14 15  1  0
 15 16  2  0
 16 17  1  0
  5  6  2  0
 21 22  1  0
 21 29  1  0
 22 23  1  0
 23 24  1  0
 23 28  2  0
 24 25  2  0
 25 26  1  0
 26 27  2  0
 27 28  1  0
 28 29  1  0
M  END
>  <minimizedAffinity>  (514) 
-9.06049

$$$$
cs_full_output_folder/data/smiles/1603.pdb
     RDKit          3D

 25 27  0  0  0  0  0  0  0  0999 V2000
   68.4686   44.7220   56.1750 N   0  0  0  0  0  0  0  0  0  0  0  0
   69.3122   43.9199   56.9689 C   0  0  0  0  0  0  0  0  0  0  0  0
   70.2914   44.4889   57.5121 O   0  0  0  0  0  0  0  0  0  0  0  0
   69.1038   42.4916   57.1844 C   0  0  0  0  0  0  0  0  0  0  0  0
   68.0625   41.7746   56.6330 C   0  0  0  0  0  0  0  0  0  0  0  0
   68.1883   40.5018   57.0349 N   0  0  0  0  0  0  0  0  0  0  0  0
   69.2488   40.3324   57.8199 N   0  0  0  0  0  0  0  0  0  0  0  0
   69.8087   41.5689   57.9067 C   0  0  0  0  0  0  0  0  0  0  0  0
   69.7039   39.1297   58.4306 C   0  0  0  0  0  0  0  0  0  0  0  0
   70.8993   38.5166   58.1513 C   0  0  0  0  0  0  0  0  0  0  0  0
   71.3168   37.3540   58.7566 C   0  0  0  0  0  0  0  0  0  0  0  0
   70.4982   36.7609   59.7000 C   0  0  0  0  0  0  0  0  0  0  0  0
   70.9627   35.2816   60.5104 Cl  0  0  0  0  0  0  0  0  0  0  0  0
   69.2909   37.3418   60.0112 C   0  0  0  0  0  0  0  0  0  0  0  0
   68.8893   38.5240   59.3819 C   0  0  0  0  0  0  0  0  0  0  0  0
   68.5981   46.1325   55.9168 C   0  0  0  0  0  0  0  0  0  0  0  0
   69.3397   47.8377   52.6539 C   0  0  0  0  0  0  0  0  0  0  0  0
   68.6719   47.0230   51.7454 C   0  0  0  0  0  0  0  0  0  0  0  0
   67.9936   45.9424   52.2203 C   0  0  0  0  0  0  0  0  0  0  0  0
   67.9747   45.6676   53.5838 C   0  0  0  0  0  0  0  0  0  0  0  0
   68.6376   46.4765   54.4725 C   0  0  0  0  0  0  0  0  0  0  0  0
   69.3261   47.5735   53.9976 C   0  0  0  0  0  0  0  0  0  0  0  0
   70.3963   48.9854   50.8959 O   0  0  0  0  0  0  0  0  0  0  0  0
   70.0608   48.9922   52.0947 C   0  0  0  0  0  0  0  0  0  0  0  0
   70.3842   50.0992   52.8647 O   0  0  0  0  0  0  0  0  0  0  0  0
 23 24  2  0
 24 25  1  0
 24 17  1  0
 17 18  2  0
 17 22  1  0
 18 19  1  0
 19 20  2  0
 20 21  1  0
 21 16  1  0
 21 22  2  0
 16  1  1  0
  1  2  1  0
  2  3  2  0
  2  4  1  0
  4  5  1  0
  4  8  2  0
  5  6  2  0
  6  7  1  0
  7  9  1  0
  7  8  1  0
  9 10  2  0
  9 15  1  0
 10 11  1  0
 11 12  2  0
 12 13  1  0
 12 14  1  0
 14 15  2  0
M  END
>  <minimizedAffinity>  (515) 
-9.05969

$$$$
cs_full_output_folder/data/smiles/1391.pdb
     RDKit          3D

 26 28  0  0  0  0  0  0  0  0999 V2000
   68.8170   46.9233   54.1684 C   0  0  0  0  0  0  0  0  0  0  0  0
   68.7328   46.5577   52.8199 C   0  0  0  0  0  0  0  0  0  0  0  0
   69.2123   47.3458   51.8069 C   0  0  0  0  0  0  0  0  0  0  0  0
   69.8153   48.5697   52.1120 C   0  0  0  0  0  0  0  0  0  0  0  0
   69.9092   48.9524   53.4285 C   0  0  0  0  0  0  0  0  0  0  0  0
   69.4172   48.1359   54.4215 C   0  0  0  0  0  0  0  0  0  0  0  0
   67.8963   46.5866   56.2916 O   0  0  0  0  0  0  0  0  0  0  0  0
   68.2904   46.0470   55.2009 C   0  0  0  0  0  0  0  0  0  0  0  0
   68.1832   44.6398   55.0853 N   0  0  0  0  0  0  0  0  0  0  0  0
   67.6758   43.8269   56.0892 N   0  0  0  0  0  0  0  0  0  0  0  0
   68.5295   42.9150   56.7426 C   0  0  0  0  0  0  0  0  0  0  0  0
   68.1315   41.5906   56.7761 C   0  0  0  0  0  0  0  0  0  0  0  0
   68.9439   40.6805   57.4059 C   0  0  0  0  0  0  0  0  0  0  0  0
   70.1206   41.0566   57.9896 C   0  0  0  0  0  0  0  0  0  0  0  0
   70.5100   42.3662   57.9539 C   0  0  0  0  0  0  0  0  0  0  0  0
   69.7272   43.2972   57.3375 C   0  0  0  0  0  0  0  0  0  0  0  0
   70.0953   44.6040   57.2909 F   0  0  0  0  0  0  0  0  0  0  0  0
   70.6469   50.4610   53.8673 S   0  0  0  0  0  0  0  0  0  0  0  0
   70.3475   51.4498   52.7756 O   0  0  0  0  0  0  0  0  0  0  0  0
   72.1399   50.2772   53.8934 O   0  0  0  0  0  0  0  0  0  0  0  0
   70.0875   51.0675   55.3742 N   0  0  0  0  0  0  0  0  0  0  0  0
   69.1305   52.0916   55.2679 C   0  0  0  0  0  0  0  0  0  0  0  0
   69.2963   53.1414   56.3323 C   0  0  0  0  0  0  0  0  0  0  0  0
   70.7012   53.7205   56.1532 C   0  0  0  0  0  0  0  0  0  0  0  0
   71.6697   52.6325   56.4446 C   0  0  0  0  0  0  0  0  0  0  0  0
   71.1771   51.2568   56.2427 C   0  0  0  0  0  0  0  0  0  0  0  0
  7  8  2  0
  8  9  1  0
  8  1  1  0
  9 10  1  0
 10 11  1  0
 11 12  2  0
 11 16  1  0
 12 13  1  0
 13 14  2  0
 14 15  1  0
 15 16  2  0
 16 17  1  0
  1  2  2  0
  1  6  1  0
  2  3  1  0
  3  4  2  0
  4  5  1  0
  5 18  1  0
  5  6  2  0
 18 19  2  0
 18 20  2  0
 18 21  1  0
 21 22  1  0
 21 26  1  0
 22 23  1  0
 23 24  1  0
 24 25  1  0
 25 26  1  0
M  END
>  <minimizedAffinity>  (516) 
-9.05739

$$$$
cs_full_output_folder/data/smiles/711.pdb
     RDKit          3D

 27 30  0  0  0  0  0  0  0  0999 V2000
   71.7044   47.3229   59.0148 C   0  0  0  0  0  0  0  0  0  0  0  0
   71.4912   45.9726   59.2774 C   0  0  0  0  0  0  0  0  0  0  0  0
   70.5855   45.2565   58.5146 C   0  0  0  0  0  0  0  0  0  0  0  0
   69.8979   45.8656   57.5030 C   0  0  0  0  0  0  0  0  0  0  0  0
   70.0719   47.2076   57.1963 C   0  0  0  0  0  0  0  0  0  0  0  0
   70.9917   47.8844   57.9917 C   0  0  0  0  0  0  0  0  0  0  0  0
   76.8578   51.0399   58.9159 N   0  0  0  0  0  0  0  0  0  0  0  0
   76.7407   49.2905   58.8303 S   0  0  0  0  0  0  0  0  0  0  0  0
   76.0184   48.6340   60.4067 C   0  0  0  0  0  0  0  0  0  0  0  0
   74.6790   49.2999   60.4238 C   0  0  0  0  0  0  0  0  0  0  0  0
   73.8378   48.6664   59.4186 N   0  0  0  0  0  0  0  0  0  0  0  0
   72.6666   48.0083   59.8635 C   0  0  0  0  0  0  0  0  0  0  0  0
   72.4541   48.0349   61.1360 O   0  0  0  0  0  0  0  0  0  0  0  0
   74.2022   48.7263   58.0278 C   0  0  0  0  0  0  0  0  0  0  0  0
   75.6388   48.6354   57.6998 C   0  0  0  0  0  0  0  0  0  0  0  0
   69.3453   47.8145   56.1795 C   0  0  0  0  0  0  0  0  0  0  0  0
   69.4610   48.0475   54.8091 C   0  0  0  0  0  0  0  0  0  0  0  0
   70.2298   49.1484   54.4753 N   0  0  0  0  0  0  0  0  0  0  0  0
   70.4246   49.5038   53.2435 N   0  0  0  0  0  0  0  0  0  0  0  0
   69.9184   48.8656   52.1884 C   0  0  0  0  0  0  0  0  0  0  0  0
   70.1004   49.2016   51.0036 O   0  0  0  0  0  0  0  0  0  0  0  0
   69.1382   47.7532   52.4331 C   0  0  0  0  0  0  0  0  0  0  0  0
   68.5776   47.0322   51.4124 C   0  0  0  0  0  0  0  0  0  0  0  0
   67.8042   45.9242   51.6977 C   0  0  0  0  0  0  0  0  0  0  0  0
   67.5876   45.5322   53.0027 C   0  0  0  0  0  0  0  0  0  0  0  0
   68.1488   46.2531   54.0360 C   0  0  0  0  0  0  0  0  0  0  0  0
   68.9179   47.3556   53.7618 C   0  0  0  0  0  0  0  0  0  0  0  0
  7  8  1  0
  8  9  1  0
  8 15  1  0
  9 10  1  0
 10 11  1  0
 11 12  1  0
 11 14  1  0
 12 13  2  0
 12  1  1  0
  1  2  2  0
  1  6  1  0
  2  3  1  0
  3  4  2  0
  4  5  1  0
  5 16  1  0
  5  6  2  0
 16 17  1  0
 17 18  2  0
 17 27  1  0
 18 19  1  0
 19 20  1  0
 20 21  2  0
 20 22  1  0
 22 23  1  0
 22 27  2  0
 23 24  2  0
 24 25  1  0
 25 26  2  0
 26 27  1  0
 14 15  1  0
M  END
>  <minimizedAffinity>  (517) 
-9.05712

$$$$
cs_full_output_folder/data/smiles/7370.pdb
     RDKit          3D

 28 31  0  0  0  0  0  0  0  0999 V2000
   71.5749   47.1382   58.8161 C   0  0  0  0  0  0  0  0  0  0  0  0
   70.7207   47.8721   58.0393 C   0  0  0  0  0  0  0  0  0  0  0  0
   69.8486   47.2155   57.1822 C   0  0  0  0  0  0  0  0  0  0  0  0
   69.8623   45.8603   57.1351 C   0  0  0  0  0  0  0  0  0  0  0  0
   70.7097   45.1143   57.9048 C   0  0  0  0  0  0  0  0  0  0  0  0
   71.5868   45.7421   58.7650 C   0  0  0  0  0  0  0  0  0  0  0  0
   72.4442   45.0303   59.5462 F   0  0  0  0  0  0  0  0  0  0  0  0
   75.7197   48.4646   58.8358 C   0  0  0  0  0  0  0  0  0  0  0  0
   74.4263   48.4373   58.0336 C   0  0  0  0  0  0  0  0  0  0  0  0
   73.7331   48.3536   59.2922 N   0  0  0  0  0  0  0  0  0  0  0  0
   72.5110   47.8197   59.7344 C   0  0  0  0  0  0  0  0  0  0  0  0
   72.1554   47.8996   60.9534 O   0  0  0  0  0  0  0  0  0  0  0  0
   74.8423   49.0546   59.8865 C   0  0  0  0  0  0  0  0  0  0  0  0
   77.9841   49.4507   59.0297 C   0  0  0  0  0  0  0  0  0  0  0  0
   76.7313   49.3360   58.1802 C   0  0  2  0  0  0  0  0  0  0  0  0
   76.2406   50.5480   57.7661 O   0  0  0  0  0  0  0  0  0  0  0  0
   68.9252   48.0812   56.3814 C   0  0  0  0  0  0  0  0  0  0  0  0
   69.3326   48.2292   54.9689 C   0  0  0  0  0  0  0  0  0  0  0  0
   70.2914   49.1526   54.6266 N   0  0  0  0  0  0  0  0  0  0  0  0
   70.7307   49.3070   53.3973 N   0  0  0  0  0  0  0  0  0  0  0  0
   70.2646   48.5622   52.3810 C   0  0  0  0  0  0  0  0  0  0  0  0
   70.7161   48.7400   51.1988 O   0  0  0  0  0  0  0  0  0  0  0  0
   69.3025   47.6143   52.6320 C   0  0  0  0  0  0  0  0  0  0  0  0
   68.8016   46.8477   51.6055 C   0  0  0  0  0  0  0  0  0  0  0  0
   67.8281   45.9120   51.8775 C   0  0  0  0  0  0  0  0  0  0  0  0
   67.3651   45.7494   53.1582 C   0  0  0  0  0  0  0  0  0  0  0  0
   67.8713   46.5185   54.1766 C   0  0  0  0  0  0  0  0  0  0  0  0
   68.8499   47.4651   53.9357 C   0  0  0  0  0  0  0  0  0  0  0  0
 15 14  1  1
 15 16  1  0
 15  8  1  0
  8  9  1  0
  8 13  1  0
  9 10  1  0
 10 11  1  0
 10 13  1  0
 11 12  2  0
 11  1  1  0
  1  2  2  0
  1  6  1  0
  2  3  1  0
  3 17  1  0
  3  4  2  0
 17 18  1  0
 18 19  2  0
 18 28  1  0
 19 20  1  0
 20 21  1  0
 21 22  2  0
 21 23  1  0
 23 24  1  0
 23 28  2  0
 24 25  2  0
 25 26  1  0
 26 27  2  0
 27 28  1  0
  4  5  1  0
  5  6  2  0
  6  7  1  0
M  END
>  <minimizedAffinity>  (518) 
-9.05474

$$$$
cs_full_output_folder/data/smiles/2816.pdb
     RDKit          3D

 26 27  0  0  0  0  0  0  0  0999 V2000
   69.1886   50.6747   53.2557 N   0  0  0  0  0  0  0  0  0  0  0  0
   71.4417   53.1475   55.7850 C   0  0  0  0  0  0  0  0  0  0  0  0
   70.0680   53.2521   55.7350 C   0  0  0  0  0  0  0  0  0  0  0  0
   69.3299   52.4495   54.9026 C   0  0  0  0  0  0  0  0  0  0  0  0
   69.9759   51.5083   54.0883 C   0  0  0  0  0  0  0  0  0  0  0  0
   71.3471   51.4535   54.1832 C   0  0  0  0  0  0  0  0  0  0  0  0
   72.1330   52.2267   54.9944 C   0  0  0  0  0  0  0  0  0  0  0  0
   73.5267   52.2018   55.1189 N   0  0  0  0  0  0  0  0  0  0  0  0
   74.3684   51.1007   55.3866 C   0  0  0  0  0  0  0  0  0  0  0  0
   75.7887   51.2369   55.4848 N   0  0  0  0  0  0  0  0  0  0  0  0
   73.8422   49.9820   55.5382 O   0  0  0  0  0  0  0  0  0  0  0  0
   72.3437   53.6635   58.0067 C   0  0  0  0  0  0  0  0  0  0  0  0
   72.1087   53.9981   56.6560 O   0  0  0  0  0  0  0  0  0  0  0  0
   69.8161   49.1988   52.6696 S   0  0  0  0  0  0  0  0  0  0  0  0
   69.5587   49.2029   51.1619 O   0  0  0  0  0  0  0  0  0  0  0  0
   71.3324   49.1417   52.8661 O   0  0  0  0  0  0  0  0  0  0  0  0
   69.0967   47.7632   53.3161 C   0  0  0  0  0  0  0  0  0  0  0  0
   69.1358   47.4467   54.6606 C   0  0  0  0  0  0  0  0  0  0  0  0
   69.7354   48.3287   55.4918 F   0  0  0  0  0  0  0  0  0  0  0  0
   68.5916   46.2807   55.1628 C   0  0  0  0  0  0  0  0  0  0  0  0
   67.9755   45.3741   54.3149 C   0  0  0  0  0  0  0  0  0  0  0  0
   67.4395   44.2260   54.8147 F   0  0  0  0  0  0  0  0  0  0  0  0
   67.9214   45.6629   52.9736 C   0  0  0  0  0  0  0  0  0  0  0  0
   67.3110   44.7536   52.1699 F   0  0  0  0  0  0  0  0  0  0  0  0
   68.4684   46.8257   52.4930 C   0  0  0  0  0  0  0  0  0  0  0  0
   68.3732   47.0388   51.1473 F   0  0  0  0  0  0  0  0  0  0  0  0
 12 13  1  0
 13  2  1  0
  2  3  2  0
  2  7  1  0
  3  4  1  0
  4  5  2  0
  5  1  1  0
  5  6  1  0
  1 14  1  0
 14 15  2  0
 14 16  2  0
 14 17  1  0
 17 18  2  0
 17 25  1  0
 18 19  1  0
 18 20  1  0
 20 21  2  0
 21 22  1  0
 21 23  1  0
 23 24  1  0
 23 25  2  0
 25 26  1  0
  6  7  2  0
  7  8  1  0
  8  9  1  0
  9 10  1  0
  9 11  2  0
M  END
>  <minimizedAffinity>  (519) 
-9.05450

$$$$
cs_full_output_folder/data/smiles/2064.pdb
     RDKit          3D

 29 32  0  0  0  0  0  0  0  0999 V2000
   71.6361   47.1832   58.9827 C   0  0  0  0  0  0  0  0  0  0  0  0
   70.6671   47.8663   58.2626 C   0  0  0  0  0  0  0  0  0  0  0  0
   69.8476   47.1995   57.4099 C   0  0  0  0  0  0  0  0  0  0  0  0
   70.0152   45.8143   57.2825 C   0  0  0  0  0  0  0  0  0  0  0  0
   70.9704   45.1346   57.9904 C   0  0  0  0  0  0  0  0  0  0  0  0
   71.7962   45.8277   58.8554 C   0  0  0  0  0  0  0  0  0  0  0  0
   72.7620   45.1578   59.5722 F   0  0  0  0  0  0  0  0  0  0  0  0
   74.4512   50.2245   56.2063 C   0  0  0  0  0  0  0  0  0  0  0  0
   74.8027   49.6779   57.5552 C   0  0  2  0  0  0  0  0  0  0  0  0
   76.1333   48.9560   57.5912 C   0  0  0  0  0  0  0  0  0  0  0  0
   76.1965   48.2899   58.9641 C   0  0  0  0  0  0  0  0  0  0  0  0
   75.8760   49.2832   60.0536 C   0  0  0  0  0  0  0  0  0  0  0  0
   74.4039   49.3764   60.3733 C   0  0  0  0  0  0  0  0  0  0  0  0
   73.5754   48.6799   59.3971 N   0  0  0  0  0  0  0  0  0  0  0  0
   72.5004   47.9123   59.8896 C   0  0  0  0  0  0  0  0  0  0  0  0
   72.2385   47.8189   61.1276 O   0  0  0  0  0  0  0  0  0  0  0  0
   73.7246   48.6882   57.9626 C   0  0  0  0  0  0  0  0  0  0  0  0
   68.7769   47.8017   56.5941 C   0  0  0  0  0  0  0  0  0  0  0  0
   69.2223   48.0752   55.2475 C   0  0  0  0  0  0  0  0  0  0  0  0
   70.1497   49.0506   55.0470 N   0  0  0  0  0  0  0  0  0  0  0  0
   70.6534   49.3234   53.8647 N   0  0  0  0  0  0  0  0  0  0  0  0
   70.2910   48.6638   52.7666 C   0  0  0  0  0  0  0  0  0  0  0  0
   70.8003   48.9549   51.6356 O   0  0  0  0  0  0  0  0  0  0  0  0
   69.3561   47.6593   52.8708 C   0  0  0  0  0  0  0  0  0  0  0  0
   68.9470   46.9692   51.7529 C   0  0  0  0  0  0  0  0  0  0  0  0
   67.9947   45.9828   51.8872 C   0  0  0  0  0  0  0  0  0  0  0  0
   67.4732   45.7095   53.1452 C   0  0  0  0  0  0  0  0  0  0  0  0
   67.8909   46.4078   54.2588 C   0  0  0  0  0  0  0  0  0  0  0  0
   68.8304   47.3814   54.1377 C   0  0  0  0  0  0  0  0  0  0  0  0
  9  8  1  6
  9 10  1  0
  9 17  1  0
 10 11  1  0
 11 12  1  0
 12 13  1  0
 13 14  1  0
 14 15  1  0
 14 17  1  0
 15 16  2  0
 15  1  1  0
  1  2  2  0
  1  6  1  0
  2  3  1  0
  3 18  1  0
  3  4  2  0
 18 19  1  0
 19 20  2  0
 19 29  1  0
 20 21  1  0
 21 22  1  0
 22 23  2  0
 22 24  1  0
 24 25  1  0
 24 29  2  0
 25 26  2  0
 26 27  1  0
 27 28  2  0
 28 29  1  0
  4  5  1  0
  5  6  2  0
  6  7  1  0
M  END
>  <minimizedAffinity>  (520) 
-9.05255

$$$$
cs_full_output_folder/data/smiles/6006.pdb
     RDKit          3D

 25 27  0  0  0  0  0  0  0  0999 V2000
   70.3718   45.0628   57.7596 C   0  0  0  0  0  0  0  0  0  0  0  0
   69.6025   45.9975   57.0497 C   0  0  0  0  0  0  0  0  0  0  0  0
   69.8311   47.3452   57.0668 C   0  0  0  0  0  0  0  0  0  0  0  0
   70.8722   47.8543   57.8171 C   0  0  0  0  0  0  0  0  0  0  0  0
   71.6407   46.9674   58.5214 C   0  0  0  0  0  0  0  0  0  0  0  0
   71.3998   45.5821   58.4982 C   0  0  0  0  0  0  0  0  0  0  0  0
   72.1958   44.7730   59.2225 F   0  0  0  0  0  0  0  0  0  0  0  0
   71.0517   42.8590   57.4411 O   0  0  0  0  0  0  0  0  0  0  0  0
   70.0671   43.6473   57.6741 C   0  0  0  0  0  0  0  0  0  0  0  0
   68.8291   43.0211   57.8127 N   0  0  0  0  0  0  0  0  0  0  0  0
   68.5889   41.5952   57.7091 C   0  0  0  0  0  0  0  0  0  0  0  0
   67.8117   41.2859   56.4529 C   0  0  0  0  0  0  0  0  0  0  0  0
   67.3061   42.8382   55.7463 Cl  0  0  0  0  0  0  0  0  0  0  0  0
   68.9864   48.3044   56.2743 C   0  0  0  0  0  0  0  0  0  0  0  0
   69.3043   48.3460   54.8634 C   0  0  0  0  0  0  0  0  0  0  0  0
   70.2088   49.2828   54.4431 N   0  0  0  0  0  0  0  0  0  0  0  0
   70.6154   49.4061   53.2082 N   0  0  0  0  0  0  0  0  0  0  0  0
   70.1675   48.6107   52.2464 C   0  0  0  0  0  0  0  0  0  0  0  0
   70.5776   48.7509   51.0627 O   0  0  0  0  0  0  0  0  0  0  0  0
   69.2529   47.6337   52.5592 C   0  0  0  0  0  0  0  0  0  0  0  0
   68.7791   46.8146   51.5659 C   0  0  0  0  0  0  0  0  0  0  0  0
   67.8537   45.8517   51.9012 C   0  0  0  0  0  0  0  0  0  0  0  0
   67.4351   45.7379   53.2088 C   0  0  0  0  0  0  0  0  0  0  0  0
   67.9173   46.5668   54.2110 C   0  0  0  0  0  0  0  0  0  0  0  0
   68.8305   47.5172   53.8856 C   0  0  0  0  0  0  0  0  0  0  0  0
  8  9  2  0
  9 10  1  0
  9  1  1  0
 10 11  1  0
 11 12  1  0
 12 13  1  0
  1  2  2  0
  1  6  1  0
  2  3  1  0
  3 14  1  0
  3  4  2  0
 14 15  1  0
 15 16  2  0
 15 25  1  0
 16 17  1  0
 17 18  1  0
 18 19  2  0
 18 20  1  0
 20 21  1  0
 20 25  2  0
 21 22  2  0
 22 23  1  0
 23 24  2  0
 24 25  1  0
  4  5  1  0
  5  6  2  0
  6  7  1  0
M  END
>  <minimizedAffinity>  (521) 
-9.05237

$$$$
cs_full_output_folder/data/smiles/671.pdb
     RDKit          3D

 24 26  0  0  0  0  0  0  0  0999 V2000
   68.4385   43.7738   56.1753 N   0  0  0  0  0  0  0  0  0  0  0  0
   68.1559   42.5149   56.3893 C   0  0  0  0  0  0  0  0  0  0  0  0
   67.0826   41.7136   55.8429 C   0  0  0  0  0  0  0  0  0  0  0  0
   66.2217   42.1473   55.0335 O   0  0  0  0  0  0  0  0  0  0  0  0
   67.2227   40.4135   56.3953 N   0  0  0  0  0  0  0  0  0  0  0  0
   68.3515   40.3553   57.2804 C   0  0  0  0  0  0  0  0  0  0  0  0
   68.8643   39.3122   58.0304 C   0  0  0  0  0  0  0  0  0  0  0  0
   69.9740   39.5408   58.8017 C   0  0  0  0  0  0  0  0  0  0  0  0
   70.5346   40.7982   58.8010 C   0  0  0  0  0  0  0  0  0  0  0  0
   70.0174   41.8254   58.0525 C   0  0  0  0  0  0  0  0  0  0  0  0
   68.9054   41.6187   57.2708 C   0  0  0  0  0  0  0  0  0  0  0  0
   70.5975   38.4768   59.6443 C   0  0  0  0  0  0  0  0  0  0  0  0
   71.1638   37.1156   58.6482 Cl  0  0  0  0  0  0  0  0  0  0  0  0
   67.6287   44.5082   55.3029 N   0  0  0  0  0  0  0  0  0  0  0  0
   69.2893   47.9660   53.4660 C   0  0  0  0  0  0  0  0  0  0  0  0
   68.7094   46.9617   52.7168 C   0  0  0  0  0  0  0  0  0  0  0  0
   68.1716   45.8411   53.3185 C   0  0  0  0  0  0  0  0  0  0  0  0
   68.1849   45.6666   54.6867 C   0  0  0  0  0  0  0  0  0  0  0  0
   68.7632   46.6701   55.4336 C   0  0  0  0  0  0  0  0  0  0  0  0
   69.3025   47.7914   54.8365 C   0  0  0  0  0  0  0  0  0  0  0  0
   71.5478   49.6263   53.4546 N   0  0  0  0  0  0  0  0  0  0  0  0
   69.9819   49.4022   52.7438 S   0  0  0  0  0  0  0  0  0  0  0  0
   70.0985   49.2206   51.2528 O   0  0  0  0  0  0  0  0  0  0  0  0
   69.1265   50.5777   53.0864 O   0  0  0  0  0  0  0  0  0  0  0  0
 21 22  1  0
 22 23  2  0
 22 24  2  0
 22 15  1  0
 15 16  2  0
 15 20  1  0
 16 17  1  0
 17 18  2  0
 18 14  1  0
 18 19  1  0
 14  1  1  0
  1  2  2  0
  2  3  1  0
  2 11  1  0
  3  4  2  0
  3  5  1  0
  5  6  1  0
  6  7  1  0
  6 11  2  0
  7  8  2  0
  8 12  1  0
  8  9  1  0
 12 13  1  0
  9 10  2  0
 10 11  1  0
 19 20  2  0
M  END
>  <minimizedAffinity>  (522) 
-9.05225

$$$$
cs_full_output_folder/data/smiles/8609.pdb
     RDKit          3D

 26 28  0  0  0  0  0  0  0  0999 V2000
   72.9662   43.0450   57.7375 C   0  0  0  0  0  0  0  0  0  0  0  0
   71.4981   42.8182   57.8679 C   0  0  0  0  0  0  0  0  0  0  0  0
   70.4024   43.5775   57.7489 C   0  0  0  0  0  0  0  0  0  0  0  0
   69.5389   42.4223   58.0633 C   0  0  2  0  0  0  0  0  0  0  0  0
   68.8299   42.6448   59.3323 N   0  0  0  0  0  0  0  0  0  0  0  0
   70.7392   41.6663   58.1787 N   0  0  0  0  0  0  0  0  0  0  0  0
   71.0544   40.3250   58.4814 C   0  0  0  0  0  0  0  0  0  0  0  0
   70.0282   39.4046   58.3387 C   0  0  0  0  0  0  0  0  0  0  0  0
   70.3138   38.0869   58.6305 C   0  0  0  0  0  0  0  0  0  0  0  0
   71.5603   37.6595   59.0501 C   0  0  0  0  0  0  0  0  0  0  0  0
   71.8408   36.3742   59.3348 F   0  0  0  0  0  0  0  0  0  0  0  0
   72.5519   38.6178   59.1776 C   0  0  0  0  0  0  0  0  0  0  0  0
   72.3085   39.9472   58.8963 C   0  0  0  0  0  0  0  0  0  0  0  0
   70.1133   44.9656   57.4408 C   0  0  0  0  0  0  0  0  0  0  0  0
   70.7860   45.8893   57.9660 O   0  0  0  0  0  0  0  0  0  0  0  0
   69.0841   45.3520   56.5533 N   0  0  0  0  0  0  0  0  0  0  0  0
   68.7080   46.6749   56.1694 C   0  0  0  0  0  0  0  0  0  0  0  0
   68.6817   46.7554   54.7035 C   0  0  0  0  0  0  0  0  0  0  0  0
   67.9808   45.8224   53.9878 C   0  0  0  0  0  0  0  0  0  0  0  0
   67.9500   45.9121   52.6107 C   0  0  0  0  0  0  0  0  0  0  0  0
   68.6156   46.9276   51.9591 C   0  0  0  0  0  0  0  0  0  0  0  0
   69.3234   47.8730   52.6657 C   0  0  0  0  0  0  0  0  0  0  0  0
   69.3354   47.7556   54.0527 C   0  0  0  0  0  0  0  0  0  0  0  0
   70.0374   48.9568   52.0031 C   0  0  0  0  0  0  0  0  0  0  0  0
   70.1354   50.2289   52.6548 N   0  0  0  0  0  0  0  0  0  0  0  0
   70.5533   48.7718   50.8814 O   0  0  0  0  0  0  0  0  0  0  0  0
  1  2  1  0
  2  3  2  0
  2  6  1  0
  3 14  1  0
  3  4  1  0
 14 15  2  0
 14 16  1  0
 16 17  1  0
 17 18  1  0
 18 19  2  0
 18 23  1  0
 19 20  1  0
 20 21  2  0
 21 22  1  0
 22 24  1  0
 22 23  2  0
 24 25  1  0
 24 26  2  0
  4  5  1  1
  4  6  1  0
  6  7  1  0
  7  8  2  0
  7 13  1  0
  8  9  1  0
  9 10  2  0
 10 11  1  0
 10 12  1  0
 12 13  2  0
M  CHG  1   5   1
M  END
>  <minimizedAffinity>  (523) 
-9.05162

$$$$
cs_full_output_folder/data/smiles/1632.pdb
     RDKit          3D

 25 27  0  0  0  0  0  0  0  0999 V2000
   68.9601   47.8676   55.0070 C   0  0  0  0  0  0  0  0  0  0  0  0
   68.9816   49.2139   55.2893 C   0  0  0  0  0  0  0  0  0  0  0  0
   69.2535   49.6959   56.5318 N   0  0  0  0  0  0  0  0  0  0  0  0
   69.5205   48.8885   57.5748 C   0  0  0  0  0  0  0  0  0  0  0  0
   69.5081   47.5356   57.3321 C   0  0  0  0  0  0  0  0  0  0  0  0
   69.2359   47.0195   56.0831 C   0  0  0  0  0  0  0  0  0  0  0  0
   69.2114   47.8684   52.5719 C   0  0  0  0  0  0  0  0  0  0  0  0
   68.8736   47.3326   51.3546 N   0  0  0  0  0  0  0  0  0  0  0  0
   68.0500   46.2829   51.2541 C   0  0  0  0  0  0  0  0  0  0  0  0
   67.5079   45.6986   52.3760 C   0  0  0  0  0  0  0  0  0  0  0  0
   67.8177   46.2007   53.6022 C   0  0  0  0  0  0  0  0  0  0  0  0
   68.6873   47.3091   53.6961 C   0  0  0  0  0  0  0  0  0  0  0  0
   69.7079   50.1034   52.1510 O   0  0  0  0  0  0  0  0  0  0  0  0
   70.1292   48.9763   52.6021 C   0  0  0  0  0  0  0  0  0  0  0  0
   71.4198   48.9873   53.0549 O   0  0  0  0  0  0  0  0  0  0  0  0
   69.7910   46.6587   58.4356 N   0  0  0  0  0  0  0  0  0  0  0  0
   71.4118   46.3359   58.9127 S   0  0  0  0  0  0  0  0  0  0  0  0
   71.5433   46.4078   60.4266 O   0  0  0  0  0  0  0  0  0  0  0  0
   72.3126   47.3813   58.3576 O   0  0  0  0  0  0  0  0  0  0  0  0
   71.9379   44.7668   58.3382 C   0  0  0  0  0  0  0  0  0  0  0  0
   73.2517   44.5135   58.0948 C   0  0  0  0  0  0  0  0  0  0  0  0
   73.6276   43.2745   57.6456 C   0  0  0  0  0  0  0  0  0  0  0  0
   72.6816   42.2733   57.4354 C   0  0  0  0  0  0  0  0  0  0  0  0
   71.3520   42.5309   57.6827 C   0  0  0  0  0  0  0  0  0  0  0  0
   70.9738   43.7797   58.1353 C   0  0  0  0  0  0  0  0  0  0  0  0
 13 14  2  0
 14 15  1  0
 14  7  1  0
  7  8  2  0
  7 12  1  0
  8  9  1  0
  9 10  2  0
 10 11  1  0
 11 12  2  0
 12  1  1  0
  1  2  2  0
  1  6  1  0
  2  3  1  0
  3  4  2  0
  4  5  1  0
  5 16  1  0
  5  6  2  0
 16 17  1  0
 17 18  2  0
 17 19  2  0
 17 20  1  0
 20 21  2  0
 20 25  1  0
 21 22  1  0
 22 23  2  0
 23 24  1  0
 24 25  2  0
M  END
>  <minimizedAffinity>  (524) 
-9.04605

$$$$
cs_full_output_folder/data/smiles/7186.pdb
     RDKit          3D

 29 32  0  0  0  0  0  0  0  0999 V2000
   71.3816   46.7057   58.9280 C   0  0  0  0  0  0  0  0  0  0  0  0
   70.5048   47.5166   58.2532 C   0  0  0  0  0  0  0  0  0  0  0  0
   69.6702   47.0162   57.3049 C   0  0  0  0  0  0  0  0  0  0  0  0
   69.7222   45.6499   57.0265 C   0  0  0  0  0  0  0  0  0  0  0  0
   70.6080   44.8486   57.7124 C   0  0  0  0  0  0  0  0  0  0  0  0
   71.4434   45.3691   58.6676 C   0  0  0  0  0  0  0  0  0  0  0  0
   72.2917   44.5190   59.3022 F   0  0  0  0  0  0  0  0  0  0  0  0
   73.3460   51.5493   58.1738 C   0  0  0  0  0  0  0  0  0  0  0  0
   74.1804   50.3927   58.2395 N   0  0  1  0  0  0  0  0  0  0  0  0
   74.9561   50.2383   59.4117 C   0  0  0  0  0  0  0  0  0  0  0  0
   74.1877   49.8731   60.6521 C   0  0  0  0  0  0  0  0  0  0  0  0
   74.2744   48.3448   60.7677 C   0  0  0  0  0  0  0  0  0  0  0  0
   73.5029   47.8475   59.6242 N   0  0  0  0  0  0  0  0  0  0  0  0
   72.2865   47.2598   59.9614 C   0  0  0  0  0  0  0  0  0  0  0  0
   71.9127   47.1761   61.1446 O   0  0  0  0  0  0  0  0  0  0  0  0
   73.9238   47.9345   58.2521 C   0  0  0  0  0  0  0  0  0  0  0  0
   73.6640   49.2445   57.6106 C   0  0  0  0  0  0  0  0  0  0  0  0
   68.6676   47.8346   56.5252 C   0  0  0  0  0  0  0  0  0  0  0  0
   69.1429   48.0554   55.1919 C   0  0  0  0  0  0  0  0  0  0  0  0
   70.1062   49.0180   55.0320 N   0  0  0  0  0  0  0  0  0  0  0  0
   70.6561   49.2948   53.8740 N   0  0  0  0  0  0  0  0  0  0  0  0
   70.3282   48.6625   52.7390 C   0  0  0  0  0  0  0  0  0  0  0  0
   70.8496   48.9192   51.6204 O   0  0  0  0  0  0  0  0  0  0  0  0
   69.3607   47.6762   52.8148 C   0  0  0  0  0  0  0  0  0  0  0  0
   68.9674   46.9960   51.6861 C   0  0  0  0  0  0  0  0  0  0  0  0
   68.0055   46.0358   51.7698 C   0  0  0  0  0  0  0  0  0  0  0  0
   67.4382   45.7569   52.9803 C   0  0  0  0  0  0  0  0  0  0  0  0
   67.8319   46.4395   54.1193 C   0  0  0  0  0  0  0  0  0  0  0  0
   68.7919   47.3985   54.0424 C   0  0  0  0  0  0  0  0  0  0  0  0
  9  8  1  1
  9 10  1  0
  9 17  1  0
 10 11  1  0
 11 12  1  0
 12 13  1  0
 13 14  1  0
 13 16  1  0
 14 15  2  0
 14  1  1  0
  1  2  2  0
  1  6  1  0
  2  3  1  0
  3 18  1  0
  3  4  2  0
 18 19  1  0
 19 20  2  0
 19 29  1  0
 20 21  1  0
 21 22  1  0
 22 23  2  0
 22 24  1  0
 24 25  1  0
 24 29  2  0
 25 26  2  0
 26 27  1  0
 27 28  2  0
 28 29  1  0
  4  5  1  0
  5  6  2  0
  6  7  1  0
 16 17  1  0
M  CHG  1   9   1
M  END
>  <minimizedAffinity>  (525) 
-9.04516

$$$$
cs_full_output_folder/data/smiles/1739.pdb
     RDKit          3D

 27 30  0  0  0  0  0  0  0  0999 V2000
   74.0340   51.2776   55.6809 C   0  0  0  0  0  0  0  0  0  0  0  0
   74.0614   52.4674   54.9902 C   0  0  0  0  0  0  0  0  0  0  0  0
   72.9168   52.9613   54.4026 C   0  0  0  0  0  0  0  0  0  0  0  0
   71.7242   52.2371   54.5165 C   0  0  0  0  0  0  0  0  0  0  0  0
   71.6743   51.0604   55.1950 C   0  0  0  0  0  0  0  0  0  0  0  0
   72.8563   50.5893   55.7779 C   0  0  0  0  0  0  0  0  0  0  0  0
   75.6749   49.4035   54.5125 O   0  0  0  0  0  0  0  0  0  0  0  0
   76.0557   49.7960   55.6608 C   0  0  0  0  0  0  0  0  0  0  0  0
   75.2358   50.7614   56.2938 N   0  0  0  0  0  0  0  0  0  0  0  0
   77.2744   49.2457   56.2372 C   0  0  0  0  0  0  0  0  0  0  0  0
   77.3288   48.8595   57.5602 C   0  0  0  0  0  0  0  0  0  0  0  0
   78.4742   48.3349   58.1325 C   0  0  0  0  0  0  0  0  0  0  0  0
   79.5964   48.2014   57.3272 C   0  0  0  0  0  0  0  0  0  0  0  0
   79.5973   48.5713   55.9978 C   0  0  0  0  0  0  0  0  0  0  0  0
   78.4112   49.0932   55.4840 C   0  0  0  0  0  0  0  0  0  0  0  0
   70.4214   50.2328   55.3705 C   0  0  0  0  0  0  0  0  0  0  0  0
   70.1554   49.3691   54.2187 C   0  0  0  0  0  0  0  0  0  0  0  0
   70.8627   49.5437   53.0577 N   0  0  0  0  0  0  0  0  0  0  0  0
   70.7123   48.7913   52.0074 N   0  0  0  0  0  0  0  0  0  0  0  0
   69.8288   47.7512   51.9654 C   0  0  0  0  0  0  0  0  0  0  0  0
   69.6972   47.0387   50.9479 O   0  0  0  0  0  0  0  0  0  0  0  0
   69.0964   47.5341   53.0986 C   0  0  0  0  0  0  0  0  0  0  0  0
   69.2666   48.3501   54.2197 C   0  0  0  0  0  0  0  0  0  0  0  0
   68.3751   48.0149   55.3475 C   0  0  0  0  0  0  0  0  0  0  0  0
   68.5179   46.5539   55.7158 C   0  0  0  0  0  0  0  0  0  0  0  0
   68.4151   45.6867   54.5049 C   0  0  0  0  0  0  0  0  0  0  0  0
   68.1040   46.4432   53.2268 C   0  0  0  0  0  0  0  0  0  0  0  0
  7  8  2  0
  8  9  1  0
  8 10  1  0
  9  1  1  0
  1  2  2  0
  1  6  1  0
  2  3  1  0
  3  4  2  0
  4  5  1  0
  5 16  1  0
  5  6  2  0
 16 17  1  0
 17 18  2  0
 17 23  1  0
 18 19  1  0
 19 20  1  0
 20 21  2  0
 20 22  1  0
 22 23  2  0
 22 27  1  0
 23 24  1  0
 24 25  1  0
 25 26  1  0
 26 27  1  0
 10 11  2  0
 10 15  1  0
 11 12  1  0
 12 13  2  0
 13 14  1  0
 14 15  2  0
M  END
>  <minimizedAffinity>  (526) 
-9.04429

$$$$
cs_full_output_folder/data/smiles/2433.pdb
     RDKit          3D

 29 32  0  0  0  0  0  0  0  0999 V2000
   71.4617   47.3782   58.6025 C   0  0  0  0  0  0  0  0  0  0  0  0
   70.5842   48.0834   57.8371 C   0  0  0  0  0  0  0  0  0  0  0  0
   69.6505   47.4302   57.0135 C   0  0  0  0  0  0  0  0  0  0  0  0
   69.6443   46.0806   56.9985 C   0  0  0  0  0  0  0  0  0  0  0  0
   70.5419   45.3534   57.7806 C   0  0  0  0  0  0  0  0  0  0  0  0
   71.4498   45.9895   58.5823 C   0  0  0  0  0  0  0  0  0  0  0  0
   72.3273   45.2908   59.3473 F   0  0  0  0  0  0  0  0  0  0  0  0
   75.9036   48.9033   58.9018 C   0  0  2  0  0  0  0  0  0  0  0  0
   75.4356   49.0541   57.4641 C   0  0  0  0  0  0  0  0  0  0  0  0
   73.9969   48.5361   57.5380 C   0  0  0  0  0  0  0  0  0  0  0  0
   73.6145   48.5546   58.9253 N   0  0  0  0  0  0  0  0  0  0  0  0
   72.4312   48.0249   59.4663 C   0  0  0  0  0  0  0  0  0  0  0  0
   72.1993   48.1025   60.6864 O   0  0  0  0  0  0  0  0  0  0  0  0
   74.6513   49.2055   59.6919 C   0  0  0  0  0  0  0  0  0  0  0  0
   78.3466   49.0537   59.2843 C   0  0  0  0  0  0  0  0  0  0  0  0
   77.0457   49.7864   59.2679 C   0  0  1  0  0  0  0  0  0  0  0  0
   77.0868   50.8854   58.3326 N   0  0  0  0  0  0  0  0  0  0  0  0
   68.7076   48.2729   56.2294 C   0  0  0  0  0  0  0  0  0  0  0  0
   69.1485   48.3886   54.8651 C   0  0  0  0  0  0  0  0  0  0  0  0
   70.0663   49.3700   54.5881 N   0  0  0  0  0  0  0  0  0  0  0  0
   70.5670   49.5085   53.3868 N   0  0  0  0  0  0  0  0  0  0  0  0
   70.1997   48.6952   52.3870 C   0  0  0  0  0  0  0  0  0  0  0  0
   70.6666   48.8024   51.2163 O   0  0  0  0  0  0  0  0  0  0  0  0
   69.2876   47.6923   52.5898 C   0  0  0  0  0  0  0  0  0  0  0  0
   68.8592   46.8389   51.6158 C   0  0  0  0  0  0  0  0  0  0  0  0
   67.9270   45.8488   51.8444 C   0  0  0  0  0  0  0  0  0  0  0  0
   67.3916   45.6968   53.1026 C   0  0  0  0  0  0  0  0  0  0  0  0
   67.8095   46.5489   54.1097 C   0  0  0  0  0  0  0  0  0  0  0  0
   68.7428   47.5337   53.8735 C   0  0  0  0  0  0  0  0  0  0  0  0
 16 15  1  6
 16 17  1  0
 16  8  1  0
  8  9  1  6
  8 14  1  0
  9 10  1  0
 10 11  1  0
 11 12  1  0
 11 14  1  0
 12 13  2  0
 12  1  1  0
  1  2  2  0
  1  6  1  0
  2  3  1  0
  3 18  1  0
  3  4  2  0
 18 19  1  0
 19 20  2  0
 19 29  1  0
 20 21  1  0
 21 22  1  0
 22 23  2  0
 22 24  1  0
 24 25  1  0
 24 29  2  0
 25 26  2  0
 26 27  1  0
 27 28  2  0
 28 29  1  0
  4  5  1  0
  5  6  2  0
  6  7  1  0
M  CHG  1  17   1
M  END
>  <minimizedAffinity>  (527) 
-9.04408

$$$$
cs_full_output_folder/data/smiles/7447.pdb
     RDKit          3D

 29 33  0  0  0  0  0  0  0  0999 V2000
   71.4319   47.1903   58.7394 C   0  0  0  0  0  0  0  0  0  0  0  0
   70.4940   47.8463   57.9680 C   0  0  0  0  0  0  0  0  0  0  0  0
   69.6162   47.1891   57.1246 C   0  0  0  0  0  0  0  0  0  0  0  0
   69.7164   45.8055   57.0824 C   0  0  0  0  0  0  0  0  0  0  0  0
   70.6442   45.1244   57.8430 C   0  0  0  0  0  0  0  0  0  0  0  0
   71.4980   45.8067   58.6665 C   0  0  0  0  0  0  0  0  0  0  0  0
   72.3952   45.1075   59.3979 F   0  0  0  0  0  0  0  0  0  0  0  0
   72.0711   47.9972   60.8383 O   0  0  0  0  0  0  0  0  0  0  0  0
   72.3457   47.9006   59.6196 C   0  0  0  0  0  0  0  0  0  0  0  0
   73.5316   48.4798   59.1282 N   0  0  0  0  0  0  0  0  0  0  0  0
   74.5029   49.1993   59.8994 C   0  0  0  0  0  0  0  0  0  0  0  0
   75.2108   50.0523   58.8767 C   0  0  1  0  0  0  0  0  0  0  0  0
   76.6310   50.3383   59.2355 C   0  0  0  0  0  0  0  0  0  0  0  0
   77.3321   49.0284   58.9815 C   0  0  0  0  0  0  0  0  0  0  0  0
   76.4312   48.2161   58.0756 C   0  0  0  0  0  0  0  0  0  0  0  0
   75.3031   49.1150   57.6936 C   0  0  1  0  0  0  0  0  0  0  0  0
   73.9497   48.4306   57.7423 C   0  0  0  0  0  0  0  0  0  0  0  0
   68.6137   47.9239   56.3031 C   0  0  0  0  0  0  0  0  0  0  0  0
   69.0820   48.1386   54.9539 C   0  0  0  0  0  0  0  0  0  0  0  0
   69.9590   49.1319   54.7186 N   0  0  0  0  0  0  0  0  0  0  0  0
   70.4295   49.3813   53.4962 N   0  0  0  0  0  0  0  0  0  0  0  0
   70.0645   48.6658   52.4185 C   0  0  0  0  0  0  0  0  0  0  0  0
   70.5007   48.8912   51.2628 O   0  0  0  0  0  0  0  0  0  0  0  0
   69.1717   47.6368   52.5893 C   0  0  0  0  0  0  0  0  0  0  0  0
   68.7686   46.8803   51.5332 C   0  0  0  0  0  0  0  0  0  0  0  0
   67.8734   45.8527   51.7169 C   0  0  0  0  0  0  0  0  0  0  0  0
   67.3878   45.5936   52.9703 C   0  0  0  0  0  0  0  0  0  0  0  0
   67.8084   46.3711   54.0287 C   0  0  0  0  0  0  0  0  0  0  0  0
   68.6956   47.3934   53.8608 C   0  0  0  0  0  0  0  0  0  0  0  0
  8  9  2  0
  9  1  1  0
  9 10  1  0
  1  2  2  0
  1  6  1  0
  2  3  1  0
  3 18  1  0
  3  4  2  0
 18 19  1  0
 19 20  2  0
 19 29  1  0
 20 21  1  0
 21 22  1  0
 22 23  2  0
 22 24  1  0
 24 25  1  0
 24 29  2  0
 25 26  2  0
 26 27  1  0
 27 28  2  0
 28 29  1  0
  4  5  1  0
  5  6  2  0
  6  7  1  0
 10 11  1  0
 10 17  1  0
 12 11  1  1
 12 13  1  0
 12 16  1  0
 13 14  1  0
 14 15  1  0
 16 15  1  1
 16 17  1  0
M  END
>  <minimizedAffinity>  (528) 
-9.04330

$$$$
cs_full_output_folder/data/smiles/1587.pdb
     RDKit          3D

 27 30  0  0  0  0  0  0  0  0999 V2000
   72.0003   47.1458   59.3053 C   0  0  0  0  0  0  0  0  0  0  0  0
   70.9749   47.6996   58.5734 C   0  0  0  0  0  0  0  0  0  0  0  0
   70.1947   46.8778   57.7982 C   0  0  0  0  0  0  0  0  0  0  0  0
   70.4508   45.5460   57.7729 C   0  0  0  0  0  0  0  0  0  0  0  0
   71.4648   44.9713   58.4917 C   0  0  0  0  0  0  0  0  0  0  0  0
   72.2590   45.7903   59.2761 C   0  0  0  0  0  0  0  0  0  0  0  0
   73.2757   45.2328   60.0008 F   0  0  0  0  0  0  0  0  0  0  0  0
   72.5976   48.0500   61.3562 O   0  0  0  0  0  0  0  0  0  0  0  0
   72.8415   48.0011   60.1351 C   0  0  0  0  0  0  0  0  0  0  0  0
   73.8818   48.7270   59.5313 N   0  0  0  0  0  0  0  0  0  0  0  0
   74.7115   49.5804   60.3926 C   0  0  0  0  0  0  0  0  0  0  0  0
   75.8068   50.1424   59.5192 C   0  0  0  0  0  0  0  0  0  0  0  0
   75.1551   50.7999   58.4504 O   0  0  0  0  0  0  0  0  0  0  0  0
   74.7144   49.8636   57.5127 C   0  0  0  0  0  0  0  0  0  0  0  0
   74.1258   48.6362   58.1245 C   0  0  0  0  0  0  0  0  0  0  0  0
   69.0783   47.4370   57.0320 C   0  0  0  0  0  0  0  0  0  0  0  0
   68.7406   46.8596   55.7653 C   0  0  0  0  0  0  0  0  0  0  0  0
   68.0853   45.6702   55.7428 N   0  0  0  0  0  0  0  0  0  0  0  0
   67.7300   45.0528   54.6436 N   0  0  0  0  0  0  0  0  0  0  0  0
   68.0090   45.5856   53.4460 C   0  0  0  0  0  0  0  0  0  0  0  0
   67.6920   45.0378   52.3547 O   0  0  0  0  0  0  0  0  0  0  0  0
   68.6743   46.7940   53.3597 C   0  0  0  0  0  0  0  0  0  0  0  0
   69.0339   47.4228   54.5528 C   0  0  0  0  0  0  0  0  0  0  0  0
   69.6749   48.7363   54.5118 C   0  0  0  0  0  0  0  0  0  0  0  0
   70.2084   49.1566   53.1896 C   0  0  0  0  0  0  0  0  0  0  0  0
   69.7645   48.4306   52.0056 C   0  0  0  0  0  0  0  0  0  0  0  0
   69.0553   47.3317   52.0698 C   0  0  0  0  0  0  0  0  0  0  0  0
  8  9  2  0
  9  1  1  0
  9 10  1  0
  1  2  2  0
  1  6  1  0
  2  3  1  0
  3 16  1  0
  3  4  2  0
 16 17  1  0
 17 18  2  0
 17 23  1  0
 18 19  1  0
 19 20  1  0
 20 21  2  0
 20 22  1  0
 22 23  2  0
 22 27  1  0
 23 24  1  0
 24 25  1  0
 25 26  1  0
 26 27  2  0
  4  5  1  0
  5  6  2  0
  6  7  1  0
 10 11  1  0
 10 15  1  0
 11 12  1  0
 12 13  1  0
 13 14  1  0
 14 15  1  0
M  END
>  <minimizedAffinity>  (529) 
-9.04308

$$$$
cs_full_output_folder/data/smiles/2739.pdb
     RDKit          3D

 29 32  0  0  0  0  0  0  0  0999 V2000
   71.5438   47.1278   58.9240 C   0  0  0  0  0  0  0  0  0  0  0  0
   70.6242   47.7946   58.1046 C   0  0  0  0  0  0  0  0  0  0  0  0
   69.7850   47.1613   57.2291 C   0  0  0  0  0  0  0  0  0  0  0  0
   69.8528   45.7825   57.1522 C   0  0  0  0  0  0  0  0  0  0  0  0
   70.7459   45.0930   57.9433 C   0  0  0  0  0  0  0  0  0  0  0  0
   71.5858   45.7574   58.8228 C   0  0  0  0  0  0  0  0  0  0  0  0
   72.4586   45.0471   59.5950 F   0  0  0  0  0  0  0  0  0  0  0  0
   75.6396   47.6694   61.3674 N   0  0  0  0  0  0  0  0  0  0  0  0
   75.7221   48.6576   60.2773 C   0  0  2  0  0  0  0  0  0  0  0  0
   74.3916   49.3626   60.2678 C   0  0  0  0  0  0  0  0  0  0  0  0
   73.5254   48.6164   59.3834 N   0  0  0  0  0  0  0  0  0  0  0  0
   72.4064   47.8753   59.8293 C   0  0  0  0  0  0  0  0  0  0  0  0
   72.1191   47.8407   61.0498 O   0  0  0  0  0  0  0  0  0  0  0  0
   73.8995   48.6906   57.9876 C   0  0  0  0  0  0  0  0  0  0  0  0
   75.3328   48.3305   57.7957 C   0  0  0  0  0  0  0  0  0  0  0  0
   76.1061   48.0156   59.0083 C   0  0  1  0  0  0  0  0  0  0  0  0
   77.4545   48.3041   58.7642 F   0  0  0  0  0  0  0  0  0  0  0  0
   68.8403   47.9502   56.4186 C   0  0  0  0  0  0  0  0  0  0  0  0
   69.2056   48.1646   55.0226 C   0  0  0  0  0  0  0  0  0  0  0  0
   70.0697   49.1583   54.7062 N   0  0  0  0  0  0  0  0  0  0  0  0
   70.4819   49.4015   53.4743 N   0  0  0  0  0  0  0  0  0  0  0  0
   70.0738   48.6719   52.4014 C   0  0  0  0  0  0  0  0  0  0  0  0
   70.4852   48.9279   51.2410 O   0  0  0  0  0  0  0  0  0  0  0  0
   69.1908   47.6485   52.6771 C   0  0  0  0  0  0  0  0  0  0  0  0
   68.7375   46.8854   51.6206 C   0  0  0  0  0  0  0  0  0  0  0  0
   67.8452   45.8549   51.8138 C   0  0  0  0  0  0  0  0  0  0  0  0
   67.4179   45.6070   53.1023 C   0  0  0  0  0  0  0  0  0  0  0  0
   67.8698   46.3668   54.1572 C   0  0  0  0  0  0  0  0  0  0  0  0
   68.7641   47.4021   53.9771 C   0  0  0  0  0  0  0  0  0  0  0  0
  9  8  1  1
  9 10  1  0
  9 16  1  0
 10 11  1  0
 11 12  1  0
 11 14  1  0
 12 13  2  0
 12  1  1  0
  1  2  2  0
  1  6  1  0
  2  3  1  0
  3 18  1  0
  3  4  2  0
 18 19  1  0
 19 20  2  0
 19 29  1  0
 20 21  1  0
 21 22  1  0
 22 23  2  0
 22 24  1  0
 24 25  1  0
 24 29  2  0
 25 26  2  0
 26 27  1  0
 27 28  2  0
 28 29  1  0
  4  5  1  0
  5  6  2  0
  6  7  1  0
 14 15  1  0
 15 16  1  0
 16 17  1  6
M  CHG  1   8   1
M  END
>  <minimizedAffinity>  (530) 
-9.03987

$$$$
cs_full_output_folder/data/smiles/3154.pdb
     RDKit          3D

 29 32  0  0  0  0  0  0  0  0999 V2000
   71.2861   47.0140   58.8517 C   0  0  0  0  0  0  0  0  0  0  0  0
   70.4858   47.8013   58.0680 C   0  0  0  0  0  0  0  0  0  0  0  0
   69.6668   47.2643   57.0774 C   0  0  0  0  0  0  0  0  0  0  0  0
   69.6967   45.9103   56.9205 C   0  0  0  0  0  0  0  0  0  0  0  0
   70.5098   45.1190   57.7175 C   0  0  0  0  0  0  0  0  0  0  0  0
   71.3191   45.6403   58.6944 C   0  0  0  0  0  0  0  0  0  0  0  0
   72.1055   44.8595   59.4626 F   0  0  0  0  0  0  0  0  0  0  0  0
   71.8007   47.3077   61.0866 O   0  0  0  0  0  0  0  0  0  0  0  0
   72.1562   47.5556   59.9009 C   0  0  0  0  0  0  0  0  0  0  0  0
   73.3013   48.2946   59.5671 N   0  0  0  0  0  0  0  0  0  0  0  0
   74.2548   48.8912   60.4618 C   0  0  0  0  0  0  0  0  0  0  0  0
   74.3550   50.3049   59.8725 C   0  0  0  0  0  0  0  0  0  0  0  0
   74.1611   50.0735   58.4165 C   0  0  1  0  0  0  0  0  0  0  0  0
   73.7517   48.6054   58.2386 C   0  0  0  0  0  0  0  0  0  0  0  0
   73.1024   50.9396   57.7879 C   0  0  0  0  0  0  0  0  0  0  0  0
   73.3415   51.2275   56.3466 C   0  0  0  0  0  0  0  0  0  0  0  0
   72.7381   50.3450   55.4821 F   0  0  0  0  0  0  0  0  0  0  0  0
   68.8055   48.1766   56.2863 C   0  0  0  0  0  0  0  0  0  0  0  0
   69.2171   48.3306   54.8867 C   0  0  0  0  0  0  0  0  0  0  0  0
   70.1288   49.3016   54.5364 N   0  0  0  0  0  0  0  0  0  0  0  0
   70.5617   49.4510   53.3023 N   0  0  0  0  0  0  0  0  0  0  0  0
   70.1549   48.6768   52.2860 C   0  0  0  0  0  0  0  0  0  0  0  0
   70.5566   48.8035   51.1005 O   0  0  0  0  0  0  0  0  0  0  0  0
   69.2301   47.6683   52.5515 C   0  0  0  0  0  0  0  0  0  0  0  0
   68.7808   46.8576   51.5121 C   0  0  0  0  0  0  0  0  0  0  0  0
   67.8602   45.8712   51.7622 C   0  0  0  0  0  0  0  0  0  0  0  0
   67.4205   45.7342   53.0566 C   0  0  0  0  0  0  0  0  0  0  0  0
   67.8594   46.5310   54.0880 C   0  0  0  0  0  0  0  0  0  0  0  0
   68.7927   47.5319   53.8526 C   0  0  0  0  0  0  0  0  0  0  0  0
  8  9  2  0
  9  1  1  0
  9 10  1  0
  1  2  2  0
  1  6  1  0
  2  3  1  0
  3 18  1  0
  3  4  2  0
 18 19  1  0
 19 20  2  0
 19 29  1  0
 20 21  1  0
 21 22  1  0
 22 23  2  0
 22 24  1  0
 24 25  1  0
 24 29  2  0
 25 26  2  0
 26 27  1  0
 27 28  2  0
 28 29  1  0
  4  5  1  0
  5  6  2  0
  6  7  1  0
 10 11  1  0
 10 14  1  0
 11 12  1  0
 12 13  1  0
 13 15  1  1
 13 14  1  0
 15 16  1  0
 16 17  1  0
M  END
>  <minimizedAffinity>  (531) 
-9.03882

$$$$
cs_full_output_folder/data/smiles/3742.pdb
     RDKit          3D

 29 33  0  0  0  0  0  0  0  0999 V2000
   71.3238   46.5974   58.8127 C   0  0  0  0  0  0  0  0  0  0  0  0
   70.4573   47.4244   58.0941 C   0  0  0  0  0  0  0  0  0  0  0  0
   69.5860   46.9893   57.1392 C   0  0  0  0  0  0  0  0  0  0  0  0
   69.6096   45.5988   56.9061 C   0  0  0  0  0  0  0  0  0  0  0  0
   70.4507   44.7562   57.5954 C   0  0  0  0  0  0  0  0  0  0  0  0
   71.3116   45.2524   58.5529 C   0  0  0  0  0  0  0  0  0  0  0  0
   72.1596   44.4593   59.2586 F   0  0  0  0  0  0  0  0  0  0  0  0
   71.7786   47.3062   60.9931 O   0  0  0  0  0  0  0  0  0  0  0  0
   72.2004   47.2003   59.8221 C   0  0  0  0  0  0  0  0  0  0  0  0
   73.5048   47.6545   59.4688 N   0  0  0  0  0  0  0  0  0  0  0  0
   74.5258   48.2675   60.2883 C   0  0  0  0  0  0  0  0  0  0  0  0
   75.4786   48.9593   59.3528 C   0  0  2  0  0  0  0  0  0  0  0  0
   75.5632   50.4487   59.6092 C   0  0  0  0  0  0  0  0  0  0  0  0
   74.2021   50.8979   59.1347 C   0  0  0  0  0  0  0  0  0  0  0  0
   73.7151   49.9767   58.2373 O   0  0  0  0  0  0  0  0  0  0  0  0
   74.6651   48.9933   58.0471 C   0  0  2  0  0  0  0  0  0  0  0  0
   74.0663   47.5815   58.1321 C   0  0  0  0  0  0  0  0  0  0  0  0
   68.6458   47.8376   56.3510 C   0  0  0  0  0  0  0  0  0  0  0  0
   69.0533   48.0551   54.9599 C   0  0  0  0  0  0  0  0  0  0  0  0
   69.9688   49.0481   54.7117 N   0  0  0  0  0  0  0  0  0  0  0  0
   70.4458   49.2859   53.5037 N   0  0  0  0  0  0  0  0  0  0  0  0
   70.0929   48.5933   52.4063 C   0  0  0  0  0  0  0  0  0  0  0  0
   70.5749   48.8534   51.2773 O   0  0  0  0  0  0  0  0  0  0  0  0
   69.1711   47.5808   52.5984 C   0  0  0  0  0  0  0  0  0  0  0  0
   68.7618   46.8594   51.5080 C   0  0  0  0  0  0  0  0  0  0  0  0
   67.8210   45.8493   51.6475 C   0  0  0  0  0  0  0  0  0  0  0  0
   67.3311   45.6192   52.9256 C   0  0  0  0  0  0  0  0  0  0  0  0
   67.7568   46.3562   54.0103 C   0  0  0  0  0  0  0  0  0  0  0  0
   68.6774   47.3397   53.8667 C   0  0  0  0  0  0  0  0  0  0  0  0
  8  9  2  0
  9  1  1  0
  9 10  1  0
  1  2  2  0
  1  6  1  0
  2  3  1  0
  3 18  1  0
  3  4  2  0
 18 19  1  0
 19 20  2  0
 19 29  1  0
 20 21  1  0
 21 22  1  0
 22 23  2  0
 22 24  1  0
 24 25  1  0
 24 29  2  0
 25 26  2  0
 26 27  1  0
 27 28  2  0
 28 29  1  0
  4  5  1  0
  5  6  2  0
  6  7  1  0
 10 11  1  0
 10 17  1  0
 12 11  1  1
 12 13  1  0
 12 16  1  0
 13 14  1  0
 14 15  1  0
 15 16  1  0
 16 17  1  1
M  END
>  <minimizedAffinity>  (532) 
-9.03666

$$$$
cs_full_output_folder/data/smiles/1504.pdb
     RDKit          3D

 28 31  0  0  0  0  0  0  0  0999 V2000
   71.3314   46.8872   58.8495 C   0  0  0  0  0  0  0  0  0  0  0  0
   70.4274   47.6786   58.1312 C   0  0  0  0  0  0  0  0  0  0  0  0
   69.5998   47.1503   57.1823 C   0  0  0  0  0  0  0  0  0  0  0  0
   69.7019   45.7697   56.9645 C   0  0  0  0  0  0  0  0  0  0  0  0
   70.5761   44.9767   57.6531 C   0  0  0  0  0  0  0  0  0  0  0  0
   71.3939   45.5361   58.5981 C   0  0  0  0  0  0  0  0  0  0  0  0
   72.2688   44.7649   59.2911 F   0  0  0  0  0  0  0  0  0  0  0  0
   71.7849   47.3297   61.0616 O   0  0  0  0  0  0  0  0  0  0  0  0
   72.2057   47.4415   59.8651 C   0  0  0  0  0  0  0  0  0  0  0  0
   73.4462   48.0659   59.5756 N   0  0  0  0  0  0  0  0  0  0  0  0
   73.7818   48.1204   58.1794 C   0  0  0  0  0  0  0  0  0  0  0  0
   73.4314   49.4107   57.5156 C   0  0  0  0  0  0  0  0  0  0  0  0
   73.9501   50.6402   58.1831 C   0  0  0  0  0  0  0  0  0  0  0  0
   73.7492   50.6430   59.6184 N   0  0  0  0  0  0  0  0  0  0  0  0
   74.7691   49.9191   60.3171 C   0  0  0  0  0  0  0  0  0  0  0  0
   74.2322   48.5589   60.6849 C   0  0  0  0  0  0  0  0  0  0  0  0
   68.6303   47.8738   56.3602 C   0  0  0  0  0  0  0  0  0  0  0  0
   69.1223   48.0008   54.9914 C   0  0  0  0  0  0  0  0  0  0  0  0
   70.0865   48.9501   54.7873 N   0  0  0  0  0  0  0  0  0  0  0  0
   70.6029   49.2124   53.6016 N   0  0  0  0  0  0  0  0  0  0  0  0
   70.2334   48.5738   52.4899 C   0  0  0  0  0  0  0  0  0  0  0  0
   70.7050   48.8013   51.3530 O   0  0  0  0  0  0  0  0  0  0  0  0
   69.2642   47.6017   52.6269 C   0  0  0  0  0  0  0  0  0  0  0  0
   68.8340   46.8910   51.5355 C   0  0  0  0  0  0  0  0  0  0  0  0
   67.8649   45.9080   51.6864 C   0  0  0  0  0  0  0  0  0  0  0  0
   67.3302   45.6386   52.9336 C   0  0  0  0  0  0  0  0  0  0  0  0
   67.7533   46.3452   54.0357 C   0  0  0  0  0  0  0  0  0  0  0  0
   68.7132   47.3202   53.8828 C   0  0  0  0  0  0  0  0  0  0  0  0
  8  9  2  0
  9  1  1  0
  9 10  1  0
  1  2  2  0
  1  6  1  0
  2  3  1  0
  3 17  1  0
  3  4  2  0
 17 18  1  0
 18 19  2  0
 18 28  1  0
 19 20  1  0
 20 21  1  0
 21 22  2  0
 21 23  1  0
 23 24  1  0
 23 28  2  0
 24 25  2  0
 25 26  1  0
 26 27  2  0
 27 28  1  0
  4  5  1  0
  5  6  2  0
  6  7  1  0
 10 11  1  0
 10 16  1  0
 11 12  1  0
 12 13  1  0
 13 14  1  0
 14 15  1  0
 15 16  1  0
M  CHG  1  14   1
M  END
>  <minimizedAffinity>  (533) 
-9.03638

$$$$
cs_full_output_folder/data/smiles/2721.pdb
     RDKit          3D

 28 31  0  0  0  0  0  0  0  0999 V2000
   71.6008   47.0943   58.8873 C   0  0  0  0  0  0  0  0  0  0  0  0
   70.7538   47.8517   58.0805 C   0  0  0  0  0  0  0  0  0  0  0  0
   69.8529   47.3254   57.1953 C   0  0  0  0  0  0  0  0  0  0  0  0
   69.7820   45.9453   57.0994 C   0  0  0  0  0  0  0  0  0  0  0  0
   70.5990   45.1621   57.8773 C   0  0  0  0  0  0  0  0  0  0  0  0
   71.5045   45.7253   58.7671 C   0  0  0  0  0  0  0  0  0  0  0  0
   72.2973   44.9110   59.5210 F   0  0  0  0  0  0  0  0  0  0  0  0
   76.6661   47.1306   60.5324 C   0  0  0  0  0  0  0  0  0  0  0  0
   76.1947   48.4992   60.1048 C   0  0  1  0  0  0  0  0  0  0  0  0
   76.5574   48.8279   58.6932 C   0  0  0  0  0  0  0  0  0  0  0  0
   75.3456   48.9932   57.8032 C   0  0  0  0  0  0  0  0  0  0  0  0
   74.3545   47.8869   58.0870 C   0  0  0  0  0  0  0  0  0  0  0  0
   73.8544   48.1040   59.4291 N   0  0  0  0  0  0  0  0  0  0  0  0
   72.5380   47.7241   59.8071 C   0  0  0  0  0  0  0  0  0  0  0  0
   72.1446   47.9292   60.9746 O   0  0  0  0  0  0  0  0  0  0  0  0
   74.7299   48.7221   60.3883 C   0  0  0  0  0  0  0  0  0  0  0  0
   68.9555   48.1558   56.3595 C   0  0  0  0  0  0  0  0  0  0  0  0
   69.3370   48.2592   54.9449 C   0  0  0  0  0  0  0  0  0  0  0  0
   70.2937   49.1762   54.5734 N   0  0  0  0  0  0  0  0  0  0  0  0
   70.7193   49.3019   53.3364 N   0  0  0  0  0  0  0  0  0  0  0  0
   70.2593   48.5505   52.3281 C   0  0  0  0  0  0  0  0  0  0  0  0
   70.6982   48.7006   51.1333 O   0  0  0  0  0  0  0  0  0  0  0  0
   69.2975   47.6085   52.6103 C   0  0  0  0  0  0  0  0  0  0  0  0
   68.7931   46.8272   51.5911 C   0  0  0  0  0  0  0  0  0  0  0  0
   67.8190   45.8905   51.8681 C   0  0  0  0  0  0  0  0  0  0  0  0
   67.3876   45.7809   53.1791 C   0  0  0  0  0  0  0  0  0  0  0  0
   67.8818   46.5531   54.2083 C   0  0  0  0  0  0  0  0  0  0  0  0
   68.8485   47.4795   53.9297 C   0  0  0  0  0  0  0  0  0  0  0  0
  9  8  1  6
  9 10  1  0
  9 16  1  0
 10 11  1  0
 11 12  1  0
 12 13  1  0
 13 14  1  0
 13 16  1  0
 14 15  2  0
 14  1  1  0
  1  2  2  0
  1  6  1  0
  2  3  1  0
  3 17  1  0
  3  4  2  0
 17 18  1  0
 18 19  2  0
 18 28  1  0
 19 20  1  0
 20 21  1  0
 21 22  2  0
 21 23  1  0
 23 24  1  0
 23 28  2  0
 24 25  2  0
 25 26  1  0
 26 27  2  0
 27 28  1  0
  4  5  1  0
  5  6  2  0
  6  7  1  0
M  END
>  <minimizedAffinity>  (534) 
-9.03456

$$$$
cs_full_output_folder/data/smiles/3135.pdb
     RDKit          3D

 28 31  0  0  0  0  0  0  0  0999 V2000
   71.6726   47.1099   58.9874 C   0  0  0  0  0  0  0  0  0  0  0  0
   70.9694   47.9754   58.2000 C   0  0  0  0  0  0  0  0  0  0  0  0
   70.0543   47.5182   57.2497 C   0  0  0  0  0  0  0  0  0  0  0  0
   69.8870   46.1707   57.1340 C   0  0  0  0  0  0  0  0  0  0  0  0
   70.5857   45.2507   57.9189 C   0  0  0  0  0  0  0  0  0  0  0  0
   71.4745   45.7316   58.8408 C   0  0  0  0  0  0  0  0  0  0  0  0
   72.1720   44.8732   59.6219 F   0  0  0  0  0  0  0  0  0  0  0  0
   77.1300   49.9908   58.1380 C   0  0  0  0  0  0  0  0  0  0  0  0
   76.0453   49.1489   58.7364 C   0  0  0  0  0  0  0  0  0  0  0  0
   76.0464   48.9073   60.0412 C   0  0  0  0  0  0  0  0  0  0  0  0
   74.9922   48.0731   60.7116 C   0  0  0  0  0  0  0  0  0  0  0  0
   74.0214   47.6410   59.7362 N   0  0  0  0  0  0  0  0  0  0  0  0
   72.6363   47.5507   59.9909 C   0  0  0  0  0  0  0  0  0  0  0  0
   72.2147   47.8626   61.1286 O   0  0  0  0  0  0  0  0  0  0  0  0
   74.5538   47.2844   58.4121 C   0  0  0  0  0  0  0  0  0  0  0  0
   74.9957   48.6138   57.8075 C   0  0  0  0  0  0  0  0  0  0  0  0
   69.3243   48.5039   56.4034 C   0  0  0  0  0  0  0  0  0  0  0  0
   69.6517   48.4552   54.9858 C   0  0  0  0  0  0  0  0  0  0  0  0
   70.6984   49.1986   54.5089 N   0  0  0  0  0  0  0  0  0  0  0  0
   71.0167   49.2289   53.2281 N   0  0  0  0  0  0  0  0  0  0  0  0
   70.3380   48.5341   52.3015 C   0  0  0  0  0  0  0  0  0  0  0  0
   70.6577   48.5751   51.0716 O   0  0  0  0  0  0  0  0  0  0  0  0
   69.2739   47.7639   52.7043 C   0  0  0  0  0  0  0  0  0  0  0  0
   68.9503   47.7414   54.0562 C   0  0  0  0  0  0  0  0  0  0  0  0
   67.8366   46.8977   54.4886 C   0  0  0  0  0  0  0  0  0  0  0  0
   67.7709   45.6600   53.6929 C   0  0  0  0  0  0  0  0  0  0  0  0
   68.0620   45.6820   52.4082 C   0  0  0  0  0  0  0  0  0  0  0  0
   68.4677   46.9713   51.7301 C   0  0  0  0  0  0  0  0  0  0  0  0
  8  9  1  0
  9 10  2  0
  9 16  1  0
 10 11  1  0
 11 12  1  0
 12 13  1  0
 12 15  1  0
 13 14  2  0
 13  1  1  0
  1  2  2  0
  1  6  1  0
  2  3  1  0
  3 17  1  0
  3  4  2  0
 17 18  1  0
 18 19  2  0
 18 24  1  0
 19 20  1  0
 20 21  1  0
 21 22  2  0
 21 23  1  0
 23 24  2  0
 23 28  1  0
 24 25  1  0
 25 26  1  0
 26 27  2  0
 27 28  1  0
  4  5  1  0
  5  6  2  0
  6  7  1  0
 15 16  1  0
M  END
>  <minimizedAffinity>  (535) 
-9.03320

$$$$
cs_full_output_folder/data/smiles/8146.pdb
     RDKit          3D

 26 29  0  0  0  0  0  0  0  0999 V2000
   69.8691   47.0508   57.3503 C   0  0  0  0  0  0  0  0  0  0  0  0
   69.9640   45.6855   57.3548 C   0  0  0  0  0  0  0  0  0  0  0  0
   71.0617   45.0459   57.9457 C   0  0  0  0  0  0  0  0  0  0  0  0
   72.0551   45.7971   58.5295 C   0  0  0  0  0  0  0  0  0  0  0  0
   72.0030   47.1901   58.5509 C   0  0  0  0  0  0  0  0  0  0  0  0
   70.9082   47.7675   57.9590 C   0  0  0  0  0  0  0  0  0  0  0  0
   73.0420   47.9409   59.1613 N   0  0  0  0  0  0  0  0  0  0  0  0
   73.1380   48.1645   60.5568 C   0  0  0  0  0  0  0  0  0  0  0  0
   72.3120   47.5943   61.3127 O   0  0  0  0  0  0  0  0  0  0  0  0
   74.1736   49.0426   61.1597 C   0  0  0  0  0  0  0  0  0  0  0  0
   74.8110   49.9828   60.1849 C   0  0  0  0  0  0  0  0  0  0  0  0
   75.1281   49.3685   58.8557 C   0  0  0  0  0  0  0  0  0  0  0  0
   74.0422   48.5015   58.3417 C   0  0  0  0  0  0  0  0  0  0  0  0
   74.0413   48.2739   57.1050 O   0  0  0  0  0  0  0  0  0  0  0  0
   68.7319   47.8228   56.7265 C   0  0  0  0  0  0  0  0  0  0  0  0
   70.3628   48.9712   51.3104 N   0  0  0  0  0  0  0  0  0  0  0  0
   69.9958   48.7393   52.5178 C   0  0  0  0  0  0  0  0  0  0  0  0
   70.5181   49.7748   53.8077 S   0  0  0  0  0  0  0  0  0  0  0  0
   69.9129   49.2646   55.2754 N   0  0  0  0  0  0  0  0  0  0  0  0
   69.1062   48.1496   55.3610 C   0  0  0  0  0  0  0  0  0  0  0  0
   68.7877   47.4405   54.2227 C   0  0  0  0  0  0  0  0  0  0  0  0
   67.9465   46.3390   54.4057 C   0  0  0  0  0  0  0  0  0  0  0  0
   67.5228   45.5286   53.3567 C   0  0  0  0  0  0  0  0  0  0  0  0
   67.9255   45.7970   52.0942 C   0  0  0  0  0  0  0  0  0  0  0  0
   68.7509   46.8790   51.9011 C   0  0  0  0  0  0  0  0  0  0  0  0
   69.1919   47.7102   52.9416 C   0  0  0  0  0  0  0  0  0  0  0  0
 16 17  2  0
 17 18  1  0
 17 26  1  0
 18 19  1  0
 19 20  2  0
 20 15  1  0
 20 21  1  0
 15  1  1  0
  1  2  2  0
  1  6  1  0
  2  3  1  0
  3  4  2  0
  4  5  1  0
  5  7  1  0
  5  6  2  0
  7  8  1  0
  7 13  1  0
  8  9  2  0
  8 10  1  0
 10 11  1  0
 11 12  1  0
 12 13  1  0
 13 14  2  0
 21 22  1  0
 21 26  2  0
 22 23  2  0
 23 24  1  0
 24 25  2  0
 25 26  1  0
M  END
>  <minimizedAffinity>  (536) 
-9.03217

$$$$
cs_full_output_folder/data/smiles/7713.pdb
     RDKit          3D

 28 32  0  0  0  0  0  0  0  0999 V2000
   70.6496   48.9147   58.4295 C   0  0  0  0  0  0  0  0  0  0  0  0
   70.2623   48.0165   57.4508 C   0  0  0  0  0  0  0  0  0  0  0  0
   69.2146   48.2196   56.5931 C   0  0  0  0  0  0  0  0  0  0  0  0
   68.5126   49.4161   56.7421 C   0  0  0  0  0  0  0  0  0  0  0  0
   68.8509   50.3490   57.6999 C   0  0  0  0  0  0  0  0  0  0  0  0
   69.9184   50.0809   58.5303 C   0  0  0  0  0  0  0  0  0  0  0  0
   70.2531   51.0092   59.4800 F   0  0  0  0  0  0  0  0  0  0  0  0
   68.7783   47.3341   55.5370 C   0  0  0  0  0  0  0  0  0  0  0  0
   68.0537   46.2326   55.8197 N   0  0  0  0  0  0  0  0  0  0  0  0
   67.6232   45.3955   54.9171 N   0  0  0  0  0  0  0  0  0  0  0  0
   67.8858   45.5924   53.6235 C   0  0  0  0  0  0  0  0  0  0  0  0
   67.4758   44.7870   52.7232 O   0  0  0  0  0  0  0  0  0  0  0  0
   68.6216   46.6934   53.2161 C   0  0  0  0  0  0  0  0  0  0  0  0
   68.8865   46.9145   51.8808 C   0  0  0  0  0  0  0  0  0  0  0  0
   69.6082   48.0369   51.5407 C   0  0  0  0  0  0  0  0  0  0  0  0
   70.0595   48.9211   52.5023 C   0  0  0  0  0  0  0  0  0  0  0  0
   69.7905   48.6914   53.8318 C   0  0  0  0  0  0  0  0  0  0  0  0
   69.0720   47.5775   54.2106 C   0  0  0  0  0  0  0  0  0  0  0  0
   71.5349   48.0763   60.4076 O   0  0  0  0  0  0  0  0  0  0  0  0
   71.7814   48.6307   59.3116 C   0  0  0  0  0  0  0  0  0  0  0  0
   73.1097   48.9633   58.9559 N   0  0  0  0  0  0  0  0  0  0  0  0
   73.5857   49.5990   57.7485 C   0  0  0  0  0  0  0  0  0  0  0  0
   74.8050   48.7646   57.4328 C   0  0  1  0  0  0  0  0  0  0  0  0
   75.8234   49.5273   56.6246 C   0  0  0  0  0  0  0  0  0  0  0  0
   76.3955   50.4709   57.5569 N   0  0  0  0  0  0  0  0  0  0  0  0
   76.2788   49.9149   58.8659 C   0  0  0  0  0  0  0  0  0  0  0  0
   75.4564   48.6730   58.7971 C   0  0  1  0  0  0  0  0  0  0  0  0
   74.2829   48.7198   59.7629 C   0  0  0  0  0  0  0  0  0  0  0  0
 19 20  2  0
 20  1  1  0
 20 21  1  0
  1  2  2  0
  1  6  1  0
  2  3  1  0
  3  8  1  0
  3  4  2  0
  8  9  2  0
  8 18  1  0
  9 10  1  0
 10 11  1  0
 11 12  2  0
 11 13  1  0
 13 14  1  0
 13 18  2  0
 14 15  2  0
 15 16  1  0
 16 17  2  0
 17 18  1  0
  4  5  1  0
  5  6  2  0
  6  7  1  0
 21 22  1  0
 21 28  1  0
 23 22  1  1
 23 24  1  0
 23 27  1  0
 24 25  1  0
 25 26  1  0
 27 26  1  1
 27 28  1  0
M  CHG  1  25   1
M  END
>  <minimizedAffinity>  (537) 
-9.02917

$$$$
cs_full_output_folder/data/smiles/6754.pdb
     RDKit          3D

 27 29  0  0  0  0  0  0  0  0999 V2000
   70.4698   46.9328   57.9676 C   0  0  0  0  0  0  0  0  0  0  0  0
   71.3297   47.3740   58.9778 C   0  0  0  0  0  0  0  0  0  0  0  0
   71.8241   48.6618   58.9599 C   0  0  0  0  0  0  0  0  0  0  0  0
   71.4663   49.5162   57.9374 C   0  0  0  0  0  0  0  0  0  0  0  0
   70.6117   49.1066   56.9160 C   0  0  0  0  0  0  0  0  0  0  0  0
   70.1435   47.8182   56.9748 C   0  0  0  0  0  0  0  0  0  0  0  0
   69.7724   45.0018   59.1657 O   0  0  0  0  0  0  0  0  0  0  0  0
   69.9922   45.5603   58.0597 C   0  0  0  0  0  0  0  0  0  0  0  0
   69.7458   44.7715   56.9034 N   0  0  0  0  0  0  0  0  0  0  0  0
   69.2758   43.4224   57.0316 C   0  0  0  0  0  0  0  0  0  0  0  0
   69.9421   42.5990   57.9140 C   0  0  0  0  0  0  0  0  0  0  0  0
   69.5491   41.2689   58.0994 C   0  0  0  0  0  0  0  0  0  0  0  0
   68.4898   40.7637   57.4006 C   0  0  0  0  0  0  0  0  0  0  0  0
   67.8319   41.6141   56.5147 C   0  0  0  0  0  0  0  0  0  0  0  0
   66.7759   41.1406   55.8068 F   0  0  0  0  0  0  0  0  0  0  0  0
   68.2087   42.9118   56.3282 C   0  0  0  0  0  0  0  0  0  0  0  0
   67.5331   43.7346   55.4377 O   0  0  0  0  0  0  0  0  0  0  0  0
   70.3182   50.0559   55.9152 N   0  0  0  0  0  0  0  0  0  0  0  0
   70.3995   49.8650   54.2375 S   0  0  0  0  0  0  0  0  0  0  0  0
   69.8287   51.1016   53.5646 O   0  0  0  0  0  0  0  0  0  0  0  0
   71.8478   49.8023   53.8288 O   0  0  0  0  0  0  0  0  0  0  0  0
   69.5852   48.4668   53.6016 C   0  0  0  0  0  0  0  0  0  0  0  0
   68.6553   47.7461   54.2947 C   0  0  0  0  0  0  0  0  0  0  0  0
   68.0586   46.6634   53.6928 C   0  0  0  0  0  0  0  0  0  0  0  0
   68.3451   46.2493   52.4041 C   0  0  0  0  0  0  0  0  0  0  0  0
   69.2856   46.9941   51.7297 C   0  0  0  0  0  0  0  0  0  0  0  0
   69.8874   48.0733   52.3147 C   0  0  0  0  0  0  0  0  0  0  0  0
  7  8  2  0
  8  9  1  0
  8  1  1  0
  9 10  1  0
 10 11  2  0
 10 16  1  0
 11 12  1  0
 12 13  2  0
 13 14  1  0
 14 15  1  0
 14 16  2  0
 16 17  1  0
  1  2  2  0
  1  6  1  0
  2  3  1  0
  3  4  2  0
  4  5  1  0
  5 18  1  0
  5  6  2  0
 18 19  1  0
 19 20  2  0
 19 21  2  0
 19 22  1  0
 22 23  2  0
 22 27  1  0
 23 24  1  0
 24 25  2  0
 25 26  1  0
 26 27  2  0
M  END
>  <minimizedAffinity>  (538) 
-9.02729

$$$$
cs_full_output_folder/data/smiles/6873.pdb
     RDKit          3D

 26 29  0  0  0  0  0  0  0  0999 V2000
   69.6189   47.4256   57.4163 C   0  0  0  0  0  0  0  0  0  0  0  0
   70.3539   48.2898   58.1968 C   0  0  0  0  0  0  0  0  0  0  0  0
   71.3369   47.8868   59.0742 C   0  0  0  0  0  0  0  0  0  0  0  0
   71.6250   46.5446   59.2012 C   0  0  0  0  0  0  0  0  0  0  0  0
   72.6005   46.1114   60.0681 F   0  0  0  0  0  0  0  0  0  0  0  0
   70.9187   45.6338   58.4435 C   0  0  0  0  0  0  0  0  0  0  0  0
   69.9449   46.0718   57.5778 C   0  0  0  0  0  0  0  0  0  0  0  0
   71.2224   44.2333   58.5787 N   0  0  0  0  0  0  0  0  0  0  0  0
   70.3412   43.3467   59.2600 C   0  0  0  0  0  0  0  0  0  0  0  0
   69.4464   43.8531   59.9971 O   0  0  0  0  0  0  0  0  0  0  0  0
   70.4246   41.8618   59.1452 C   0  0  0  0  0  0  0  0  0  0  0  0
   71.3408   41.4304   58.0467 C   0  0  0  0  0  0  0  0  0  0  0  0
   72.6175   42.2063   57.9701 C   0  0  0  0  0  0  0  0  0  0  0  0
   72.4155   43.6711   58.0390 C   0  0  0  0  0  0  0  0  0  0  0  0
   73.3041   44.4547   57.6176 O   0  0  0  0  0  0  0  0  0  0  0  0
   68.5557   47.8310   56.4694 C   0  0  0  0  0  0  0  0  0  0  0  0
   70.3870   48.8344   51.0963 N   0  0  0  0  0  0  0  0  0  0  0  0
   70.0128   48.6683   52.3295 C   0  0  0  0  0  0  0  0  0  0  0  0
   70.5145   49.6933   53.5893 S   0  0  0  0  0  0  0  0  0  0  0  0
   69.8916   49.2579   55.0750 N   0  0  0  0  0  0  0  0  0  0  0  0
   69.0759   48.1607   55.1000 C   0  0  0  0  0  0  0  0  0  0  0  0
   68.7494   47.4189   54.0100 C   0  0  0  0  0  0  0  0  0  0  0  0
   69.1664   47.6283   52.7156 C   0  0  0  0  0  0  0  0  0  0  0  0
   68.5888   46.6229   51.8198 C   0  0  0  0  0  0  0  0  0  0  0  0
   67.8344   45.8033   52.5123 C   0  0  0  0  0  0  0  0  0  0  0  0
   67.8623   46.2091   53.9268 C   0  0  0  0  0  0  0  0  0  0  0  0
 17 18  2  0
 18 19  1  0
 18 23  1  0
 19 20  1  0
 20 21  2  0
 21 16  1  0
 21 22  1  0
 16  1  1  0
  1  2  2  0
  1  7  1  0
  2  3  1  0
  3  4  2  0
  4  5  1  0
  4  6  1  0
  6  8  1  0
  6  7  2  0
  8  9  1  0
  8 14  1  0
  9 10  2  0
  9 11  1  0
 11 12  1  0
 12 13  1  0
 13 14  1  0
 14 15  2  0
 22 23  2  0
 22 26  1  0
 23 24  1  0
 24 25  2  0
 25 26  1  0
M  END
>  <minimizedAffinity>  (539) 
-9.02577

$$$$
cs_full_output_folder/data/smiles/3385.pdb
     RDKit          3D

 25 26  0  0  0  0  0  0  0  0999 V2000
   70.1058   49.2774   52.6201 S   0  0  0  0  0  0  0  0  0  0  0  0
   70.2005   49.0207   51.1260 O   0  0  0  0  0  0  0  0  0  0  0  0
   71.5278   49.4188   53.1792 O   0  0  0  0  0  0  0  0  0  0  0  0
   69.3377   47.8742   53.2982 C   0  0  0  0  0  0  0  0  0  0  0  0
   68.6505   46.9808   52.4890 C   0  0  0  0  0  0  0  0  0  0  0  0
   68.5791   47.2068   51.1486 F   0  0  0  0  0  0  0  0  0  0  0  0
   68.0360   45.8640   53.0085 C   0  0  0  0  0  0  0  0  0  0  0  0
   67.3810   45.0266   52.1815 F   0  0  0  0  0  0  0  0  0  0  0  0
   68.0793   45.5940   54.3407 C   0  0  0  0  0  0  0  0  0  0  0  0
   67.4791   44.4934   54.8909 F   0  0  0  0  0  0  0  0  0  0  0  0
   68.7556   46.4638   55.1755 C   0  0  0  0  0  0  0  0  0  0  0  0
   68.8081   46.2083   56.5109 F   0  0  0  0  0  0  0  0  0  0  0  0
   69.3742   47.5902   54.6462 C   0  0  0  0  0  0  0  0  0  0  0  0
   70.0289   48.4242   55.4907 F   0  0  0  0  0  0  0  0  0  0  0  0
   69.2502   50.6957   52.9636 N   0  0  0  0  0  0  0  0  0  0  0  0
   68.0776   51.5864   56.3580 C   0  0  0  0  0  0  0  0  0  0  0  0
   68.9598   52.5928   56.6841 C   0  0  0  0  0  0  0  0  0  0  0  0
   69.9432   53.0068   55.8088 C   0  0  0  0  0  0  0  0  0  0  0  0
   70.0313   52.3782   54.5674 C   0  0  0  0  0  0  0  0  0  0  0  0
   69.1778   51.3684   54.1886 C   0  0  0  0  0  0  0  0  0  0  0  0
   68.2105   51.0062   55.1274 C   0  0  0  0  0  0  0  0  0  0  0  0
   66.1228   49.5146   58.8618 N   0  0  0  0  0  0  0  0  0  0  0  0
   67.0859   49.9380   57.9210 C   0  0  0  0  0  0  0  0  0  0  0  0
   68.0332   49.1469   57.5881 O   0  0  0  0  0  0  0  0  0  0  0  0
   67.0948   51.2062   57.2915 N   0  0  0  0  0  0  0  0  0  0  0  0
 22 23  1  0
 23 24  2  0
 23 25  1  0
 25 16  1  0
 16 17  2  0
 16 21  1  0
 17 18  1  0
 18 19  2  0
 19 20  1  0
 20 15  1  0
 20 21  2  0
 15  1  1  0
  1  2  2  0
  1  3  2  0
  1  4  1  0
  4  5  2  0
  4 13  1  0
  5  6  1  0
  5  7  1  0
  7  8  1  0
  7  9  2  0
  9 10  1  0
  9 11  1  0
 11 12  1  0
 11 13  2  0
 13 14  1  0
M  END
>  <minimizedAffinity>  (540) 
-9.02366

$$$$
cs_full_output_folder/data/smiles/4918.pdb
     RDKit          3D

 26 29  0  0  0  0  0  0  0  0999 V2000
   70.8924   50.6492   54.3860 C   0  0  0  0  0  0  0  0  0  0  0  0
   70.2147   51.8019   54.6946 C   0  0  0  0  0  0  0  0  0  0  0  0
   70.7988   52.7971   55.4914 C   0  0  0  0  0  0  0  0  0  0  0  0
   72.0750   52.6300   55.9829 C   0  0  0  0  0  0  0  0  0  0  0  0
   72.7778   51.4698   55.6812 C   0  0  0  0  0  0  0  0  0  0  0  0
   72.1750   50.5104   54.8952 C   0  0  0  0  0  0  0  0  0  0  0  0
   68.8801   46.7035   51.1739 O   0  0  0  0  0  0  0  0  0  0  0  0
   69.3102   47.5890   51.9583 C   0  0  0  0  0  0  0  0  0  0  0  0
   70.1858   48.5268   51.4839 N   0  0  0  0  0  0  0  0  0  0  0  0
   70.6538   49.4617   52.2677 N   0  0  0  0  0  0  0  0  0  0  0  0
   70.3220   49.5746   53.5664 C   0  0  0  0  0  0  0  0  0  0  0  0
   69.4308   48.6278   54.0701 C   0  0  0  0  0  0  0  0  0  0  0  0
   68.9230   47.6339   53.2694 C   0  0  0  0  0  0  0  0  0  0  0  0
   67.9870   46.6583   53.8510 C   0  0  0  0  0  0  0  0  0  0  0  0
   68.6827   46.1986   55.1425 C   0  0  0  0  0  0  0  0  0  0  0  0
   68.7609   47.3350   56.1006 C   0  0  0  0  0  0  0  0  0  0  0  0
   69.0336   48.6746   55.4809 C   0  0  0  0  0  0  0  0  0  0  0  0
   74.0877   51.3498   56.2129 N   0  0  0  0  0  0  0  0  0  0  0  0
   75.0998   50.0661   55.6969 S   0  0  0  0  0  0  0  0  0  0  0  0
   74.6130   48.7920   56.3330 O   0  0  0  0  0  0  0  0  0  0  0  0
   74.9188   49.8572   54.2010 O   0  0  0  0  0  0  0  0  0  0  0  0
   76.7728   50.3583   56.0101 C   0  0  0  0  0  0  0  0  0  0  0  0
   77.6852   49.4469   56.3052 C   0  0  0  0  0  0  0  0  0  0  0  0
   78.8650   49.9864   56.4825 C   0  0  0  0  0  0  0  0  0  0  0  0
   78.8272   51.2797   56.3198 C   0  0  0  0  0  0  0  0  0  0  0  0
   77.5013   51.5574   56.0232 O   0  0  0  0  0  0  0  0  0  0  0  0
  7  8  2  0
  8  9  1  0
  8 13  1  0
  9 10  1  0
 10 11  2  0
 11  1  1  0
 11 12  1  0
  1  2  2  0
  1  6  1  0
  2  3  1  0
  3  4  2  0
  4  5  1  0
  5 18  1  0
  5  6  2  0
 18 19  1  0
 19 20  2  0
 19 21  2  0
 19 22  1  0
 22 23  2  0
 22 26  1  0
 23 24  2  0
 24 25  2  0
 25 26  1  0
 12 13  2  0
 12 17  1  0
 13 14  1  0
 14 15  1  0
 15 16  1  0
 16 17  1  0
M  END
>  <minimizedAffinity>  (541) 
-9.02320

$$$$
cs_full_output_folder/data/smiles/6819.pdb
     RDKit          3D

 28 31  0  0  0  0  0  0  0  0999 V2000
   68.6567   46.3232   54.4830 C   0  0  0  0  0  0  0  0  0  0  0  0
   69.2276   47.5078   54.0007 C   0  0  0  0  0  0  0  0  0  0  0  0
   69.1565   47.9170   52.6951 C   0  0  0  0  0  0  0  0  0  0  0  0
   68.4650   47.0843   51.8056 C   0  0  0  0  0  0  0  0  0  0  0  0
   67.8883   45.9159   52.2295 C   0  0  0  0  0  0  0  0  0  0  0  0
   67.9914   45.5457   53.5689 C   0  0  0  0  0  0  0  0  0  0  0  0
   67.4077   44.3803   53.9413 F   0  0  0  0  0  0  0  0  0  0  0  0
   68.7762   45.9538   55.8893 C   0  0  0  0  0  0  0  0  0  0  0  0
   68.2108   44.9291   56.3264 O   0  0  0  0  0  0  0  0  0  0  0  0
   69.5682   46.7975   56.7898 C   0  0  0  0  0  0  0  0  0  0  0  0
   70.8739   49.4246   57.9422 C   0  0  0  0  0  0  0  0  0  0  0  0
   69.4205   49.1967   57.6855 C   0  0  0  0  0  0  0  0  0  0  0  0
   68.4030   50.0519   57.8931 N   0  0  0  0  0  0  0  0  0  0  0  0
   67.2703   49.4803   57.5444 O   0  0  0  0  0  0  0  0  0  0  0  0
   67.5044   48.2750   57.1117 C   0  0  0  0  0  0  0  0  0  0  0  0
   68.8556   48.0443   57.1810 C   0  0  0  0  0  0  0  0  0  0  0  0
   69.7731   49.1626   52.1871 C   0  0  0  0  0  0  0  0  0  0  0  0
   70.5386   49.9428   53.1473 C   0  0  0  0  0  0  0  0  0  0  0  0
   71.8836   49.7068   53.2302 N   0  0  0  0  0  0  0  0  0  0  0  0
   72.6976   50.2978   54.0675 N   0  0  0  0  0  0  0  0  0  0  0  0
   72.2411   51.2101   54.9349 C   0  0  0  0  0  0  0  0  0  0  0  0
   73.0186   51.7740   55.7357 O   0  0  0  0  0  0  0  0  0  0  0  0
   70.8979   51.5027   54.9127 C   0  0  0  0  0  0  0  0  0  0  0  0
   70.3701   52.4474   55.7758 C   0  0  0  0  0  0  0  0  0  0  0  0
   69.0256   52.7521   55.7455 C   0  0  0  0  0  0  0  0  0  0  0  0
   68.1801   52.1096   54.8404 C   0  0  0  0  0  0  0  0  0  0  0  0
   68.6878   51.1664   53.9729 C   0  0  0  0  0  0  0  0  0  0  0  0
   70.0284   50.8701   54.0145 C   0  0  0  0  0  0  0  0  0  0  0  0
 11 12  1  0
 12 13  2  0
 12 16  1  0
 13 14  1  0
 14 15  1  0
 15 16  2  0
 16 10  1  0
 10  8  1  0
  8  9  2  0
  8  1  1  0
  1  2  2  0
  1  6  1  0
  2  3  1  0
  3 17  1  0
  3  4  2  0
 17 18  1  0
 18 19  2  0
 18 28  1  0
 19 20  1  0
 20 21  1  0
 21 22  2  0
 21 23  1  0
 23 24  1  0
 23 28  2  0
 24 25  2  0
 25 26  1  0
 26 27  2  0
 27 28  1  0
  4  5  1  0
  5  6  2  0
  6  7  1  0
M  END
>  <minimizedAffinity>  (542) 
-9.02182

$$$$
cs_full_output_folder/data/smiles/510.pdb
     RDKit          3D

 27 30  0  0  0  0  0  0  0  0999 V2000
   69.8813   47.7192   57.6612 C   0  0  0  0  0  0  0  0  0  0  0  0
   70.7595   48.5004   58.3525 C   0  0  0  0  0  0  0  0  0  0  0  0
   71.8251   47.8813   59.0316 C   0  0  0  0  0  0  0  0  0  0  0  0
   71.9842   46.5133   59.0017 C   0  0  0  0  0  0  0  0  0  0  0  0
   71.1010   45.6964   58.3027 C   0  0  0  0  0  0  0  0  0  0  0  0
   70.0815   46.3371   57.6588 C   0  0  0  0  0  0  0  0  0  0  0  0
   68.7433   48.3169   56.9277 C   0  0  0  0  0  0  0  0  0  0  0  0
   67.6898   45.5449   52.1047 N   0  0  0  0  0  0  0  0  0  0  0  0
   68.0102   46.2698   53.2609 C   0  0  0  0  0  0  0  0  0  0  0  0
   67.4469   45.9674   54.4580 N   0  0  0  0  0  0  0  0  0  0  0  0
   67.7097   46.6118   55.5792 N   0  0  0  0  0  0  0  0  0  0  0  0
   68.5901   47.6649   55.6411 C   0  0  0  0  0  0  0  0  0  0  0  0
   69.1787   48.0046   54.4777 C   0  0  0  0  0  0  0  0  0  0  0  0
   68.8948   47.3172   53.2938 C   0  0  0  0  0  0  0  0  0  0  0  0
   69.5961   47.7910   52.0806 C   0  0  0  0  0  0  0  0  0  0  0  0
   69.4466   49.2860   52.0118 C   0  0  0  0  0  0  0  0  0  0  0  0
   69.7556   50.0272   53.2578 C   0  0  0  0  0  0  0  0  0  0  0  0
   70.1717   49.0577   54.3692 C   0  0  0  0  0  0  0  0  0  0  0  0
   71.2640   44.2796   58.2632 N   0  0  0  0  0  0  0  0  0  0  0  0
   70.1131   43.1455   58.8193 S   0  0  0  0  0  0  0  0  0  0  0  0
   70.7555   41.9349   59.4382 O   0  0  0  0  0  0  0  0  0  0  0  0
   69.2955   43.7791   59.9145 O   0  0  0  0  0  0  0  0  0  0  0  0
   68.9855   42.6880   57.5667 C   0  0  0  0  0  0  0  0  0  0  0  0
   68.5654   41.4072   57.3282 C   0  0  0  0  0  0  0  0  0  0  0  0
   67.6875   41.4743   56.2661 C   0  0  0  0  0  0  0  0  0  0  0  0
   67.6142   42.8133   55.9040 C   0  0  0  0  0  0  0  0  0  0  0  0
   68.4076   43.4608   56.7180 O   0  0  0  0  0  0  0  0  0  0  0  0
  8  9  1  0
  9 10  2  0
  9 14  1  0
 10 11  1  0
 11 12  2  0
 12  7  1  0
 12 13  1  0
  7  1  1  0
  1  2  2  0
  1  6  1  0
  2  3  1  0
  3  4  2  0
  4  5  1  0
  5 19  1  0
  5  6  2  0
 19 20  1  0
 20 21  2  0
 20 22  2  0
 20 23  1  0
 23 24  2  0
 23 27  1  0
 24 25  1  0
 25 26  2  0
 26 27  1  0
 13 14  2  0
 13 18  1  0
 14 15  1  0
 15 16  1  0
 16 17  1  0
 17 18  1  0
M  END
>  <minimizedAffinity>  (543) 
-9.01965

$$$$
cs_full_output_folder/data/smiles/6208.pdb
     RDKit          3D

 27 30  0  0  0  0  0  0  0  0999 V2000
   72.0439   47.4594   58.4429 C   0  0  0  0  0  0  0  0  0  0  0  0
   71.0931   48.1850   57.7562 C   0  0  0  0  0  0  0  0  0  0  0  0
   70.0030   47.6403   57.1311 C   0  0  0  0  0  0  0  0  0  0  0  0
   69.9000   46.2416   57.2296 C   0  0  0  0  0  0  0  0  0  0  0  0
   70.8142   45.4661   57.8981 C   0  0  0  0  0  0  0  0  0  0  0  0
   71.8909   46.0946   58.5071 C   0  0  0  0  0  0  0  0  0  0  0  0
   72.7889   45.3311   59.1632 F   0  0  0  0  0  0  0  0  0  0  0  0
   74.2688   48.3894   57.0706 N   0  0  0  0  0  0  0  0  0  0  0  0
   74.2976   48.5277   58.3563 C   0  0  0  0  0  0  0  0  0  0  0  0
   75.3984   49.1215   59.0726 C   0  0  0  0  0  0  0  0  0  0  0  0
   75.4525   49.2721   60.3792 C   0  0  0  0  0  0  0  0  0  0  0  0
   74.3343   48.8206   61.2289 C   0  0  0  0  0  0  0  0  0  0  0  0
   73.2130   48.2165   60.4916 C   0  0  0  0  0  0  0  0  0  0  0  0
   72.2102   47.8043   61.1669 O   0  0  0  0  0  0  0  0  0  0  0  0
   73.1650   48.0574   59.0806 N   0  0  0  0  0  0  0  0  0  0  0  0
   68.9581   48.4056   56.3976 C   0  0  0  0  0  0  0  0  0  0  0  0
   69.2911   48.4448   54.9904 C   0  0  0  0  0  0  0  0  0  0  0  0
   70.1862   49.4041   54.6024 N   0  0  0  0  0  0  0  0  0  0  0  0
   70.5933   49.4987   53.3557 N   0  0  0  0  0  0  0  0  0  0  0  0
   70.1758   48.6806   52.3814 C   0  0  0  0  0  0  0  0  0  0  0  0
   70.5890   48.7954   51.1782 O   0  0  0  0  0  0  0  0  0  0  0  0
   69.2739   47.6906   52.6922 C   0  0  0  0  0  0  0  0  0  0  0  0
   68.8195   46.8404   51.6934 C   0  0  0  0  0  0  0  0  0  0  0  0
   67.9057   45.8754   52.0587 C   0  0  0  0  0  0  0  0  0  0  0  0
   67.4714   45.7709   53.3667 C   0  0  0  0  0  0  0  0  0  0  0  0
   67.9339   46.6239   54.3467 C   0  0  0  0  0  0  0  0  0  0  0  0
   68.8405   47.5900   54.0164 C   0  0  0  0  0  0  0  0  0  0  0  0
  8  9  2  0
  9 10  1  0
  9 15  1  0
 10 11  2  0
 11 12  1  0
 12 13  1  0
 13 14  2  0
 13 15  1  0
 15  1  1  0
  1  2  2  0
  1  6  1  0
  2  3  1  0
  3 16  1  0
  3  4  2  0
 16 17  1  0
 17 18  2  0
 17 27  1  0
 18 19  1  0
 19 20  1  0
 20 21  2  0
 20 22  1  0
 22 23  1  0
 22 27  2  0
 23 24  2  0
 24 25  1  0
 25 26  2  0
 26 27  1  0
  4  5  1  0
  5  6  2  0
  6  7  1  0
M  CHG  1   8   1
M  END
>  <minimizedAffinity>  (544) 
-9.01880

$$$$
cs_full_output_folder/data/smiles/7202.pdb
     RDKit          3D

 27 30  0  0  0  0  0  0  0  0999 V2000
   71.4129   47.0883   58.8459 C   0  0  0  0  0  0  0  0  0  0  0  0
   70.5448   47.8134   58.0815 C   0  0  0  0  0  0  0  0  0  0  0  0
   69.6858   47.2771   57.1366 C   0  0  0  0  0  0  0  0  0  0  0  0
   69.7257   45.9101   56.9707 C   0  0  0  0  0  0  0  0  0  0  0  0
   70.6007   45.1260   57.7323 C   0  0  0  0  0  0  0  0  0  0  0  0
   71.4408   45.7059   58.6652 C   0  0  0  0  0  0  0  0  0  0  0  0
   72.2885   44.9321   59.4032 F   0  0  0  0  0  0  0  0  0  0  0  0
   76.2870   50.0025   58.8624 C   0  0  0  0  0  0  0  0  0  0  0  0
   75.8888   48.6384   59.3833 C   0  0  2  0  0  0  0  0  0  0  0  0
   75.4867   47.7006   58.2605 C   0  0  0  0  0  0  0  0  0  0  0  0
   74.0649   48.2086   57.9866 C   0  0  0  0  0  0  0  0  0  0  0  0
   73.5516   48.1840   59.3566 N   0  0  0  0  0  0  0  0  0  0  0  0
   72.3128   47.6707   59.8362 C   0  0  0  0  0  0  0  0  0  0  0  0
   72.0627   47.7412   61.0488 O   0  0  0  0  0  0  0  0  0  0  0  0
   74.5962   48.8077   60.1450 C   0  0  0  0  0  0  0  0  0  0  0  0
   68.7725   48.1641   56.3585 C   0  0  0  0  0  0  0  0  0  0  0  0
   69.3070   48.3014   54.9584 C   0  0  0  0  0  0  0  0  0  0  0  0
   70.2641   49.1962   54.6547 N   0  0  0  0  0  0  0  0  0  0  0  0
   70.7518   49.3398   53.4238 N   0  0  0  0  0  0  0  0  0  0  0  0
   70.2969   48.5789   52.4099 C   0  0  0  0  0  0  0  0  0  0  0  0
   70.7454   48.6967   51.2321 O   0  0  0  0  0  0  0  0  0  0  0  0
   69.3150   47.6397   52.6478 C   0  0  0  0  0  0  0  0  0  0  0  0
   68.8450   46.8557   51.6200 C   0  0  0  0  0  0  0  0  0  0  0  0
   67.8633   45.9168   51.8695 C   0  0  0  0  0  0  0  0  0  0  0  0
   67.3730   45.7821   53.1428 C   0  0  0  0  0  0  0  0  0  0  0  0
   67.8482   46.5709   54.1708 C   0  0  0  0  0  0  0  0  0  0  0  0
   68.8265   47.5135   53.9462 C   0  0  0  0  0  0  0  0  0  0  0  0
  9  8  1  6
  9 10  1  0
  9 15  1  0
 10 11  1  0
 11 12  1  0
 12 13  1  0
 12 15  1  0
 13 14  2  0
 13  1  1  0
  1  2  2  0
  1  6  1  0
  2  3  1  0
  3 16  1  0
  3  4  2  0
 16 17  1  0
 17 18  2  0
 17 27  1  0
 18 19  1  0
 19 20  1  0
 20 21  2  0
 20 22  1  0
 22 23  1  0
 22 27  2  0
 23 24  2  0
 24 25  1  0
 25 26  2  0
 26 27  1  0
  4  5  1  0
  5  6  2  0
  6  7  1  0
M  END
>  <minimizedAffinity>  (545) 
-9.01808

$$$$
cs_full_output_folder/data/smiles/1212.pdb
     RDKit          3D

 27 31  0  0  0  0  0  0  0  0999 V2000
   71.6063   47.1267   58.7706 C   0  0  0  0  0  0  0  0  0  0  0  0
   71.5320   45.7512   58.7373 C   0  0  0  0  0  0  0  0  0  0  0  0
   70.6175   45.0999   57.9200 C   0  0  0  0  0  0  0  0  0  0  0  0
   69.7894   45.9087   57.1458 C   0  0  0  0  0  0  0  0  0  0  0  0
   69.8660   47.2820   57.1800 C   0  0  0  0  0  0  0  0  0  0  0  0
   70.7722   47.8847   57.9909 C   0  0  0  0  0  0  0  0  0  0  0  0
   72.1942   48.0985   60.8412 O   0  0  0  0  0  0  0  0  0  0  0  0
   72.5842   47.7903   59.6771 C   0  0  0  0  0  0  0  0  0  0  0  0
   73.8837   48.0373   59.1941 N   0  0  0  0  0  0  0  0  0  0  0  0
   74.9504   48.6657   59.9125 C   0  0  0  0  0  0  0  0  0  0  0  0
   75.6312   49.4559   58.8296 C   0  0  0  0  0  0  0  0  0  0  0  0
   76.3531   50.3350   58.2453 N   0  0  0  0  0  0  0  0  0  0  0  0
   76.0332   49.8369   56.9559 C   0  0  0  0  0  0  0  0  0  0  0  0
   75.2487   48.8509   57.6153 N   0  0  0  0  0  0  0  0  0  0  0  0
   74.3688   47.7061   57.8888 C   0  0  0  0  0  0  0  0  0  0  0  0
   68.9349   48.0739   56.3378 C   0  0  0  0  0  0  0  0  0  0  0  0
   69.3472   48.1986   54.9397 C   0  0  0  0  0  0  0  0  0  0  0  0
   70.3041   49.1200   54.6075 N   0  0  0  0  0  0  0  0  0  0  0  0
   70.7369   49.2957   53.3812 N   0  0  0  0  0  0  0  0  0  0  0  0
   70.2700   48.5789   52.3501 C   0  0  0  0  0  0  0  0  0  0  0  0
   70.6729   48.7363   51.1777 O   0  0  0  0  0  0  0  0  0  0  0  0
   69.2965   47.6218   52.6025 C   0  0  0  0  0  0  0  0  0  0  0  0
   68.7898   46.8677   51.5706 C   0  0  0  0  0  0  0  0  0  0  0  0
   67.8288   45.9299   51.8291 C   0  0  0  0  0  0  0  0  0  0  0  0
   67.3718   45.7461   53.1311 C   0  0  0  0  0  0  0  0  0  0  0  0
   67.8877   46.5084   54.1609 C   0  0  0  0  0  0  0  0  0  0  0  0
   68.8491   47.4455   53.9030 C   0  0  0  0  0  0  0  0  0  0  0  0
  7  8  2  0
  8  1  1  0
  8  9  1  0
  1  2  2  0
  1  6  1  0
  2  3  1  0
  3  4  2  0
  4  5  1  0
  5 16  1  0
  5  6  2  0
 16 17  1  0
 17 18  2  0
 17 27  1  0
 18 19  1  0
 19 20  1  0
 20 21  2  0
 20 22  1  0
 22 23  1  0
 22 27  2  0
 23 24  2  0
 24 25  1  0
 25 26  2  0
 26 27  1  0
  9 10  1  0
  9 15  1  0
 10 11  1  0
 11 12  2  0
 11 14  1  0
 12 13  1  0
 13 14  1  0
 14 15  1  0
M  CHG  1  12   1
M  END
>  <minimizedAffinity>  (546) 
-9.01531

$$$$
cs_full_output_folder/data/smiles/7168.pdb
     RDKit          3D

 28 31  0  0  0  0  0  0  0  0999 V2000
   69.9200   47.8089   57.6729 C   0  0  0  0  0  0  0  0  0  0  0  0
   70.7089   48.6079   58.4339 C   0  0  0  0  0  0  0  0  0  0  0  0
   71.7287   48.1291   59.2419 C   0  0  0  0  0  0  0  0  0  0  0  0
   71.9693   46.7735   59.2873 C   0  0  0  0  0  0  0  0  0  0  0  0
   72.9666   46.2917   60.0741 F   0  0  0  0  0  0  0  0  0  0  0  0
   71.1926   45.9070   58.5275 C   0  0  0  0  0  0  0  0  0  0  0  0
   70.1961   46.4344   57.7450 C   0  0  0  0  0  0  0  0  0  0  0  0
   71.4662   44.5105   58.5949 N   0  0  0  0  0  0  0  0  0  0  0  0
   72.6087   43.9514   57.9277 C   0  0  0  0  0  0  0  0  0  0  0  0
   73.5477   44.6874   57.5820 O   0  0  0  0  0  0  0  0  0  0  0  0
   72.6941   42.5043   57.6394 C   0  0  0  0  0  0  0  0  0  0  0  0
   71.5734   41.7033   58.2147 C   0  0  0  0  0  0  0  0  0  0  0  0
   71.1025   42.2307   59.5343 C   0  0  0  0  0  0  0  0  0  0  0  0
   70.6209   43.6372   59.3228 C   0  0  0  0  0  0  0  0  0  0  0  0
   69.5318   44.0469   59.7548 O   0  0  0  0  0  0  0  0  0  0  0  0
   68.8157   48.2597   56.8077 C   0  0  0  0  0  0  0  0  0  0  0  0
   67.2633   45.0477   51.2705 C   0  0  0  0  0  0  0  0  0  0  0  0
   67.8041   45.9639   52.3273 C   0  0  0  0  0  0  0  0  0  0  0  0
   67.4030   45.8534   53.6327 C   0  0  0  0  0  0  0  0  0  0  0  0
   67.8943   46.6882   54.6065 C   0  0  0  0  0  0  0  0  0  0  0  0
   68.8300   47.7014   54.3431 C   0  0  0  0  0  0  0  0  0  0  0  0
   69.2364   48.4772   55.3793 C   0  0  0  0  0  0  0  0  0  0  0  0
   70.1289   49.5055   55.2272 N   0  0  0  0  0  0  0  0  0  0  0  0
   70.7361   49.8074   53.7060 S   0  0  0  0  0  0  0  0  0  0  0  0
   70.1227   48.7432   52.5360 C   0  0  0  0  0  0  0  0  0  0  0  0
   70.4528   48.7815   51.2676 N   0  0  0  0  0  0  0  0  0  0  0  0
   69.2252   47.8053   53.0244 C   0  0  0  0  0  0  0  0  0  0  0  0
   68.7134   46.9425   52.0381 C   0  0  0  0  0  0  0  0  0  0  0  0
 17 18  1  0
 18 19  2  0
 18 28  1  0
 19 20  1  0
 20 21  2  0
 21 22  1  0
 21 27  1  0
 22 16  1  0
 22 23  2  0
 16  1  1  0
  1  2  2  0
  1  7  1  0
  2  3  1  0
  3  4  2  0
  4  5  1  0
  4  6  1  0
  6  8  1  0
  6  7  2  0
  8  9  1  0
  8 14  1  0
  9 10  2  0
  9 11  1  0
 11 12  1  0
 12 13  1  0
 13 14  1  0
 14 15  2  0
 23 24  1  0
 24 25  1  0
 25 26  2  0
 25 27  1  0
 27 28  2  0
M  END
>  <minimizedAffinity>  (547) 
-9.01530

$$$$
cs_full_output_folder/data/smiles/479.pdb
     RDKit          3D

 27 28  0  0  0  0  0  0  0  0999 V2000
   69.8657   50.8235   56.5551 C   0  0  0  0  0  0  0  0  0  0  0  0
   69.4884   52.0834   56.8663 C   0  0  0  0  0  0  0  0  0  0  0  0
   68.9566   52.9174   55.8674 C   0  0  0  0  0  0  0  0  0  0  0  0
   68.8289   52.4323   54.5857 C   0  0  0  0  0  0  0  0  0  0  0  0
   69.1942   51.1715   54.2272 C   0  0  0  0  0  0  0  0  0  0  0  0
   69.7146   50.3717   55.2381 C   0  0  0  0  0  0  0  0  0  0  0  0
   71.0196   49.2141   58.2961 C   0  0  0  0  0  0  0  0  0  0  0  0
   70.4877   49.9440   57.5146 C   0  0  0  0  0  0  0  0  0  0  0  0
   72.1922   47.6370   60.0593 C   0  0  0  0  0  0  0  0  0  0  0  0
   71.6420   48.3673   59.2249 C   0  0  0  0  0  0  0  0  0  0  0  0
   74.1626   48.7819   61.5068 C   0  0  0  0  0  0  0  0  0  0  0  0
   73.8155   47.3543   61.7852 C   0  0  0  0  0  0  0  0  0  0  0  0
   72.8392   46.7928   61.0624 C   0  0  0  0  0  0  0  0  0  0  0  0
   74.5294   46.6090   62.7834 C   0  0  0  0  0  0  0  0  0  0  0  0
   75.3224   45.6690   62.5241 O   0  0  0  0  0  0  0  0  0  0  0  0
   74.3397   46.9451   64.1706 N   0  0  0  0  0  0  0  0  0  0  0  0
   75.0112   46.2435   65.1235 O   0  0  0  0  0  0  0  0  0  0  0  0
   69.1353   50.5713   52.9507 N   0  0  0  0  0  0  0  0  0  0  0  0
   69.9793   49.1382   52.5169 S   0  0  0  0  0  0  0  0  0  0  0  0
   71.2904   49.1162   53.2783 O   0  0  0  0  0  0  0  0  0  0  0  0
   70.2854   49.0586   51.0649 O   0  0  0  0  0  0  0  0  0  0  0  0
   69.1318   47.6741   53.0097 C   0  0  0  0  0  0  0  0  0  0  0  0
   68.5563   46.8176   52.1137 C   0  0  0  0  0  0  0  0  0  0  0  0
   67.8796   45.6988   52.5670 C   0  0  0  0  0  0  0  0  0  0  0  0
   67.7933   45.4618   53.9201 C   0  0  0  0  0  0  0  0  0  0  0  0
   68.3721   46.3211   54.8410 C   0  0  0  0  0  0  0  0  0  0  0  0
   69.0325   47.4136   54.3758 C   0  0  0  0  0  0  0  0  0  0  0  0
 11 12  1  0
 12 13  2  0
 12 14  1  0
 13  9  1  0
  9 10  3  0
 10  7  1  0
  7  8  3  0
  8  1  1  0
  1  2  2  0
  1  6  1  0
  2  3  1  0
  3  4  2  0
  4  5  1  0
  5 18  1  0
  5  6  2  0
 18 19  1  0
 19 20  2  0
 19 21  2  0
 19 22  1  0
 22 23  2  0
 22 27  1  0
 23 24  1  0
 24 25  2  0
 25 26  1  0
 26 27  2  0
 14 15  2  0
 14 16  1  0
 16 17  1  0
M  END
>  <minimizedAffinity>  (548) 
-9.01459

$$$$
cs_full_output_folder/data/smiles/1623.pdb
     RDKit          3D

 28 31  0  0  0  0  0  0  0  0999 V2000
   71.5790   47.2102   58.9197 C   0  0  0  0  0  0  0  0  0  0  0  0
   70.7264   48.0069   58.1548 C   0  0  0  0  0  0  0  0  0  0  0  0
   69.8530   47.4730   57.2507 C   0  0  0  0  0  0  0  0  0  0  0  0
   69.8690   46.0623   57.1425 C   0  0  0  0  0  0  0  0  0  0  0  0
   70.6919   45.2666   57.8774 C   0  0  0  0  0  0  0  0  0  0  0  0
   71.5624   45.8231   58.7798 C   0  0  0  0  0  0  0  0  0  0  0  0
   72.4139   45.0788   59.5482 F   0  0  0  0  0  0  0  0  0  0  0  0
   77.6022   47.5645   59.0465 C   0  0  0  0  0  0  0  0  0  0  0  0
   76.3633   48.0184   59.1351 C   0  0  0  0  0  0  0  0  0  0  0  0
   75.8110   48.2150   60.5031 C   0  0  0  0  0  0  0  0  0  0  0  0
   74.5553   49.0620   60.4628 C   0  0  0  0  0  0  0  0  0  0  0  0
   73.7012   48.4570   59.4617 N   0  0  0  0  0  0  0  0  0  0  0  0
   72.4835   47.8485   59.8613 C   0  0  0  0  0  0  0  0  0  0  0  0
   72.1485   47.8450   61.0763 O   0  0  0  0  0  0  0  0  0  0  0  0
   74.1483   48.5152   58.0954 C   0  0  0  0  0  0  0  0  0  0  0  0
   75.6121   48.3015   57.9014 C   0  0  0  0  0  0  0  0  0  0  0  0
   68.9091   48.2458   56.3888 C   0  0  0  0  0  0  0  0  0  0  0  0
   69.2996   48.3228   54.9798 C   0  0  0  0  0  0  0  0  0  0  0  0
   70.2561   49.2398   54.6196 N   0  0  0  0  0  0  0  0  0  0  0  0
   70.7005   49.3339   53.3855 N   0  0  0  0  0  0  0  0  0  0  0  0
   70.2677   48.5562   52.3818 C   0  0  0  0  0  0  0  0  0  0  0  0
   70.7378   48.6986   51.2146 O   0  0  0  0  0  0  0  0  0  0  0  0
   69.3052   47.6047   52.6443 C   0  0  0  0  0  0  0  0  0  0  0  0
   68.8165   46.7976   51.6410 C   0  0  0  0  0  0  0  0  0  0  0  0
   67.8398   45.8720   51.9255 C   0  0  0  0  0  0  0  0  0  0  0  0
   67.3915   45.8025   53.2421 C   0  0  0  0  0  0  0  0  0  0  0  0
   67.8743   46.6025   54.2512 C   0  0  0  0  0  0  0  0  0  0  0  0
   68.8446   47.5195   53.9623 C   0  0  0  0  0  0  0  0  0  0  0  0
  8  9  2  0
  9 10  1  0
  9 16  1  0
 10 11  1  0
 11 12  1  0
 12 13  1  0
 12 15  1  0
 13 14  2  0
 13  1  1  0
  1  2  2  0
  1  6  1  0
  2  3  1  0
  3 17  1  0
  3  4  2  0
 17 18  1  0
 18 19  2  0
 18 28  1  0
 19 20  1  0
 20 21  1  0
 21 22  2  0
 21 23  1  0
 23 24  1  0
 23 28  2  0
 24 25  2  0
 25 26  1  0
 26 27  2  0
 27 28  1  0
  4  5  1  0
  5  6  2  0
  6  7  1  0
 15 16  1  0
M  END
>  <minimizedAffinity>  (549) 
-9.01439

$$$$
cs_full_output_folder/data/smiles/1869.pdb
     RDKit          3D

 29 32  0  0  0  0  0  0  0  0999 V2000
   71.4839   47.2683   58.8414 C   0  0  0  0  0  0  0  0  0  0  0  0
   70.6390   48.0126   58.0384 C   0  0  0  0  0  0  0  0  0  0  0  0
   69.7639   47.4737   57.1355 C   0  0  0  0  0  0  0  0  0  0  0  0
   69.7809   46.0701   57.0801 C   0  0  0  0  0  0  0  0  0  0  0  0
   70.6036   45.2992   57.8603 C   0  0  0  0  0  0  0  0  0  0  0  0
   71.4648   45.8956   58.7495 C   0  0  0  0  0  0  0  0  0  0  0  0
   72.2742   45.1121   59.5161 F   0  0  0  0  0  0  0  0  0  0  0  0
   75.9363   48.6415   59.6028 C   0  0  1  0  0  0  0  0  0  0  0  0
   75.5759   48.1507   58.2315 C   0  0  0  0  0  0  0  0  0  0  0  0
   74.1287   48.5688   58.0165 C   0  0  0  0  0  0  0  0  0  0  0  0
   73.6198   48.4774   59.3920 N   0  0  0  0  0  0  0  0  0  0  0  0
   72.3986   47.8778   59.7814 C   0  0  0  0  0  0  0  0  0  0  0  0
   72.1087   47.8812   61.0070 O   0  0  0  0  0  0  0  0  0  0  0  0
   74.6266   49.1179   60.1875 C   0  0  0  0  0  0  0  0  0  0  0  0
   76.1262   47.6314   61.8972 C   0  0  0  0  0  0  0  0  0  0  0  0
   76.6126   47.6245   60.4699 C   0  0  1  0  0  0  0  0  0  0  0  0
   76.3836   46.3455   59.9814 O   0  0  0  0  0  0  0  0  0  0  0  0
   68.8550   48.2483   56.2554 C   0  0  0  0  0  0  0  0  0  0  0  0
   69.2698   48.2933   54.8426 C   0  0  0  0  0  0  0  0  0  0  0  0
   70.1758   49.2327   54.4568 N   0  0  0  0  0  0  0  0  0  0  0  0
   70.5959   49.4051   53.2244 N   0  0  0  0  0  0  0  0  0  0  0  0
   70.1445   48.6400   52.2226 C   0  0  0  0  0  0  0  0  0  0  0  0
   70.5508   48.8082   51.0316 O   0  0  0  0  0  0  0  0  0  0  0  0
   69.2195   47.6558   52.5252 C   0  0  0  0  0  0  0  0  0  0  0  0
   68.7082   46.8095   51.5577 C   0  0  0  0  0  0  0  0  0  0  0  0
   67.7947   45.8186   51.8653 C   0  0  0  0  0  0  0  0  0  0  0  0
   67.3720   45.6570   53.1659 C   0  0  0  0  0  0  0  0  0  0  0  0
   67.8984   46.5198   54.1262 C   0  0  0  0  0  0  0  0  0  0  0  0
   68.7920   47.4933   53.8368 C   0  0  0  0  0  0  0  0  0  0  0  0
 16 15  1  1
 16 17  1  0
 16  8  1  0
  8  9  1  6
  8 14  1  0
  9 10  1  0
 10 11  1  0
 11 12  1  0
 11 14  1  0
 12 13  2  0
 12  1  1  0
  1  2  2  0
  1  6  1  0
  2  3  1  0
  3 18  1  0
  3  4  2  0
 18 19  1  0
 19 20  2  0
 19 29  1  0
 20 21  1  0
 21 22  1  0
 22 23  2  0
 22 24  1  0
 24 25  1  0
 24 29  2  0
 25 26  2  0
 26 27  1  0
 27 28  2  0
 28 29  1  0
  4  5  1  0
  5  6  2  0
  6  7  1  0
M  END
>  <minimizedAffinity>  (550) 
-9.01438

$$$$
cs_full_output_folder/data/smiles/9546.pdb
     RDKit          3D

 27 30  0  0  0  0  0  0  0  0999 V2000
   74.8315   35.3728   53.5801 C   0  0  0  0  0  0  0  0  0  0  0  0
   75.6108   35.0831   54.6985 C   0  0  0  0  0  0  0  0  0  0  0  0
   75.0781   34.9640   55.9570 C   0  0  0  0  0  0  0  0  0  0  0  0
   73.7035   35.1266   56.1998 C   0  0  0  0  0  0  0  0  0  0  0  0
   72.9430   35.4100   55.1068 C   0  0  0  0  0  0  0  0  0  0  0  0
   73.5027   35.5296   53.8209 C   0  0  0  0  0  0  0  0  0  0  0  0
   75.6102   33.2908   51.7573 O   0  0  0  0  0  0  0  0  0  0  0  0
   75.8633   34.4774   51.4428 C   0  0  0  0  0  0  0  0  0  0  0  0
   75.4814   35.4824   52.3375 N   0  0  0  0  0  0  0  0  0  0  0  0
   76.5374   34.7388   50.1677 C   0  0  0  0  0  0  0  0  0  0  0  0
   77.5796   35.6085   49.9795 C   0  0  0  0  0  0  0  0  0  0  0  0
   78.1998   35.8365   48.7738 C   0  0  0  0  0  0  0  0  0  0  0  0
   77.7598   35.1525   47.6529 C   0  0  0  0  0  0  0  0  0  0  0  0
   76.7138   34.2662   47.7891 C   0  0  0  0  0  0  0  0  0  0  0  0
   76.1149   34.0616   49.0149 C   0  0  0  0  0  0  0  0  0  0  0  0
   73.2584   35.0053   57.5980 C   0  0  0  0  0  0  0  0  0  0  0  0
   72.2991   36.0181   58.0577 C   0  0  0  0  0  0  0  0  0  0  0  0
   72.3034   37.2468   57.4886 N   0  0  0  0  0  0  0  0  0  0  0  0
   71.5370   38.2515   57.8387 N   0  0  0  0  0  0  0  0  0  0  0  0
   70.6601   38.0976   58.8402 C   0  0  0  0  0  0  0  0  0  0  0  0
   69.8984   39.0280   59.2208 O   0  0  0  0  0  0  0  0  0  0  0  0
   70.6054   36.8630   59.4639 C   0  0  0  0  0  0  0  0  0  0  0  0
   71.4139   35.7985   59.0943 C   0  0  0  0  0  0  0  0  0  0  0  0
   71.2588   34.5118   59.7567 C   0  0  0  0  0  0  0  0  0  0  0  0
   70.6004   34.5127   61.0985 C   0  0  0  0  0  0  0  0  0  0  0  0
   70.4592   35.9093   61.6468 C   0  0  0  0  0  0  0  0  0  0  0  0
   69.6519   36.6651   60.5824 C   0  0  0  0  0  0  0  0  0  0  0  0
  7  8  2  0
  8  9  1  0
  8 10  1  0
  9  1  1  0
  1  2  2  0
  1  6  1  0
  2  3  1  0
  3  4  2  0
  4 16  1  0
  4  5  1  0
 16 17  1  0
 17 18  2  0
 17 23  1  0
 18 19  1  0
 19 20  1  0
 20 21  2  0
 20 22  1  0
 22 23  2  0
 22 27  1  0
 23 24  1  0
 24 25  1  0
 25 26  1  0
 26 27  1  0
  5  6  2  0
 10 11  2  0
 10 15  1  0
 11 12  1  0
 12 13  2  0
 13 14  1  0
 14 15  2  0
M  END
>  <minimizedAffinity>  (551) 
-9.01407

$$$$
cs_full_output_folder/data/smiles/4453.pdb
     RDKit          3D

 26 28  0  0  0  0  0  0  0  0999 V2000
   68.4452   40.2638   57.8818 N   0  0  0  0  0  0  0  0  0  0  0  0
   67.8551   40.2728   56.7231 N   0  0  0  0  0  0  0  0  0  0  0  0
   67.9334   41.5135   56.1585 C   0  0  0  0  0  0  0  0  0  0  0  0
   68.6151   42.3321   57.0222 C   0  0  0  0  0  0  0  0  0  0  0  0
   68.9291   41.4969   58.1152 C   0  0  0  0  0  0  0  0  0  0  0  0
   69.6737   41.9402   59.3039 C   0  0  0  0  0  0  0  0  0  0  0  0
   70.3812   36.5067   60.2863 C   0  0  0  0  0  0  0  0  0  0  0  0
   69.4682   37.3892   59.9038 C   0  0  0  0  0  0  0  0  0  0  0  0
   68.0921   37.5343   60.3361 C   0  0  0  0  0  0  0  0  0  0  0  0
   67.5698   38.5625   59.6759 C   0  0  0  0  0  0  0  0  0  0  0  0
   68.5477   39.1538   58.7802 C   0  0  0  0  0  0  0  0  0  0  0  0
   69.6788   38.4429   58.9259 C   0  0  0  0  0  0  0  0  0  0  0  0
   71.1696   38.7595   58.0553 Cl  0  0  0  0  0  0  0  0  0  0  0  0
   68.9833   43.7430   56.9249 C   0  0  0  0  0  0  0  0  0  0  0  0
   69.8941   44.1946   57.6235 O   0  0  0  0  0  0  0  0  0  0  0  0
   68.2658   44.5341   56.0158 N   0  0  0  0  0  0  0  0  0  0  0  0
   68.5305   45.9545   55.7976 C   0  0  0  0  0  0  0  0  0  0  0  0
   68.5211   46.2042   54.3086 C   0  0  0  0  0  0  0  0  0  0  0  0
   67.7080   45.4731   53.4692 C   0  0  0  0  0  0  0  0  0  0  0  0
   67.7283   45.8216   52.1357 C   0  0  0  0  0  0  0  0  0  0  0  0
   68.5249   46.8579   51.6454 C   0  0  0  0  0  0  0  0  0  0  0  0
   69.3258   47.5731   52.5012 C   0  0  0  0  0  0  0  0  0  0  0  0
   69.3056   47.2248   53.8285 C   0  0  0  0  0  0  0  0  0  0  0  0
   70.1331   48.6703   51.9997 C   0  0  0  0  0  0  0  0  0  0  0  0
   69.7532   49.3602   51.0436 O   0  0  0  0  0  0  0  0  0  0  0  0
   71.3701   48.9707   52.6008 O   0  0  0  0  0  0  0  0  0  0  0  0
  7  8  2  0
  8  9  1  0
  8 12  1  0
  9 10  2  0
 10 11  1  0
 11  1  1  0
 11 12  2  0
  1  2  1  0
  1  5  1  0
  2  3  2  0
  3  4  1  0
  4 14  1  0
  4  5  2  0
 14 15  2  0
 14 16  1  0
 16 17  1  0
 17 18  1  0
 18 19  2  0
 18 23  1  0
 19 20  1  0
 20 21  2  0
 21 22  1  0
 22 24  1  0
 22 23  2  0
 24 25  2  0
 24 26  1  0
  5  6  1  0
 12 13  1  0
M  END
>  <minimizedAffinity>  (552) 
-9.01355

$$$$
cs_full_output_folder/data/smiles/9035.pdb
     RDKit          3D

 26 28  0  0  0  0  0  0  0  0999 V2000
   68.1679   44.6960   55.0364 N   0  0  0  0  0  0  0  0  0  0  0  0
   67.7683   45.1778   53.7196 C   0  0  0  0  0  0  0  0  0  0  0  0
   66.8238   44.5371   53.2265 O   0  0  0  0  0  0  0  0  0  0  0  0
   68.4691   46.2987   53.1341 C   0  0  0  0  0  0  0  0  0  0  0  0
   68.8154   46.2682   51.8127 N   0  0  0  0  0  0  0  0  0  0  0  0
   69.4471   47.2322   51.2048 N   0  0  0  0  0  0  0  0  0  0  0  0
   69.8100   48.3512   51.8513 C   0  0  0  0  0  0  0  0  0  0  0  0
   70.4236   49.2825   51.2474 O   0  0  0  0  0  0  0  0  0  0  0  0
   69.4933   48.4566   53.1945 C   0  0  0  0  0  0  0  0  0  0  0  0
   69.8700   49.6028   53.8378 C   0  0  0  0  0  0  0  0  0  0  0  0
   69.5681   49.7360   55.1774 C   0  0  0  0  0  0  0  0  0  0  0  0
   68.9066   48.7330   55.8262 C   0  0  0  0  0  0  0  0  0  0  0  0
   68.5142   47.5555   55.1858 C   0  0  0  0  0  0  0  0  0  0  0  0
   68.8145   47.4157   53.8406 C   0  0  0  0  0  0  0  0  0  0  0  0
   68.2286   42.7703   56.6065 C   0  0  0  0  0  0  0  0  0  0  0  0
   69.4132   43.1064   56.7998 O   0  0  0  0  0  0  0  0  0  0  0  0
   67.5292   43.6208   55.6499 N   0  0  0  0  0  0  0  0  0  0  0  0
   67.5171   41.6446   57.2310 C   0  0  0  0  0  0  0  0  0  0  0  0
   68.0780   40.3335   56.8279 C   0  0  0  0  0  0  0  0  0  0  0  0
   69.3362   36.7451   61.1716 C   0  0  0  0  0  0  0  0  0  0  0  0
   69.0106   37.6718   60.0660 C   0  0  0  0  0  0  0  0  0  0  0  0
   67.7110   38.0511   59.7849 C   0  0  0  0  0  0  0  0  0  0  0  0
   67.4412   38.9174   58.7471 C   0  0  0  0  0  0  0  0  0  0  0  0
   68.4564   39.4460   57.9406 C   0  0  0  0  0  0  0  0  0  0  0  0
   69.7365   39.0508   58.2425 C   0  0  0  0  0  0  0  0  0  0  0  0
   70.0233   38.1777   59.2867 C   0  0  0  0  0  0  0  0  0  0  0  0
 20 21  1  0
 21 22  2  0
 21 26  1  0
 22 23  1  0
 23 24  2  0
 24 19  1  0
 24 25  1  0
 19 18  1  0
 18 15  1  0
 15 16  2  0
 15 17  1  0
 17  1  1  0
  1  2  1  0
  2  3  2  0
  2  4  1  0
  4  5  2  0
  4 14  1  0
  5  6  1  0
  6  7  1  0
  7  8  2  0
  7  9  1  0
  9 10  1  0
  9 14  2  0
 10 11  2  0
 11 12  1  0
 12 13  2  0
 13 14  1  0
 25 26  2  0
M  END
>  <minimizedAffinity>  (553) 
-9.01341

$$$$
cs_full_output_folder/data/smiles/7974.pdb
     RDKit          3D

 27 30  0  0  0  0  0  0  0  0999 V2000
   71.5109   47.2429   58.8488 C   0  0  0  0  0  0  0  0  0  0  0  0
   70.6540   47.9410   58.0560 C   0  0  0  0  0  0  0  0  0  0  0  0
   69.7795   47.3464   57.1535 C   0  0  0  0  0  0  0  0  0  0  0  0
   69.8155   45.9664   57.0883 C   0  0  0  0  0  0  0  0  0  0  0  0
   70.6806   45.2337   57.8861 C   0  0  0  0  0  0  0  0  0  0  0  0
   71.5273   45.8662   58.7654 C   0  0  0  0  0  0  0  0  0  0  0  0
   72.3598   45.1192   59.5295 F   0  0  0  0  0  0  0  0  0  0  0  0
   72.1577   47.9120   61.0426 O   0  0  0  0  0  0  0  0  0  0  0  0
   72.4302   47.8576   59.7980 C   0  0  0  0  0  0  0  0  0  0  0  0
   73.6425   48.4006   59.3144 N   0  0  0  0  0  0  0  0  0  0  0  0
   74.5660   49.0126   60.2330 C   0  0  0  0  0  0  0  0  0  0  0  0
   75.9953   48.6513   59.9636 C   0  0  0  0  0  0  0  0  0  0  0  0
   76.2185   48.0554   58.6017 C   0  0  0  0  0  0  0  0  0  0  0  0
   75.3065   48.5633   57.6065 N   0  0  0  0  0  0  0  0  0  0  0  0
   73.9277   48.3265   57.9022 C   0  0  0  0  0  0  0  0  0  0  0  0
   68.8617   48.1551   56.3089 C   0  0  0  0  0  0  0  0  0  0  0  0
   69.3912   48.3397   54.9380 C   0  0  0  0  0  0  0  0  0  0  0  0
   70.3345   49.2319   54.6085 N   0  0  0  0  0  0  0  0  0  0  0  0
   70.7631   49.3449   53.3630 N   0  0  0  0  0  0  0  0  0  0  0  0
   70.2878   48.5848   52.3631 C   0  0  0  0  0  0  0  0  0  0  0  0
   70.7044   48.7033   51.1818 O   0  0  0  0  0  0  0  0  0  0  0  0
   69.2998   47.6292   52.6288 C   0  0  0  0  0  0  0  0  0  0  0  0
   68.7928   46.8362   51.6253 C   0  0  0  0  0  0  0  0  0  0  0  0
   67.8215   45.9017   51.9025 C   0  0  0  0  0  0  0  0  0  0  0  0
   67.3882   45.7986   53.2080 C   0  0  0  0  0  0  0  0  0  0  0  0
   67.8908   46.5893   54.2171 C   0  0  0  0  0  0  0  0  0  0  0  0
   68.8789   47.5407   53.9382 C   0  0  0  0  0  0  0  0  0  0  0  0
  8  9  2  0
  9  1  1  0
  9 10  1  0
  1  2  2  0
  1  6  1  0
  2  3  1  0
  3 16  1  0
  3  4  2  0
 16 17  1  0
 17 18  2  0
 17 27  1  0
 18 19  1  0
 19 20  1  0
 20 21  2  0
 20 22  1  0
 22 23  1  0
 22 27  2  0
 23 24  2  0
 24 25  1  0
 25 26  2  0
 26 27  1  0
  4  5  1  0
  5  6  2  0
  6  7  1  0
 10 11  1  0
 10 15  1  0
 11 12  1  0
 12 13  1  0
 13 14  1  0
 14 15  1  0
M  CHG  1  14   1
M  END
>  <minimizedAffinity>  (554) 
-9.01327

$$$$
cs_full_output_folder/data/smiles/3164.pdb
     RDKit          3D

 28 31  0  0  0  0  0  0  0  0999 V2000
   71.4838   47.4590   58.8384 C   0  0  0  0  0  0  0  0  0  0  0  0
   70.4860   48.1039   58.1087 C   0  0  0  0  0  0  0  0  0  0  0  0
   69.6918   47.4059   57.2650 C   0  0  0  0  0  0  0  0  0  0  0  0
   69.9294   46.0203   57.1690 C   0  0  0  0  0  0  0  0  0  0  0  0
   70.9060   45.3768   57.8808 C   0  0  0  0  0  0  0  0  0  0  0  0
   71.7080   46.0991   58.7370 C   0  0  0  0  0  0  0  0  0  0  0  0
   72.6872   45.5073   59.4605 F   0  0  0  0  0  0  0  0  0  0  0  0
   76.5914   50.3495   57.6679 O   0  0  0  0  0  0  0  0  0  0  0  0
   75.6704   49.7487   58.1837 C   0  0  0  0  0  0  0  0  0  0  0  0
   75.5565   49.7187   59.6557 C   0  0  0  0  0  0  0  0  0  0  0  0
   74.1096   49.9320   60.1232 C   0  0  0  0  0  0  0  0  0  0  0  0
   73.2241   49.1689   59.2476 N   0  0  0  0  0  0  0  0  0  0  0  0
   72.3366   48.1911   59.7607 C   0  0  0  0  0  0  0  0  0  0  0  0
   72.2875   47.9567   61.0109 O   0  0  0  0  0  0  0  0  0  0  0  0
   73.2863   49.4439   57.8339 C   0  0  0  0  0  0  0  0  0  0  0  0
   74.6801   49.0586   57.3408 C   0  0  0  0  0  0  0  0  0  0  0  0
   68.5882   47.9430   56.4296 C   0  0  0  0  0  0  0  0  0  0  0  0
   68.9995   48.1278   55.0704 C   0  0  0  0  0  0  0  0  0  0  0  0
   69.8690   49.1504   54.8155 N   0  0  0  0  0  0  0  0  0  0  0  0
   70.3631   49.4060   53.6229 N   0  0  0  0  0  0  0  0  0  0  0  0
   70.0516   48.6759   52.5413 C   0  0  0  0  0  0  0  0  0  0  0  0
   70.5407   48.9376   51.3956 O   0  0  0  0  0  0  0  0  0  0  0  0
   69.1819   47.6248   52.6992 C   0  0  0  0  0  0  0  0  0  0  0  0
   68.8168   46.8485   51.6057 C   0  0  0  0  0  0  0  0  0  0  0  0
   67.9256   45.8245   51.8447 C   0  0  0  0  0  0  0  0  0  0  0  0
   67.4067   45.5538   53.0725 C   0  0  0  0  0  0  0  0  0  0  0  0
   67.7880   46.3419   54.1466 C   0  0  0  0  0  0  0  0  0  0  0  0
   68.6651   47.3654   53.9732 C   0  0  0  0  0  0  0  0  0  0  0  0
  8  9  2  0
  9 10  1  0
  9 16  1  0
 10 11  1  0
 11 12  1  0
 12 13  1  0
 12 15  1  0
 13 14  2  0
 13  1  1  0
  1  2  2  0
  1  6  1  0
  2  3  1  0
  3 17  1  0
  3  4  2  0
 17 18  1  0
 18 19  2  0
 18 28  1  0
 19 20  1  0
 20 21  1  0
 21 22  2  0
 21 23  1  0
 23 24  1  0
 23 28  2  0
 24 25  2  0
 25 26  1  0
 26 27  2  0
 27 28  1  0
  4  5  1  0
  5  6  2  0
  6  7  1  0
 15 16  1  0
M  END
>  <minimizedAffinity>  (555) 
-9.01074

$$$$
cs_full_output_folder/data/smiles/1902.pdb
     RDKit          3D

 27 30  0  0  0  0  0  0  0  0999 V2000
   71.5763   47.1976   58.8972 C   0  0  0  0  0  0  0  0  0  0  0  0
   70.7663   47.9942   58.0841 C   0  0  0  0  0  0  0  0  0  0  0  0
   69.8861   47.4867   57.1776 C   0  0  0  0  0  0  0  0  0  0  0  0
   69.8309   46.0803   57.0984 C   0  0  0  0  0  0  0  0  0  0  0  0
   70.6314   45.3015   57.9034 C   0  0  0  0  0  0  0  0  0  0  0  0
   71.5010   45.8381   58.8001 C   0  0  0  0  0  0  0  0  0  0  0  0
   72.3052   45.1063   59.6087 F   0  0  0  0  0  0  0  0  0  0  0  0
   72.1339   47.8832   61.0434 O   0  0  0  0  0  0  0  0  0  0  0  0
   72.4904   47.8637   59.8413 C   0  0  0  0  0  0  0  0  0  0  0  0
   73.6708   48.4171   59.3441 N   0  0  0  0  0  0  0  0  0  0  0  0
   74.1171   48.4077   57.9781 C   0  0  0  0  0  0  0  0  0  0  0  0
   75.5784   47.9683   58.1678 C   0  0  0  0  0  0  0  0  0  0  0  0
   75.9598   48.4586   59.5549 C   0  0  2  0  0  0  0  0  0  0  0  0
   76.2616   47.4262   60.4204 F   0  0  0  0  0  0  0  0  0  0  0  0
   74.6845   49.1133   60.0896 C   0  0  0  0  0  0  0  0  0  0  0  0
   68.9966   48.2865   56.2766 C   0  0  0  0  0  0  0  0  0  0  0  0
   69.4486   48.3336   54.8843 C   0  0  0  0  0  0  0  0  0  0  0  0
   70.4131   49.2378   54.4999 N   0  0  0  0  0  0  0  0  0  0  0  0
   70.7965   49.3479   53.2479 N   0  0  0  0  0  0  0  0  0  0  0  0
   70.2623   48.5822   52.2878 C   0  0  0  0  0  0  0  0  0  0  0  0
   70.6328   48.6908   51.0841 O   0  0  0  0  0  0  0  0  0  0  0  0
   69.2857   47.6426   52.5781 C   0  0  0  0  0  0  0  0  0  0  0  0
   68.7424   46.8385   51.6135 C   0  0  0  0  0  0  0  0  0  0  0  0
   67.7872   45.8950   51.9292 C   0  0  0  0  0  0  0  0  0  0  0  0
   67.3713   45.7599   53.2442 C   0  0  0  0  0  0  0  0  0  0  0  0
   67.9310   46.5828   54.2146 C   0  0  0  0  0  0  0  0  0  0  0  0
   68.8886   47.5372   53.9186 C   0  0  0  0  0  0  0  0  0  0  0  0
  8  9  2  0
  9  1  1  0
  9 10  1  0
  1  2  2  0
  1  6  1  0
  2  3  1  0
  3 16  1  0
  3  4  2  0
 16 17  1  0
 17 18  2  0
 17 27  1  0
 18 19  1  0
 19 20  1  0
 20 21  2  0
 20 22  1  0
 22 23  1  0
 22 27  2  0
 23 24  2  0
 24 25  1  0
 25 26  2  0
 26 27  1  0
  4  5  1  0
  5  6  2  0
  6  7  1  0
 10 11  1  0
 10 15  1  0
 11 12  1  0
 12 13  1  0
 13 14  1  1
 13 15  1  0
M  END
>  <minimizedAffinity>  (556) 
-9.01047

$$$$
cs_full_output_folder/data/smiles/1179.pdb
     RDKit          3D

 30 34  0  0  0  0  0  0  0  0999 V2000
   70.6249   46.8141   58.5578 C   0  0  1  0  0  0  0  0  0  0  0  0
   70.6372   45.3303   58.5912 C   0  0  0  0  0  0  0  0  0  0  0  0
   69.7868   44.5227   59.2546 N   0  0  0  0  0  0  0  0  0  0  0  0
   70.0946   43.2307   59.0597 C   0  0  0  0  0  0  0  0  0  0  0  0
   69.5449   42.0384   59.5074 C   0  0  0  0  0  0  0  0  0  0  0  0
   70.0780   40.8205   59.1396 C   0  0  0  0  0  0  0  0  0  0  0  0
   71.1866   40.7939   58.3055 C   0  0  0  0  0  0  0  0  0  0  0  0
   71.7163   41.9792   57.8736 C   0  0  0  0  0  0  0  0  0  0  0  0
   71.1971   43.2137   58.2301 C   0  0  0  0  0  0  0  0  0  0  0  0
   71.5019   44.4916   57.9640 N   0  0  0  0  0  0  0  0  0  0  0  0
   71.6731   47.3880   59.4021 C   0  0  0  0  0  0  0  0  0  0  0  0
   72.2339   48.5793   58.9907 C   0  0  0  0  0  0  0  0  0  0  0  0
   73.2335   49.2282   59.6808 C   0  0  0  0  0  0  0  0  0  0  0  0
   73.6553   48.6033   60.8399 C   0  0  0  0  0  0  0  0  0  0  0  0
   73.1337   47.4232   61.2904 C   0  0  0  0  0  0  0  0  0  0  0  0
   72.1348   46.8162   60.5617 C   0  0  0  0  0  0  0  0  0  0  0  0
   68.2990   47.5406   57.1974 O   0  0  0  0  0  0  0  0  0  0  0  0
   69.3701   47.6076   56.5096 C   0  0  0  0  0  0  0  0  0  0  0  0
   70.5509   47.2400   57.2075 N   0  0  0  0  0  0  0  0  0  0  0  0
   69.3915   48.0203   55.1299 C   0  0  0  0  0  0  0  0  0  0  0  0
   69.9586   49.2188   54.7117 C   0  0  0  0  0  0  0  0  0  0  0  0
   69.9715   49.6021   53.3886 C   0  0  0  0  0  0  0  0  0  0  0  0
   70.4885   50.6960   53.0024 O   0  0  0  0  0  0  0  0  0  0  0  0
   69.4197   48.7948   52.4646 N   0  0  0  0  0  0  0  0  0  0  0  0
   68.8462   47.6039   52.8087 C   0  0  0  0  0  0  0  0  0  0  0  0
   68.2853   46.7888   51.8476 C   0  0  0  0  0  0  0  0  0  0  0  0
   67.6968   45.5791   52.1544 C   0  0  0  0  0  0  0  0  0  0  0  0
   67.6876   45.2034   53.4801 C   0  0  0  0  0  0  0  0  0  0  0  0
   68.2465   46.0138   54.4430 C   0  0  0  0  0  0  0  0  0  0  0  0
   68.8365   47.2263   54.1334 C   0  0  0  0  0  0  0  0  0  0  0  0
 17 18  2  0
 18 19  1  0
 18 20  1  0
  1 19  1  6
  1 11  1  0
  1  2  1  0
 11 12  2  0
 11 16  1  0
 12 13  1  0
 13 14  2  0
 14 15  1  0
 15 16  2  0
  2  3  2  0
  2 10  1  0
  3  4  1  0
  4  5  2  0
  4  9  1  0
  5  6  1  0
  6  7  2  0
  7  8  1  0
  8  9  2  0
  9 10  1  0
 20 21  2  0
 20 30  1  0
 21 22  1  0
 22 23  2  0
 22 24  1  0
 24 25  1  0
 25 26  1  0
 25 30  2  0
 26 27  2  0
 27 28  1  0
 28 29  2  0
 29 30  1  0
M  CHG  1   3   1
M  END
>  <minimizedAffinity>  (557) 
-9.01017

$$$$
cs_full_output_folder/data/smiles/174.pdb
     RDKit          3D

 26 29  0  0  0  0  0  0  0  0999 V2000
   70.9076   45.8383   58.3864 C   0  0  0  0  0  0  0  0  0  0  0  0
   69.9278   46.2327   57.4709 C   0  0  0  0  0  0  0  0  0  0  0  0
   69.6138   47.5345   57.1963 C   0  0  0  0  0  0  0  0  0  0  0  0
   70.2934   48.5606   57.8524 C   0  0  0  0  0  0  0  0  0  0  0  0
   71.2584   48.2114   58.7537 C   0  0  0  0  0  0  0  0  0  0  0  0
   71.5610   46.8725   59.0161 C   0  0  0  0  0  0  0  0  0  0  0  0
   72.5650   46.6823   59.9231 F   0  0  0  0  0  0  0  0  0  0  0  0
   69.3860   43.8620   59.8401 O   0  0  0  0  0  0  0  0  0  0  0  0
   70.5441   43.5999   59.4996 C   0  0  0  0  0  0  0  0  0  0  0  0
   71.2615   42.3793   59.9854 C   0  0  0  0  0  0  0  0  0  0  0  0
   71.8220   41.6155   58.8356 C   0  0  0  0  0  0  0  0  0  0  0  0
   72.1235   42.4270   57.6228 C   0  0  0  0  0  0  0  0  0  0  0  0
   72.3462   43.8509   57.9632 C   0  0  0  0  0  0  0  0  0  0  0  0
   73.3958   44.4960   57.7443 O   0  0  0  0  0  0  0  0  0  0  0  0
   71.2260   44.4971   58.6021 N   0  0  0  0  0  0  0  0  0  0  0  0
   68.5739   47.9592   56.2391 C   0  0  0  0  0  0  0  0  0  0  0  0
   69.0656   48.1012   54.8390 C   0  0  0  0  0  0  0  0  0  0  0  0
   69.9584   49.0573   54.5183 N   0  0  0  0  0  0  0  0  0  0  0  0
   70.4136   49.2370   53.3027 N   0  0  0  0  0  0  0  0  0  0  0  0
   70.0493   48.4949   52.2329 C   0  0  0  0  0  0  0  0  0  0  0  0
   70.5641   48.7257   50.9494 O   0  0  0  0  0  0  0  0  0  0  0  0
   69.1379   47.4963   52.4913 C   0  0  0  0  0  0  0  0  0  0  0  0
   68.5381   46.5422   51.6743 C   0  0  0  0  0  0  0  0  0  0  0  0
   67.6959   45.7691   52.4432 C   0  0  0  0  0  0  0  0  0  0  0  0
   67.7383   46.2122   53.7676 C   0  0  0  0  0  0  0  0  0  0  0  0
   68.6162   47.2761   53.8364 C   0  0  0  0  0  0  0  0  0  0  0  0
  8  9  2  0
  9 10  1  0
  9 15  1  0
 10 11  1  0
 11 12  1  0
 12 13  1  0
 13 14  2  0
 13 15  1  0
 15  1  1  0
  1  2  2  0
  1  6  1  0
  2  3  1  0
  3 16  1  0
  3  4  2  0
 16 17  1  0
 17 18  2  0
 17 26  1  0
 18 19  1  0
 19 20  1  0
 20 21  1  0
 20 22  2  0
 22 23  1  0
 22 26  1  0
 23 24  2  0
 24 25  1  0
 25 26  2  0
  4  5  1  0
  5  6  2  0
  6  7  1  0
M  END
>  <minimizedAffinity>  (558) 
-9.00515

$$$$
cs_full_output_folder/data/smiles/2227.pdb
     RDKit          3D

 27 30  0  0  0  0  0  0  0  0999 V2000
   75.3465   35.6816   53.4491 C   0  0  0  0  0  0  0  0  0  0  0  0
   73.9810   35.5358   53.4474 C   0  0  0  0  0  0  0  0  0  0  0  0
   73.2692   35.1708   54.5689 C   0  0  0  0  0  0  0  0  0  0  0  0
   73.9113   34.9270   55.7890 C   0  0  0  0  0  0  0  0  0  0  0  0
   75.2706   35.0817   55.7589 C   0  0  0  0  0  0  0  0  0  0  0  0
   75.9513   35.4373   54.6579 N   0  0  0  0  0  0  0  0  0  0  0  0
   76.1320   36.0418   52.3452 N   0  0  0  0  0  0  0  0  0  0  0  0
   77.1261   33.8814   52.3978 N   0  0  0  0  0  0  0  0  0  0  0  0
   77.2530   35.2560   51.8908 C   0  0  1  0  0  0  0  0  0  0  0  0
   77.2223   35.1382   50.4054 C   0  0  0  0  0  0  0  0  0  0  0  0
   78.0056   35.8259   49.5254 C   0  0  0  0  0  0  0  0  0  0  0  0
   77.9102   35.6590   48.1649 C   0  0  0  0  0  0  0  0  0  0  0  0
   76.9958   34.7674   47.6126 C   0  0  0  0  0  0  0  0  0  0  0  0
   76.1991   34.0675   48.4878 C   0  0  0  0  0  0  0  0  0  0  0  0
   76.3037   34.2423   49.8539 C   0  0  0  0  0  0  0  0  0  0  0  0
   73.0917   34.5103   56.9446 C   0  0  0  0  0  0  0  0  0  0  0  0
   72.3896   35.5881   57.6339 C   0  0  0  0  0  0  0  0  0  0  0  0
   72.3831   36.8289   57.1102 N   0  0  0  0  0  0  0  0  0  0  0  0
   71.7744   37.8492   57.6798 N   0  0  0  0  0  0  0  0  0  0  0  0
   71.1040   37.6946   58.8543 C   0  0  0  0  0  0  0  0  0  0  0  0
   70.5232   38.7065   59.3796 O   0  0  0  0  0  0  0  0  0  0  0  0
   71.0671   36.4584   59.4411 C   0  0  0  0  0  0  0  0  0  0  0  0
   71.7205   35.3994   58.8230 C   0  0  0  0  0  0  0  0  0  0  0  0
   71.7653   34.1012   59.4629 C   0  0  0  0  0  0  0  0  0  0  0  0
   70.7689   33.8730   60.5383 C   0  0  0  0  0  0  0  0  0  0  0  0
   70.1363   35.0534   61.1300 C   0  0  0  0  0  0  0  0  0  0  0  0
   70.2600   36.2776   60.6298 C   0  0  0  0  0  0  0  0  0  0  0  0
  9  8  1  1
  9  7  1  0
  9 10  1  0
  7  1  1  0
  1  2  2  0
  1  6  1  0
  2  3  1  0
  3  4  2  0
  4 16  1  0
  4  5  1  0
 16 17  1  0
 17 18  2  0
 17 23  1  0
 18 19  1  0
 19 20  1  0
 20 21  2  0
 20 22  1  0
 22 23  2  0
 22 27  1  0
 23 24  1  0
 24 25  1  0
 25 26  1  0
 26 27  2  0
  5  6  2  0
 10 11  2  0
 10 15  1  0
 11 12  1  0
 12 13  2  0
 13 14  1  0
 14 15  2  0
M  CHG  1   8   1
M  END
>  <minimizedAffinity>  (559) 
-9.00495

$$$$
cs_full_output_folder/data/smiles/3396.pdb
     RDKit          3D

 29 32  0  0  0  0  0  0  0  0999 V2000
   74.8555   35.3898   53.6580 C   0  0  0  0  0  0  0  0  0  0  0  0
   73.4755   35.4914   53.7685 C   0  0  0  0  0  0  0  0  0  0  0  0
   72.8360   35.3318   54.9744 C   0  0  0  0  0  0  0  0  0  0  0  0
   73.5431   35.0589   56.1549 C   0  0  0  0  0  0  0  0  0  0  0  0
   74.8907   34.9592   56.0482 C   0  0  0  0  0  0  0  0  0  0  0  0
   75.5257   35.1203   54.8369 C   0  0  0  0  0  0  0  0  0  0  0  0
   72.7578   34.8754   57.3680 C   0  0  0  0  0  0  0  0  0  0  0  0
   72.6212   33.6306   57.9112 N   0  0  0  0  0  0  0  0  0  0  0  0
   71.9141   33.4174   59.0044 N   0  0  0  0  0  0  0  0  0  0  0  0
   71.2796   34.3974   59.6640 C   0  0  0  0  0  0  0  0  0  0  0  0
   70.6068   34.1425   60.7212 O   0  0  0  0  0  0  0  0  0  0  0  0
   71.3684   35.6809   59.1781 C   0  0  0  0  0  0  0  0  0  0  0  0
   70.7054   36.6855   59.8473 C   0  0  0  0  0  0  0  0  0  0  0  0
   70.8054   37.9550   59.3226 C   0  0  0  0  0  0  0  0  0  0  0  0
   71.5385   38.2060   58.1750 C   0  0  0  0  0  0  0  0  0  0  0  0
   72.1891   37.1751   57.5316 C   0  0  0  0  0  0  0  0  0  0  0  0
   72.1198   35.9041   58.0165 C   0  0  0  0  0  0  0  0  0  0  0  0
   75.6453   34.4643   51.5384 C   0  0  0  0  0  0  0  0  0  0  0  0
   75.1363   33.3565   51.8974 O   0  0  0  0  0  0  0  0  0  0  0  0
   75.5249   35.5531   52.4215 N   0  0  0  0  0  0  0  0  0  0  0  0
   77.6009   34.6364   47.7358 C   0  0  0  0  0  0  0  0  0  0  0  0
   78.0618   35.3605   48.8115 C   0  0  0  0  0  0  0  0  0  0  0  0
   77.4338   35.3123   50.0509 C   0  0  0  0  0  0  0  0  0  0  0  0
   76.3133   34.5263   50.2472 C   0  0  0  0  0  0  0  0  0  0  0  0
   75.8476   33.7986   49.1736 C   0  0  0  0  0  0  0  0  0  0  0  0
   76.4820   33.8506   47.9274 C   0  0  0  0  0  0  0  0  0  0  0  0
   77.4490   34.7237   45.2628 C   0  0  0  0  0  0  0  0  0  0  0  0
   78.2433   34.6845   46.4629 N   0  0  0  0  0  0  0  0  0  0  0  0
   79.6926   34.6910   46.4158 C   0  0  0  0  0  0  0  0  0  0  0  0
 27 28  1  0
 28 29  1  0
 28 21  1  0
 21 22  2  0
 21 26  1  0
 22 23  1  0
 23 24  2  0
 24 18  1  0
 24 25  1  0
 18 19  2  0
 18 20  1  0
 20  1  1  0
  1  2  2  0
  1  6  1  0
  2  3  1  0
  3  4  2  0
  4  7  1  0
  4  5  1  0
  7  8  2  0
  7 17  1  0
  8  9  1  0
  9 10  1  0
 10 11  2  0
 10 12  1  0
 12 13  1  0
 12 17  2  0
 13 14  2  0
 14 15  1  0
 15 16  2  0
 16 17  1  0
  5  6  2  0
 25 26  2  0
M  END
>  <minimizedAffinity>  (560) 
-9.00339

$$$$
cs_full_output_folder/data/smiles/7413.pdb
     RDKit          3D

 29 32  0  0  0  0  0  0  0  0999 V2000
   71.0476   47.2033   58.4223 C   0  0  0  0  0  0  0  0  0  0  0  0
   71.7922   48.1736   59.1030 C   0  0  0  0  0  0  0  0  0  0  0  0
   71.6748   49.5102   58.8168 C   0  0  0  0  0  0  0  0  0  0  0  0
   70.7969   49.8926   57.8312 C   0  0  0  0  0  0  0  0  0  0  0  0
   70.0190   48.9771   57.1079 C   0  0  0  0  0  0  0  0  0  0  0  0
   70.1915   47.6550   57.4514 C   0  0  0  0  0  0  0  0  0  0  0  0
   71.3485   44.7530   57.8461 N   0  0  0  0  0  0  0  0  0  0  0  0
   71.2349   45.7952   58.7885 C   0  0  0  0  0  0  0  0  0  0  0  0
   71.2979   45.5047   60.0040 O   0  0  0  0  0  0  0  0  0  0  0  0
   71.5529   43.3661   58.0389 C   0  0  0  0  0  0  0  0  0  0  0  0
   66.6776   41.2717   58.9113 C   0  0  0  0  0  0  0  0  0  0  0  0
   67.9972   41.0285   58.4398 N   0  0  0  0  0  0  0  0  0  0  0  0
   68.3189   41.5315   57.1645 C   0  0  0  0  0  0  0  0  0  0  0  0
   69.2503   42.7638   57.2497 C   0  0  0  0  0  0  0  0  0  0  0  0
   70.4424   42.4196   58.0526 C   0  0  0  0  0  0  0  0  0  0  0  0
   69.9870   42.0864   59.4765 C   0  0  0  0  0  0  0  0  0  0  0  0
   69.0107   40.9425   59.4208 C   0  0  0  0  0  0  0  0  0  0  0  0
   69.0989   49.4667   56.0444 C   0  0  0  0  0  0  0  0  0  0  0  0
   69.4549   49.0652   54.6863 C   0  0  0  0  0  0  0  0  0  0  0  0
   70.3608   49.7775   53.9845 N   0  0  0  0  0  0  0  0  0  0  0  0
   70.7070   49.4823   52.7520 N   0  0  0  0  0  0  0  0  0  0  0  0
   70.1841   48.4426   52.0852 C   0  0  0  0  0  0  0  0  0  0  0  0
   70.5270   48.1743   50.9012 O   0  0  0  0  0  0  0  0  0  0  0  0
   69.2383   47.6633   52.7579 C   0  0  0  0  0  0  0  0  0  0  0  0
   68.8835   47.9856   54.0578 C   0  0  0  0  0  0  0  0  0  0  0  0
   67.8954   47.1025   54.7179 C   0  0  0  0  0  0  0  0  0  0  0  0
   68.1786   45.6853   54.1955 C   0  0  0  0  0  0  0  0  0  0  0  0
   67.6957   45.7010   52.7613 C   0  0  0  0  0  0  0  0  0  0  0  0
   68.6861   46.5343   51.9836 C   0  0  0  0  0  0  0  0  0  0  0  0
 11 12  1  0
 12 13  1  0
 12 17  1  0
 13 14  1  0
 14 15  1  0
 15 10  1  0
 15 16  1  0
 10  7  1  0
  7  8  1  0
  8  9  2  0
  8  1  1  0
  1  2  2  0
  1  6  1  0
  2  3  1  0
  3  4  2  0
  4  5  1  0
  5 18  1  0
  5  6  2  0
 18 19  1  0
 19 20  2  0
 19 25  1  0
 20 21  1  0
 21 22  1  0
 22 23  2  0
 22 24  1  0
 24 25  2  0
 24 29  1  0
 25 26  1  0
 26 27  1  0
 27 28  1  0
 28 29  1  0
 16 17  1  0
M  CHG  1  12   1
M  END
>  <minimizedAffinity>  (561) 
-9.00314

$$$$
cs_full_output_folder/data/smiles/1618.pdb
     RDKit          3D

 27 29  0  0  0  0  0  0  0  0999 V2000
   69.1771   49.6371   56.8747 C   0  0  0  0  0  0  0  0  0  0  0  0
   68.4879   50.7175   57.3839 C   0  0  0  0  0  0  0  0  0  0  0  0
   68.0684   51.7327   56.5327 C   0  0  0  0  0  0  0  0  0  0  0  0
   68.3521   51.6364   55.1918 C   0  0  0  0  0  0  0  0  0  0  0  0
   69.0508   50.5548   54.6272 C   0  0  0  0  0  0  0  0  0  0  0  0
   69.4403   49.5801   55.5251 C   0  0  0  0  0  0  0  0  0  0  0  0
   70.9156   48.7006   58.2953 C   0  0  0  0  0  0  0  0  0  0  0  0
   71.6122   49.7456   58.0816 O   0  0  0  0  0  0  0  0  0  0  0  0
   69.6291   48.5716   57.6976 N   0  0  0  0  0  0  0  0  0  0  0  0
   71.7738   43.9345   59.3452 C   0  0  0  0  0  0  0  0  0  0  0  0
   71.8920   45.3722   59.6675 C   0  0  0  0  0  0  0  0  0  0  0  0
   72.5496   45.7454   60.8135 C   0  0  0  0  0  0  0  0  0  0  0  0
   72.6398   47.1153   61.0827 C   0  0  0  0  0  0  0  0  0  0  0  0
   72.1294   48.0518   60.2962 N   0  0  0  0  0  0  0  0  0  0  0  0
   71.4769   47.6689   59.1582 C   0  0  0  0  0  0  0  0  0  0  0  0
   71.3586   46.3335   58.8448 C   0  0  0  0  0  0  0  0  0  0  0  0
   70.7032   45.9407   57.7003 O   0  0  0  0  0  0  0  0  0  0  0  0
   69.3043   50.4958   53.2458 N   0  0  0  0  0  0  0  0  0  0  0  0
   69.8994   49.1430   52.3968 S   0  0  0  0  0  0  0  0  0  0  0  0
   70.0313   49.4707   50.9186 O   0  0  0  0  0  0  0  0  0  0  0  0
   71.3238   48.8500   52.8591 O   0  0  0  0  0  0  0  0  0  0  0  0
   69.0169   47.6713   52.6344 C   0  0  0  0  0  0  0  0  0  0  0  0
   68.9164   47.1284   53.8838 C   0  0  0  0  0  0  0  0  0  0  0  0
   68.2229   45.9687   54.0799 C   0  0  0  0  0  0  0  0  0  0  0  0
   67.6053   45.3054   53.0458 C   0  0  0  0  0  0  0  0  0  0  0  0
   67.6929   45.8343   51.7768 C   0  0  0  0  0  0  0  0  0  0  0  0
   68.3967   47.0046   51.5966 C   0  0  0  0  0  0  0  0  0  0  0  0
 10 11  1  0
 11 12  2  0
 11 16  1  0
 12 13  1  0
 13 14  2  0
 14 15  1  0
 15  7  1  0
 15 16  2  0
  7  8  2  0
  7  9  1  0
  9  1  1  0
  1  2  2  0
  1  6  1  0
  2  3  1  0
  3  4  2  0
  4  5  1  0
  5 18  1  0
  5  6  2  0
 18 19  1  0
 19 20  2  0
 19 21  2  0
 19 22  1  0
 22 23  2  0
 22 27  1  0
 23 24  1  0
 24 25  2  0
 25 26  1  0
 26 27  2  0
 16 17  1  0
M  END
>  <minimizedAffinity>  (562) 
-9.00292

$$$$
cs_full_output_folder/data/smiles/2052.pdb
     RDKit          3D

 27 30  0  0  0  0  0  0  0  0999 V2000
   71.3378   46.7285   58.8929 C   0  0  0  0  0  0  0  0  0  0  0  0
   70.5751   47.5498   58.0957 C   0  0  0  0  0  0  0  0  0  0  0  0
   69.7130   47.0745   57.0988 C   0  0  0  0  0  0  0  0  0  0  0  0
   69.6616   45.7177   56.9497 C   0  0  0  0  0  0  0  0  0  0  0  0
   70.4219   44.8597   57.7439 C   0  0  0  0  0  0  0  0  0  0  0  0
   71.2670   45.3701   58.7239 C   0  0  0  0  0  0  0  0  0  0  0  0
   72.0121   44.5405   59.5028 F   0  0  0  0  0  0  0  0  0  0  0  0
   76.9830   48.1066   60.2211 C   0  0  0  0  0  0  0  0  0  0  0  0
   75.7371   47.4337   59.9399 N   0  0  2  0  0  0  0  0  0  0  0  0
   75.5356   47.1494   58.5496 C   0  0  0  0  0  0  0  0  0  0  0  0
   74.1080   47.5917   58.2250 C   0  0  0  0  0  0  0  0  0  0  0  0
   73.5370   47.6404   59.5529 N   0  0  0  0  0  0  0  0  0  0  0  0
   72.2293   47.2423   59.9233 C   0  0  0  0  0  0  0  0  0  0  0  0
   71.8068   47.3145   61.1106 O   0  0  0  0  0  0  0  0  0  0  0  0
   74.5946   48.1831   60.3995 C   0  0  0  0  0  0  0  0  0  0  0  0
   68.9648   48.0819   56.3131 C   0  0  0  0  0  0  0  0  0  0  0  0
   69.3942   48.1825   54.8991 C   0  0  0  0  0  0  0  0  0  0  0  0
   70.3530   49.0968   54.5364 N   0  0  0  0  0  0  0  0  0  0  0  0
   70.7246   49.2540   53.2884 N   0  0  0  0  0  0  0  0  0  0  0  0
   70.2266   48.5592   52.2551 C   0  0  0  0  0  0  0  0  0  0  0  0
   70.6273   48.7554   51.0563 O   0  0  0  0  0  0  0  0  0  0  0  0
   69.2596   47.6189   52.5362 C   0  0  0  0  0  0  0  0  0  0  0  0
   68.7349   46.8747   51.5040 C   0  0  0  0  0  0  0  0  0  0  0  0
   67.7763   45.9193   51.8097 C   0  0  0  0  0  0  0  0  0  0  0  0
   67.3632   45.7274   53.1156 C   0  0  0  0  0  0  0  0  0  0  0  0
   67.9156   46.4952   54.1150 C   0  0  0  0  0  0  0  0  0  0  0  0
   68.8757   47.4607   53.8493 C   0  0  0  0  0  0  0  0  0  0  0  0
  9  8  1  6
  9 10  1  0
  9 15  1  0
 10 11  1  0
 11 12  1  0
 12 13  1  0
 12 15  1  0
 13 14  2  0
 13  1  1  0
  1  2  2  0
  1  6  1  0
  2  3  1  0
  3 16  1  0
  3  4  2  0
 16 17  1  0
 17 18  2  0
 17 27  1  0
 18 19  1  0
 19 20  1  0
 20 21  2  0
 20 22  1  0
 22 23  1  0
 22 27  2  0
 23 24  2  0
 24 25  1  0
 25 26  2  0
 26 27  1  0
  4  5  1  0
  5  6  2  0
  6  7  1  0
M  CHG  1   9   1
M  END
>  <minimizedAffinity>  (563) 
-9.00253

$$$$
cs_full_output_folder/data/smiles/497.pdb
     RDKit          3D

 25 27  0  0  0  0  0  0  0  0999 V2000
   70.8644   39.2255   58.5625 C   0  0  0  0  0  0  0  0  0  0  0  0
   69.5455   39.3208   58.1470 C   0  0  0  0  0  0  0  0  0  0  0  0
   69.0376   40.5294   57.7273 C   0  0  0  0  0  0  0  0  0  0  0  0
   69.7904   41.6784   57.6973 C   0  0  0  0  0  0  0  0  0  0  0  0
   71.1004   41.6067   58.1054 C   0  0  0  0  0  0  0  0  0  0  0  0
   71.6176   40.3788   58.5326 C   0  0  0  0  0  0  0  0  0  0  0  0
   71.6218   42.9227   57.9636 N   0  0  0  0  0  0  0  0  0  0  0  0
   70.5224   43.8843   58.0103 C   0  0  0  0  0  0  0  0  0  0  0  0
   69.4744   43.0622   57.2754 C   0  0  0  0  0  0  0  0  0  0  0  0
   68.7163   43.6009   56.5859 N   0  0  0  0  0  0  0  0  0  0  0  0
   72.5668   38.1726   59.9568 C   0  0  0  0  0  0  0  0  0  0  0  0
   71.4372   37.9142   59.0000 C   0  0  0  0  0  0  0  0  0  0  0  0
   71.9622   37.1076   57.8378 C   0  0  0  0  0  0  0  0  0  0  0  0
   70.3834   37.1025   59.7426 C   0  0  0  0  0  0  0  0  0  0  0  0
   67.8684   44.2011   55.8155 N   0  0  0  0  0  0  0  0  0  0  0  0
   68.3186   45.3848   55.1190 C   0  0  0  0  0  0  0  0  0  0  0  0
   68.8957   46.4495   55.7687 C   0  0  0  0  0  0  0  0  0  0  0  0
   69.3396   47.5659   55.0997 C   0  0  0  0  0  0  0  0  0  0  0  0
   69.2129   47.6417   53.7398 C   0  0  0  0  0  0  0  0  0  0  0  0
   68.6363   46.5867   53.0485 C   0  0  0  0  0  0  0  0  0  0  0  0
   68.1920   45.4614   53.7515 C   0  0  0  0  0  0  0  0  0  0  0  0
   69.7589   49.0175   52.8094 S   0  0  0  0  0  0  0  0  0  0  0  0
   69.0334   50.4870   53.2852 N   0  0  0  0  0  0  0  0  0  0  0  0
   69.4233   48.7051   51.3621 O   0  0  0  0  0  0  0  0  0  0  0  0
   71.2471   49.1585   52.8740 O   0  0  0  0  0  0  0  0  0  0  0  0
 11 12  1  0
 12 13  1  0
 12 14  1  0
 12  1  1  0
  1  2  2  0
  1  6  1  0
  2  3  1  0
  3  4  2  0
  4  5  1  0
  4  9  1  0
  5  6  2  0
  5  7  1  0
  7  8  1  0
  8  9  1  0
  9 10  2  3
 10 15  1  0
 15 16  1  0
 16 17  2  0
 16 21  1  0
 17 18  1  0
 18 19  2  0
 19 22  1  0
 19 20  1  0
 22 23  1  0
 22 24  2  0
 22 25  2  0
 20 21  2  0
M  END
>  <minimizedAffinity>  (564) 
-9.00109

$$$$
cs_full_output_folder/data/smiles/5196.pdb
     RDKit          3D

 27 30  0  0  0  0  0  0  0  0999 V2000
   71.3437   47.1559   58.8487 C   0  0  0  0  0  0  0  0  0  0  0  0
   70.4991   47.9623   58.0793 C   0  0  0  0  0  0  0  0  0  0  0  0
   69.6863   47.4196   57.1285 C   0  0  0  0  0  0  0  0  0  0  0  0
   69.6812   46.0441   56.8996 C   0  0  0  0  0  0  0  0  0  0  0  0
   70.5074   45.2125   57.6432 C   0  0  0  0  0  0  0  0  0  0  0  0
   71.3252   45.7997   58.6110 C   0  0  0  0  0  0  0  0  0  0  0  0
   72.1246   44.9730   59.3289 F   0  0  0  0  0  0  0  0  0  0  0  0
   75.4468   48.3007   60.5554 N   0  0  0  0  0  0  0  0  0  0  0  0
   74.2292   49.0522   60.6189 C   0  0  1  0  0  0  0  0  0  0  0  0
   74.5797   50.4172   59.9722 C   0  0  0  0  0  0  0  0  0  0  0  0
   74.8926   49.9379   58.5738 C   0  0  0  0  0  0  0  0  0  0  0  0
   73.8194   48.9091   58.3249 C   0  0  0  0  0  0  0  0  0  0  0  0
   73.3178   48.4843   59.6194 N   0  0  0  0  0  0  0  0  0  0  0  0
   72.1973   47.6889   59.9191 C   0  0  0  0  0  0  0  0  0  0  0  0
   71.8531   47.3807   61.0927 O   0  0  0  0  0  0  0  0  0  0  0  0
   68.7465   48.2497   56.3280 C   0  0  0  0  0  0  0  0  0  0  0  0
   69.1573   48.3750   54.9184 C   0  0  0  0  0  0  0  0  0  0  0  0
   70.0686   49.3328   54.5634 N   0  0  0  0  0  0  0  0  0  0  0  0
   70.5595   49.4646   53.3578 N   0  0  0  0  0  0  0  0  0  0  0  0
   70.1830   48.6415   52.3801 C   0  0  0  0  0  0  0  0  0  0  0  0
   70.6657   48.7745   51.2107 O   0  0  0  0  0  0  0  0  0  0  0  0
   69.2710   47.6492   52.6422 C   0  0  0  0  0  0  0  0  0  0  0  0
   68.8763   46.8694   51.5822 C   0  0  0  0  0  0  0  0  0  0  0  0
   67.9012   45.8920   51.8097 C   0  0  0  0  0  0  0  0  0  0  0  0
   67.3836   45.7555   53.0749 C   0  0  0  0  0  0  0  0  0  0  0  0
   67.7928   46.5507   54.1351 C   0  0  0  0  0  0  0  0  0  0  0  0
   68.7552   47.5154   53.9137 C   0  0  0  0  0  0  0  0  0  0  0  0
  9  8  1  6
  9 10  1  0
  9 13  1  0
 10 11  1  0
 11 12  1  0
 12 13  1  0
 13 14  1  0
 14 15  2  0
 14  1  1  0
  1  2  2  0
  1  6  1  0
  2  3  1  0
  3 16  1  0
  3  4  2  0
 16 17  1  0
 17 18  2  0
 17 27  1  0
 18 19  1  0
 19 20  1  0
 20 21  2  0
 20 22  1  0
 22 23  1  0
 22 27  2  0
 23 24  2  0
 24 25  1  0
 25 26  2  0
 26 27  1  0
  4  5  1  0
  5  6  2  0
  6  7  1  0
M  CHG  1   8   1
M  END
>  <minimizedAffinity>  (565) 
-9.00046

$$$$
cs_full_output_folder/data/smiles/1100.pdb
     RDKit          3D

 27 28  0  0  0  0  0  0  0  0999 V2000
   67.6705   41.5155   58.1870 N   0  0  0  0  0  0  0  0  0  0  0  0
   67.7320   42.0388   56.8714 C   0  0  0  0  0  0  0  0  0  0  0  0
   67.6529   41.2102   55.9178 O   0  0  0  0  0  0  0  0  0  0  0  0
   67.8734   43.4013   56.5682 N   0  0  0  0  0  0  0  0  0  0  0  0
   67.9345   43.9175   55.2611 N   0  0  0  0  0  0  0  0  0  0  0  0
   68.2200   45.2815   55.1138 C   0  0  0  0  0  0  0  0  0  0  0  0
   68.4168   46.0288   56.1337 O   0  0  0  0  0  0  0  0  0  0  0  0
   68.3075   45.9217   53.8155 C   0  0  0  0  0  0  0  0  0  0  0  0
   67.5214   45.4797   52.7450 C   0  0  0  0  0  0  0  0  0  0  0  0
   67.5866   46.0656   51.5185 C   0  0  0  0  0  0  0  0  0  0  0  0
   68.4412   47.1124   51.3229 C   0  0  0  0  0  0  0  0  0  0  0  0
   69.2470   47.5996   52.3385 C   0  0  0  0  0  0  0  0  0  0  0  0
   69.1593   46.9768   53.5927 C   0  0  0  0  0  0  0  0  0  0  0  0
   70.1351   48.6816   52.1522 N   0  0  0  0  0  0  0  0  0  0  0  0
   71.0209   48.8960   52.9856 O   0  0  0  0  0  0  0  0  0  0  0  0
   70.0234   49.4898   51.0616 O   0  0  0  0  0  0  0  0  0  0  0  0
   66.8109   39.9979   59.8113 C   0  0  0  0  0  0  0  0  0  0  0  0
   67.5243   40.1021   58.4765 C   0  0  2  0  0  0  0  0  0  0  0  0
   68.8720   39.4797   58.6563 C   0  0  0  0  0  0  0  0  0  0  0  0
   70.0319   40.0743   58.2079 C   0  0  0  0  0  0  0  0  0  0  0  0
   71.2514   39.4603   58.3977 C   0  0  0  0  0  0  0  0  0  0  0  0
   71.3719   38.2344   59.0391 C   0  0  0  0  0  0  0  0  0  0  0  0
   70.2036   37.6467   59.4847 C   0  0  0  0  0  0  0  0  0  0  0  0
   68.9837   38.2623   59.2943 C   0  0  0  0  0  0  0  0  0  0  0  0
   72.6193   37.6033   59.2350 N   0  0  0  0  0  0  0  0  0  0  0  0
   73.1442   36.7267   58.2209 C   0  0  0  0  0  0  0  0  0  0  0  0
   73.3669   37.8324   60.4443 C   0  0  0  0  0  0  0  0  0  0  0  0
 18 17  1  1
 18  1  1  0
 18 19  1  0
  1  2  1  0
  2  3  2  0
  2  4  1  0
  4  5  1  0
  5  6  1  0
  6  7  2  0
  6  8  1  0
  8  9  2  0
  8 13  1  0
  9 10  1  0
 10 11  2  0
 11 12  1  0
 12 14  1  0
 12 13  2  0
 14 15  2  0
 14 16  1  0
 19 20  2  0
 19 24  1  0
 20 21  1  0
 21 22  2  0
 22 25  1  0
 22 23  1  0
 25 26  1  0
 25 27  1  0
 23 24  2  0
M  CHG  2  14   1  16  -1
M  END
>  <minimizedAffinity>  (566) 
-8.99717

$$$$
cs_full_output_folder/data/smiles/1957.pdb
     RDKit          3D

 27 30  0  0  0  0  0  0  0  0999 V2000
   70.2443   48.8715   51.1850 N   0  0  0  0  0  0  0  0  0  0  0  0
   69.6562   48.1670   52.0598 C   0  0  0  0  0  0  0  0  0  0  0  0
   69.1537   46.8219   51.8220 C   0  0  0  0  0  0  0  0  0  0  0  0
   68.6170   46.4326   52.9482 C   0  0  0  0  0  0  0  0  0  0  0  0
   68.7263   47.4586   53.9749 C   0  0  0  0  0  0  0  0  0  0  0  0
   69.3648   48.5287   53.4288 C   0  0  0  0  0  0  0  0  0  0  0  0
   69.6401   49.6929   54.1634 N   0  0  0  0  0  0  0  0  0  0  0  0
   70.8822   50.3394   54.3303 C   0  0  0  0  0  0  0  0  0  0  0  0
   71.8848   49.8346   53.7644 O   0  0  0  0  0  0  0  0  0  0  0  0
   71.0625   51.5667   55.1299 C   0  0  0  0  0  0  0  0  0  0  0  0
   69.9405   52.3141   55.4581 C   0  0  0  0  0  0  0  0  0  0  0  0
   70.0372   53.4792   56.2008 C   0  0  0  0  0  0  0  0  0  0  0  0
   71.2830   53.9197   56.6344 C   0  0  0  0  0  0  0  0  0  0  0  0
   72.4039   53.1917   56.3193 C   0  0  0  0  0  0  0  0  0  0  0  0
   72.2675   52.0362   55.5767 C   0  0  0  0  0  0  0  0  0  0  0  0
   68.1921   47.4286   55.3552 C   0  0  0  0  0  0  0  0  0  0  0  0
   68.9874   46.7080   56.3584 C   0  0  0  0  0  0  0  0  0  0  0  0
   68.9698   45.3383   56.3682 N   0  0  0  0  0  0  0  0  0  0  0  0
   69.6159   44.5733   57.1792 N   0  0  0  0  0  0  0  0  0  0  0  0
   70.3860   45.1390   58.1097 C   0  0  0  0  0  0  0  0  0  0  0  0
   71.0323   44.4511   58.9199 O   0  0  0  0  0  0  0  0  0  0  0  0
   70.4903   46.5280   58.2023 C   0  0  0  0  0  0  0  0  0  0  0  0
   69.7750   47.3154   57.3133 C   0  0  0  0  0  0  0  0  0  0  0  0
   69.7975   48.7714   57.4942 C   0  0  0  0  0  0  0  0  0  0  0  0
   71.0013   49.2897   58.1811 C   0  0  0  0  0  0  0  0  0  0  0  0
   71.6902   48.3902   59.1049 C   0  0  0  0  0  0  0  0  0  0  0  0
   71.4656   47.0990   59.1227 C   0  0  0  0  0  0  0  0  0  0  0  0
  1  2  2  0
  2  3  1  0
  2  6  1  0
  3  4  2  0
  4  5  1  0
  5 16  1  0
  5  6  2  0
 16 17  1  0
 17 18  2  0
 17 23  1  0
 18 19  1  0
 19 20  1  0
 20 21  2  0
 20 22  1  0
 22 23  2  0
 22 27  1  0
 23 24  1  0
 24 25  1  0
 25 26  1  0
 26 27  2  0
  6  7  1  0
  7  8  1  0
  8  9  2  0
  8 10  1  0
 10 11  2  0
 10 15  1  0
 11 12  1  0
 12 13  2  0
 13 14  1  0
 14 15  2  0
M  END
>  <minimizedAffinity>  (567) 
-8.99694

$$$$
cs_full_output_folder/data/smiles/8557.pdb
     RDKit          3D

 26 29  0  0  0  0  0  0  0  0999 V2000
   70.8611   52.7255   55.8574 C   0  0  0  0  0  0  0  0  0  0  0  0
   70.8907   51.6226   55.0424 C   0  0  0  0  0  0  0  0  0  0  0  0
   69.7692   51.1609   54.4556 C   0  0  0  0  0  0  0  0  0  0  0  0
   68.5619   51.8306   54.6956 C   0  0  0  0  0  0  0  0  0  0  0  0
   68.5055   52.9367   55.5074 C   0  0  0  0  0  0  0  0  0  0  0  0
   69.6717   53.3821   56.0901 C   0  0  0  0  0  0  0  0  0  0  0  0
   69.6248   54.4871   56.9028 F   0  0  0  0  0  0  0  0  0  0  0  0
   69.6986   50.0098   53.5503 C   0  0  0  0  0  0  0  0  0  0  0  0
   70.1073   50.1433   52.2563 N   0  0  0  0  0  0  0  0  0  0  0  0
   70.0702   49.1374   51.4016 N   0  0  0  0  0  0  0  0  0  0  0  0
   69.6309   47.9235   51.7447 C   0  0  0  0  0  0  0  0  0  0  0  0
   69.5918   46.9481   50.9239 O   0  0  0  0  0  0  0  0  0  0  0  0
   69.1977   47.6987   53.0407 C   0  0  0  0  0  0  0  0  0  0  0  0
   68.7552   46.4466   53.4159 C   0  0  0  0  0  0  0  0  0  0  0  0
   68.3508   46.2635   54.7161 C   0  0  0  0  0  0  0  0  0  0  0  0
   68.3913   47.3101   55.6115 C   0  0  0  0  0  0  0  0  0  0  0  0
   68.8363   48.5639   55.2260 C   0  0  0  0  0  0  0  0  0  0  0  0
   69.2437   48.7809   53.9417 C   0  0  0  0  0  0  0  0  0  0  0  0
   71.5856   51.9118   58.3519 N   0  0  0  0  0  0  0  0  0  0  0  0
   72.3408   52.7698   57.7929 C   0  0  0  0  0  0  0  0  0  0  0  0
   73.5547   53.2709   58.5216 C   0  0  0  0  0  0  0  0  0  0  0  0
   73.8324   54.6828   58.0430 C   0  0  0  0  0  0  0  0  0  0  0  0
   74.0859   54.7318   56.5396 C   0  0  0  0  0  0  0  0  0  0  0  0
   72.8539   54.1951   55.8537 C   0  0  0  0  0  0  0  0  0  0  0  0
   72.6015   54.6284   54.7055 O   0  0  0  0  0  0  0  0  0  0  0  0
   72.0241   53.2395   56.4906 N   0  0  0  0  0  0  0  0  0  0  0  0
 19 20  2  0
 20 21  1  0
 20 26  1  0
 21 22  1  0
 22 23  1  0
 23 24  1  0
 24 25  2  0
 24 26  1  0
 26  1  1  0
  1  2  2  0
  1  6  1  0
  2  3  1  0
  3  8  1  0
  3  4  2  0
  8  9  2  0
  8 18  1  0
  9 10  1  0
 10 11  1  0
 11 12  2  0
 11 13  1  0
 13 14  1  0
 13 18  2  0
 14 15  2  0
 15 16  1  0
 16 17  2  0
 17 18  1  0
  4  5  1  0
  5  6  2  0
  6  7  1  0
M  CHG  1  19   1
M  END
>  <minimizedAffinity>  (568) 
-8.99619

$$$$
cs_full_output_folder/data/smiles/3944.pdb
     RDKit          3D

 28 31  0  0  0  0  0  0  0  0999 V2000
   71.4757   47.0919   58.8144 C   0  0  0  0  0  0  0  0  0  0  0  0
   70.6264   47.8700   58.0510 C   0  0  0  0  0  0  0  0  0  0  0  0
   69.7426   47.3521   57.1473 C   0  0  0  0  0  0  0  0  0  0  0  0
   69.7200   45.9542   57.0108 C   0  0  0  0  0  0  0  0  0  0  0  0
   70.5462   45.1425   57.7484 C   0  0  0  0  0  0  0  0  0  0  0  0
   71.4141   45.7283   58.6432 C   0  0  0  0  0  0  0  0  0  0  0  0
   72.2382   44.9455   59.3823 F   0  0  0  0  0  0  0  0  0  0  0  0
   72.0170   47.7683   60.9717 O   0  0  0  0  0  0  0  0  0  0  0  0
   72.4111   47.7044   59.7776 C   0  0  0  0  0  0  0  0  0  0  0  0
   73.6845   48.1950   59.3856 N   0  0  0  0  0  0  0  0  0  0  0  0
   74.5184   48.7753   60.4150 C   0  0  0  0  0  0  0  0  0  0  0  0
   75.7419   49.4589   59.8885 C   0  0  0  0  0  0  0  0  0  0  0  0
   76.3660   48.6535   58.7649 C   0  0  0  0  0  0  0  0  0  0  0  0
   75.3601   48.6650   57.6330 C   0  0  2  0  0  0  0  0  0  0  0  0
   75.1466   49.9864   57.2295 F   0  0  0  0  0  0  0  0  0  0  0  0
   74.0440   48.0747   57.9969 C   0  0  0  0  0  0  0  0  0  0  0  0
   68.7878   48.1274   56.3052 C   0  0  0  0  0  0  0  0  0  0  0  0
   69.2630   48.2735   54.9021 C   0  0  0  0  0  0  0  0  0  0  0  0
   70.2257   49.2055   54.6170 N   0  0  0  0  0  0  0  0  0  0  0  0
   70.7224   49.3458   53.4097 N   0  0  0  0  0  0  0  0  0  0  0  0
   70.3187   48.5852   52.3808 C   0  0  0  0  0  0  0  0  0  0  0  0
   70.7909   48.7181   51.2410 O   0  0  0  0  0  0  0  0  0  0  0  0
   69.3479   47.6382   52.6423 C   0  0  0  0  0  0  0  0  0  0  0  0
   68.8637   46.8174   51.6317 C   0  0  0  0  0  0  0  0  0  0  0  0
   67.8883   45.8677   51.8331 C   0  0  0  0  0  0  0  0  0  0  0  0
   67.3614   45.7182   53.0977 C   0  0  0  0  0  0  0  0  0  0  0  0
   67.8153   46.5135   54.1307 C   0  0  0  0  0  0  0  0  0  0  0  0
   68.7921   47.4572   53.9124 C   0  0  0  0  0  0  0  0  0  0  0  0
  8  9  2  0
  9  1  1  0
  9 10  1  0
  1  2  2  0
  1  6  1  0
  2  3  1  0
  3 17  1  0
  3  4  2  0
 17 18  1  0
 18 19  2  0
 18 28  1  0
 19 20  1  0
 20 21  1  0
 21 22  2  0
 21 23  1  0
 23 24  1  0
 23 28  2  0
 24 25  2  0
 25 26  1  0
 26 27  2  0
 27 28  1  0
  4  5  1  0
  5  6  2  0
  6  7  1  0
 10 11  1  0
 10 16  1  0
 11 12  1  0
 12 13  1  0
 13 14  1  0
 14 15  1  1
 14 16  1  0
M  END
>  <minimizedAffinity>  (569) 
-8.99115

$$$$
cs_full_output_folder/data/smiles/581.pdb
     RDKit          3D

 26 29  0  0  0  0  0  0  0  0999 V2000
   70.8507   45.7776   58.2099 C   0  0  0  0  0  0  0  0  0  0  0  0
   72.0099   46.3510   58.6815 C   0  0  0  0  0  0  0  0  0  0  0  0
   72.2697   47.6638   58.3908 C   0  0  0  0  0  0  0  0  0  0  0  0
   71.4067   48.4308   57.6401 C   0  0  0  0  0  0  0  0  0  0  0  0
   70.2233   47.8644   57.1517 C   0  0  0  0  0  0  0  0  0  0  0  0
   69.9853   46.5562   57.4536 C   0  0  0  0  0  0  0  0  0  0  0  0
   70.5489   44.3998   58.4985 N   0  0  0  0  0  0  0  0  0  0  0  0
   71.3219   42.1339   58.0553 C   0  0  0  0  0  0  0  0  0  0  0  0
   70.5137   43.3238   57.5730 C   0  0  1  0  0  0  0  0  0  0  0  0
   69.2128   42.9765   57.0115 C   0  0  0  0  0  0  0  0  0  0  0  0
   68.3450   43.4851   56.1195 C   0  0  0  0  0  0  0  0  0  0  0  0
   67.2220   42.8130   55.9282 N   0  0  0  0  0  0  0  0  0  0  0  0
   66.8720   41.8276   56.4285 C   0  0  0  0  0  0  0  0  0  0  0  0
   68.3751   41.5278   57.5538 S   0  0  0  0  0  0  0  0  0  0  0  0
   69.3102   48.7213   56.3133 C   0  0  0  0  0  0  0  0  0  0  0  0
   69.6709   48.5883   54.8931 C   0  0  0  0  0  0  0  0  0  0  0  0
   70.7536   49.2656   54.3893 N   0  0  0  0  0  0  0  0  0  0  0  0
   71.1048   49.2201   53.1208 N   0  0  0  0  0  0  0  0  0  0  0  0
   70.3948   48.4871   52.2535 C   0  0  0  0  0  0  0  0  0  0  0  0
   70.7111   48.4293   51.0391 O   0  0  0  0  0  0  0  0  0  0  0  0
   69.2952   47.7735   52.6634 C   0  0  0  0  0  0  0  0  0  0  0  0
   68.9541   47.8443   54.0120 C   0  0  0  0  0  0  0  0  0  0  0  0
   67.7919   47.0392   54.4379 C   0  0  0  0  0  0  0  0  0  0  0  0
   67.7819   45.6562   53.8009 C   0  0  0  0  0  0  0  0  0  0  0  0
   68.1256   45.6299   52.3609 C   0  0  0  0  0  0  0  0  0  0  0  0
   68.4519   46.9581   51.7701 C   0  0  0  0  0  0  0  0  0  0  0  0
  9  8  1  1
  9  7  1  0
  9 10  1  0
  7  1  1  0
  1  2  2  0
  1  6  1  0
  2  3  1  0
  3  4  2  0
  4  5  1  0
  5 15  1  0
  5  6  2  0
 15 16  1  0
 16 17  2  0
 16 22  1  0
 17 18  1  0
 18 19  1  0
 19 20  2  0
 19 21  1  0
 21 22  2  0
 21 26  1  0
 22 23  1  0
 23 24  1  0
 24 25  1  0
 25 26  1  0
 10 11  2  0
 10 14  1  0
 11 12  1  0
 12 13  2  0
 13 14  1  0
M  END
>  <minimizedAffinity>  (570) 
-8.99025

$$$$
cs_full_output_folder/data/smiles/4554.pdb
     RDKit          3D

 27 30  0  0  0  0  0  0  0  0999 V2000
   69.7588   45.6355   58.8610 O   0  0  0  0  0  0  0  0  0  0  0  0
   70.7522   46.2444   58.4260 C   0  0  0  0  0  0  0  0  0  0  0  0
   70.5275   47.2663   57.4684 N   0  0  0  0  0  0  0  0  0  0  0  0
   72.0897   45.8938   58.9057 C   0  0  0  0  0  0  0  0  0  0  0  0
   72.6520   46.3047   60.0996 C   0  0  0  0  0  0  0  0  0  0  0  0
   73.8883   45.7655   60.1670 N   0  0  0  0  0  0  0  0  0  0  0  0
   74.1619   45.0437   59.1112 N   0  0  0  0  0  0  0  0  0  0  0  0
   73.0556   45.1088   58.3126 C   0  0  0  0  0  0  0  0  0  0  0  0
   75.3664   44.3320   58.8512 C   0  0  0  0  0  0  0  0  0  0  0  0
   75.3091   43.0461   58.3567 C   0  0  0  0  0  0  0  0  0  0  0  0
   76.4404   42.3076   58.0835 C   0  0  0  0  0  0  0  0  0  0  0  0
   77.6959   42.8444   58.3006 C   0  0  0  0  0  0  0  0  0  0  0  0
   79.1299   41.8838   57.9464 Cl  0  0  0  0  0  0  0  0  0  0  0  0
   77.7670   44.1247   58.7936 C   0  0  0  0  0  0  0  0  0  0  0  0
   76.6158   44.8691   59.0691 C   0  0  0  0  0  0  0  0  0  0  0  0
   69.2263   47.6354   56.9758 C   0  0  0  0  0  0  0  0  0  0  0  0
   68.7810   46.8867   55.7925 C   0  0  0  0  0  0  0  0  0  0  0  0
   68.2111   45.6753   55.9107 N   0  0  0  0  0  0  0  0  0  0  0  0
   67.7993   44.9855   54.8461 N   0  0  0  0  0  0  0  0  0  0  0  0
   67.9253   45.4497   53.5871 C   0  0  0  0  0  0  0  0  0  0  0  0
   67.5332   44.7892   52.5846 O   0  0  0  0  0  0  0  0  0  0  0  0
   68.5131   46.7013   53.4438 C   0  0  0  0  0  0  0  0  0  0  0  0
   68.9434   47.4277   54.5324 C   0  0  0  0  0  0  0  0  0  0  0  0
   69.5682   48.7586   54.3696 C   0  0  0  0  0  0  0  0  0  0  0  0
   69.7884   49.1225   52.9459 C   0  0  0  0  0  0  0  0  0  0  0  0
   69.9784   47.9462   52.0171 C   0  0  0  0  0  0  0  0  0  0  0  0
   68.6429   47.1941   52.0407 C   0  0  0  0  0  0  0  0  0  0  0  0
  1  2  2  0
  2  3  1  0
  2  4  1  0
  3 16  1  0
 16 17  1  0
 17 18  2  0
 17 23  1  0
 18 19  1  0
 19 20  1  0
 20 21  2  0
 20 22  1  0
 22 23  2  0
 22 27  1  0
 23 24  1  0
 24 25  1  0
 25 26  1  0
 26 27  1  0
  4  5  1  0
  4  8  2  0
  5  6  2  0
  6  7  1  0
  7  9  1  0
  7  8  1  0
  9 10  2  0
  9 15  1  0
 10 11  1  0
 11 12  2  0
 12 13  1  0
 12 14  1  0
 14 15  2  0
M  END
>  <minimizedAffinity>  (571) 
-8.99009

$$$$
cs_full_output_folder/data/smiles/5324.pdb
     RDKit          3D

 29 32  0  0  0  0  0  0  0  0999 V2000
   70.8766   47.8646   58.2618 C   0  0  0  0  0  0  0  0  0  0  0  0
   71.5354   46.9532   59.1113 C   0  0  0  0  0  0  0  0  0  0  0  0
   71.3105   45.6172   58.8976 C   0  0  0  0  0  0  0  0  0  0  0  0
   71.9121   44.6868   59.6750 F   0  0  0  0  0  0  0  0  0  0  0  0
   70.4774   45.1615   57.8978 C   0  0  0  0  0  0  0  0  0  0  0  0
   69.8742   46.0974   57.1154 C   0  0  0  0  0  0  0  0  0  0  0  0
   70.0445   47.5042   57.2616 C   0  0  0  0  0  0  0  0  0  0  0  0
   75.7947   49.5805   56.7806 C   0  0  0  0  0  0  0  0  0  0  0  0
   74.7896   49.1246   57.8266 C   0  0  1  0  0  0  0  0  0  0  0  0
   75.1940   47.8262   58.1644 F   0  0  0  0  0  0  0  0  0  0  0  0
   74.8709   49.9198   59.0889 C   0  0  0  0  0  0  0  0  0  0  0  0
   74.1598   51.2249   59.0983 C   0  0  0  0  0  0  0  0  0  0  0  0
   72.8057   51.1731   58.4070 C   0  0  0  0  0  0  0  0  0  0  0  0
   72.4532   49.8082   58.0848 N   0  0  0  0  0  0  0  0  0  0  0  0
   71.2282   49.2487   58.5497 C   0  0  0  0  0  0  0  0  0  0  0  0
   70.4166   49.9223   59.2284 O   0  0  0  0  0  0  0  0  0  0  0  0
   73.4004   49.0416   57.2944 C   0  0  0  0  0  0  0  0  0  0  0  0
   69.2655   48.3549   56.3379 C   0  0  0  0  0  0  0  0  0  0  0  0
   69.6248   48.3325   54.9273 C   0  0  0  0  0  0  0  0  0  0  0  0
   70.5963   49.1825   54.4966 N   0  0  0  0  0  0  0  0  0  0  0  0
   70.9122   49.2777   53.2297 N   0  0  0  0  0  0  0  0  0  0  0  0
   70.3183   48.5595   52.2634 C   0  0  0  0  0  0  0  0  0  0  0  0
   70.6580   48.6827   51.0436 O   0  0  0  0  0  0  0  0  0  0  0  0
   69.3229   47.6695   52.6108 C   0  0  0  0  0  0  0  0  0  0  0  0
   68.7183   46.8641   51.6541 C   0  0  0  0  0  0  0  0  0  0  0  0
   67.7675   45.9330   52.0050 C   0  0  0  0  0  0  0  0  0  0  0  0
   67.4379   45.8304   53.3364 C   0  0  0  0  0  0  0  0  0  0  0  0
   68.0371   46.6319   54.2860 C   0  0  0  0  0  0  0  0  0  0  0  0
   68.9992   47.5803   53.9589 C   0  0  0  0  0  0  0  0  0  0  0  0
  9  8  1  6
  9 10  1  0
  9 11  1  0
  9 17  1  0
 11 12  1  0
 12 13  1  0
 13 14  1  0
 14 15  1  0
 14 17  1  0
 15 16  2  0
 15  1  1  0
  1  2  2  0
  1  7  1  0
  2  3  1  0
  3  4  1  0
  3  5  2  0
  5  6  1  0
  6  7  2  0
  7 18  1  0
 18 19  1  0
 19 20  2  0
 19 29  1  0
 20 21  1  0
 21 22  1  0
 22 23  2  0
 22 24  1  0
 24 25  1  0
 24 29  2  0
 25 26  2  0
 26 27  1  0
 27 28  2  0
 28 29  1  0
M  END
>  <minimizedAffinity>  (572) 
-8.98845

$$$$
cs_full_output_folder/data/smiles/2168.pdb
     RDKit          3D

 27 30  0  0  0  0  0  0  0  0999 V2000
   71.4432   46.8848   58.8063 C   0  0  0  0  0  0  0  0  0  0  0  0
   70.6530   47.6882   58.0076 C   0  0  0  0  0  0  0  0  0  0  0  0
   69.7278   47.1585   57.1019 C   0  0  0  0  0  0  0  0  0  0  0  0
   69.6352   45.8093   57.0374 C   0  0  0  0  0  0  0  0  0  0  0  0
   70.4262   44.9808   57.8381 C   0  0  0  0  0  0  0  0  0  0  0  0
   71.3254   45.5247   58.7178 C   0  0  0  0  0  0  0  0  0  0  0  0
   72.1180   44.7713   59.5175 F   0  0  0  0  0  0  0  0  0  0  0  0
   77.0622   49.0506   59.6003 C   0  0  0  0  0  0  0  0  0  0  0  0
   76.0554   47.9080   59.5077 C   0  0  1  0  0  0  0  0  0  0  0  0
   74.7794   48.2382   60.2216 C   0  0  0  0  0  0  0  0  0  0  0  0
   73.7632   47.6525   59.3753 N   0  0  0  0  0  0  0  0  0  0  0  0
   72.4017   47.4951   59.7424 C   0  0  0  0  0  0  0  0  0  0  0  0
   72.0309   47.8803   60.8698 O   0  0  0  0  0  0  0  0  0  0  0  0
   74.3399   47.2538   58.1001 C   0  0  0  0  0  0  0  0  0  0  0  0
   75.6539   47.8238   58.1252 N   0  0  0  0  0  0  0  0  0  0  0  0
   68.9757   48.1395   56.3061 C   0  0  0  0  0  0  0  0  0  0  0  0
   69.3912   48.2135   54.8892 C   0  0  0  0  0  0  0  0  0  0  0  0
   70.3439   49.1301   54.5271 N   0  0  0  0  0  0  0  0  0  0  0  0
   70.7454   49.2916   53.2833 N   0  0  0  0  0  0  0  0  0  0  0  0
   70.2472   48.5646   52.2689 C   0  0  0  0  0  0  0  0  0  0  0  0
   70.6565   48.7465   51.0787 O   0  0  0  0  0  0  0  0  0  0  0  0
   69.2871   47.6229   52.5523 C   0  0  0  0  0  0  0  0  0  0  0  0
   68.7778   46.8661   51.5245 C   0  0  0  0  0  0  0  0  0  0  0  0
   67.8292   45.9236   51.8334 C   0  0  0  0  0  0  0  0  0  0  0  0
   67.3975   45.7382   53.1316 C   0  0  0  0  0  0  0  0  0  0  0  0
   67.9194   46.5099   54.1580 C   0  0  0  0  0  0  0  0  0  0  0  0
   68.8654   47.4572   53.8777 C   0  0  0  0  0  0  0  0  0  0  0  0
  9  8  1  6
  9 10  1  0
  9 15  1  0
 10 11  1  0
 11 12  1  0
 11 14  1  0
 12 13  2  0
 12  1  1  0
  1  2  2  0
  1  6  1  0
  2  3  1  0
  3 16  1  0
  3  4  2  0
 16 17  1  0
 17 18  2  0
 17 27  1  0
 18 19  1  0
 19 20  1  0
 20 21  2  0
 20 22  1  0
 22 23  1  0
 22 27  2  0
 23 24  2  0
 24 25  1  0
 25 26  2  0
 26 27  1  0
  4  5  1  0
  5  6  2  0
  6  7  1  0
 14 15  1  0
M  CHG  1  15   1
M  END
>  <minimizedAffinity>  (573) 
-8.98757

$$$$
cs_full_output_folder/data/smiles/2340.pdb
     RDKit          3D

 27 30  0  0  0  0  0  0  0  0999 V2000
   70.4341   47.9448   57.3796 C   0  0  0  0  0  0  0  0  0  0  0  0
   71.6857   48.2200   57.7962 C   0  0  0  0  0  0  0  0  0  0  0  0
   72.4027   47.3425   58.5616 C   0  0  0  0  0  0  0  0  0  0  0  0
   71.8423   46.1508   58.9181 C   0  0  0  0  0  0  0  0  0  0  0  0
   70.5238   45.8148   58.5025 C   0  0  0  0  0  0  0  0  0  0  0  0
   69.8571   46.7199   57.7442 C   0  0  0  0  0  0  0  0  0  0  0  0
   69.5815   48.8647   56.5499 C   0  0  0  0  0  0  0  0  0  0  0  0
   70.6499   48.4135   50.9758 N   0  0  0  0  0  0  0  0  0  0  0  0
   70.3294   48.4946   52.3578 C   0  0  0  0  0  0  0  0  0  0  0  0
   71.0776   49.2679   53.2030 N   0  0  0  0  0  0  0  0  0  0  0  0
   70.8195   49.3742   54.4902 N   0  0  0  0  0  0  0  0  0  0  0  0
   69.7846   48.7261   55.1115 C   0  0  0  0  0  0  0  0  0  0  0  0
   69.0222   47.9465   54.2800 C   0  0  0  0  0  0  0  0  0  0  0  0
   69.2797   47.8241   52.9250 C   0  0  0  0  0  0  0  0  0  0  0  0
   68.3941   46.9465   52.1414 C   0  0  0  0  0  0  0  0  0  0  0  0
   68.3377   45.6180   52.8783 C   0  0  0  0  0  0  0  0  0  0  0  0
   67.9982   45.7529   54.3141 C   0  0  0  0  0  0  0  0  0  0  0  0
   67.8412   47.1918   54.7450 C   0  0  0  0  0  0  0  0  0  0  0  0
   70.0344   44.5626   58.9530 N   0  0  0  0  0  0  0  0  0  0  0  0
   70.3258   43.0405   58.3116 S   0  0  0  0  0  0  0  0  0  0  0  0
   70.6422   42.0132   59.3967 O   0  0  0  0  0  0  0  0  0  0  0  0
   71.6069   43.0374   57.4553 O   0  0  0  0  0  0  0  0  0  0  0  0
   69.0645   42.3518   57.3339 C   0  0  0  0  0  0  0  0  0  0  0  0
   68.1480   42.9222   56.4998 C   0  0  0  0  0  0  0  0  0  0  0  0
   67.3432   41.9510   55.9490 C   0  0  0  0  0  0  0  0  0  0  0  0
   67.8312   40.7680   56.5021 C   0  0  0  0  0  0  0  0  0  0  0  0
   68.8181   41.0369   57.2902 O   0  0  0  0  0  0  0  0  0  0  0  0
  8  9  1  0
  9 10  2  0
  9 14  1  0
 10 11  1  0
 11 12  2  0
 12  7  1  0
 12 13  1  0
  7  1  1  0
  1  2  2  0
  1  6  1  0
  2  3  1  0
  3  4  2  0
  4  5  1  0
  5 19  1  0
  5  6  2  0
 19 20  1  0
 20 21  2  0
 20 22  2  0
 20 23  1  0
 23 24  2  0
 23 27  1  0
 24 25  1  0
 25 26  2  0
 26 27  1  0
 13 14  2  0
 13 18  1  0
 14 15  1  0
 15 16  1  0
 16 17  1  0
 17 18  1  0
M  END
>  <minimizedAffinity>  (574) 
-8.98672

$$$$
cs_full_output_folder/data/smiles/1984.pdb
     RDKit          3D

 27 30  0  0  0  0  0  0  0  0999 V2000
   70.8261   46.1305   58.2787 C   0  0  0  0  0  0  0  0  0  0  0  0
   72.0605   46.4996   58.7664 C   0  0  0  0  0  0  0  0  0  0  0  0
   72.6253   47.7220   58.4803 C   0  0  0  0  0  0  0  0  0  0  0  0
   71.8785   48.5778   57.6624 C   0  0  0  0  0  0  0  0  0  0  0  0
   70.6477   48.2372   57.1640 C   0  0  0  0  0  0  0  0  0  0  0  0
   70.1882   46.9990   57.5157 N   0  0  0  0  0  0  0  0  0  0  0  0
   70.3442   44.3397   59.7563 O   0  0  0  0  0  0  0  0  0  0  0  0
   70.2717   44.8168   58.5970 C   0  0  0  0  0  0  0  0  0  0  0  0
   69.6365   44.0492   57.5803 N   0  0  0  0  0  0  0  0  0  0  0  0
   69.0597   42.7323   57.7945 C   0  0  0  0  0  0  0  0  0  0  0  0
   68.1345   42.4439   56.6485 C   0  0  0  0  0  0  0  0  0  0  0  0
   67.9460   40.9770   56.4498 C   0  0  0  0  0  0  0  0  0  0  0  0
   68.1710   40.1401   57.6781 C   0  0  0  0  0  0  0  0  0  0  0  0
   69.5283   40.3871   58.2965 C   0  0  0  0  0  0  0  0  0  0  0  0
   70.1449   41.6692   57.8291 C   0  0  0  0  0  0  0  0  0  0  0  0
   69.8020   49.1135   56.2950 C   0  0  0  0  0  0  0  0  0  0  0  0
   69.8784   48.8075   54.8730 C   0  0  0  0  0  0  0  0  0  0  0  0
   70.8940   49.3838   54.1351 N   0  0  0  0  0  0  0  0  0  0  0  0
   71.0748   49.1250   52.8583 N   0  0  0  0  0  0  0  0  0  0  0  0
   70.2681   48.2694   52.1842 C   0  0  0  0  0  0  0  0  0  0  0  0
   70.4663   48.0428   50.9690 O   0  0  0  0  0  0  0  0  0  0  0  0
   69.2661   47.6941   52.8858 C   0  0  0  0  0  0  0  0  0  0  0  0
   69.0492   47.9530   54.2471 C   0  0  0  0  0  0  0  0  0  0  0  0
   67.9135   47.2964   54.8427 C   0  0  0  0  0  0  0  0  0  0  0  0
   68.0144   45.7782   54.5885 C   0  0  0  0  0  0  0  0  0  0  0  0
   68.3171   45.4833   53.1550 C   0  0  0  0  0  0  0  0  0  0  0  0
   68.3130   46.7331   52.2862 C   0  0  0  0  0  0  0  0  0  0  0  0
  7  8  2  0
  8  9  1  0
  8  1  1  0
  9 10  1  0
 10 11  1  0
 10 15  1  0
 11 12  1  0
 12 13  1  0
 13 14  1  0
 14 15  1  0
  1  2  2  0
  1  6  1  0
  2  3  1  0
  3  4  2  0
  4  5  1  0
  5 16  1  0
  5  6  2  0
 16 17  1  0
 17 18  2  0
 17 23  1  0
 18 19  1  0
 19 20  1  0
 20 21  2  0
 20 22  1  0
 22 23  2  0
 22 27  1  0
 23 24  1  0
 24 25  1  0
 25 26  1  0
 26 27  1  0
M  END
>  <minimizedAffinity>  (575) 
-8.98608

$$$$
cs_full_output_folder/data/smiles/2282.pdb
     RDKit          3D

 27 30  0  0  0  0  0  0  0  0999 V2000
   71.6813   50.8122   54.5266 C   0  0  0  0  0  0  0  0  0  0  0  0
   71.0808   52.0149   54.9092 C   0  0  0  0  0  0  0  0  0  0  0  0
   71.8508   53.0503   55.4075 C   0  0  0  0  0  0  0  0  0  0  0  0
   73.2167   52.9235   55.5384 C   0  0  0  0  0  0  0  0  0  0  0  0
   73.8448   51.7475   55.1704 C   0  0  0  0  0  0  0  0  0  0  0  0
   73.0474   50.7351   54.6774 C   0  0  0  0  0  0  0  0  0  0  0  0
   70.8834   49.4922   52.7846 O   0  0  0  0  0  0  0  0  0  0  0  0
   70.8671   49.7347   54.0073 C   0  0  0  0  0  0  0  0  0  0  0  0
   70.0534   48.9457   54.8458 N   0  0  0  0  0  0  0  0  0  0  0  0
   69.2608   47.8880   54.3037 C   0  0  0  0  0  0  0  0  0  0  0  0
   68.7732   46.8998   55.1331 C   0  0  0  0  0  0  0  0  0  0  0  0
   68.0043   45.8728   54.6036 C   0  0  0  0  0  0  0  0  0  0  0  0
   67.7066   45.8093   53.2587 C   0  0  0  0  0  0  0  0  0  0  0  0
   66.9992   44.9444   52.5035 N   0  0  0  0  0  0  0  0  0  0  0  0
   67.0253   45.3527   51.2375 N   0  0  0  0  0  0  0  0  0  0  0  0
   67.7470   46.4819   51.1611 C   0  0  0  0  0  0  0  0  0  0  0  0
   68.1935   46.7985   52.4241 C   0  0  0  0  0  0  0  0  0  0  0  0
   68.9575   47.8154   52.9562 C   0  0  0  0  0  0  0  0  0  0  0  0
   75.2553   51.5785   55.2911 N   0  0  0  0  0  0  0  0  0  0  0  0
   75.8857   50.3579   55.6230 C   0  0  0  0  0  0  0  0  0  0  0  0
   75.1479   49.3664   55.8213 O   0  0  0  0  0  0  0  0  0  0  0  0
   77.3339   50.2019   55.7419 C   0  0  0  0  0  0  0  0  0  0  0  0
   78.0813   51.1237   56.4402 C   0  0  0  0  0  0  0  0  0  0  0  0
   79.4589   51.0076   56.5725 C   0  0  0  0  0  0  0  0  0  0  0  0
   80.1230   49.9348   55.9907 C   0  0  0  0  0  0  0  0  0  0  0  0
   79.3316   49.0313   55.2979 C   0  0  0  0  0  0  0  0  0  0  0  0
   77.9954   49.1729   55.1863 N   0  0  0  0  0  0  0  0  0  0  0  0
  7  8  2  0
  8  9  1  0
  8  1  1  0
  9 10  1  0
 10 11  2  0
 10 18  1  0
 11 12  1  0
 12 13  2  0
 13 14  1  0
 13 17  1  0
 14 15  1  0
 15 16  2  0
 16 17  1  0
 17 18  2  0
  1  2  2  0
  1  6  1  0
  2  3  1  0
  3  4  2  0
  4  5  1  0
  5 19  1  0
  5  6  2  0
 19 20  1  0
 20 21  2  0
 20 22  1  0
 22 23  2  0
 22 27  1  0
 23 24  1  0
 24 25  2  0
 25 26  1  0
 26 27  2  0
M  END
>  <minimizedAffinity>  (576) 
-8.98420

$$$$
cs_full_output_folder/data/smiles/7001.pdb
     RDKit          3D

 25 27  0  0  0  0  0  0  0  0999 V2000
   69.0156   45.0083   56.5544 N   0  0  0  0  0  0  0  0  0  0  0  0
   69.9919   44.4401   57.3683 C   0  0  0  0  0  0  0  0  0  0  0  0
   70.8848   45.2530   57.7976 O   0  0  0  0  0  0  0  0  0  0  0  0
   70.1129   43.0523   57.7856 C   0  0  0  0  0  0  0  0  0  0  0  0
   69.0340   42.2293   58.1404 C   0  0  0  0  0  0  0  0  0  0  0  0
   69.5071   41.0483   58.4336 N   0  0  0  0  0  0  0  0  0  0  0  0
   70.8559   40.9824   58.3102 N   0  0  0  0  0  0  0  0  0  0  0  0
   71.2081   42.2181   57.9144 C   0  0  0  0  0  0  0  0  0  0  0  0
   73.0052   42.7710   57.5911 Br  0  0  0  0  0  0  0  0  0  0  0  0
   71.6141   39.8082   58.5496 C   0  0  0  0  0  0  0  0  0  0  0  0
   72.7923   39.7640   59.2358 C   0  0  0  0  0  0  0  0  0  0  0  0
   73.4799   38.5583   59.4084 C   0  0  0  0  0  0  0  0  0  0  0  0
   72.9840   37.3844   58.8909 C   0  0  0  0  0  0  0  0  0  0  0  0
   71.8069   37.4111   58.2032 C   0  0  0  0  0  0  0  0  0  0  0  0
   71.1382   38.6009   58.0379 C   0  0  0  0  0  0  0  0  0  0  0  0
   68.9168   46.4051   56.1709 C   0  0  0  0  0  0  0  0  0  0  0  0
   69.2789   47.7422   52.6560 C   0  0  0  0  0  0  0  0  0  0  0  0
   68.4752   46.8314   51.9793 C   0  0  0  0  0  0  0  0  0  0  0  0
   67.8387   45.8209   52.6518 C   0  0  0  0  0  0  0  0  0  0  0  0
   67.9610   45.6573   54.0131 C   0  0  0  0  0  0  0  0  0  0  0  0
   68.7596   46.5604   54.6970 C   0  0  0  0  0  0  0  0  0  0  0  0
   69.3958   47.5704   54.0197 C   0  0  0  0  0  0  0  0  0  0  0  0
   69.9118   50.1704   52.2163 N   0  0  0  0  0  0  0  0  0  0  0  0
   69.9400   48.7986   51.9164 C   0  0  0  0  0  0  0  0  0  0  0  0
   70.6247   48.4610   50.8882 O   0  0  0  0  0  0  0  0  0  0  0  0
 23 24  1  0
 24 25  2  0
 24 17  1  0
 17 18  2  0
 17 22  1  0
 18 19  1  0
 19 20  2  0
 20 21  1  0
 21 16  1  0
 21 22  2  0
 16  1  1  0
  1  2  1  0
  2  3  2  0
  2  4  1  0
  4  5  1  0
  4  8  2  0
  5  6  2  0
  6  7  1  0
  7 10  1  0
  7  8  1  0
 10 11  2  0
 10 15  1  0
 11 12  1  0
 12 13  2  0
 13 14  1  0
 14 15  2  0
  8  9  1  0
M  END
>  <minimizedAffinity>  (577) 
-8.98368

$$$$
cs_full_output_folder/data/smiles/2496.pdb
     RDKit          3D

 26 29  0  0  0  0  0  0  0  0999 V2000
   71.2336   45.8557   58.7675 C   0  0  0  0  0  0  0  0  0  0  0  0
   70.3491   46.4835   57.9000 C   0  0  0  0  0  0  0  0  0  0  0  0
   70.1474   47.8367   57.8654 C   0  0  0  0  0  0  0  0  0  0  0  0
   70.8694   48.6450   58.7510 C   0  0  0  0  0  0  0  0  0  0  0  0
   71.7468   48.0375   59.6118 C   0  0  0  0  0  0  0  0  0  0  0  0
   71.9383   46.6636   59.6336 C   0  0  0  0  0  0  0  0  0  0  0  0
   72.8204   46.0853   60.5045 F   0  0  0  0  0  0  0  0  0  0  0  0
   69.3753   43.9727   59.7640 O   0  0  0  0  0  0  0  0  0  0  0  0
   70.5474   43.5773   59.5144 C   0  0  0  0  0  0  0  0  0  0  0  0
   71.0189   42.2539   59.9995 C   0  0  0  0  0  0  0  0  0  0  0  0
   71.8850   41.6209   58.9587 C   0  0  0  0  0  0  0  0  0  0  0  0
   71.9413   42.3907   57.6622 C   0  0  0  0  0  0  0  0  0  0  0  0
   72.4522   43.7925   57.9630 C   0  0  0  0  0  0  0  0  0  0  0  0
   71.4001   44.4355   58.7547 N   0  0  0  0  0  0  0  0  0  0  0  0
   69.2076   48.5465   56.9678 C   0  0  0  0  0  0  0  0  0  0  0  0
   68.8218   47.6589   55.8397 C   0  0  0  0  0  0  0  0  0  0  0  0
   68.0728   46.5352   56.1106 N   0  0  0  0  0  0  0  0  0  0  0  0
   67.7306   45.7359   55.1308 N   0  0  0  0  0  0  0  0  0  0  0  0
   68.0714   45.9515   53.8507 C   0  0  0  0  0  0  0  0  0  0  0  0
   67.6940   45.1251   52.9797 O   0  0  0  0  0  0  0  0  0  0  0  0
   68.8313   47.0733   53.4984 C   0  0  0  0  0  0  0  0  0  0  0  0
   69.1902   47.9139   54.5410 C   0  0  0  0  0  0  0  0  0  0  0  0
   69.9959   49.1460   54.2722 C   0  0  0  0  0  0  0  0  0  0  0  0
   69.5940   49.5726   52.8484 C   0  0  0  0  0  0  0  0  0  0  0  0
   70.0963   48.4467   51.9385 C   0  0  0  0  0  0  0  0  0  0  0  0
   69.1789   47.2636   52.0775 C   0  0  0  0  0  0  0  0  0  0  0  0
  8  9  2  0
  9 10  1  0
  9 14  1  0
 10 11  1  0
 11 12  1  0
 12 13  1  0
 13 14  1  0
 14  1  1  0
  1  2  2  0
  1  6  1  0
  2  3  1  0
  3 15  1  0
  3  4  2  0
 15 16  1  0
 16 17  2  0
 16 22  1  0
 17 18  1  0
 18 19  1  0
 19 20  2  0
 19 21  1  0
 21 22  2  0
 21 26  1  0
 22 23  1  0
 23 24  1  0
 24 25  1  0
 25 26  1  0
  4  5  1  0
  5  6  2  0
  6  7  1  0
M  END
>  <minimizedAffinity>  (578) 
-8.98311

$$$$
cs_full_output_folder/data/smiles/8188.pdb
     RDKit          3D

 27 30  0  0  0  0  0  0  0  0999 V2000
   71.4799   47.0728   58.8280 C   0  0  0  0  0  0  0  0  0  0  0  0
   70.6158   47.8533   58.0699 C   0  0  0  0  0  0  0  0  0  0  0  0
   69.7412   47.3076   57.1708 C   0  0  0  0  0  0  0  0  0  0  0  0
   69.7336   45.9274   57.0286 C   0  0  0  0  0  0  0  0  0  0  0  0
   70.5711   45.1210   57.7600 C   0  0  0  0  0  0  0  0  0  0  0  0
   71.4400   45.7030   58.6554 C   0  0  0  0  0  0  0  0  0  0  0  0
   72.2814   44.9075   59.3903 F   0  0  0  0  0  0  0  0  0  0  0  0
   72.0364   47.8537   60.9538 O   0  0  0  0  0  0  0  0  0  0  0  0
   72.4081   47.6689   59.7800 C   0  0  0  0  0  0  0  0  0  0  0  0
   73.7250   48.0413   59.3913 N   0  0  0  0  0  0  0  0  0  0  0  0
   74.6230   48.6319   60.3555 C   0  0  0  0  0  0  0  0  0  0  0  0
   76.0224   48.6740   59.8259 C   0  0  0  0  0  0  0  0  0  0  0  0
   76.0699   49.4091   58.5136 C   0  0  0  0  0  0  0  0  0  0  0  0
   75.0822   48.9006   57.5098 C   0  0  0  0  0  0  0  0  0  0  0  0
   74.1681   47.8329   58.0381 C   0  0  0  0  0  0  0  0  0  0  0  0
   68.8125   48.1339   56.3445 C   0  0  0  0  0  0  0  0  0  0  0  0
   69.3236   48.2845   54.9692 C   0  0  0  0  0  0  0  0  0  0  0  0
   70.2815   49.1834   54.6405 N   0  0  0  0  0  0  0  0  0  0  0  0
   70.7404   49.3185   53.4065 N   0  0  0  0  0  0  0  0  0  0  0  0
   70.2857   48.5713   52.3819 C   0  0  0  0  0  0  0  0  0  0  0  0
   70.7338   48.7080   51.1925 O   0  0  0  0  0  0  0  0  0  0  0  0
   69.3098   47.6346   52.6365 C   0  0  0  0  0  0  0  0  0  0  0  0
   68.8262   46.8533   51.5971 C   0  0  0  0  0  0  0  0  0  0  0  0
   67.8546   45.9137   51.8172 C   0  0  0  0  0  0  0  0  0  0  0  0
   67.3655   45.7573   53.0953 C   0  0  0  0  0  0  0  0  0  0  0  0
   67.8589   46.5498   54.1373 C   0  0  0  0  0  0  0  0  0  0  0  0
   68.8363   47.5011   53.9334 C   0  0  0  0  0  0  0  0  0  0  0  0
  8  9  2  0
  9  1  1  0
  9 10  1  0
  1  2  2  0
  1  6  1  0
  2  3  1  0
  3 16  1  0
  3  4  2  0
 16 17  1  0
 17 18  2  0
 17 27  1  0
 18 19  1  0
 19 20  1  0
 20 21  2  0
 20 22  1  0
 22 23  1  0
 22 27  2  0
 23 24  2  0
 24 25  1  0
 25 26  2  0
 26 27  1  0
  4  5  1  0
  5  6  2  0
  6  7  1  0
 10 11  1  0
 10 15  1  0
 11 12  1  0
 12 13  1  0
 13 14  1  0
 14 15  1  0
M  END
>  <minimizedAffinity>  (579) 
-8.97795

$$$$
cs_full_output_folder/data/smiles/6800.pdb
     RDKit          3D

 29 32  0  0  0  0  0  0  0  0999 V2000
   71.5493   47.1159   58.6887 C   0  0  0  0  0  0  0  0  0  0  0  0
   70.6877   47.9382   57.9087 C   0  0  0  0  0  0  0  0  0  0  0  0
   69.7429   47.4468   57.0662 C   0  0  0  0  0  0  0  0  0  0  0  0
   69.6533   46.0483   57.0018 C   0  0  0  0  0  0  0  0  0  0  0  0
   70.4745   45.2443   57.7446 C   0  0  0  0  0  0  0  0  0  0  0  0
   71.4457   45.7696   58.6070 C   0  0  0  0  0  0  0  0  0  0  0  0
   72.2574   44.8959   59.2758 F   0  0  0  0  0  0  0  0  0  0  0  0
   72.4383   47.8041   59.5782 C   0  0  0  0  0  0  0  0  0  0  0  0
   71.8829   47.9572   60.7727 O   0  0  0  0  0  0  0  0  0  0  0  0
   73.8703   50.3758   58.3239 C   0  0  2  0  0  0  0  0  0  0  0  0
   74.2737   49.2457   57.3902 C   0  0  0  0  0  0  0  0  0  0  0  0
   74.6717   48.1416   58.3625 C   0  0  0  0  0  0  0  0  0  0  0  0
   73.7527   48.3435   59.4867 C   0  0  1  0  0  0  0  0  0  0  0  0
   73.6722   49.8148   59.6408 N   0  0  0  0  0  0  0  0  0  0  0  0
   72.3507   50.9355   56.4185 C   0  0  0  0  0  0  0  0  0  0  0  0
   72.6556   51.1168   57.8891 C   0  0  0  0  0  0  0  0  0  0  0  0
   72.9537   52.6091   58.0767 C   0  0  0  0  0  0  0  0  0  0  0  0
   68.7993   48.2044   56.2148 C   0  0  0  0  0  0  0  0  0  0  0  0
   69.2584   48.2917   54.8411 C   0  0  0  0  0  0  0  0  0  0  0  0
   70.1760   49.2420   54.5030 N   0  0  0  0  0  0  0  0  0  0  0  0
   70.5763   49.3865   53.2457 N   0  0  0  0  0  0  0  0  0  0  0  0
   70.1249   48.6308   52.2319 C   0  0  0  0  0  0  0  0  0  0  0  0
   70.5439   48.8115   51.0398 O   0  0  0  0  0  0  0  0  0  0  0  0
   69.2001   47.6569   52.5136 C   0  0  0  0  0  0  0  0  0  0  0  0
   68.7443   46.8651   51.4955 C   0  0  0  0  0  0  0  0  0  0  0  0
   67.8278   45.8709   51.7858 C   0  0  0  0  0  0  0  0  0  0  0  0
   67.4153   45.7196   53.0827 C   0  0  0  0  0  0  0  0  0  0  0  0
   67.8842   46.5244   54.0911 C   0  0  0  0  0  0  0  0  0  0  0  0
   68.7836   47.5089   53.8324 C   0  0  0  0  0  0  0  0  0  0  0  0
 15 16  1  0
 16 17  1  0
 10 16  1  6
 10 11  1  0
 10 14  1  0
 11 12  1  0
 12 13  1  0
 13  8  1  6
 13 14  1  0
  8  9  2  0
  8  1  1  0
  1  2  2  0
  1  6  1  0
  2  3  1  0
  3 18  1  0
  3  4  2  0
 18 19  1  0
 19 20  2  0
 19 29  1  0
 20 21  1  0
 21 22  1  0
 22 23  2  0
 22 24  1  0
 24 25  1  0
 24 29  2  0
 25 26  2  0
 26 27  1  0
 27 28  2  0
 28 29  1  0
  4  5  1  0
  5  6  2  0
  6  7  1  0
M  CHG  1  14   1
M  END
>  <minimizedAffinity>  (580) 
-8.97410

$$$$
cs_full_output_folder/data/smiles/6113.pdb
     RDKit          3D

 27 30  0  0  0  0  0  0  0  0999 V2000
   71.3969   46.8718   58.7127 C   0  0  0  0  0  0  0  0  0  0  0  0
   70.5963   47.7184   57.9848 C   0  0  0  0  0  0  0  0  0  0  0  0
   69.6634   47.2659   57.0601 C   0  0  0  0  0  0  0  0  0  0  0  0
   69.5917   45.9027   56.9171 C   0  0  0  0  0  0  0  0  0  0  0  0
   70.3917   45.0353   57.6441 C   0  0  0  0  0  0  0  0  0  0  0  0
   71.2956   45.5069   58.5423 C   0  0  0  0  0  0  0  0  0  0  0  0
   72.0804   44.6674   59.2566 F   0  0  0  0  0  0  0  0  0  0  0  0
   71.9251   47.8923   60.7467 O   0  0  0  0  0  0  0  0  0  0  0  0
   72.3433   47.4546   59.6519 C   0  0  0  0  0  0  0  0  0  0  0  0
   73.6985   47.5201   59.3245 N   0  0  0  0  0  0  0  0  0  0  0  0
   74.9698   47.9857   59.8900 C   0  0  0  0  0  0  0  0  0  0  0  0
   75.3727   48.2903   58.4407 C   0  0  0  0  0  0  0  0  0  0  0  0
   74.4816   47.1013   58.1666 C   0  0  0  0  0  0  0  0  0  0  0  0
   74.7872   49.6192   58.0339 C   0  0  0  0  0  0  0  0  0  0  0  0
   75.7477   50.5940   57.8189 O   0  0  0  0  0  0  0  0  0  0  0  0
   68.8428   48.2347   56.2796 C   0  0  0  0  0  0  0  0  0  0  0  0
   69.3046   48.2516   54.9074 C   0  0  0  0  0  0  0  0  0  0  0  0
   70.2816   49.1616   54.6018 N   0  0  0  0  0  0  0  0  0  0  0  0
   70.7447   49.3074   53.3844 N   0  0  0  0  0  0  0  0  0  0  0  0
   70.3107   48.5863   52.3390 C   0  0  0  0  0  0  0  0  0  0  0  0
   70.7241   48.6951   51.1698 O   0  0  0  0  0  0  0  0  0  0  0  0
   69.3272   47.6506   52.5799 C   0  0  0  0  0  0  0  0  0  0  0  0
   68.8149   46.8476   51.5979 C   0  0  0  0  0  0  0  0  0  0  0  0
   67.8417   45.9095   51.8728 C   0  0  0  0  0  0  0  0  0  0  0  0
   67.3502   45.7431   53.1342 C   0  0  0  0  0  0  0  0  0  0  0  0
   67.8590   46.5503   54.1416 C   0  0  0  0  0  0  0  0  0  0  0  0
   68.8317   47.4927   53.8763 C   0  0  0  0  0  0  0  0  0  0  0  0
  8  9  2  0
  9  1  1  0
  9 10  1  0
  1  2  2  0
  1  6  1  0
  2  3  1  0
  3 16  1  0
  3  4  2  0
 16 17  1  0
 17 18  2  0
 17 27  1  0
 18 19  1  0
 19 20  1  0
 20 21  2  0
 20 22  1  0
 22 23  1  0
 22 27  2  0
 23 24  2  0
 24 25  1  0
 25 26  2  0
 26 27  1  0
  4  5  1  0
  5  6  2  0
  6  7  1  0
 10 11  1  0
 10 13  1  0
 11 12  1  0
 12 14  1  0
 12 13  1  0
 14 15  1  0
M  END
>  <minimizedAffinity>  (581) 
-8.97314

$$$$
cs_full_output_folder/data/smiles/4013.pdb
     RDKit          3D

 22 24  0  0  0  0  0  0  0  0999 V2000
   69.3662   47.7035   56.8229 C   0  0  0  0  0  0  0  0  0  0  0  0
   68.8975   46.9547   55.6385 C   0  0  0  0  0  0  0  0  0  0  0  0
   68.1737   45.8057   55.7935 N   0  0  0  0  0  0  0  0  0  0  0  0
   67.6882   45.1264   54.7701 N   0  0  0  0  0  0  0  0  0  0  0  0
   67.8626   45.5013   53.5026 C   0  0  0  0  0  0  0  0  0  0  0  0
   67.4069   44.8687   52.5212 O   0  0  0  0  0  0  0  0  0  0  0  0
   68.5909   46.6636   53.2570 C   0  0  0  0  0  0  0  0  0  0  0  0
   68.7949   47.0615   51.9598 C   0  0  0  0  0  0  0  0  0  0  0  0
   69.5367   48.2133   51.7235 C   0  0  0  0  0  0  0  0  0  0  0  0
   70.0485   48.9254   52.7808 C   0  0  0  0  0  0  0  0  0  0  0  0
   69.8367   48.5152   54.0919 C   0  0  0  0  0  0  0  0  0  0  0  0
   69.1026   47.3768   54.3511 C   0  0  0  0  0  0  0  0  0  0  0  0
   68.1017   51.2548   57.2087 C   0  0  0  0  0  0  0  0  0  0  0  0
   66.8254   51.0808   57.7014 C   0  0  0  0  0  0  0  0  0  0  0  0
   66.3753   49.7987   57.9040 C   0  0  0  0  0  0  0  0  0  0  0  0
   67.1601   48.6847   57.6293 C   0  0  0  0  0  0  0  0  0  0  0  0
   68.4269   48.8299   57.1408 C   0  0  0  0  0  0  0  0  0  0  0  0
   68.8655   50.1482   56.9417 C   0  0  0  0  0  0  0  0  0  0  0  0
   68.5820   52.5108   56.9953 O   0  0  0  0  0  0  0  0  0  0  0  0
   68.8241   52.4254   54.6558 C   0  0  0  0  0  0  0  0  0  0  0  0
   69.1710   53.0316   55.9158 N   0  0  0  0  0  0  0  0  0  0  0  0
   71.0010   53.3579   56.0981 Br  0  0  0  0  0  0  0  0  0  0  0  0
 20 21  1  0
 21 22  1  0
 21 19  1  0
 19 13  1  0
 13 14  2  0
 13 18  1  0
 14 15  1  0
 15 16  2  0
 16 17  1  0
 17  1  1  0
 17 18  2  0
  1  2  1  0
  2  3  2  0
  2 12  1  0
  3  4  1  0
  4  5  1  0
  5  6  2  0
  5  7  1  0
  7  8  1  0
  7 12  2  0
  8  9  2  0
  9 10  1  0
 10 11  2  0
 11 12  1  0
M  END
>  <minimizedAffinity>  (582) 
-8.97193

$$$$
cs_full_output_folder/data/smiles/4691.pdb
     RDKit          3D

 27 30  0  0  0  0  0  0  0  0999 V2000
   68.8729   47.6812   52.9133 C   0  0  0  0  0  0  0  0  0  0  0  0
   68.2960   46.6937   52.0918 C   0  0  0  0  0  0  0  0  0  0  0  0
   67.8226   45.5203   52.6402 C   0  0  0  0  0  0  0  0  0  0  0  0
   67.9041   45.2944   53.9906 C   0  0  0  0  0  0  0  0  0  0  0  0
   68.4600   46.2317   54.8399 C   0  0  0  0  0  0  0  0  0  0  0  0
   68.9260   47.4030   54.2448 C   0  0  0  0  0  0  0  0  0  0  0  0
   69.3480   48.9331   52.2760 C   0  0  0  0  0  0  0  0  0  0  0  0
   72.9127   51.6534   55.4366 O   0  0  0  0  0  0  0  0  0  0  0  0
   72.0608   51.0552   54.7060 C   0  0  0  0  0  0  0  0  0  0  0  0
   72.4327   50.0083   53.9431 N   0  0  0  0  0  0  0  0  0  0  0  0
   71.5933   49.3725   53.1853 N   0  0  0  0  0  0  0  0  0  0  0  0
   70.2746   49.7208   53.1091 C   0  0  0  0  0  0  0  0  0  0  0  0
   69.8706   50.7831   53.8729 C   0  0  0  0  0  0  0  0  0  0  0  0
   68.5589   51.2399   53.8631 C   0  0  0  0  0  0  0  0  0  0  0  0
   68.1646   52.3156   54.6236 C   0  0  0  0  0  0  0  0  0  0  0  0
   69.0839   52.9841   55.4340 C   0  0  0  0  0  0  0  0  0  0  0  0
   70.3836   52.5535   55.4605 C   0  0  0  0  0  0  0  0  0  0  0  0
   70.7549   51.4798   54.6935 C   0  0  0  0  0  0  0  0  0  0  0  0
   68.5517   45.9997   56.2378 N   0  0  0  0  0  0  0  0  0  0  0  0
   69.3909   47.0426   57.3147 S   0  0  0  0  0  0  0  0  0  0  0  0
   70.7792   47.3349   56.7615 O   0  0  0  0  0  0  0  0  0  0  0  0
   69.6259   46.3434   58.6332 O   0  0  0  0  0  0  0  0  0  0  0  0
   68.5909   48.5681   57.5372 C   0  0  0  0  0  0  0  0  0  0  0  0
   67.3007   48.8683   57.4520 C   0  0  0  0  0  0  0  0  0  0  0  0
   67.0736   50.3139   57.7224 C   0  0  0  0  0  0  0  0  0  0  0  0
   68.4397   50.8055   57.9795 C   0  0  0  0  0  0  0  0  0  0  0  0
   69.2997   49.8094   57.8723 C   0  0  0  0  0  0  0  0  0  0  0  0
  8  9  2  0
  9 10  1  0
  9 18  1  0
 10 11  1  0
 11 12  2  0
 12  7  1  0
 12 13  1  0
  7  1  1  0
  1  2  2  0
  1  6  1  0
  2  3  1  0
  3  4  2  0
  4  5  1  0
  5 19  1  0
  5  6  2  0
 19 20  1  0
 20 21  2  0
 20 22  2  0
 20 23  1  0
 23 24  2  0
 23 27  1  0
 24 25  1  0
 25 26  1  0
 26 27  2  0
 13 14  1  0
 13 18  2  0
 14 15  2  0
 15 16  1  0
 16 17  2  0
 17 18  1  0
M  END
>  <minimizedAffinity>  (583) 
-8.97101

$$$$
cs_full_output_folder/data/smiles/2764.pdb
     RDKit          3D

 29 32  0  0  0  0  0  0  0  0999 V2000
   71.6825   47.2075   58.9573 C   0  0  0  0  0  0  0  0  0  0  0  0
   70.6773   47.8079   58.2247 C   0  0  0  0  0  0  0  0  0  0  0  0
   69.8664   47.0682   57.4005 C   0  0  0  0  0  0  0  0  0  0  0  0
   70.0300   45.7059   57.2772 C   0  0  0  0  0  0  0  0  0  0  0  0
   71.0267   45.0913   57.9990 C   0  0  0  0  0  0  0  0  0  0  0  0
   71.8381   45.8446   58.8268 C   0  0  0  0  0  0  0  0  0  0  0  0
   72.8060   45.1717   59.5126 F   0  0  0  0  0  0  0  0  0  0  0  0
   75.6763   48.4505   58.2851 C   0  0  1  0  0  0  0  0  0  0  0  0
   75.9643   49.1116   59.6115 C   0  0  0  0  0  0  0  0  0  0  0  0
   74.6257   49.4120   60.2536 C   0  0  0  0  0  0  0  0  0  0  0  0
   73.7140   48.6560   59.4382 N   0  0  0  0  0  0  0  0  0  0  0  0
   72.5612   47.9592   59.8470 C   0  0  0  0  0  0  0  0  0  0  0  0
   72.1907   47.9389   61.0750 O   0  0  0  0  0  0  0  0  0  0  0  0
   74.2067   48.7476   58.0921 C   0  0  0  0  0  0  0  0  0  0  0  0
   77.4965   49.9922   57.7852 C   0  0  0  0  0  0  0  0  0  0  0  0
   76.5093   49.0271   57.1649 C   0  0  0  0  0  0  0  0  0  0  0  0
   75.5896   49.8073   56.2643 C   0  0  0  0  0  0  0  0  0  0  0  0
   68.7892   47.7153   56.6159 C   0  0  0  0  0  0  0  0  0  0  0  0
   69.2933   48.0339   55.2832 C   0  0  0  0  0  0  0  0  0  0  0  0
   70.2233   49.0312   55.1853 N   0  0  0  0  0  0  0  0  0  0  0  0
   70.6819   49.3268   53.9857 N   0  0  0  0  0  0  0  0  0  0  0  0
   70.2923   48.7119   52.8701 C   0  0  0  0  0  0  0  0  0  0  0  0
   70.7566   49.0292   51.7535 O   0  0  0  0  0  0  0  0  0  0  0  0
   69.3578   47.7045   52.9419 C   0  0  0  0  0  0  0  0  0  0  0  0
   68.9167   47.0331   51.8205 C   0  0  0  0  0  0  0  0  0  0  0  0
   67.9770   46.0295   51.9401 C   0  0  0  0  0  0  0  0  0  0  0  0
   67.4804   45.7009   53.1901 C   0  0  0  0  0  0  0  0  0  0  0  0
   67.9110   46.3656   54.3406 C   0  0  0  0  0  0  0  0  0  0  0  0
   68.8471   47.3569   54.1700 C   0  0  0  0  0  0  0  0  0  0  0  0
 15 16  1  0
 16 17  1  0
  8 16  1  6
  8  9  1  0
  8 14  1  0
  9 10  1  0
 10 11  1  0
 11 12  1  0
 11 14  1  0
 12 13  2  0
 12  1  1  0
  1  2  2  0
  1  6  1  0
  2  3  1  0
  3 18  1  0
  3  4  2  0
 18 19  1  0
 19 20  2  0
 19 29  1  0
 20 21  1  0
 21 22  1  0
 22 23  2  0
 22 24  1  0
 24 25  1  0
 24 29  2  0
 25 26  2  0
 26 27  1  0
 27 28  2  0
 28 29  1  0
  4  5  1  0
  5  6  2  0
  6  7  1  0
M  END
>  <minimizedAffinity>  (584) 
-8.96992

$$$$
cs_full_output_folder/data/smiles/488.pdb
     RDKit          3D

 27 30  0  0  0  0  0  0  0  0999 V2000
   71.8606   47.4774   58.3211 C   0  0  0  0  0  0  0  0  0  0  0  0
   70.8870   48.1392   57.6068 C   0  0  0  0  0  0  0  0  0  0  0  0
   69.8205   47.4342   57.0307 C   0  0  0  0  0  0  0  0  0  0  0  0
   69.7300   46.0821   57.1692 C   0  0  0  0  0  0  0  0  0  0  0  0
   70.7111   45.4101   57.8880 C   0  0  0  0  0  0  0  0  0  0  0  0
   71.7546   46.1114   58.4500 C   0  0  0  0  0  0  0  0  0  0  0  0
   72.7366   45.4796   59.1636 F   0  0  0  0  0  0  0  0  0  0  0  0
   74.3222   48.3051   57.0908 O   0  0  0  0  0  0  0  0  0  0  0  0
   73.9777   48.7940   58.1762 C   0  0  0  0  0  0  0  0  0  0  0  0
   74.6809   50.0326   58.6457 C   0  0  0  0  0  0  0  0  0  0  0  0
   74.7471   50.1599   60.1290 C   0  0  0  0  0  0  0  0  0  0  0  0
   74.1544   49.0367   60.8505 N   0  0  0  0  0  0  0  0  0  0  0  0
   73.0488   48.3175   60.3623 C   0  0  0  0  0  0  0  0  0  0  0  0
   72.1934   47.8187   61.1306 O   0  0  0  0  0  0  0  0  0  0  0  0
   72.9504   48.1864   58.9292 N   0  0  0  0  0  0  0  0  0  0  0  0
   68.8328   48.2995   56.2869 C   0  0  0  0  0  0  0  0  0  0  0  0
   69.2210   48.4407   54.8813 C   0  0  0  0  0  0  0  0  0  0  0  0
   70.1018   49.4069   54.4972 N   0  0  0  0  0  0  0  0  0  0  0  0
   70.5422   49.5453   53.2734 N   0  0  0  0  0  0  0  0  0  0  0  0
   70.1368   48.7156   52.3004 C   0  0  0  0  0  0  0  0  0  0  0  0
   70.5437   48.8217   51.1168 O   0  0  0  0  0  0  0  0  0  0  0  0
   69.2451   47.7092   52.5952 C   0  0  0  0  0  0  0  0  0  0  0  0
   68.7951   46.8568   51.6176 C   0  0  0  0  0  0  0  0  0  0  0  0
   67.8861   45.8651   51.9143 C   0  0  0  0  0  0  0  0  0  0  0  0
   67.4132   45.7120   53.1972 C   0  0  0  0  0  0  0  0  0  0  0  0
   67.8694   46.5706   54.1755 C   0  0  0  0  0  0  0  0  0  0  0  0
   68.7842   47.5776   53.9124 C   0  0  0  0  0  0  0  0  0  0  0  0
  8  9  2  0
  9 10  1  0
  9 15  1  0
 10 11  1  0
 11 12  1  0
 12 13  1  0
 13 14  2  0
 13 15  1  0
 15  1  1  0
  1  2  2  0
  1  6  1  0
  2  3  1  0
  3 16  1  0
  3  4  2  0
 16 17  1  0
 17 18  2  0
 17 27  1  0
 18 19  1  0
 19 20  1  0
 20 21  2  0
 20 22  1  0
 22 23  1  0
 22 27  2  0
 23 24  2  0
 24 25  1  0
 25 26  2  0
 26 27  1  0
  4  5  1  0
  5  6  2  0
  6  7  1  0
M  END
>  <minimizedAffinity>  (585) 
-8.96631

$$$$
cs_full_output_folder/data/smiles/2785.pdb
     RDKit          3D

 27 30  0  0  0  0  0  0  0  0999 V2000
   69.1297   44.3668   56.7141 C   0  0  0  0  0  0  0  0  0  0  0  0
   69.9235   43.5014   57.3940 C   0  0  0  0  0  0  0  0  0  0  0  0
   69.6106   42.1531   57.4727 C   0  0  0  0  0  0  0  0  0  0  0  0
   68.4808   41.6443   56.8645 C   0  0  0  0  0  0  0  0  0  0  0  0
   67.7130   42.5531   56.1931 C   0  0  0  0  0  0  0  0  0  0  0  0
   68.0117   43.8579   56.1138 N   0  0  0  0  0  0  0  0  0  0  0  0
   69.3592   45.7515   56.5782 N   0  0  0  0  0  0  0  0  0  0  0  0
   67.6613   47.3056   56.5004 N   0  0  0  0  0  0  0  0  0  0  0  0
   68.5082   46.6182   55.8447 C   0  0  0  0  0  0  0  0  0  0  0  0
   68.5695   46.7459   54.4012 C   0  0  0  0  0  0  0  0  0  0  0  0
   69.3038   47.7541   53.8207 C   0  0  0  0  0  0  0  0  0  0  0  0
   69.3423   47.8594   52.4350 C   0  0  0  0  0  0  0  0  0  0  0  0
   68.6515   46.9612   51.6221 C   0  0  0  0  0  0  0  0  0  0  0  0
   67.9240   45.9598   52.2112 C   0  0  0  0  0  0  0  0  0  0  0  0
   67.8863   45.8578   53.5908 C   0  0  0  0  0  0  0  0  0  0  0  0
   68.1694   40.2163   57.0109 C   0  0  0  0  0  0  0  0  0  0  0  0
   67.9663   39.7701   58.3792 C   0  0  0  0  0  0  0  0  0  0  0  0
   66.8443   40.1844   59.0448 N   0  0  0  0  0  0  0  0  0  0  0  0
   66.5814   39.8401   60.2771 N   0  0  0  0  0  0  0  0  0  0  0  0
   67.4336   39.0402   60.9488 C   0  0  0  0  0  0  0  0  0  0  0  0
   67.1798   38.7166   62.1185 O   0  0  0  0  0  0  0  0  0  0  0  0
   68.6107   38.5634   60.3499 C   0  0  0  0  0  0  0  0  0  0  0  0
   68.8455   38.9559   59.0510 C   0  0  0  0  0  0  0  0  0  0  0  0
   70.0818   38.5578   58.3815 C   0  0  0  0  0  0  0  0  0  0  0  0
   70.8485   37.4522   59.0123 C   0  0  0  0  0  0  0  0  0  0  0  0
   70.5098   37.1211   60.4036 C   0  0  0  0  0  0  0  0  0  0  0  0
   69.4722   37.6330   61.0233 C   0  0  0  0  0  0  0  0  0  0  0  0
  8  9  2  0
  9  7  1  0
  9 10  1  0
  7  1  1  0
  1  2  2  0
  1  6  1  0
  2  3  1  0
  3  4  2  0
  4 16  1  0
  4  5  1  0
 16 17  1  0
 17 18  2  0
 17 23  1  0
 18 19  1  0
 19 20  1  0
 20 21  2  0
 20 22  1  0
 22 23  2  0
 22 27  1  0
 23 24  1  0
 24 25  1  0
 25 26  1  0
 26 27  2  0
  5  6  2  0
 10 11  2  0
 10 15  1  0
 11 12  1  0
 12 13  2  0
 13 14  1  0
 14 15  2  0
M  CHG  1   8   1
M  END
>  <minimizedAffinity>  (586) 
-8.96457

$$$$
cs_full_output_folder/data/smiles/2159.pdb
     RDKit          3D

 28 31  0  0  0  0  0  0  0  0999 V2000
   71.3755   46.7706   58.9601 C   0  0  0  0  0  0  0  0  0  0  0  0
   70.4271   47.5640   58.2831 C   0  0  0  0  0  0  0  0  0  0  0  0
   69.6276   47.0433   57.3307 C   0  0  0  0  0  0  0  0  0  0  0  0
   69.7787   45.6817   57.0407 C   0  0  0  0  0  0  0  0  0  0  0  0
   70.7016   44.8861   57.6905 C   0  0  0  0  0  0  0  0  0  0  0  0
   71.5010   45.4495   58.6571 C   0  0  0  0  0  0  0  0  0  0  0  0
   72.3976   44.6615   59.2850 F   0  0  0  0  0  0  0  0  0  0  0  0
   75.7145   48.5959   57.1799 O   0  0  0  0  0  0  0  0  0  0  0  0
   74.9572   48.9838   58.0459 C   0  0  0  0  0  0  0  0  0  0  0  0
   75.3945   50.1057   58.9200 C   0  0  0  0  0  0  0  0  0  0  0  0
   74.6555   50.1644   60.2172 C   0  0  0  0  0  0  0  0  0  0  0  0
   74.1166   48.8210   60.6622 C   0  0  0  0  0  0  0  0  0  0  0  0
   73.3391   48.2053   59.6333 N   0  0  0  0  0  0  0  0  0  0  0  0
   72.1997   47.4336   59.9905 C   0  0  0  0  0  0  0  0  0  0  0  0
   71.8713   47.2977   61.1782 O   0  0  0  0  0  0  0  0  0  0  0  0
   73.6351   48.3284   58.1986 C   0  0  0  0  0  0  0  0  0  0  0  0
   68.6028   47.7687   56.5707 C   0  0  0  0  0  0  0  0  0  0  0  0
   69.0946   48.0305   55.2253 C   0  0  0  0  0  0  0  0  0  0  0  0
   70.0545   48.9860   55.0828 N   0  0  0  0  0  0  0  0  0  0  0  0
   70.6145   49.2437   53.9096 N   0  0  0  0  0  0  0  0  0  0  0  0
   70.2975   48.6028   52.7714 C   0  0  0  0  0  0  0  0  0  0  0  0
   70.8835   48.9141   51.7025 O   0  0  0  0  0  0  0  0  0  0  0  0
   69.3266   47.6198   52.8474 C   0  0  0  0  0  0  0  0  0  0  0  0
   68.9549   46.9483   51.7108 C   0  0  0  0  0  0  0  0  0  0  0  0
   67.9746   45.9744   51.7547 C   0  0  0  0  0  0  0  0  0  0  0  0
   67.4049   45.7285   52.9895 C   0  0  0  0  0  0  0  0  0  0  0  0
   67.7858   46.4099   54.1294 C   0  0  0  0  0  0  0  0  0  0  0  0
   68.7544   47.3642   54.0699 C   0  0  0  0  0  0  0  0  0  0  0  0
  8  9  2  0
  9 10  1  0
  9 16  1  0
 10 11  1  0
 11 12  1  0
 12 13  1  0
 13 14  1  0
 13 16  1  0
 14 15  2  0
 14  1  1  0
  1  2  2  0
  1  6  1  0
  2  3  1  0
  3 17  1  0
  3  4  2  0
 17 18  1  0
 18 19  2  0
 18 28  1  0
 19 20  1  0
 20 21  1  0
 21 22  2  0
 21 23  1  0
 23 24  1  0
 23 28  2  0
 24 25  2  0
 25 26  1  0
 26 27  2  0
 27 28  1  0
  4  5  1  0
  5  6  2  0
  6  7  1  0
M  END
>  <minimizedAffinity>  (587) 
-8.96317

$$$$
cs_full_output_folder/data/smiles/474.pdb
     RDKit          3D

 26 28  0  0  0  0  0  0  0  0999 V2000
   70.2923   39.4857   58.7638 C   0  0  0  0  0  0  0  0  0  0  0  0
   70.8874   40.7392   58.7142 C   0  0  0  0  0  0  0  0  0  0  0  0
   70.3338   41.7903   58.0030 C   0  0  0  0  0  0  0  0  0  0  0  0
   69.1527   41.5914   57.3197 C   0  0  0  0  0  0  0  0  0  0  0  0
   68.5480   40.3515   57.3581 C   0  0  0  0  0  0  0  0  0  0  0  0
   69.1158   39.3067   58.0758 C   0  0  0  0  0  0  0  0  0  0  0  0
   67.3606   40.4199   56.5795 N   0  0  0  0  0  0  0  0  0  0  0  0
   67.2250   41.7511   56.0388 C   0  0  0  0  0  0  0  0  0  0  0  0
   66.3152   42.1960   55.3084 O   0  0  0  0  0  0  0  0  0  0  0  0
   68.3630   42.5180   56.5004 C   0  0  0  0  0  0  0  0  0  0  0  0
   68.5908   43.7528   56.2244 N   0  0  0  0  0  0  0  0  0  0  0  0
   72.1725   38.6471   60.6871 C   0  0  0  0  0  0  0  0  0  0  0  0
   70.9869   38.1760   59.6522 S   0  0  0  0  0  0  0  0  0  0  0  0
   69.8447   37.1402   60.2563 C   0  0  0  0  0  0  0  0  0  0  0  0
   71.8437   37.2158   58.3777 C   0  0  0  0  0  0  0  0  0  0  0  0
   67.7361   44.5055   55.4236 N   0  0  0  0  0  0  0  0  0  0  0  0
   68.2564   45.6657   54.7974 C   0  0  0  0  0  0  0  0  0  0  0  0
   68.2174   45.8394   53.4209 C   0  0  0  0  0  0  0  0  0  0  0  0
   68.7184   46.9581   52.8064 C   0  0  0  0  0  0  0  0  0  0  0  0
   69.2874   47.9697   53.5346 C   0  0  0  0  0  0  0  0  0  0  0  0
   69.3419   47.8286   54.9054 C   0  0  0  0  0  0  0  0  0  0  0  0
   68.8330   46.6943   55.5185 C   0  0  0  0  0  0  0  0  0  0  0  0
   69.9418   49.4191   52.7974 S   0  0  0  0  0  0  0  0  0  0  0  0
   71.5166   49.6606   53.4707 N   0  0  0  0  0  0  0  0  0  0  0  0
   69.1023   50.6040   53.1583 O   0  0  0  0  0  0  0  0  0  0  0  0
   69.9959   49.1893   51.3179 O   0  0  0  0  0  0  0  0  0  0  0  0
 12 13  1  0
 13 14  1  0
 13 15  1  0
 13  1  1  0
  1  2  2  0
  1  6  1  0
  2  3  1  0
  3  4  2  0
  4  5  1  0
  4 10  1  0
  5  6  2  0
  5  7  1  0
  7  8  1  0
  8  9  2  0
  8 10  1  0
 10 11  2  0
 11 16  1  0
 16 17  1  0
 17 18  2  0
 17 22  1  0
 18 19  1  0
 19 20  2  0
 20 23  1  0
 20 21  1  0
 23 24  1  0
 23 25  2  0
 23 26  2  0
 21 22  2  0
M  END
>  <minimizedAffinity>  (588) 
-8.96291

$$$$
cs_full_output_folder/data/smiles/5411.pdb
     RDKit          3D

 27 28  0  0  0  0  0  0  0  0999 V2000
   70.7473   45.8986   58.4555 C   0  0  0  0  0  0  0  0  0  0  0  0
   71.7853   46.8562   59.2454 S   0  0  0  0  0  0  0  0  0  0  0  0
   70.2839   43.4933   58.9064 C   0  0  0  0  0  0  0  0  0  0  0  0
   69.2926   43.8722   59.5981 O   0  0  0  0  0  0  0  0  0  0  0  0
   71.0487   44.5214   58.3068 N   0  0  0  0  0  0  0  0  0  0  0  0
   71.0272   39.3013   58.5366 C   0  0  0  0  0  0  0  0  0  0  0  0
   72.0700   40.1962   58.6091 C   0  0  0  0  0  0  0  0  0  0  0  0
   71.8375   41.5637   58.7293 C   0  0  0  0  0  0  0  0  0  0  0  0
   70.5577   42.0681   58.7809 C   0  0  0  0  0  0  0  0  0  0  0  0
   69.5034   41.1722   58.7090 C   0  0  0  0  0  0  0  0  0  0  0  0
   69.7560   39.8361   58.5914 C   0  0  0  0  0  0  0  0  0  0  0  0
   72.7506   37.5241   58.4013 C   0  0  0  0  0  0  0  0  0  0  0  0
   71.2599   37.8363   58.4078 C   0  0  0  0  0  0  0  0  0  0  0  0
   70.6492   37.1472   59.6082 C   0  0  0  0  0  0  0  0  0  0  0  0
   69.5607   46.4283   57.9252 N   0  0  0  0  0  0  0  0  0  0  0  0
   69.3997   46.7454   56.5724 N   0  0  0  0  0  0  0  0  0  0  0  0
   68.7455   45.9137   55.6405 C   0  0  0  0  0  0  0  0  0  0  0  0
   68.2883   44.8285   56.0721 O   0  0  0  0  0  0  0  0  0  0  0  0
   68.5717   46.2306   54.2334 C   0  0  0  0  0  0  0  0  0  0  0  0
   67.7842   45.4155   53.4531 C   0  0  0  0  0  0  0  0  0  0  0  0
   67.5679   45.6464   52.1091 C   0  0  0  0  0  0  0  0  0  0  0  0
   68.1490   46.7317   51.4885 C   0  0  0  0  0  0  0  0  0  0  0  0
   68.9412   47.5592   52.2552 C   0  0  0  0  0  0  0  0  0  0  0  0
   69.1511   47.3133   53.6099 C   0  0  0  0  0  0  0  0  0  0  0  0
   69.5468   48.6822   51.6248 N   0  0  0  0  0  0  0  0  0  0  0  0
   69.4373   49.7718   52.5584 C   0  0  0  0  0  0  0  0  0  0  0  0
   70.1998   50.7123   52.5573 O   0  0  0  0  0  0  0  0  0  0  0  0
 12 13  1  0
 13 14  1  0
 13  6  1  0
  6  7  2  0
  6 11  1  0
  7  8  1  0
  8  9  2  0
  9  3  1  0
  9 10  1  0
  3  4  2  0
  3  5  1  0
  5  1  1  0
  1  2  2  0
  1 15  1  0
 15 16  1  0
 16 17  1  0
 17 18  2  0
 17 19  1  0
 19 20  2  0
 19 24  1  0
 20 21  1  0
 21 22  2  0
 22 23  1  0
 23 25  1  0
 23 24  2  0
 25 26  1  0
 26 27  2  0
 10 11  2  0
M  CHG  1  25   1
M  END
>  <minimizedAffinity>  (589) 
-8.96175

$$$$
cs_full_output_folder/data/smiles/1513.pdb
     RDKit          3D

 24 25  0  0  0  0  0  0  0  0999 V2000
   70.0771   49.0960   51.0553 O   0  0  0  0  0  0  0  0  0  0  0  0
   70.0682   49.1781   52.5743 S   0  0  0  0  0  0  0  0  0  0  0  0
   71.5160   49.1868   52.9764 O   0  0  0  0  0  0  0  0  0  0  0  0
   69.2616   47.7489   53.1677 C   0  0  0  0  0  0  0  0  0  0  0  0
   69.2544   47.5013   54.5308 C   0  0  0  0  0  0  0  0  0  0  0  0
   69.8870   48.4012   55.3462 F   0  0  0  0  0  0  0  0  0  0  0  0
   68.6346   46.3929   55.0459 C   0  0  0  0  0  0  0  0  0  0  0  0
   68.6480   46.1813   56.3961 F   0  0  0  0  0  0  0  0  0  0  0  0
   67.9977   45.4849   54.2347 C   0  0  0  0  0  0  0  0  0  0  0  0
   67.3987   44.4098   54.7493 F   0  0  0  0  0  0  0  0  0  0  0  0
   68.0180   45.7563   52.8630 C   0  0  0  0  0  0  0  0  0  0  0  0
   67.3713   44.8242   52.0926 F   0  0  0  0  0  0  0  0  0  0  0  0
   68.6311   46.8534   52.3488 C   0  0  0  0  0  0  0  0  0  0  0  0
   68.6202   47.0634   51.0259 F   0  0  0  0  0  0  0  0  0  0  0  0
   69.3124   50.6474   52.9734 N   0  0  0  0  0  0  0  0  0  0  0  0
   69.6337   51.5472   53.9904 C   0  0  0  0  0  0  0  0  0  0  0  0
   68.6415   51.9941   54.8481 C   0  0  0  0  0  0  0  0  0  0  0  0
   68.9207   52.8792   55.8813 C   0  0  0  0  0  0  0  0  0  0  0  0
   70.1918   53.3245   56.0660 C   0  0  0  0  0  0  0  0  0  0  0  0
   70.5028   54.2143   57.0954 O   0  0  0  0  0  0  0  0  0  0  0  0
   71.2013   52.8946   55.2243 C   0  0  0  0  0  0  0  0  0  0  0  0
   70.9036   52.0060   54.1909 C   0  0  0  0  0  0  0  0  0  0  0  0
   72.5379   53.3430   55.3933 N   0  0  0  0  0  0  0  0  0  0  0  0
   72.8101   54.6388   55.1376 F   0  0  0  0  0  0  0  0  0  0  0  0
  1  2  2  0
  2  3  2  0
  2 15  1  0
  2  4  1  0
 15 16  1  0
 16 17  2  0
 16 22  1  0
 17 18  1  0
 18 19  2  0
 19 20  1  0
 19 21  1  0
 21 23  1  0
 21 22  2  0
 23 24  1  0
  4  5  2  0
  4 13  1  0
  5  6  1  0
  5  7  1  0
  7  8  1  0
  7  9  2  0
  9 10  1  0
  9 11  1  0
 11 12  1  0
 11 13  2  0
 13 14  1  0
M  END
>  <minimizedAffinity>  (590) 
-8.96154

$$$$
cs_full_output_folder/data/smiles/8464.pdb
     RDKit          3D

 28 31  0  0  0  0  0  0  0  0999 V2000
   69.9125   47.0880   57.3355 C   0  0  0  0  0  0  0  0  0  0  0  0
   69.9562   45.6812   57.3530 C   0  0  0  0  0  0  0  0  0  0  0  0
   71.0141   45.0012   57.9072 C   0  0  0  0  0  0  0  0  0  0  0  0
   72.0600   45.7064   58.4605 C   0  0  0  0  0  0  0  0  0  0  0  0
   73.1405   45.0807   59.0276 F   0  0  0  0  0  0  0  0  0  0  0  0
   72.0729   47.0822   58.4736 C   0  0  0  0  0  0  0  0  0  0  0  0
   70.9766   47.7270   57.8977 C   0  0  0  0  0  0  0  0  0  0  0  0
   73.1510   47.7940   59.0590 N   0  0  0  0  0  0  0  0  0  0  0  0
   73.2336   48.0118   60.4589 C   0  0  0  0  0  0  0  0  0  0  0  0
   72.1995   47.8055   61.1589 O   0  0  0  0  0  0  0  0  0  0  0  0
   74.5232   48.4768   61.0960 C   0  0  0  0  0  0  0  0  0  0  0  0
   75.2305   49.4191   60.1679 C   0  0  0  0  0  0  0  0  0  0  0  0
   75.5180   48.7360   58.8661 C   0  0  0  0  0  0  0  0  0  0  0  0
   74.2065   48.3268   58.2687 C   0  0  0  0  0  0  0  0  0  0  0  0
   74.0044   48.4484   57.0257 O   0  0  0  0  0  0  0  0  0  0  0  0
   68.7137   47.7531   56.7198 C   0  0  0  0  0  0  0  0  0  0  0  0
   70.2129   49.2594   51.3597 N   0  0  0  0  0  0  0  0  0  0  0  0
   69.8456   48.9176   52.5207 C   0  0  0  0  0  0  0  0  0  0  0  0
   70.2634   49.9592   53.8495 S   0  0  0  0  0  0  0  0  0  0  0  0
   69.7214   49.3812   55.3187 N   0  0  0  0  0  0  0  0  0  0  0  0
   69.0332   48.1966   55.3142 C   0  0  0  0  0  0  0  0  0  0  0  0
   68.7695   47.4758   54.1865 C   0  0  0  0  0  0  0  0  0  0  0  0
   68.0261   46.2963   54.3333 C   0  0  0  0  0  0  0  0  0  0  0  0
   67.6750   45.4883   53.2766 C   0  0  0  0  0  0  0  0  0  0  0  0
   66.9442   44.3428   53.4904 F   0  0  0  0  0  0  0  0  0  0  0  0
   68.0442   45.8108   52.0186 C   0  0  0  0  0  0  0  0  0  0  0  0
   68.7739   46.9653   51.8326 C   0  0  0  0  0  0  0  0  0  0  0  0
   69.1415   47.8023   52.8957 C   0  0  0  0  0  0  0  0  0  0  0  0
 17 18  2  0
 18 19  1  0
 18 28  1  0
 19 20  1  0
 20 21  2  0
 21 16  1  0
 21 22  1  0
 16  1  1  0
  1  2  2  0
  1  7  1  0
  2  3  1  0
  3  4  2  0
  4  5  1  0
  4  6  1  0
  6  8  1  0
  6  7  2  0
  8  9  1  0
  8 14  1  0
  9 10  2  0
  9 11  1  0
 11 12  1  0
 12 13  1  0
 13 14  1  0
 14 15  2  0
 22 23  1  0
 22 28  2  0
 23 24  2  0
 24 25  1  0
 24 26  1  0
 26 27  2  0
 27 28  1  0
M  END
>  <minimizedAffinity>  (591) 
-8.95985

$$$$
cs_full_output_folder/data/smiles/1963.pdb
     RDKit          3D

 27 30  0  0  0  0  0  0  0  0999 V2000
   71.1669   47.3152   58.6025 C   0  0  0  0  0  0  0  0  0  0  0  0
   71.0604   45.9115   58.5701 C   0  0  0  0  0  0  0  0  0  0  0  0
   70.2442   45.2524   57.7082 C   0  0  0  0  0  0  0  0  0  0  0  0
   69.4997   46.0119   56.8412 C   0  0  0  0  0  0  0  0  0  0  0  0
   69.5724   47.3826   56.8400 N   0  0  0  0  0  0  0  0  0  0  0  0
   70.3898   48.0008   57.7037 C   0  0  0  0  0  0  0  0  0  0  0  0
   70.4638   49.2654   57.7011 O   0  0  0  0  0  0  0  0  0  0  0  0
   74.0597   49.2165   60.3032 C   0  0  0  0  0  0  0  0  0  0  0  0
   73.2157   48.6567   59.2569 N   0  0  0  0  0  0  0  0  0  0  0  0
   72.0688   47.9106   59.5692 C   0  0  0  0  0  0  0  0  0  0  0  0
   71.8462   47.7755   60.8256 O   0  0  0  0  0  0  0  0  0  0  0  0
   70.1185   43.8014   57.6500 C   0  0  0  0  0  0  0  0  0  0  0  0
   71.1667   43.0636   57.6446 O   0  0  0  0  0  0  0  0  0  0  0  0
   68.8862   43.1055   57.5966 N   0  0  0  0  0  0  0  0  0  0  0  0
   68.8527   41.6528   57.5381 C   0  0  0  0  0  0  0  0  0  0  0  0
   67.9493   40.9328   56.6272 C   0  0  0  0  0  0  0  0  0  0  0  0
   67.5749   41.0516   58.0762 C   0  0  0  0  0  0  0  0  0  0  0  0
   68.7084   48.0422   55.8998 C   0  0  0  0  0  0  0  0  0  0  0  0
   68.5770   47.3112   54.6192 C   0  0  0  0  0  0  0  0  0  0  0  0
   67.7200   46.2598   54.6258 N   0  0  0  0  0  0  0  0  0  0  0  0
   67.4610   45.5704   53.5294 C   0  0  0  0  0  0  0  0  0  0  0  0
   68.0459   45.8759   52.3099 C   0  0  0  0  0  0  0  0  0  0  0  0
   68.9215   46.9292   52.2497 C   0  0  0  0  0  0  0  0  0  0  0  0
   69.6544   47.4511   51.2553 N   0  0  0  0  0  0  0  0  0  0  0  0
   70.3682   48.4663   51.7547 C   0  0  0  0  0  0  0  0  0  0  0  0
   70.0933   48.6109   53.1164 C   0  0  0  0  0  0  0  0  0  0  0  0
   69.1739   47.6402   53.4335 C   0  0  0  0  0  0  0  0  0  0  0  0
  8  9  1  0
  9 10  1  0
 10 11  2  0
 10  1  1  0
  1  2  2  0
  1  6  1  0
  2  3  1  0
  3 12  1  0
  3  4  2  0
 12 13  2  0
 12 14  1  0
 14 15  1  0
 15 16  1  0
 15 17  1  0
 16 17  1  0
  4  5  1  0
  5 18  1  0
  5  6  1  0
 18 19  1  0
 19 20  2  0
 19 27  1  0
 20 21  1  0
 21 22  2  0
 22 23  1  0
 23 24  1  0
 23 27  2  0
 24 25  1  0
 25 26  2  0
 26 27  1  0
  6  7  2  0
M  END
>  <minimizedAffinity>  (592) 
-8.95959

$$$$
cs_full_output_folder/data/smiles/4643.pdb
     RDKit          3D

 29 32  0  0  0  0  0  0  0  0999 V2000
   71.4272   47.1617   58.8981 C   0  0  0  0  0  0  0  0  0  0  0  0
   70.4915   47.8448   58.1237 C   0  0  0  0  0  0  0  0  0  0  0  0
   69.6716   47.2368   57.2302 C   0  0  0  0  0  0  0  0  0  0  0  0
   69.7568   45.8594   57.0665 C   0  0  0  0  0  0  0  0  0  0  0  0
   70.6626   45.1496   57.8076 C   0  0  0  0  0  0  0  0  0  0  0  0
   71.4885   45.7898   58.7130 C   0  0  0  0  0  0  0  0  0  0  0  0
   72.3577   45.0229   59.4073 F   0  0  0  0  0  0  0  0  0  0  0  0
   75.2860   49.7038   56.4217 C   0  0  0  0  0  0  0  0  0  0  0  0
   74.8987   49.6045   57.8814 C   0  0  2  0  0  0  0  0  0  0  0  0
   74.5539   50.8824   58.2800 F   0  0  0  0  0  0  0  0  0  0  0  0
   76.0171   49.0270   58.7162 C   0  0  0  0  0  0  0  0  0  0  0  0
   75.6733   48.9806   60.1181 N   0  0  0  0  0  0  0  0  0  0  0  0
   74.2921   49.2571   60.3728 C   0  0  0  0  0  0  0  0  0  0  0  0
   73.4078   48.5911   59.4443 N   0  0  0  0  0  0  0  0  0  0  0  0
   72.2989   47.8171   59.8467 C   0  0  0  0  0  0  0  0  0  0  0  0
   72.0613   47.6944   61.0691 O   0  0  0  0  0  0  0  0  0  0  0  0
   73.6788   48.7273   58.0337 C   0  0  0  0  0  0  0  0  0  0  0  0
   68.6421   47.9098   56.3868 C   0  0  0  0  0  0  0  0  0  0  0  0
   69.0684   48.0893   54.9935 C   0  0  0  0  0  0  0  0  0  0  0  0
   69.9762   49.0838   54.7627 N   0  0  0  0  0  0  0  0  0  0  0  0
   70.4881   49.3601   53.5857 N   0  0  0  0  0  0  0  0  0  0  0  0
   70.1170   48.6383   52.5191 C   0  0  0  0  0  0  0  0  0  0  0  0
   70.6077   48.9014   51.3869 O   0  0  0  0  0  0  0  0  0  0  0  0
   69.1915   47.6074   52.6880 C   0  0  0  0  0  0  0  0  0  0  0  0
   68.8140   46.8817   51.5807 C   0  0  0  0  0  0  0  0  0  0  0  0
   67.8959   45.8678   51.7250 C   0  0  0  0  0  0  0  0  0  0  0  0
   67.3872   45.6202   52.9860 C   0  0  0  0  0  0  0  0  0  0  0  0
   67.7627   46.3449   54.0971 C   0  0  0  0  0  0  0  0  0  0  0  0
   68.6730   47.3398   53.9238 C   0  0  0  0  0  0  0  0  0  0  0  0
  9  8  1  6
  9 10  1  0
  9 11  1  0
  9 17  1  0
 11 12  1  0
 12 13  1  0
 13 14  1  0
 14 15  1  0
 14 17  1  0
 15 16  2  0
 15  1  1  0
  1  2  2  0
  1  6  1  0
  2  3  1  0
  3 18  1  0
  3  4  2  0
 18 19  1  0
 19 20  2  0
 19 29  1  0
 20 21  1  0
 21 22  1  0
 22 23  2  0
 22 24  1  0
 24 25  1  0
 24 29  2  0
 25 26  2  0
 26 27  1  0
 27 28  2  0
 28 29  1  0
  4  5  1  0
  5  6  2  0
  6  7  1  0
M  CHG  1  12   1
M  END
>  <minimizedAffinity>  (593) 
-8.95922

$$$$
cs_full_output_folder/data/smiles/2624.pdb
     RDKit          3D

 28 31  0  0  0  0  0  0  0  0999 V2000
   69.8418   50.8365   57.5302 C   0  0  0  0  0  0  0  0  0  0  0  0
   70.1511   49.4980   57.2589 C   0  0  0  0  0  0  0  0  0  0  0  0
   69.1780   48.5694   57.0780 C   0  0  0  0  0  0  0  0  0  0  0  0
   67.8459   49.0114   57.1747 C   0  0  0  0  0  0  0  0  0  0  0  0
   67.5243   50.3237   57.4404 C   0  0  0  0  0  0  0  0  0  0  0  0
   68.5396   51.2504   57.6212 C   0  0  0  0  0  0  0  0  0  0  0  0
   68.2246   52.5584   57.8846 F   0  0  0  0  0  0  0  0  0  0  0  0
   71.4199   51.7630   58.9180 O   0  0  0  0  0  0  0  0  0  0  0  0
   70.8956   51.8169   57.7508 C   0  0  0  0  0  0  0  0  0  0  0  0
   71.3217   52.7438   56.8089 N   0  0  0  0  0  0  0  0  0  0  0  0
   72.3763   53.6086   57.2687 C   0  0  0  0  0  0  0  0  0  0  0  0
   73.3527   54.0024   56.2406 C   0  0  0  0  0  0  0  0  0  0  0  0
   73.5260   53.4348   55.0617 C   0  0  0  0  0  0  0  0  0  0  0  0
   72.9280   52.3269   54.3349 C   0  0  0  0  0  0  0  0  0  0  0  0
   71.5353   51.9901   54.5606 C   0  0  0  0  0  0  0  0  0  0  0  0
   70.7217   52.8022   55.4953 C   0  0  0  0  0  0  0  0  0  0  0  0
   69.4410   47.1249   56.7997 C   0  0  0  0  0  0  0  0  0  0  0  0
   68.8454   46.6504   55.5403 C   0  0  0  0  0  0  0  0  0  0  0  0
   68.0604   45.5352   55.6414 N   0  0  0  0  0  0  0  0  0  0  0  0
   67.5194   44.9678   54.5926 N   0  0  0  0  0  0  0  0  0  0  0  0
   67.6993   45.4410   53.3530 C   0  0  0  0  0  0  0  0  0  0  0  0
   67.1682   44.8736   52.3554 O   0  0  0  0  0  0  0  0  0  0  0  0
   68.4728   46.5532   53.1870 C   0  0  0  0  0  0  0  0  0  0  0  0
   68.6581   47.0678   51.9258 C   0  0  0  0  0  0  0  0  0  0  0  0
   69.4354   48.2114   51.7931 C   0  0  0  0  0  0  0  0  0  0  0  0
   70.0019   48.8120   52.8963 C   0  0  0  0  0  0  0  0  0  0  0  0
   69.8041   48.2781   54.1591 C   0  0  0  0  0  0  0  0  0  0  0  0
   69.0447   47.1545   54.2928 C   0  0  0  0  0  0  0  0  0  0  0  0
  8  9  2  0
  9  1  1  0
  9 10  1  0
  1  2  2  0
  1  6  1  0
  2  3  1  0
  3 17  1  0
  3  4  2  0
 17 18  1  0
 18 19  2  0
 18 28  1  0
 19 20  1  0
 20 21  1  0
 21 22  2  0
 21 23  1  0
 23 24  1  0
 23 28  2  0
 24 25  2  0
 25 26  1  0
 26 27  2  0
 27 28  1  0
  4  5  1  0
  5  6  2  0
  6  7  1  0
 10 11  1  0
 10 16  1  0
 11 12  1  0
 12 13  2  0
 13 14  1  0
 14 15  1  0
 15 16  1  0
M  END
>  <minimizedAffinity>  (594) 
-8.95860

$$$$
cs_full_output_folder/data/smiles/1324.pdb
     RDKit          3D

 25 27  0  0  0  0  0  0  0  0999 V2000
   69.1861   46.0670   57.1310 N   0  0  0  0  0  0  0  0  0  0  0  0
   70.3490   45.8022   57.8977 C   0  0  0  0  0  0  0  0  0  0  0  0
   71.2150   46.6799   58.0032 O   0  0  0  0  0  0  0  0  0  0  0  0
   70.5461   44.5148   58.5658 C   0  0  0  0  0  0  0  0  0  0  0  0
   70.7367   43.2683   57.9954 C   0  0  0  0  0  0  0  0  0  0  0  0
   70.8814   42.3280   58.9528 N   0  0  0  0  0  0  0  0  0  0  0  0
   70.7821   42.9812   60.1012 N   0  0  0  0  0  0  0  0  0  0  0  0
   70.5821   44.2838   59.8892 N   0  0  0  0  0  0  0  0  0  0  0  0
   71.0971   40.9275   58.7968 C   0  0  0  0  0  0  0  0  0  0  0  0
   70.0441   40.0877   58.4988 C   0  0  0  0  0  0  0  0  0  0  0  0
   70.2223   38.7147   58.3409 C   0  0  0  0  0  0  0  0  0  0  0  0
   71.4695   38.1530   58.4776 C   0  0  0  0  0  0  0  0  0  0  0  0
   71.7173   36.4149   58.2803 Cl  0  0  0  0  0  0  0  0  0  0  0  0
   72.5297   38.9813   58.7739 C   0  0  0  0  0  0  0  0  0  0  0  0
   72.3379   40.3343   58.9277 C   0  0  0  0  0  0  0  0  0  0  0  0
   68.8759   47.2740   56.4356 C   0  0  0  0  0  0  0  0  0  0  0  0
   69.3106   47.9448   52.7707 C   0  0  0  0  0  0  0  0  0  0  0  0
   68.6599   46.8793   52.1940 C   0  0  0  0  0  0  0  0  0  0  0  0
   68.0653   45.9234   53.0098 C   0  0  0  0  0  0  0  0  0  0  0  0
   68.1363   46.0599   54.3688 C   0  0  0  0  0  0  0  0  0  0  0  0
   68.7797   47.1162   54.9633 C   0  0  0  0  0  0  0  0  0  0  0  0
   69.3697   48.0623   54.1611 C   0  0  0  0  0  0  0  0  0  0  0  0
   69.9363   50.3487   52.3591 N   0  0  0  0  0  0  0  0  0  0  0  0
   69.9579   48.9853   51.9714 C   0  0  0  0  0  0  0  0  0  0  0  0
   70.5512   48.6763   50.9142 O   0  0  0  0  0  0  0  0  0  0  0  0
 23 24  1  0
 24 25  2  0
 24 17  1  0
 17 18  2  0
 17 22  1  0
 18 19  1  0
 19 20  2  0
 20 21  1  0
 21 16  1  0
 21 22  2  0
 16  1  1  0
  1  2  1  0
  2  3  2  0
  2  4  1  0
  4  5  2  0
  4  8  1  0
  5  6  1  0
  6  9  1  0
  6  7  1  0
  9 10  2  0
  9 15  1  0
 10 11  1  0
 11 12  2  0
 12 13  1  0
 12 14  1  0
 14 15  2  0
  7  8  2  0
M  END
>  <minimizedAffinity>  (595) 
-8.95695

$$$$
cs_full_output_folder/data/smiles/4920.pdb
     RDKit          3D

 25 27  0  0  0  0  0  0  0  0999 V2000
   69.8967   44.6913   57.3045 C   0  0  0  0  0  0  0  0  0  0  0  0
   70.7661   45.4767   57.7515 O   0  0  0  0  0  0  0  0  0  0  0  0
   68.8749   45.2046   56.5032 N   0  0  0  0  0  0  0  0  0  0  0  0
   68.0898   41.7889   56.6639 C   0  0  0  0  0  0  0  0  0  0  0  0
   69.3109   42.1162   57.4167 C   0  0  0  0  0  0  0  0  0  0  0  0
   70.0153   43.2722   57.6604 C   0  0  0  0  0  0  0  0  0  0  0  0
   70.8701   42.5220   58.3793 N   0  0  0  0  0  0  0  0  0  0  0  0
   70.1828   41.3937   58.1412 N   0  0  0  0  0  0  0  0  0  0  0  0
   70.3500   40.0381   58.5185 C   0  0  0  0  0  0  0  0  0  0  0  0
   69.3437   39.4452   59.2384 C   0  0  0  0  0  0  0  0  0  0  0  0
   69.4434   38.1204   59.6411 C   0  0  0  0  0  0  0  0  0  0  0  0
   70.5503   37.3501   59.3377 C   0  0  0  0  0  0  0  0  0  0  0  0
   70.6610   35.6693   59.8573 Cl  0  0  0  0  0  0  0  0  0  0  0  0
   71.5608   37.9481   58.6142 C   0  0  0  0  0  0  0  0  0  0  0  0
   71.4540   39.2697   58.2160 C   0  0  0  0  0  0  0  0  0  0  0  0
   68.6809   46.5791   56.1085 C   0  0  0  0  0  0  0  0  0  0  0  0
   68.6177   46.6360   54.6304 C   0  0  0  0  0  0  0  0  0  0  0  0
   67.9093   45.7352   53.8729 C   0  0  0  0  0  0  0  0  0  0  0  0
   67.8682   45.8009   52.4896 C   0  0  0  0  0  0  0  0  0  0  0  0
   68.5718   46.8169   51.8618 C   0  0  0  0  0  0  0  0  0  0  0  0
   69.2885   47.7315   52.5810 C   0  0  0  0  0  0  0  0  0  0  0  0
   69.3037   47.6335   53.9421 C   0  0  0  0  0  0  0  0  0  0  0  0
   70.0176   48.7909   51.8700 C   0  0  0  0  0  0  0  0  0  0  0  0
   70.6792   48.5226   50.8364 O   0  0  0  0  0  0  0  0  0  0  0  0
   70.0033   50.1067   52.3086 O   0  0  0  0  0  0  0  0  0  0  0  0
  4  5  1  0
  5  6  2  0
  5  8  1  0
  6  1  1  0
  6  7  1  0
  1  2  2  0
  1  3  1  0
  3 16  1  0
 16 17  1  0
 17 18  2  0
 17 22  1  0
 18 19  1  0
 19 20  2  0
 20 21  1  0
 21 23  1  0
 21 22  2  0
 23 24  2  0
 23 25  1  0
  7  8  1  0
  8  9  1  0
  9 10  2  0
  9 15  1  0
 10 11  1  0
 11 12  2  0
 12 13  1  0
 12 14  1  0
 14 15  2  0
M  END
>  <minimizedAffinity>  (596) 
-8.95533

$$$$
cs_full_output_folder/data/smiles/2753.pdb
     RDKit          3D

 26 28  0  0  0  0  0  0  0  0999 V2000
   68.9526   47.6034   56.7691 C   0  0  0  0  0  0  0  0  0  0  0  0
   67.6871   47.5350   57.0339 O   0  0  0  0  0  0  0  0  0  0  0  0
   70.5132   49.9037   56.2294 N   0  0  0  0  0  0  0  0  0  0  0  0
   70.0385   49.1205   55.1481 C   0  0  0  0  0  0  0  0  0  0  0  0
   69.2597   47.9720   55.4085 C   0  0  0  0  0  0  0  0  0  0  0  0
   68.8413   47.2722   54.2980 C   0  0  0  0  0  0  0  0  0  0  0  0
   68.0741   46.1339   54.4342 C   0  0  0  0  0  0  0  0  0  0  0  0
   67.6134   45.3724   53.3560 C   0  0  0  0  0  0  0  0  0  0  0  0
   67.9470   45.7879   52.0949 C   0  0  0  0  0  0  0  0  0  0  0  0
   68.7075   46.9155   51.9194 C   0  0  0  0  0  0  0  0  0  0  0  0
   69.1502   47.6487   52.9988 C   0  0  0  0  0  0  0  0  0  0  0  0
   69.9042   48.7641   52.7984 N   0  0  0  0  0  0  0  0  0  0  0  0
   70.3228   49.4596   53.8425 C   0  0  0  0  0  0  0  0  0  0  0  0
   71.0239   50.4936   53.6093 O   0  0  0  0  0  0  0  0  0  0  0  0
   69.7558   47.3179   57.8156 O   0  0  0  0  0  0  0  0  0  0  0  0
   70.6845   46.3105   57.9902 C   0  0  0  0  0  0  0  0  0  0  0  0
   70.1237   44.9635   58.1626 C   0  0  0  0  0  0  0  0  0  0  0  0
   69.6864   44.5924   59.2851 O   0  0  0  0  0  0  0  0  0  0  0  0
   70.0685   44.0612   57.0746 N   0  0  0  0  0  0  0  0  0  0  0  0
   69.5091   42.7747   57.2972 C   0  0  0  0  0  0  0  0  0  0  0  0
   70.1275   41.9064   58.0742 C   0  0  0  0  0  0  0  0  0  0  0  0
   69.5153   40.5757   58.2833 C   0  0  0  0  0  0  0  0  0  0  0  0
   68.3617   40.3783   57.7228 C   0  0  0  0  0  0  0  0  0  0  0  0
   67.7985   41.1473   56.8938 C   0  0  0  0  0  0  0  0  0  0  0  0
   68.2560   42.3729   56.6869 C   0  0  0  0  0  0  0  0  0  0  0  0
   67.5434   43.2030   55.9184 F   0  0  0  0  0  0  0  0  0  0  0  0
  3  4  1  0
  4  5  2  0
  4 13  1  0
  5  1  1  0
  5  6  1  0
  1  2  2  0
  1 15  1  0
 15 16  1  0
 16 17  1  0
 17 18  2  0
 17 19  1  0
 19 20  1  0
 20 21  2  0
 20 25  1  0
 21 22  1  0
 22 23  2  0
 23 24  2  0
 24 25  2  0
 25 26  1  0
  6  7  2  0
  6 11  1  0
  7  8  1  0
  8  9  2  0
  9 10  1  0
 10 11  2  0
 11 12  1  0
 12 13  1  0
 13 14  2  0
M  END
>  <minimizedAffinity>  (597) 
-8.95347

$$$$
cs_full_output_folder/data/smiles/5125.pdb
     RDKit          3D

 25 26  0  0  0  0  0  0  0  0999 V2000
   70.3865   48.9699   52.2855 S   0  0  0  0  0  0  0  0  0  0  0  0
   71.6795   49.1686   53.0243 O   0  0  0  0  0  0  0  0  0  0  0  0
   70.6329   48.5062   50.8770 O   0  0  0  0  0  0  0  0  0  0  0  0
   69.4131   47.8173   53.1644 C   0  0  0  0  0  0  0  0  0  0  0  0
   68.6742   46.8939   52.4464 C   0  0  0  0  0  0  0  0  0  0  0  0
   68.7508   46.9260   51.0839 F   0  0  0  0  0  0  0  0  0  0  0  0
   67.8645   45.9422   53.0331 C   0  0  0  0  0  0  0  0  0  0  0  0
   67.1447   45.0429   52.3204 F   0  0  0  0  0  0  0  0  0  0  0  0
   67.7991   45.9247   54.3973 C   0  0  0  0  0  0  0  0  0  0  0  0
   68.5241   46.8327   55.1360 C   0  0  0  0  0  0  0  0  0  0  0  0
   68.4687   46.8263   56.5028 F   0  0  0  0  0  0  0  0  0  0  0  0
   69.3309   47.7793   54.5315 C   0  0  0  0  0  0  0  0  0  0  0  0
   70.0256   48.6645   55.2680 F   0  0  0  0  0  0  0  0  0  0  0  0
   69.5628   50.4746   52.2723 N   0  0  0  0  0  0  0  0  0  0  0  0
   70.5002   52.6570   55.1676 C   0  0  0  0  0  0  0  0  0  0  0  0
   70.5386   51.9286   53.9975 C   0  0  0  0  0  0  0  0  0  0  0  0
   69.4758   51.2217   53.4750 C   0  0  0  0  0  0  0  0  0  0  0  0
   68.2777   51.2615   54.2040 C   0  0  0  0  0  0  0  0  0  0  0  0
   68.2016   51.9781   55.3762 C   0  0  0  0  0  0  0  0  0  0  0  0
   69.3034   52.6692   55.8540 C   0  0  0  0  0  0  0  0  0  0  0  0
   69.1718   53.3609   57.0172 F   0  0  0  0  0  0  0  0  0  0  0  0
   73.6992   53.5197   57.0705 N   0  0  0  0  0  0  0  0  0  0  0  0
   72.5666   52.8265   56.5726 C   0  0  0  0  0  0  0  0  0  0  0  0
   72.3502   51.6355   56.9583 O   0  0  0  0  0  0  0  0  0  0  0  0
   71.6359   53.3688   55.6593 N   0  0  0  0  0  0  0  0  0  0  0  0
 22 23  1  0
 23 24  2  0
 23 25  1  0
 25 15  1  0
 15 16  2  0
 15 20  1  0
 16 17  1  0
 17 14  1  0
 17 18  2  0
 14  1  1  0
  1  2  2  0
  1  3  2  0
  1  4  1  0
  4  5  2  0
  4 12  1  0
  5  6  1  0
  5  7  1  0
  7  8  1  0
  7  9  2  0
  9 10  1  0
 10 11  1  0
 10 12  2  0
 12 13  1  0
 18 19  1  0
 19 20  2  0
 20 21  1  0
M  END
>  <minimizedAffinity>  (598) 
-8.95278

$$$$
cs_full_output_folder/data/smiles/2056.pdb
     RDKit          3D

 26 27  0  0  0  0  0  0  0  0999 V2000
   70.0419   49.3121   52.7348 S   0  0  0  0  0  0  0  0  0  0  0  0
   71.5251   49.3224   53.1037 O   0  0  0  0  0  0  0  0  0  0  0  0
   70.0724   49.2688   51.2003 O   0  0  0  0  0  0  0  0  0  0  0  0
   69.2733   47.8787   53.2797 C   0  0  0  0  0  0  0  0  0  0  0  0
   69.3255   47.5761   54.6386 C   0  0  0  0  0  0  0  0  0  0  0  0
   69.9751   48.4134   55.4802 F   0  0  0  0  0  0  0  0  0  0  0  0
   68.7470   46.4576   55.1902 C   0  0  0  0  0  0  0  0  0  0  0  0
   68.8444   46.2387   56.5198 F   0  0  0  0  0  0  0  0  0  0  0  0
   68.0838   45.6032   54.3326 C   0  0  0  0  0  0  0  0  0  0  0  0
   67.4953   44.4843   54.8283 F   0  0  0  0  0  0  0  0  0  0  0  0
   68.0165   45.8790   52.9806 C   0  0  0  0  0  0  0  0  0  0  0  0
   67.3592   45.0336   52.1245 F   0  0  0  0  0  0  0  0  0  0  0  0
   68.6001   46.9971   52.4592 C   0  0  0  0  0  0  0  0  0  0  0  0
   68.5386   47.2725   51.1435 F   0  0  0  0  0  0  0  0  0  0  0  0
   69.3300   50.7952   53.1270 N   0  0  0  0  0  0  0  0  0  0  0  0
   70.1724   51.9477   56.6045 C   0  0  0  0  0  0  0  0  0  0  0  0
   68.9256   51.9524   57.1877 C   0  0  0  0  0  0  0  0  0  0  0  0
   67.8459   51.5846   56.4137 C   0  0  0  0  0  0  0  0  0  0  0  0
   67.9827   51.2224   55.1117 C   0  0  0  0  0  0  0  0  0  0  0  0
   69.2362   51.2031   54.4765 C   0  0  0  0  0  0  0  0  0  0  0  0
   70.2978   51.5747   55.2670 C   0  0  0  0  0  0  0  0  0  0  0  0
   73.1518   54.0374   57.7697 C   0  0  0  0  0  0  0  0  0  0  0  0
   71.9241   53.5624   57.0667 C   0  0  0  0  0  0  0  0  0  0  0  0
   71.4415   54.3638   56.2197 O   0  0  0  0  0  0  0  0  0  0  0  0
   71.3316   52.3083   57.3196 N   0  0  0  0  0  0  0  0  0  0  0  0
   71.8678   51.3814   58.2814 C   0  0  0  0  0  0  0  0  0  0  0  0
 22 23  1  0
 23 24  2  0
 23 25  1  0
 25 26  1  0
 25 16  1  0
 16 17  2  0
 16 21  1  0
 17 18  1  0
 18 19  2  0
 19 20  1  0
 20 15  1  0
 20 21  2  0
 15  1  1  0
  1  2  2  0
  1  3  2  0
  1  4  1  0
  4  5  2  0
  4 13  1  0
  5  6  1  0
  5  7  1  0
  7  8  1  0
  7  9  2  0
  9 10  1  0
  9 11  1  0
 11 12  1  0
 11 13  2  0
 13 14  1  0
M  END
>  <minimizedAffinity>  (599) 
-8.95129

$$$$
cs_full_output_folder/data/smiles/231.pdb
     RDKit          3D

 25 26  0  0  0  0  0  0  0  0999 V2000
   69.1185   47.5231   56.9798 S   0  0  0  0  0  0  0  0  0  0  0  0
   69.4510   46.2164   57.6612 O   0  0  0  0  0  0  0  0  0  0  0  0
   67.7794   47.9358   57.5579 O   0  0  0  0  0  0  0  0  0  0  0  0
   68.9148   47.2727   55.2788 C   0  0  0  0  0  0  0  0  0  0  0  0
   69.2920   48.2776   54.3741 C   0  0  0  0  0  0  0  0  0  0  0  0
   69.1432   48.1483   53.0259 C   0  0  0  0  0  0  0  0  0  0  0  0
   69.5187   49.1382   52.1817 F   0  0  0  0  0  0  0  0  0  0  0  0
   68.6070   47.0089   52.4845 C   0  0  0  0  0  0  0  0  0  0  0  0
   68.2256   46.0034   53.3260 C   0  0  0  0  0  0  0  0  0  0  0  0
   67.6918   44.8621   52.8317 F   0  0  0  0  0  0  0  0  0  0  0  0
   68.3873   46.1542   54.7132 C   0  0  0  0  0  0  0  0  0  0  0  0
   68.0030   45.1152   55.4611 F   0  0  0  0  0  0  0  0  0  0  0  0
   68.4440   46.8573   51.0815 N   0  0  0  0  0  0  0  0  0  0  0  0
   67.3132   46.3723   50.5532 F   0  0  0  0  0  0  0  0  0  0  0  0
   70.2517   48.7212   57.3614 N   0  0  0  0  0  0  0  0  0  0  0  0
   72.0019   51.1252   55.1431 C   0  0  0  0  0  0  0  0  0  0  0  0
   71.0501   52.0952   54.9186 C   0  0  0  0  0  0  0  0  0  0  0  0
   69.8147   51.9244   55.5031 C   0  0  0  0  0  0  0  0  0  0  0  0
   69.5443   50.8223   56.2836 C   0  0  0  0  0  0  0  0  0  0  0  0
   70.5007   49.8297   56.5196 C   0  0  0  0  0  0  0  0  0  0  0  0
   71.7453   50.0227   55.9182 C   0  0  0  0  0  0  0  0  0  0  0  0
   73.4983   52.7635   53.4312 N   0  0  0  0  0  0  0  0  0  0  0  0
   73.5799   51.3296   54.4053 S   0  0  0  0  0  0  0  0  0  0  0  0
   74.6012   51.4967   55.4850 O   0  0  0  0  0  0  0  0  0  0  0  0
   73.9424   50.1583   53.5407 O   0  0  0  0  0  0  0  0  0  0  0  0
 22 23  1  0
 23 24  2  0
 23 25  2  0
 23 16  1  0
 16 17  2  0
 16 21  1  0
 17 18  1  0
 18 19  2  0
 19 20  1  0
 20 15  1  0
 20 21  2  0
 15  1  1  0
  1  2  2  0
  1  3  2  0
  1  4  1  0
  4  5  2  0
  4 11  1  0
  5  6  1  0
  6  7  1  0
  6  8  2  0
  8 13  1  0
  8  9  1  0
 13 14  1  0
  9 10  1  0
  9 11  2  0
 11 12  1  0
M  END
>  <minimizedAffinity>  (600) 
-8.95010

$$$$
cs_full_output_folder/data/smiles/5973.pdb
     RDKit          3D

 27 29  0  0  0  0  0  0  0  0999 V2000
   71.7437   46.3523   58.5362 C   0  0  0  0  0  0  0  0  0  0  0  0
   71.8537   47.7402   58.3845 C   0  0  0  0  0  0  0  0  0  0  0  0
   70.9506   48.4597   57.6461 C   0  0  0  0  0  0  0  0  0  0  0  0
   69.8752   47.8290   57.0113 C   0  0  0  0  0  0  0  0  0  0  0  0
   69.7722   46.4739   57.1632 C   0  0  0  0  0  0  0  0  0  0  0  0
   70.6917   45.7276   57.9159 C   0  0  0  0  0  0  0  0  0  0  0  0
   70.5524   44.2639   58.0577 C   0  0  0  0  0  0  0  0  0  0  0  0
   71.7224   43.5949   57.7378 F   0  0  0  0  0  0  0  0  0  0  0  0
   69.5729   43.8392   57.1721 F   0  0  0  0  0  0  0  0  0  0  0  0
   70.1608   43.8864   59.3173 F   0  0  0  0  0  0  0  0  0  0  0  0
   72.6807   45.6200   59.3001 N   0  0  0  0  0  0  0  0  0  0  0  0
   74.2515   45.3639   61.6318 N   0  0  0  0  0  0  0  0  0  0  0  0
   72.6699   45.7619   61.0095 S   0  0  0  0  0  0  0  0  0  0  0  0
   71.6649   44.8063   61.6071 O   0  0  0  0  0  0  0  0  0  0  0  0
   72.3750   47.1607   61.4583 O   0  0  0  0  0  0  0  0  0  0  0  0
   68.9205   48.6031   56.1898 C   0  0  0  0  0  0  0  0  0  0  0  0
   69.3084   48.5643   54.7691 C   0  0  0  0  0  0  0  0  0  0  0  0
   70.1913   49.5049   54.2923 N   0  0  0  0  0  0  0  0  0  0  0  0
   70.5560   49.5680   53.0382 N   0  0  0  0  0  0  0  0  0  0  0  0
   70.0964   48.7160   52.1051 C   0  0  0  0  0  0  0  0  0  0  0  0
   70.4867   48.8348   50.9217 O   0  0  0  0  0  0  0  0  0  0  0  0
   69.2070   47.7348   52.4831 C   0  0  0  0  0  0  0  0  0  0  0  0
   68.7367   46.8449   51.5423 C   0  0  0  0  0  0  0  0  0  0  0  0
   67.8576   45.8488   51.9082 C   0  0  0  0  0  0  0  0  0  0  0  0
   67.4933   45.8050   53.2370 C   0  0  0  0  0  0  0  0  0  0  0  0
   67.9609   46.6954   54.1890 C   0  0  0  0  0  0  0  0  0  0  0  0
   68.8371   47.6893   53.8229 C   0  0  0  0  0  0  0  0  0  0  0  0
 12 13  1  0
 13 14  2  0
 13 15  2  0
 13 11  1  0
 11  1  1  0
  1  2  2  0
  1  6  1  0
  2  3  1  0
  3  4  2  0
  4 16  1  0
  4  5  1  0
 16 17  1  0
 17 18  2  0
 17 27  1  0
 18 19  1  0
 19 20  1  0
 20 21  2  0
 20 22  1  0
 22 23  1  0
 22 27  2  0
 23 24  2  0
 24 25  1  0
 25 26  2  0
 26 27  1  0
  5  6  2  0
  6  7  1  0
  7  8  1  0
  7  9  1  0
  7 10  1  0
M  END
>  <minimizedAffinity>  (601) 
-8.94667

$$$$
cs_full_output_folder/data/smiles/4882.pdb
     RDKit          3D

 28 31  0  0  0  0  0  0  0  0999 V2000
   70.4709   45.8536   58.2465 C   0  0  0  0  0  0  0  0  0  0  0  0
   71.6754   46.0935   58.8620 C   0  0  0  0  0  0  0  0  0  0  0  0
   72.2880   47.3225   58.6471 C   0  0  0  0  0  0  0  0  0  0  0  0
   71.6792   48.2746   57.8237 C   0  0  0  0  0  0  0  0  0  0  0  0
   70.4874   48.0532   57.2064 C   0  0  0  0  0  0  0  0  0  0  0  0
   69.8992   46.8010   57.4479 C   0  0  0  0  0  0  0  0  0  0  0  0
   71.1227   43.6639   56.8311 O   0  0  0  0  0  0  0  0  0  0  0  0
   70.1870   43.4917   57.6817 C   0  0  0  0  0  0  0  0  0  0  0  0
   69.8158   44.6107   58.4426 N   0  0  0  0  0  0  0  0  0  0  0  0
   69.6074   42.1740   57.7779 C   0  0  0  0  0  0  0  0  0  0  0  0
   70.1284   41.2182   58.6225 C   0  0  0  0  0  0  0  0  0  0  0  0
   69.5983   39.9384   58.7414 C   0  0  0  0  0  0  0  0  0  0  0  0
   68.5005   39.5790   57.9929 C   0  0  0  0  0  0  0  0  0  0  0  0
   67.9934   38.3283   58.1200 F   0  0  0  0  0  0  0  0  0  0  0  0
   67.9582   40.5162   57.1400 C   0  0  0  0  0  0  0  0  0  0  0  0
   68.5033   41.7982   57.0314 C   0  0  0  0  0  0  0  0  0  0  0  0
   69.7712   49.0240   56.3239 C   0  0  0  0  0  0  0  0  0  0  0  0
   69.8621   48.7499   54.9098 C   0  0  0  0  0  0  0  0  0  0  0  0
   70.8996   49.3350   54.2289 N   0  0  0  0  0  0  0  0  0  0  0  0
   71.1182   49.1427   52.9436 N   0  0  0  0  0  0  0  0  0  0  0  0
   70.3082   48.3322   52.1921 C   0  0  0  0  0  0  0  0  0  0  0  0
   70.5118   48.1436   50.9620 O   0  0  0  0  0  0  0  0  0  0  0  0
   69.2533   47.7185   52.8123 C   0  0  0  0  0  0  0  0  0  0  0  0
   69.0568   47.9503   54.1778 C   0  0  0  0  0  0  0  0  0  0  0  0
   67.9027   47.2971   54.7654 C   0  0  0  0  0  0  0  0  0  0  0  0
   67.9941   45.8019   54.4284 C   0  0  0  0  0  0  0  0  0  0  0  0
   68.2959   45.5404   52.9974 C   0  0  0  0  0  0  0  0  0  0  0  0
   68.3044   46.8134   52.1344 C   0  0  0  0  0  0  0  0  0  0  0  0
  7  8  2  0
  8  9  1  0
  8 10  1  0
  9  1  1  0
  1  2  2  0
  1  6  1  0
  2  3  1  0
  3  4  2  0
  4  5  1  0
  5 17  1  0
  5  6  2  0
 17 18  1  0
 18 19  2  0
 18 24  1  0
 19 20  1  0
 20 21  1  0
 21 22  2  0
 21 23  1  0
 23 24  2  0
 23 28  1  0
 24 25  1  0
 25 26  1  0
 26 27  1  0
 27 28  1  0
 10 11  2  0
 10 16  1  0
 11 12  1  0
 12 13  2  0
 13 14  1  0
 13 15  1  0
 15 16  2  0
M  END
>  <minimizedAffinity>  (602) 
-8.94646

$$$$
cs_full_output_folder/data/smiles/3199.pdb
     RDKit          3D

 24 25  0  0  0  0  0  0  0  0999 V2000
   70.2641   49.2080   52.4442 S   0  0  0  0  0  0  0  0  0  0  0  0
   71.6771   49.1583   53.0094 O   0  0  0  0  0  0  0  0  0  0  0  0
   70.3663   48.9075   50.9761 O   0  0  0  0  0  0  0  0  0  0  0  0
   69.3747   47.9510   53.2303 C   0  0  0  0  0  0  0  0  0  0  0  0
   68.6483   47.0316   52.5151 C   0  0  0  0  0  0  0  0  0  0  0  0
   68.5850   47.0543   51.1516 F   0  0  0  0  0  0  0  0  0  0  0  0
   67.9595   46.0520   53.1933 C   0  0  0  0  0  0  0  0  0  0  0  0
   67.2443   45.1480   52.4804 F   0  0  0  0  0  0  0  0  0  0  0  0
   67.9598   45.9433   54.5714 C   0  0  0  0  0  0  0  0  0  0  0  0
   68.6895   46.8669   55.2852 C   0  0  0  0  0  0  0  0  0  0  0  0
   68.7146   46.7938   56.6423 F   0  0  0  0  0  0  0  0  0  0  0  0
   69.3901   47.8623   54.6043 C   0  0  0  0  0  0  0  0  0  0  0  0
   70.0814   48.7290   55.3908 F   0  0  0  0  0  0  0  0  0  0  0  0
   69.5754   50.7538   52.6300 N   0  0  0  0  0  0  0  0  0  0  0  0
   70.4519   52.7751   55.6341 C   0  0  0  0  0  0  0  0  0  0  0  0
   69.2272   52.6871   56.3181 C   0  0  0  0  0  0  0  0  0  0  0  0
   68.1503   51.9904   55.8152 C   0  0  0  0  0  0  0  0  0  0  0  0
   68.2449   51.3448   54.5984 C   0  0  0  0  0  0  0  0  0  0  0  0
   69.4187   51.4022   53.8948 C   0  0  0  0  0  0  0  0  0  0  0  0
   70.4783   52.1225   54.4530 C   0  0  0  0  0  0  0  0  0  0  0  0
   73.2288   54.1262   57.9747 C   0  0  0  0  0  0  0  0  0  0  0  0
   72.1616   53.2240   57.4442 C   0  0  0  0  0  0  0  0  0  0  0  0
   71.8507   52.1812   58.0421 O   0  0  0  0  0  0  0  0  0  0  0  0
   71.4574   53.5064   56.2481 N   0  0  0  0  0  0  0  0  0  0  0  0
 21 22  1  0
 22 23  2  0
 22 24  1  0
 24 15  1  0
 15 16  2  0
 15 20  1  0
 16 17  1  0
 17 18  2  0
 18 19  1  0
 19 14  1  0
 19 20  2  0
 14  1  1  0
  1  2  2  0
  1  3  2  0
  1  4  1  0
  4  5  2  0
  4 12  1  0
  5  6  1  0
  5  7  1  0
  7  8  1  0
  7  9  2  0
  9 10  1  0
 10 11  1  0
 10 12  2  0
 12 13  1  0
M  END
>  <minimizedAffinity>  (603) 
-8.94303

$$$$
cs_full_output_folder/data/smiles/317.pdb
     RDKit          3D

 27 30  0  0  0  0  0  0  0  0999 V2000
   72.0802   47.2605   58.6294 C   0  0  0  0  0  0  0  0  0  0  0  0
   70.9794   47.8681   57.9873 C   0  0  0  0  0  0  0  0  0  0  0  0
   69.9941   47.1524   57.4087 C   0  0  0  0  0  0  0  0  0  0  0  0
   70.0569   45.7604   57.4339 C   0  0  0  0  0  0  0  0  0  0  0  0
   71.1056   45.1163   58.0402 C   0  0  0  0  0  0  0  0  0  0  0  0
   72.1008   45.8918   58.6277 C   0  0  0  0  0  0  0  0  0  0  0  0
   73.1524   45.2318   59.2013 F   0  0  0  0  0  0  0  0  0  0  0  0
   74.2961   48.4925   57.2692 N   0  0  0  0  0  0  0  0  0  0  0  0
   74.0182   48.8361   58.4918 C   0  0  0  0  0  0  0  0  0  0  0  0
   74.6732   49.9972   59.0970 C   0  0  0  0  0  0  0  0  0  0  0  0
   74.7630   49.9695   60.5954 C   0  0  0  0  0  0  0  0  0  0  0  0
   74.6091   48.5641   61.1240 C   0  0  0  0  0  0  0  0  0  0  0  0
   73.2608   48.0848   60.6574 C   0  0  0  0  0  0  0  0  0  0  0  0
   72.3570   47.7328   61.4228 O   0  0  0  0  0  0  0  0  0  0  0  0
   73.0717   48.0541   59.2546 N   0  0  0  0  0  0  0  0  0  0  0  0
   68.7746   47.8061   56.7987 C   0  0  0  0  0  0  0  0  0  0  0  0
   69.1840   48.1276   55.3993 C   0  0  0  0  0  0  0  0  0  0  0  0
   70.1205   49.1126   55.2012 N   0  0  0  0  0  0  0  0  0  0  0  0
   70.6533   49.3705   54.0285 N   0  0  0  0  0  0  0  0  0  0  0  0
   70.3103   48.6791   52.9328 C   0  0  0  0  0  0  0  0  0  0  0  0
   70.8536   48.9581   51.8195 O   0  0  0  0  0  0  0  0  0  0  0  0
   69.3682   47.6657   53.0255 C   0  0  0  0  0  0  0  0  0  0  0  0
   68.9543   46.9849   51.9001 C   0  0  0  0  0  0  0  0  0  0  0  0
   67.9661   46.0178   51.9816 C   0  0  0  0  0  0  0  0  0  0  0  0
   67.4280   45.7754   53.2300 C   0  0  0  0  0  0  0  0  0  0  0  0
   67.8345   46.4475   54.3624 C   0  0  0  0  0  0  0  0  0  0  0  0
   68.8168   47.4127   54.2908 C   0  0  0  0  0  0  0  0  0  0  0  0
  8  9  2  0
  9 10  1  0
  9 15  1  0
 10 11  1  0
 11 12  1  0
 12 13  1  0
 13 14  2  0
 13 15  1  0
 15  1  1  0
  1  2  2  0
  1  6  1  0
  2  3  1  0
  3 16  1  0
  3  4  2  0
 16 17  1  0
 17 18  2  0
 17 27  1  0
 18 19  1  0
 19 20  1  0
 20 21  2  0
 20 22  1  0
 22 23  1  0
 22 27  2  0
 23 24  2  0
 24 25  1  0
 25 26  2  0
 26 27  1  0
  4  5  1  0
  5  6  2  0
  6  7  1  0
M  CHG  1   8   1
M  END
>  <minimizedAffinity>  (604) 
-8.94129

$$$$
cs_full_output_folder/data/smiles/8110.pdb
     RDKit          3D

 26 29  0  0  0  0  0  0  0  0999 V2000
   71.9526   47.2306   58.4419 C   0  0  0  0  0  0  0  0  0  0  0  0
   71.0717   48.0269   57.7428 C   0  0  0  0  0  0  0  0  0  0  0  0
   69.9517   47.5442   57.1087 C   0  0  0  0  0  0  0  0  0  0  0  0
   69.6831   46.1803   57.1695 C   0  0  0  0  0  0  0  0  0  0  0  0
   70.5339   45.3700   57.8520 C   0  0  0  0  0  0  0  0  0  0  0  0
   71.6486   45.8865   58.4763 C   0  0  0  0  0  0  0  0  0  0  0  0
   72.4476   45.0215   59.1355 F   0  0  0  0  0  0  0  0  0  0  0  0
   72.2622   47.6589   61.2241 O   0  0  0  0  0  0  0  0  0  0  0  0
   73.0925   48.1689   60.4540 C   0  0  0  0  0  0  0  0  0  0  0  0
   74.1292   49.1599   60.8552 C   0  0  0  0  0  0  0  0  0  0  0  0
   74.1879   50.1743   59.7044 C   0  0  0  0  0  0  0  0  0  0  0  0
   74.6103   49.5323   58.4170 C   0  0  0  0  0  0  0  0  0  0  0  0
   74.3399   48.0606   58.3506 C   0  0  0  0  0  0  0  0  0  0  0  0
   73.0841   47.8006   59.0682 N   0  0  0  0  0  0  0  0  0  0  0  0
   68.9832   48.3678   56.3292 C   0  0  0  0  0  0  0  0  0  0  0  0
   69.4063   48.4146   54.9095 C   0  0  0  0  0  0  0  0  0  0  0  0
   70.3223   49.3520   54.5138 N   0  0  0  0  0  0  0  0  0  0  0  0
   70.6867   49.4603   53.2640 N   0  0  0  0  0  0  0  0  0  0  0  0
   70.2021   48.6765   52.2914 C   0  0  0  0  0  0  0  0  0  0  0  0
   70.5516   48.7835   51.0925 O   0  0  0  0  0  0  0  0  0  0  0  0
   69.2760   47.7069   52.6067 C   0  0  0  0  0  0  0  0  0  0  0  0
   68.7503   46.8624   51.6613 C   0  0  0  0  0  0  0  0  0  0  0  0
   67.8387   45.8863   51.9857 C   0  0  0  0  0  0  0  0  0  0  0  0
   67.4643   45.7784   53.2978 C   0  0  0  0  0  0  0  0  0  0  0  0
   67.9834   46.6185   54.2555 C   0  0  0  0  0  0  0  0  0  0  0  0
   68.8886   47.5956   53.9550 C   0  0  0  0  0  0  0  0  0  0  0  0
  8  9  2  0
  9 10  1  0
  9 14  1  0
 10 11  1  0
 11 12  1  0
 12 13  1  0
 13 14  1  0
 14  1  1  0
  1  2  2  0
  1  6  1  0
  2  3  1  0
  3 15  1  0
  3  4  2  0
 15 16  1  0
 16 17  2  0
 16 26  1  0
 17 18  1  0
 18 19  1  0
 19 20  2  0
 19 21  1  0
 21 22  1  0
 21 26  2  0
 22 23  2  0
 23 24  1  0
 24 25  2  0
 25 26  1  0
  4  5  1  0
  5  6  2  0
  6  7  1  0
M  END
>  <minimizedAffinity>  (605) 
-8.94117

$$$$
cs_full_output_folder/data/smiles/2472.pdb
     RDKit          3D

 25 27  0  0  0  0  0  0  0  0999 V2000
   70.4997   48.7284   58.1644 O   0  0  0  0  0  0  0  0  0  0  0  0
   70.5614   47.5068   58.4867 C   0  0  0  0  0  0  0  0  0  0  0  0
   69.5294   46.6864   57.9488 N   0  0  0  0  0  0  0  0  0  0  0  0
   71.5985   46.9543   59.3411 C   0  0  0  0  0  0  0  0  0  0  0  0
   71.5724   47.2502   60.5611 O   0  0  0  0  0  0  0  0  0  0  0  0
   72.6415   46.0842   58.8188 C   0  0  0  0  0  0  0  0  0  0  0  0
   73.9813   46.3421   58.6278 C   0  0  0  0  0  0  0  0  0  0  0  0
   74.5783   45.2414   58.1185 N   0  0  0  0  0  0  0  0  0  0  0  0
   73.6768   44.2461   57.9600 C   0  0  0  0  0  0  0  0  0  0  0  0
   73.7627   42.9433   57.4880 C   0  0  0  0  0  0  0  0  0  0  0  0
   72.6615   42.1210   57.4317 C   0  0  0  0  0  0  0  0  0  0  0  0
   71.4593   42.6371   57.8633 C   0  0  0  0  0  0  0  0  0  0  0  0
   70.0538   41.5983   57.7958 Cl  0  0  0  0  0  0  0  0  0  0  0  0
   71.3745   43.9366   58.3348 C   0  0  0  0  0  0  0  0  0  0  0  0
   72.4750   44.7652   58.3935 C   0  0  0  0  0  0  0  0  0  0  0  0
   68.5395   47.2376   57.1288 N   0  0  0  0  0  0  0  0  0  0  0  0
   68.6427   47.1939   55.7206 C   0  0  0  0  0  0  0  0  0  0  0  0
   68.2249   46.0718   55.0489 C   0  0  0  0  0  0  0  0  0  0  0  0
   68.3043   45.9746   53.6604 C   0  0  0  0  0  0  0  0  0  0  0  0
   68.8248   47.0485   52.9302 C   0  0  0  0  0  0  0  0  0  0  0  0
   69.2449   48.1746   53.5969 C   0  0  0  0  0  0  0  0  0  0  0  0
   69.1521   48.2394   54.9823 C   0  0  0  0  0  0  0  0  0  0  0  0
   68.9280   47.0038   51.5222 N   0  0  0  0  0  0  0  0  0  0  0  0
   70.0078   47.2828   50.9833 O   0  0  0  0  0  0  0  0  0  0  0  0
   67.8628   46.6600   50.7542 O   0  0  0  0  0  0  0  0  0  0  0  0
  1  2  2  0
  2  3  1  0
  2  4  1  0
  3 16  1  0
 16 17  1  0
 17 18  2  0
 17 22  1  0
 18 19  1  0
 19 20  2  0
 20 23  1  0
 20 21  1  0
 23 24  2  0
 23 25  1  0
 21 22  2  0
  4  5  2  0
  4  6  1  0
  6  7  2  0
  6 15  1  0
  7  8  1  0
  8  9  1  0
  9 10  1  0
  9 15  2  0
 10 11  2  0
 11 12  1  0
 12 13  1  0
 12 14  2  0
 14 15  1  0
M  CHG  2  23   1  25  -1
M  END
>  <minimizedAffinity>  (606) 
-8.94074

$$$$
cs_full_output_folder/data/smiles/8940.pdb
     RDKit          3D

 28 31  0  0  0  0  0  0  0  0999 V2000
   68.8481   46.7562   55.1662 C   0  0  0  0  0  0  0  0  0  0  0  0
   68.3199   45.7462   54.4175 C   0  0  0  0  0  0  0  0  0  0  0  0
   68.1306   45.9265   53.0556 C   0  0  0  0  0  0  0  0  0  0  0  0
   68.4680   47.1248   52.4162 C   0  0  0  0  0  0  0  0  0  0  0  0
   69.0006   48.1454   53.1654 C   0  0  0  0  0  0  0  0  0  0  0  0
   69.1803   47.9382   54.5356 C   0  0  0  0  0  0  0  0  0  0  0  0
   68.4526   47.3848   57.4332 O   0  0  0  0  0  0  0  0  0  0  0  0
   69.0971   46.6909   56.5989 C   0  0  0  0  0  0  0  0  0  0  0  0
   70.0855   45.8461   57.2053 N   0  0  0  0  0  0  0  0  0  0  0  0
   70.3137   45.7939   58.5613 N   0  0  0  0  0  0  0  0  0  0  0  0
   70.4297   44.4349   58.9290 C   0  0  0  0  0  0  0  0  0  0  0  0
   71.6007   43.6685   58.4985 C   0  0  0  0  0  0  0  0  0  0  0  0
   72.7416   44.5808   58.1239 C   0  0  0  0  0  0  0  0  0  0  0  0
   73.3058   45.3463   59.2987 C   0  0  0  0  0  0  0  0  0  0  0  0
   72.2616   46.1313   60.0297 C   0  0  0  0  0  0  0  0  0  0  0  0
   71.2811   46.6921   59.0608 C   0  0  0  0  0  0  0  0  0  0  0  0
   69.4186   49.4733   52.6134 C   0  0  0  0  0  0  0  0  0  0  0  0
   70.3830   50.1008   53.5260 C   0  0  0  0  0  0  0  0  0  0  0  0
   71.6907   49.6819   53.4946 N   0  0  0  0  0  0  0  0  0  0  0  0
   72.5921   50.2446   54.2698 N   0  0  0  0  0  0  0  0  0  0  0  0
   72.2798   51.2324   55.1083 C   0  0  0  0  0  0  0  0  0  0  0  0
   73.1129   51.7936   55.8620 O   0  0  0  0  0  0  0  0  0  0  0  0
   70.9729   51.7017   55.1882 C   0  0  0  0  0  0  0  0  0  0  0  0
   70.0376   51.1059   54.3735 C   0  0  0  0  0  0  0  0  0  0  0  0
   68.6346   51.5538   54.4499 C   0  0  0  0  0  0  0  0  0  0  0  0
   68.3703   51.8277   55.9470 C   0  0  0  0  0  0  0  0  0  0  0  0
   69.1681   53.0640   56.2663 C   0  0  0  0  0  0  0  0  0  0  0  0
   70.6212   52.8083   56.1059 C   0  0  0  0  0  0  0  0  0  0  0  0
  7  8  2  0
  8  9  1  0
  8  1  1  0
  9 10  1  0
 10 11  1  0
 10 16  1  0
 11 12  1  0
 12 13  1  0
 13 14  1  0
 14 15  1  0
 15 16  1  0
  1  2  2  0
  1  6  1  0
  2  3  1  0
  3  4  2  0
  4  5  1  0
  5 17  1  0
  5  6  2  0
 17 18  1  0
 18 19  2  0
 18 24  1  0
 19 20  1  0
 20 21  1  0
 21 22  2  0
 21 23  1  0
 23 24  2  0
 23 28  1  0
 24 25  1  0
 25 26  1  0
 26 27  1  0
 27 28  1  0
M  END
>  <minimizedAffinity>  (607) 
-8.94007

$$$$
cs_full_output_folder/data/smiles/7961.pdb
     RDKit          3D

 26 28  0  0  0  0  0  0  0  0999 V2000
   70.1535   46.2636   57.5181 C   0  0  0  0  0  0  0  0  0  0  0  0
   69.1552   45.6198   57.1269 O   0  0  0  0  0  0  0  0  0  0  0  0
   70.2982   47.6290   57.1631 N   0  0  0  0  0  0  0  0  0  0  0  0
   72.0267   44.6064   57.7822 N   0  0  0  0  0  0  0  0  0  0  0  0
   71.1409   45.5641   58.3370 C   0  0  0  0  0  0  0  0  0  0  0  0
   71.1828   45.8368   59.5542 O   0  0  0  0  0  0  0  0  0  0  0  0
   73.0151   43.8854   58.5229 C   0  0  0  0  0  0  0  0  0  0  0  0
   72.0040   38.1979   58.9467 C   0  0  0  0  0  0  0  0  0  0  0  0
   72.2815   39.6727   58.8445 C   0  0  0  0  0  0  0  0  0  0  0  0
   71.3512   40.5168   58.2878 C   0  0  0  0  0  0  0  0  0  0  0  0
   71.5998   41.8670   58.1926 C   0  0  0  0  0  0  0  0  0  0  0  0
   72.7867   42.4422   58.6479 C   0  0  0  0  0  0  0  0  0  0  0  0
   73.7073   41.5802   59.2037 C   0  0  0  0  0  0  0  0  0  0  0  0
   73.4598   40.2085   59.3021 C   0  0  0  0  0  0  0  0  0  0  0  0
   69.2789   48.2457   56.3503 C   0  0  0  0  0  0  0  0  0  0  0  0
   69.6479   48.3473   54.9160 C   0  0  0  0  0  0  0  0  0  0  0  0
   70.5944   49.2123   54.5057 N   0  0  0  0  0  0  0  0  0  0  0  0
   70.9496   49.3342   53.2272 N   0  0  0  0  0  0  0  0  0  0  0  0
   70.3605   48.5801   52.2925 C   0  0  0  0  0  0  0  0  0  0  0  0
   70.6740   48.6723   51.0826 O   0  0  0  0  0  0  0  0  0  0  0  0
   69.3773   47.6611   52.6103 C   0  0  0  0  0  0  0  0  0  0  0  0
   68.7649   46.8806   51.6625 C   0  0  0  0  0  0  0  0  0  0  0  0
   67.7985   45.9900   52.0516 C   0  0  0  0  0  0  0  0  0  0  0  0
   67.4683   45.9057   53.3976 C   0  0  0  0  0  0  0  0  0  0  0  0
   68.0754   46.6822   54.3510 C   0  0  0  0  0  0  0  0  0  0  0  0
   69.0391   47.5700   53.9634 C   0  0  0  0  0  0  0  0  0  0  0  0
  8  9  1  0
  9 10  2  0
  9 14  1  0
 10 11  1  0
 11 12  2  0
 12  7  1  0
 12 13  1  0
  7  4  1  0
  4  5  1  0
  5  6  2  0
  5  1  1  0
  1  2  2  0
  1  3  1  0
  3 15  1  0
 15 16  1  0
 16 17  2  0
 16 26  1  0
 17 18  1  0
 18 19  1  0
 19 20  2  0
 19 21  1  0
 21 22  1  0
 21 26  2  0
 22 23  2  0
 23 24  1  0
 24 25  2  0
 25 26  1  0
 13 14  2  0
M  END
>  <minimizedAffinity>  (608) 
-8.93983

$$$$
cs_full_output_folder/data/smiles/7501.pdb
     RDKit          3D

 27 28  0  0  0  0  0  0  0  0999 V2000
   69.0329   43.7539   56.9769 C   0  0  0  0  0  0  0  0  0  0  0  0
   70.3039   44.4563   57.9438 S   0  0  0  0  0  0  0  0  0  0  0  0
   67.9951   41.4260   57.3157 C   0  0  0  0  0  0  0  0  0  0  0  0
   67.9694   41.0651   56.1460 O   0  0  0  0  0  0  0  0  0  0  0  0
   68.5020   42.6868   57.6265 N   0  0  0  0  0  0  0  0  0  0  0  0
   66.5775   38.5188   60.1655 C   0  0  0  0  0  0  0  0  0  0  0  0
   67.4542   38.1850   59.1607 C   0  0  0  0  0  0  0  0  0  0  0  0
   67.8847   39.1432   58.2685 C   0  0  0  0  0  0  0  0  0  0  0  0
   67.4716   40.4700   58.3262 C   0  0  0  0  0  0  0  0  0  0  0  0
   66.6023   40.7961   59.3254 C   0  0  0  0  0  0  0  0  0  0  0  0
   66.1608   39.8214   60.2375 C   0  0  0  0  0  0  0  0  0  0  0  0
   65.9473   38.0907   62.4908 C   0  0  0  0  0  0  0  0  0  0  0  0
   66.1114   37.4910   61.1285 C   0  0  0  0  0  0  0  0  0  0  0  0
   67.0605   36.3218   61.1586 C   0  0  0  0  0  0  0  0  0  0  0  0
   64.7405   36.9465   60.7175 C   0  0  0  0  0  0  0  0  0  0  0  0
   68.8866   44.4429   55.8167 N   0  0  0  0  0  0  0  0  0  0  0  0
   68.4342   45.6885   55.3833 C   0  0  0  0  0  0  0  0  0  0  0  0
   68.0171   46.4832   56.2323 O   0  0  0  0  0  0  0  0  0  0  0  0
   68.4153   46.1357   53.9665 C   0  0  0  0  0  0  0  0  0  0  0  0
   67.6428   45.5912   52.9821 C   0  0  0  0  0  0  0  0  0  0  0  0
   67.6756   46.0629   51.6676 C   0  0  0  0  0  0  0  0  0  0  0  0
   68.5087   47.1076   51.3496 C   0  0  0  0  0  0  0  0  0  0  0  0
   69.3106   47.6924   52.3178 C   0  0  0  0  0  0  0  0  0  0  0  0
   69.2366   47.1822   53.6047 C   0  0  0  0  0  0  0  0  0  0  0  0
   70.1721   48.7716   51.9909 N   0  0  0  0  0  0  0  0  0  0  0  0
   69.9680   49.4632   50.9810 O   0  0  0  0  0  0  0  0  0  0  0  0
   71.2321   49.0319   52.8137 O   0  0  0  0  0  0  0  0  0  0  0  0
 12 13  1  0
 13 14  1  0
 13 15  1  0
 13  6  1  0
  6  7  2  0
  6 11  1  0
  7  8  1  0
  8  9  2  0
  9  3  1  0
  9 10  1  0
  3  4  2  0
  3  5  1  0
  5  1  1  0
  1  2  2  0
  1 16  1  0
 16 17  1  0
 17 18  2  0
 17 19  1  0
 19 20  2  0
 19 24  1  0
 20 21  1  0
 21 22  2  0
 22 23  1  0
 23 25  1  0
 23 24  2  0
 25 26  2  0
 25 27  1  0
 10 11  2  0
M  CHG  2  25   1  27  -1
M  END
>  <minimizedAffinity>  (609) 
-8.93960

$$$$
cs_full_output_folder/data/smiles/7617.pdb
     RDKit          3D

 29 31  0  0  0  0  0  0  0  0999 V2000
   68.6631   42.9082   56.7599 C   0  0  0  0  0  0  0  0  0  0  0  0
   69.5618   42.3821   57.6747 C   0  0  0  0  0  0  0  0  0  0  0  0
   69.5461   41.0916   58.1406 C   0  0  0  0  0  0  0  0  0  0  0  0
   68.5484   40.2600   57.6509 C   0  0  0  0  0  0  0  0  0  0  0  0
   67.6308   40.7356   56.7409 C   0  0  0  0  0  0  0  0  0  0  0  0
   67.7001   42.0698   56.3017 C   0  0  0  0  0  0  0  0  0  0  0  0
   66.7427   42.4235   55.4290 F   0  0  0  0  0  0  0  0  0  0  0  0
   68.2155   44.8534   55.1721 N   0  0  0  0  0  0  0  0  0  0  0  0
   68.7830   44.2992   56.3109 C   0  0  0  0  0  0  0  0  0  0  0  0
   69.4825   45.0900   57.0351 O   0  0  0  0  0  0  0  0  0  0  0  0
   68.2687   46.1969   54.6605 C   0  0  0  0  0  0  0  0  0  0  0  0
   69.8227   48.3504   52.7942 C   0  0  0  0  0  0  0  0  0  0  0  0
   68.8470   47.3020   52.4316 C   0  0  0  0  0  0  0  0  0  0  0  0
   68.4566   47.0891   51.1494 N   0  0  0  0  0  0  0  0  0  0  0  0
   67.6426   46.0845   51.1278 O   0  0  0  0  0  0  0  0  0  0  0  0
   67.4694   45.6140   52.3376 C   0  0  0  0  0  0  0  0  0  0  0  0
   68.2478   46.3942   53.2280 C   0  0  0  0  0  0  0  0  0  0  0  0
   70.5327   40.5716   59.1216 C   0  0  0  0  0  0  0  0  0  0  0  0
   69.9726   40.6316   60.5337 C   0  0  0  0  0  0  0  0  0  0  0  0
   69.1388   39.6087   60.9104 C   0  0  0  0  0  0  0  0  0  0  0  0
   67.8913   39.7251   61.4894 C   0  0  0  0  0  0  0  0  0  0  0  0
   66.8538   40.5248   61.0492 C   0  0  0  0  0  0  0  0  0  0  0  0
   66.9732   41.7907   60.5255 C   0  0  0  0  0  0  0  0  0  0  0  0
   67.4841   42.9143   61.1365 C   0  0  0  0  0  0  0  0  0  0  0  0
   67.8313   42.9453   62.4710 C   0  0  0  0  0  0  0  0  0  0  0  0
   68.7539   42.1268   63.0938 C   0  0  0  0  0  0  0  0  0  0  0  0
   68.4450   41.6157   64.2248 O   0  0  0  0  0  0  0  0  0  0  0  0
   69.9671   41.8057   62.6214 N   0  0  0  0  0  0  0  0  0  0  0  0
   70.2707   41.6115   61.3682 N   0  0  0  0  0  0  0  0  0  0  0  0
 12 13  1  0
 13 14  2  0
 13 17  1  0
 14 15  1  0
 15 16  1  0
 16 17  2  0
 17 11  1  0
 11  8  1  0
  8  9  1  0
  9 10  2  0
  9  1  1  0
  1  2  2  0
  1  6  1  0
  2  3  1  0
  3 18  1  0
  3  4  2  0
 18 19  1  0
 19 20  1  0
 19 29  2  0
 20 21  2  0
 21 22  1  0
 22 23  2  0
 23 24  1  0
 24 25  2  0
 25 26  1  0
 26 27  2  0
 26 28  1  0
 28 29  1  0
  4  5  1  0
  5  6  2  0
  6  7  1  0
M  END
>  <minimizedAffinity>  (610) 
-8.93955

$$$$
cs_full_output_folder/data/smiles/8440.pdb
     RDKit          3D

 27 30  0  0  0  0  0  0  0  0999 V2000
   70.7178   43.7503   58.1014 O   0  0  0  0  0  0  0  0  0  0  0  0
   69.7898   43.1032   57.5155 C   0  0  0  0  0  0  0  0  0  0  0  0
   68.9518   43.8897   56.6806 N   0  0  0  0  0  0  0  0  0  0  0  0
   69.6414   41.6684   57.7214 C   0  0  0  0  0  0  0  0  0  0  0  0
   70.5150   40.7379   58.2190 C   0  0  0  0  0  0  0  0  0  0  0  0
   69.9230   39.5011   58.2158 C   0  0  0  0  0  0  0  0  0  0  0  0
   68.6947   39.7024   57.7143 N   0  0  0  0  0  0  0  0  0  0  0  0
   68.5132   40.9662   57.4188 N   0  0  0  0  0  0  0  0  0  0  0  0
   70.4421   38.2064   58.6487 C   0  0  0  0  0  0  0  0  0  0  0  0
   71.5454   37.6431   58.0251 C   0  0  0  0  0  0  0  0  0  0  0  0
   72.0549   36.4288   58.4189 C   0  0  0  0  0  0  0  0  0  0  0  0
   71.4339   35.7683   59.4676 C   0  0  0  0  0  0  0  0  0  0  0  0
   70.3369   36.3004   60.1085 C   0  0  0  0  0  0  0  0  0  0  0  0
   69.8612   37.5136   59.6844 C   0  0  0  0  0  0  0  0  0  0  0  0
   69.1450   45.2680   56.5268 N   0  0  0  0  0  0  0  0  0  0  0  0
   68.5293   45.8719   55.5808 C   0  0  0  0  0  0  0  0  0  0  0  0
   68.6919   47.3074   55.3680 C   0  0  0  0  0  0  0  0  0  0  0  0
   68.5114   48.2352   56.3588 C   0  0  0  0  0  0  0  0  0  0  0  0
   68.1371   47.8098   57.6275 O   0  0  0  0  0  0  0  0  0  0  0  0
   68.6927   49.5912   56.1273 C   0  0  0  0  0  0  0  0  0  0  0  0
   69.0631   50.0440   54.8797 C   0  0  0  0  0  0  0  0  0  0  0  0
   69.2510   49.1327   53.8665 C   0  0  0  0  0  0  0  0  0  0  0  0
   69.6302   49.5930   52.6111 C   0  0  0  0  0  0  0  0  0  0  0  0
   69.8183   48.6521   51.6055 C   0  0  0  0  0  0  0  0  0  0  0  0
   69.6433   47.3194   51.8206 C   0  0  0  0  0  0  0  0  0  0  0  0
   69.2629   46.8885   53.0939 C   0  0  0  0  0  0  0  0  0  0  0  0
   69.0662   47.7922   54.1148 C   0  0  0  0  0  0  0  0  0  0  0  0
  1  2  2  0
  2  3  1  0
  2  4  1  0
  3 15  1  0
 15 16  2  0
 16 17  1  0
 17 18  2  0
 17 27  1  0
 18 19  1  0
 18 20  1  0
 20 21  2  0
 21 22  1  0
 22 23  1  0
 22 27  2  0
 23 24  2  0
 24 25  1  0
 25 26  2  0
 26 27  1  0
  4  5  2  0
  4  8  1  0
  5  6  1  0
  6  9  1  0
  6  7  2  0
  9 10  2  0
  9 14  1  0
 10 11  1  0
 11 12  2  0
 12 13  1  0
 13 14  2  0
  7  8  1  0
M  END
>  <minimizedAffinity>  (611) 
-8.93851

$$$$
cs_full_output_folder/data/smiles/1231.pdb
     RDKit          3D

 26 28  0  0  0  0  0  0  0  0999 V2000
   70.4466   42.0589   58.7775 C   0  0  0  0  0  0  0  0  0  0  0  0
   69.4002   41.7072   57.8077 C   0  0  0  0  0  0  0  0  0  0  0  0
   68.7548   42.5879   56.9324 C   0  0  0  0  0  0  0  0  0  0  0  0
   67.8771   41.7923   56.2443 C   0  0  0  0  0  0  0  0  0  0  0  0
   68.0084   40.5318   56.6931 N   0  0  0  0  0  0  0  0  0  0  0  0
   68.9252   40.4567   57.6407 N   0  0  0  0  0  0  0  0  0  0  0  0
   69.3335   39.2954   58.3477 C   0  0  0  0  0  0  0  0  0  0  0  0
   68.5071   38.7378   59.3061 C   0  0  0  0  0  0  0  0  0  0  0  0
   68.9174   37.6123   59.9785 C   0  0  0  0  0  0  0  0  0  0  0  0
   70.1302   37.0005   59.7433 C   0  0  0  0  0  0  0  0  0  0  0  0
   70.6263   35.5695   60.6139 Cl  0  0  0  0  0  0  0  0  0  0  0  0
   70.9524   37.5567   58.7874 C   0  0  0  0  0  0  0  0  0  0  0  0
   70.5546   38.6916   58.0989 C   0  0  0  0  0  0  0  0  0  0  0  0
   69.0093   44.0213   56.8333 C   0  0  0  0  0  0  0  0  0  0  0  0
   69.8507   44.5718   57.5760 O   0  0  0  0  0  0  0  0  0  0  0  0
   68.3113   44.8175   55.8955 N   0  0  0  0  0  0  0  0  0  0  0  0
   68.4748   46.2410   55.7116 C   0  0  0  0  0  0  0  0  0  0  0  0
   68.5224   46.5201   54.2591 C   0  0  0  0  0  0  0  0  0  0  0  0
   67.7913   45.6960   53.3951 C   0  0  0  0  0  0  0  0  0  0  0  0
   67.8083   45.9080   52.0428 C   0  0  0  0  0  0  0  0  0  0  0  0
   68.5222   46.9071   51.5122 N   0  0  0  0  0  0  0  0  0  0  0  0
   69.2385   47.7238   52.2945 C   0  0  0  0  0  0  0  0  0  0  0  0
   69.2318   47.5221   53.6590 C   0  0  0  0  0  0  0  0  0  0  0  0
   69.9970   48.7915   51.6935 C   0  0  0  0  0  0  0  0  0  0  0  0
   69.9409   49.9370   52.1983 O   0  0  0  0  0  0  0  0  0  0  0  0
   70.7865   48.6023   50.5750 O   0  0  0  0  0  0  0  0  0  0  0  0
  1  2  1  0
  2  3  2  0
  2  6  1  0
  3 14  1  0
  3  4  1  0
 14 15  2  0
 14 16  1  0
 16 17  1  0
 17 18  1  0
 18 19  2  0
 18 23  1  0
 19 20  1  0
 20 21  2  0
 21 22  1  0
 22 24  1  0
 22 23  2  0
 24 25  2  0
 24 26  1  0
  4  5  2  0
  5  6  1  0
  6  7  1  0
  7  8  2  0
  7 13  1  0
  8  9  1  0
  9 10  2  0
 10 11  1  0
 10 12  1  0
 12 13  2  0
M  END
>  <minimizedAffinity>  (612) 
-8.93631

$$$$
cs_full_output_folder/data/smiles/1255.pdb
     RDKit          3D

 26 27  0  0  0  0  0  0  0  0999 V2000
   68.0097   43.8955   56.0903 N   0  0  0  0  0  0  0  0  0  0  0  0
   68.6016   43.0849   56.6099 C   0  0  0  0  0  0  0  0  0  0  0  0
   69.3572   42.0520   57.2731 C   0  0  0  0  0  0  0  0  0  0  0  0
   70.7107   42.3978   57.5042 C   0  0  0  0  0  0  0  0  0  0  0  0
   71.6215   41.5991   58.1148 C   0  0  0  0  0  0  0  0  0  0  0  0
   71.1994   40.3634   58.5410 C   0  0  0  0  0  0  0  0  0  0  0  0
   69.9020   39.9714   58.3453 C   0  0  0  0  0  0  0  0  0  0  0  0
   69.4195   38.3904   58.9067 Cl  0  0  0  0  0  0  0  0  0  0  0  0
   68.9960   40.8205   57.7137 C   0  0  0  0  0  0  0  0  0  0  0  0
   67.7091   40.3402   57.5591 O   0  0  0  0  0  0  0  0  0  0  0  0
   73.0362   42.0456   58.3123 C   0  0  0  0  0  0  0  0  0  0  0  0
   73.5309   42.5086   57.0966 F   0  0  0  0  0  0  0  0  0  0  0  0
   73.8232   40.9907   58.7111 F   0  0  0  0  0  0  0  0  0  0  0  0
   73.1116   43.0799   59.1908 F   0  0  0  0  0  0  0  0  0  0  0  0
   69.1067   46.1610   57.0419 O   0  0  0  0  0  0  0  0  0  0  0  0
   68.7674   46.2082   55.8220 C   0  0  0  0  0  0  0  0  0  0  0  0
   68.1890   45.0031   55.3272 N   0  0  0  0  0  0  0  0  0  0  0  0
   68.9726   47.4122   55.0434 C   0  0  0  0  0  0  0  0  0  0  0  0
   68.8465   48.6380   55.6759 C   0  0  0  0  0  0  0  0  0  0  0  0
   69.0329   49.7961   54.9601 C   0  0  0  0  0  0  0  0  0  0  0  0
   69.3435   49.8164   53.6317 C   0  0  0  0  0  0  0  0  0  0  0  0
   69.4754   48.5937   52.9764 C   0  0  0  0  0  0  0  0  0  0  0  0
   69.2848   47.4264   53.7068 C   0  0  0  0  0  0  0  0  0  0  0  0
   69.7933   48.5089   51.6078 N   0  0  0  0  0  0  0  0  0  0  0  0
   69.9380   49.5349   50.9383 O   0  0  0  0  0  0  0  0  0  0  0  0
   69.9431   47.2925   51.0124 O   0  0  0  0  0  0  0  0  0  0  0  0
 15 16  2  0
 16 17  1  0
 16 18  1  0
 17  1  1  0
  1  2  2  3
  2  3  1  0
  3  4  2  0
  3  9  1  0
  4  5  1  0
  5 11  1  0
  5  6  2  0
 11 12  1  0
 11 13  1  0
 11 14  1  0
  6  7  1  0
  7  8  1  0
  7  9  2  0
  9 10  1  0
 18 19  2  0
 18 23  1  0
 19 20  1  0
 20 21  2  0
 21 22  1  0
 22 24  1  0
 22 23  2  0
 24 25  2  0
 24 26  1  0
M  CHG  2  24   1  26  -1
M  END
>  <minimizedAffinity>  (613) 
-8.93612

$$$$
cs_full_output_folder/data/smiles/834.pdb
     RDKit          3D

 27 29  0  0  0  0  0  0  0  0999 V2000
   70.9420   47.6250   58.0145 C   0  0  0  0  0  0  0  0  0  0  0  0
   71.7241   48.3477   58.9134 C   0  0  0  0  0  0  0  0  0  0  0  0
   72.0318   49.6704   58.7459 C   0  0  0  0  0  0  0  0  0  0  0  0
   71.5456   50.3227   57.6353 C   0  0  0  0  0  0  0  0  0  0  0  0
   70.7517   49.6584   56.6878 C   0  0  0  0  0  0  0  0  0  0  0  0
   70.4738   48.3074   56.9182 C   0  0  0  0  0  0  0  0  0  0  0  0
   70.3249   45.2598   57.2801 N   0  0  0  0  0  0  0  0  0  0  0  0
   70.6558   46.2135   58.2629 C   0  0  0  0  0  0  0  0  0  0  0  0
   70.7117   45.8210   59.4577 O   0  0  0  0  0  0  0  0  0  0  0  0
   67.2833   41.6289   56.1726 C   0  0  0  0  0  0  0  0  0  0  0  0
   68.5222   42.0843   56.8897 C   0  0  0  0  0  0  0  0  0  0  0  0
   69.2770   41.1905   57.6322 C   0  0  0  0  0  0  0  0  0  0  0  0
   70.3991   41.6581   58.2682 C   0  0  0  0  0  0  0  0  0  0  0  0
   70.7627   43.0095   58.1612 C   0  0  0  0  0  0  0  0  0  0  0  0
   70.0410   43.8997   57.4411 C   0  0  0  0  0  0  0  0  0  0  0  0
   68.9016   43.4021   56.8017 C   0  0  0  0  0  0  0  0  0  0  0  0
   68.0796   44.2416   56.0283 O   0  0  0  0  0  0  0  0  0  0  0  0
   70.2892   50.3713   55.5583 N   0  0  0  0  0  0  0  0  0  0  0  0
   70.5406   49.9747   53.9234 S   0  0  0  0  0  0  0  0  0  0  0  0
   70.0967   51.1573   53.0750 O   0  0  0  0  0  0  0  0  0  0  0  0
   72.0348   49.8304   53.6239 O   0  0  0  0  0  0  0  0  0  0  0  0
   69.7022   48.5570   53.3719 C   0  0  0  0  0  0  0  0  0  0  0  0
   68.7813   47.9288   54.1798 C   0  0  0  0  0  0  0  0  0  0  0  0
   68.0981   46.8011   53.7793 C   0  0  0  0  0  0  0  0  0  0  0  0
   68.3373   46.2729   52.5272 C   0  0  0  0  0  0  0  0  0  0  0  0
   69.2524   46.8754   51.6911 C   0  0  0  0  0  0  0  0  0  0  0  0
   69.9254   48.0097   52.1199 C   0  0  0  0  0  0  0  0  0  0  0  0
 10 11  1  0
 11 12  2  0
 11 16  1  0
 12 13  1  0
 13 14  2  0
 14 15  1  0
 15  7  1  0
 15 16  2  0
  7  8  1  0
  8  9  2  0
  8  1  1  0
  1  2  2  0
  1  6  1  0
  2  3  1  0
  3  4  2  0
  4  5  1  0
  5 18  1  0
  5  6  2  0
 18 19  1  0
 19 20  2  0
 19 21  2  0
 19 22  1  0
 22 23  2  0
 22 27  1  0
 23 24  1  0
 24 25  2  0
 25 26  1  0
 26 27  2  0
 16 17  1  0
M  END
>  <minimizedAffinity>  (614) 
-8.93575

$$$$
cs_full_output_folder/data/smiles/9656.pdb
     RDKit          3D

 28 30  0  0  0  0  0  0  0  0999 V2000
   68.2131   42.0205   57.3705 C   0  0  0  0  0  0  0  0  0  0  0  0
   67.1184   42.0201   58.2024 C   0  0  0  0  0  0  0  0  0  0  0  0
   66.7872   40.8907   58.9301 C   0  0  0  0  0  0  0  0  0  0  0  0
   67.5414   39.7554   58.8351 C   0  0  0  0  0  0  0  0  0  0  0  0
   68.6702   39.7057   57.9973 C   0  0  0  0  0  0  0  0  0  0  0  0
   68.9513   40.8533   57.2993 C   0  0  0  0  0  0  0  0  0  0  0  0
   67.6992   43.8100   55.6293 N   0  0  0  0  0  0  0  0  0  0  0  0
   68.5258   43.2259   56.6249 C   0  0  0  0  0  0  0  0  0  0  0  0
   69.6164   43.8488   56.8414 O   0  0  0  0  0  0  0  0  0  0  0  0
   68.8137   47.3084   53.5223 C   0  0  0  0  0  0  0  0  0  0  0  0
   68.2548   46.2405   52.8722 C   0  0  0  0  0  0  0  0  0  0  0  0
   67.8932   45.0927   53.5885 C   0  0  0  0  0  0  0  0  0  0  0  0
   68.0824   44.9963   54.9440 C   0  0  0  0  0  0  0  0  0  0  0  0
   68.6445   46.0746   55.5812 C   0  0  0  0  0  0  0  0  0  0  0  0
   69.0089   47.2133   54.9089 C   0  0  0  0  0  0  0  0  0  0  0  0
   69.2242   49.6115   53.4690 O   0  0  0  0  0  0  0  0  0  0  0  0
   69.2064   48.5225   52.8233 C   0  0  0  0  0  0  0  0  0  0  0  0
   69.5670   48.5326   51.4593 N   0  0  0  0  0  0  0  0  0  0  0  0
   69.9279   49.7245   50.8641 O   0  0  0  0  0  0  0  0  0  0  0  0
   69.3740   38.4966   57.9711 N   0  0  0  0  0  0  0  0  0  0  0  0
   70.6491   38.3194   58.5187 C   0  0  0  0  0  0  0  0  0  0  0  0
   71.2765   39.2476   59.0873 O   0  0  0  0  0  0  0  0  0  0  0  0
   71.3708   37.0329   58.4782 C   0  0  0  0  0  0  0  0  0  0  0  0
   71.1160   36.0274   59.3683 C   0  0  0  0  0  0  0  0  0  0  0  0
   71.8008   34.8198   59.3220 C   0  0  0  0  0  0  0  0  0  0  0  0
   72.7690   34.5850   58.3723 C   0  0  0  0  0  0  0  0  0  0  0  0
   73.0107   35.6087   57.4865 C   0  0  0  0  0  0  0  0  0  0  0  0
   72.3496   36.8040   57.5144 C   0  0  0  0  0  0  0  0  0  0  0  0
 16 17  2  0
 17 18  1  0
 17 10  1  0
 18 19  1  0
 10 11  2  0
 10 15  1  0
 11 12  1  0
 12 13  2  0
 13  7  1  0
 13 14  1  0
  7  8  1  0
  8  9  2  0
  8  1  1  0
  1  2  2  0
  1  6  1  0
  2  3  1  0
  3  4  2  0
  4  5  1  0
  5 20  1  0
  5  6  2  0
 20 21  1  0
 21 22  2  0
 21 23  1  0
 23 24  2  0
 23 28  1  0
 24 25  1  0
 25 26  2  0
 26 27  1  0
 27 28  2  0
 14 15  2  0
M  END
>  <minimizedAffinity>  (615) 
-8.93437

$$$$
cs_full_output_folder/data/smiles/5296.pdb
     RDKit          3D

 26 28  0  0  0  0  0  0  0  0999 V2000
   67.8392   43.3399   56.4847 N   0  0  0  0  0  0  0  0  0  0  0  0
   68.6372   42.4668   57.2446 C   0  0  0  0  0  0  0  0  0  0  0  0
   69.8400   42.7976   57.4161 O   0  0  0  0  0  0  0  0  0  0  0  0
   68.1711   41.2150   57.8408 C   0  0  0  0  0  0  0  0  0  0  0  0
   68.5996   39.9739   57.4220 C   0  0  0  0  0  0  0  0  0  0  0  0
   68.1414   38.8005   58.0061 C   0  0  0  0  0  0  0  0  0  0  0  0
   67.2286   38.8261   59.0384 C   0  0  0  0  0  0  0  0  0  0  0  0
   66.7688   37.6561   59.6217 C   0  0  0  0  0  0  0  0  0  0  0  0
   65.8554   37.6820   60.6552 C   0  0  0  0  0  0  0  0  0  0  0  0
   65.4075   38.9261   61.0958 C   0  0  0  0  0  0  0  0  0  0  0  0
   65.8792   40.0770   60.4987 C   0  0  0  0  0  0  0  0  0  0  0  0
   66.7926   40.0644   59.4637 C   0  0  0  0  0  0  0  0  0  0  0  0
   67.2570   41.2239   58.8754 C   0  0  0  0  0  0  0  0  0  0  0  0
   66.8051   42.4560   59.3208 O   0  0  0  0  0  0  0  0  0  0  0  0
   67.2030   44.2663   53.9604 O   0  0  0  0  0  0  0  0  0  0  0  0
   67.9757   44.9964   54.6324 C   0  0  0  0  0  0  0  0  0  0  0  0
   68.3104   44.5381   55.9215 N   0  0  0  0  0  0  0  0  0  0  0  0
   68.4539   46.2340   54.0318 C   0  0  0  0  0  0  0  0  0  0  0  0
   68.6326   46.3115   52.6662 C   0  0  0  0  0  0  0  0  0  0  0  0
   69.0794   47.4432   52.0218 C   0  0  0  0  0  0  0  0  0  0  0  0
   69.3789   48.5947   52.7571 C   0  0  0  0  0  0  0  0  0  0  0  0
   69.1978   48.5069   54.1214 C   0  0  0  0  0  0  0  0  0  0  0  0
   68.7464   47.3612   54.7577 C   0  0  0  0  0  0  0  0  0  0  0  0
   69.8396   49.7686   52.1177 N   0  0  0  0  0  0  0  0  0  0  0  0
   69.8116   49.8597   50.8876 O   0  0  0  0  0  0  0  0  0  0  0  0
   70.3163   50.8016   52.8642 O   0  0  0  0  0  0  0  0  0  0  0  0
 15 16  2  0
 16 17  1  0
 16 18  1  0
 17  1  1  0
  1  2  1  0
  2  3  2  0
  2  4  1  0
  4  5  2  0
  4 13  1  0
  5  6  1  0
  6  7  2  0
  7  8  1  0
  7 12  1  0
  8  9  2  0
  9 10  1  0
 10 11  2  0
 11 12  1  0
 12 13  2  0
 13 14  1  0
 18 19  2  0
 18 23  1  0
 19 20  1  0
 20 21  2  0
 21 24  1  0
 21 22  1  0
 24 25  2  0
 24 26  1  0
 22 23  2  0
M  CHG  2  24   1  26  -1
M  END
>  <minimizedAffinity>  (616) 
-8.93397

$$$$
cs_full_output_folder/data/smiles/2534.pdb
     RDKit          3D

 27 30  0  0  0  0  0  0  0  0999 V2000
   71.4297   47.2650   58.7973 C   0  0  0  0  0  0  0  0  0  0  0  0
   71.5575   45.8991   58.7200 C   0  0  0  0  0  0  0  0  0  0  0  0
   70.7438   45.2061   57.8696 C   0  0  0  0  0  0  0  0  0  0  0  0
   69.8212   45.9035   57.1182 C   0  0  0  0  0  0  0  0  0  0  0  0
   69.6480   47.2574   57.1520 C   0  0  0  0  0  0  0  0  0  0  0  0
   70.5039   47.9356   58.0387 C   0  0  0  0  0  0  0  0  0  0  0  0
   75.1273   46.4124   59.1778 N   0  0  0  0  0  0  0  0  0  0  0  0
   75.9049   47.9445   58.8048 S   0  0  0  0  0  0  0  0  0  0  0  0
   75.6855   49.1634   60.1003 C   0  0  0  0  0  0  0  0  0  0  0  0
   74.2211   49.4247   60.2115 C   0  0  0  0  0  0  0  0  0  0  0  0
   73.3945   48.7608   59.2526 N   0  0  0  0  0  0  0  0  0  0  0  0
   72.3115   47.9682   59.7167 C   0  0  0  0  0  0  0  0  0  0  0  0
   72.0898   47.8578   60.9747 O   0  0  0  0  0  0  0  0  0  0  0  0
   73.5864   48.8427   57.8180 C   0  0  0  0  0  0  0  0  0  0  0  0
   75.0568   48.8473   57.4529 C   0  0  0  0  0  0  0  0  0  0  0  0
   68.6558   48.0321   56.3710 C   0  0  0  0  0  0  0  0  0  0  0  0
   69.1382   48.1745   55.0006 C   0  0  0  0  0  0  0  0  0  0  0  0
   70.0377   49.1737   54.7570 N   0  0  0  0  0  0  0  0  0  0  0  0
   70.4803   49.3920   53.5404 N   0  0  0  0  0  0  0  0  0  0  0  0
   70.0875   48.6677   52.4871 C   0  0  0  0  0  0  0  0  0  0  0  0
   70.5321   48.8995   51.3100 O   0  0  0  0  0  0  0  0  0  0  0  0
   69.1827   47.6391   52.6432 C   0  0  0  0  0  0  0  0  0  0  0  0
   68.7749   46.8722   51.5702 C   0  0  0  0  0  0  0  0  0  0  0  0
   67.8801   45.8583   51.8187 C   0  0  0  0  0  0  0  0  0  0  0  0
   67.4056   45.6125   53.0989 C   0  0  0  0  0  0  0  0  0  0  0  0
   67.8284   46.3909   54.1468 C   0  0  0  0  0  0  0  0  0  0  0  0
   68.7106   47.4072   53.9504 C   0  0  0  0  0  0  0  0  0  0  0  0
  7  8  1  0
  8  9  1  0
  8 15  1  0
  9 10  1  0
 10 11  1  0
 11 12  1  0
 11 14  1  0
 12 13  2  0
 12  1  1  0
  1  2  2  0
  1  6  1  0
  2  3  1  0
  3  4  2  0
  4  5  1  0
  5 16  1  0
  5  6  2  0
 16 17  1  0
 17 18  2  0
 17 27  1  0
 18 19  1  0
 19 20  1  0
 20 21  2  0
 20 22  1  0
 22 23  1  0
 22 27  2  0
 23 24  2  0
 24 25  1  0
 25 26  2  0
 26 27  1  0
 14 15  1  0
M  END
>  <minimizedAffinity>  (617) 
-8.93375

$$$$
cs_full_output_folder/data/smiles/236.pdb
     RDKit          3D

 26 28  0  0  0  0  0  0  0  0999 V2000
   71.1266   41.6660   58.6995 C   0  0  0  0  0  0  0  0  0  0  0  0
   69.8746   41.3517   57.9789 C   0  0  0  0  0  0  0  0  0  0  0  0
   69.0946   42.2865   57.3378 C   0  0  0  0  0  0  0  0  0  0  0  0
   68.0449   41.5637   56.8127 C   0  0  0  0  0  0  0  0  0  0  0  0
   68.2339   40.2756   57.1501 N   0  0  0  0  0  0  0  0  0  0  0  0
   69.3337   40.1029   57.8587 N   0  0  0  0  0  0  0  0  0  0  0  0
   69.8745   38.9018   58.3987 C   0  0  0  0  0  0  0  0  0  0  0  0
   69.3233   38.2136   59.4565 C   0  0  0  0  0  0  0  0  0  0  0  0
   69.8932   37.0449   59.9476 C   0  0  0  0  0  0  0  0  0  0  0  0
   71.0452   36.5419   59.3722 C   0  0  0  0  0  0  0  0  0  0  0  0
   71.7403   35.0535   60.0244 Cl  0  0  0  0  0  0  0  0  0  0  0  0
   71.6012   37.2080   58.3269 C   0  0  0  0  0  0  0  0  0  0  0  0
   71.0194   38.3743   57.8498 C   0  0  0  0  0  0  0  0  0  0  0  0
   69.3459   43.7230   57.2475 C   0  0  0  0  0  0  0  0  0  0  0  0
   70.1521   44.3465   57.9810 O   0  0  0  0  0  0  0  0  0  0  0  0
   68.6496   44.5257   56.2689 N   0  0  0  0  0  0  0  0  0  0  0  0
   68.8471   45.9284   56.1312 C   0  0  0  0  0  0  0  0  0  0  0  0
   68.7067   46.2790   54.6757 C   0  0  0  0  0  0  0  0  0  0  0  0
   67.9438   45.4924   53.8519 C   0  0  0  0  0  0  0  0  0  0  0  0
   67.8079   45.8042   52.5223 C   0  0  0  0  0  0  0  0  0  0  0  0
   68.4214   46.9063   51.9583 C   0  0  0  0  0  0  0  0  0  0  0  0
   69.1921   47.6929   52.8144 C   0  0  0  0  0  0  0  0  0  0  0  0
   69.3362   47.3916   54.1470 C   0  0  0  0  0  0  0  0  0  0  0  0
   69.8467   48.8778   52.1698 C   0  0  2  0  0  0  0  0  0  0  0  0
   70.6738   48.4714   51.0381 N   0  0  0  0  0  0  0  0  0  0  0  0
   70.6760   49.5355   53.0738 O   0  0  0  0  0  0  0  0  0  0  0  0
  1  2  1  0
  2  3  2  0
  2  6  1  0
  3 14  1  0
  3  4  1  0
 14 15  2  0
 14 16  1  0
 16 17  1  0
 17 18  1  0
 18 19  2  0
 18 23  1  0
 19 20  1  0
 20 21  2  0
 21 22  1  0
 22 24  1  0
 22 23  2  0
 24 25  1  6
 24 26  1  0
  4  5  2  0
  5  6  1  0
  6  7  1  0
  7  8  2  0
  7 13  1  0
  8  9  1  0
  9 10  2  0
 10 11  1  0
 10 12  1  0
 12 13  2  0
M  CHG  1  25   1
M  END
>  <minimizedAffinity>  (618) 
-8.93211

$$$$
cs_full_output_folder/data/smiles/837.pdb
     RDKit          3D

 26 27  0  0  0  0  0  0  0  0999 V2000
   67.4100   41.6479   56.3057 O   0  0  0  0  0  0  0  0  0  0  0  0
   67.8795   42.3423   57.2436 C   0  0  0  0  0  0  0  0  0  0  0  0
   68.4108   43.6192   56.9045 N   0  0  0  0  0  0  0  0  0  0  0  0
   67.8457   41.8132   58.5440 N   0  0  0  0  0  0  0  0  0  0  0  0
   67.3238   40.5518   58.8945 C   0  0  0  0  0  0  0  0  0  0  0  0
   67.8874   39.3910   58.4297 C   0  0  0  0  0  0  0  0  0  0  0  0
   67.3650   38.1386   58.7800 C   0  0  0  0  0  0  0  0  0  0  0  0
   66.2502   38.0643   59.6171 C   0  0  0  0  0  0  0  0  0  0  0  0
   65.6905   39.2274   60.0789 C   0  0  0  0  0  0  0  0  0  0  0  0
   66.2272   40.4523   59.7169 C   0  0  0  0  0  0  0  0  0  0  0  0
   65.6854   36.7401   59.9969 C   0  0  0  0  0  0  0  0  0  0  0  0
   66.6766   36.0047   60.6258 F   0  0  0  0  0  0  0  0  0  0  0  0
   65.2624   36.0299   58.8793 F   0  0  0  0  0  0  0  0  0  0  0  0
   64.6479   36.8678   60.8974 F   0  0  0  0  0  0  0  0  0  0  0  0
   68.4284   44.1162   55.5955 N   0  0  0  0  0  0  0  0  0  0  0  0
   68.3374   45.4887   55.2552 C   0  0  0  0  0  0  0  0  0  0  0  0
   68.2361   46.2748   56.2348 O   0  0  0  0  0  0  0  0  0  0  0  0
   68.3560   46.0025   53.9026 C   0  0  0  0  0  0  0  0  0  0  0  0
   67.5738   45.5032   52.8888 C   0  0  0  0  0  0  0  0  0  0  0  0
   67.6223   46.0236   51.6137 C   0  0  0  0  0  0  0  0  0  0  0  0
   68.4620   47.0625   51.3248 C   0  0  0  0  0  0  0  0  0  0  0  0
   69.2505   47.5758   52.3201 C   0  0  0  0  0  0  0  0  0  0  0  0
   69.1946   47.0470   53.5978 C   0  0  0  0  0  0  0  0  0  0  0  0
   70.1332   48.6615   52.0348 N   0  0  0  0  0  0  0  0  0  0  0  0
   71.1535   48.8729   52.6983 O   0  0  0  0  0  0  0  0  0  0  0  0
   69.8494   49.5048   50.9928 O   0  0  0  0  0  0  0  0  0  0  0  0
  1  2  2  0
  2  3  1  0
  2  4  1  0
  3 15  1  0
 15 16  1  0
 16 17  2  0
 16 18  1  0
 18 19  2  0
 18 23  1  0
 19 20  1  0
 20 21  2  0
 21 22  1  0
 22 24  1  0
 22 23  2  0
 24 25  2  0
 24 26  1  0
  4  5  1  0
  5  6  2  0
  5 10  1  0
  6  7  1  0
  7  8  2  0
  8 11  1  0
  8  9  1  0
 11 12  1  0
 11 13  1  0
 11 14  1  0
  9 10  2  0
M  CHG  2  24   1  26  -1
M  END
>  <minimizedAffinity>  (619) 
-8.93022

$$$$
cs_full_output_folder/data/smiles/4547.pdb
     RDKit          3D

 27 29  0  0  0  0  0  0  0  0999 V2000
   68.8060   42.7178   57.1300 C   0  0  0  0  0  0  0  0  0  0  0  0
   67.9035   41.5179   57.3799 C   0  0  0  0  0  0  0  0  0  0  0  0
   68.2361   43.6954   56.6046 N   0  0  0  0  0  0  0  0  0  0  0  0
   75.0379   43.7894   58.6464 C   0  0  0  0  0  0  0  0  0  0  0  0
   74.3767   44.9618   58.3423 C   0  0  0  0  0  0  0  0  0  0  0  0
   73.0424   44.9698   57.9910 C   0  0  0  0  0  0  0  0  0  0  0  0
   72.2988   43.8098   57.9249 C   0  0  0  0  0  0  0  0  0  0  0  0
   70.9627   43.8079   57.5748 C   0  0  0  0  0  0  0  0  0  0  0  0
   70.2081   42.6320   57.5078 C   0  0  0  0  0  0  0  0  0  0  0  0
   70.8573   41.4697   57.8080 C   0  0  0  0  0  0  0  0  0  0  0  0
   72.2149   41.4718   58.1640 C   0  0  0  0  0  0  0  0  0  0  0  0
   72.9520   42.6333   58.2281 C   0  0  0  0  0  0  0  0  0  0  0  0
   74.2964   42.6271   58.5813 C   0  0  0  0  0  0  0  0  0  0  0  0
   77.3199   42.9599   58.4038 C   0  0  0  0  0  0  0  0  0  0  0  0
   76.3809   43.8054   58.9972 O   0  0  0  0  0  0  0  0  0  0  0  0
   68.6156   44.9347   56.2113 N   0  0  0  0  0  0  0  0  0  0  0  0
   68.3355   45.5593   54.9886 C   0  0  0  0  0  0  0  0  0  0  0  0
   67.6511   44.8991   54.1536 O   0  0  0  0  0  0  0  0  0  0  0  0
   68.7776   46.8963   54.6335 C   0  0  0  0  0  0  0  0  0  0  0  0
   68.8443   47.9326   55.5374 C   0  0  0  0  0  0  0  0  0  0  0  0
   69.2696   49.2039   55.1775 C   0  0  0  0  0  0  0  0  0  0  0  0
   69.6437   49.4667   53.8812 C   0  0  0  0  0  0  0  0  0  0  0  0
   69.5813   48.4374   52.9666 C   0  0  0  0  0  0  0  0  0  0  0  0
   69.1597   47.1900   53.3350 C   0  0  0  0  0  0  0  0  0  0  0  0
   69.9737   48.7180   51.6116 N   0  0  0  0  0  0  0  0  0  0  0  0
   70.4770   47.8439   50.8900 O   0  0  0  0  0  0  0  0  0  0  0  0
   69.7848   49.9827   51.1083 O   0  0  0  0  0  0  0  0  0  0  0  0
 14 15  1  0
 15  4  1  0
  4  5  2  0
  4 13  1  0
  5  6  1  0
  6  7  2  0
  7  8  1  0
  7 12  1  0
  8  9  2  0
  9  1  1  0
  9 10  1  0
  1  2  1  0
  1  3  2  0
  3 16  1  0
 16 17  1  0
 17 18  2  0
 17 19  1  0
 19 20  2  0
 19 24  1  0
 20 21  1  0
 21 22  2  0
 22 23  1  0
 23 25  1  0
 23 24  2  0
 25 26  2  0
 25 27  1  0
 10 11  2  0
 11 12  1  0
 12 13  2  0
M  CHG  2  25   1  27  -1
M  END
>  <minimizedAffinity>  (620) 
-8.92937

$$$$
cs_full_output_folder/data/smiles/7761.pdb
     RDKit          3D

 27 29  0  0  0  0  0  0  0  0999 V2000
   69.1744   49.2479   56.8897 C   0  0  0  0  0  0  0  0  0  0  0  0
   68.4725   49.9671   57.8333 C   0  0  0  0  0  0  0  0  0  0  0  0
   67.8384   51.1543   57.5054 C   0  0  0  0  0  0  0  0  0  0  0  0
   67.8996   51.6438   56.2079 C   0  0  0  0  0  0  0  0  0  0  0  0
   68.5876   50.9460   55.2711 C   0  0  0  0  0  0  0  0  0  0  0  0
   69.2091   49.7681   55.6231 C   0  0  0  0  0  0  0  0  0  0  0  0
   69.1065   46.7767   57.5025 N   0  0  0  0  0  0  0  0  0  0  0  0
   69.8218   48.0156   57.2786 C   0  0  0  0  0  0  0  0  0  0  0  0
   71.0894   47.9495   57.4473 O   0  0  0  0  0  0  0  0  0  0  0  0
   69.7586   44.3737   57.3408 C   0  0  0  0  0  0  0  0  0  0  0  0
   68.8537   44.2202   56.4771 O   0  0  0  0  0  0  0  0  0  0  0  0
   69.9041   45.6764   57.8728 N   0  0  0  0  0  0  0  0  0  0  0  0
   74.1530   42.1625   58.4072 C   0  0  0  0  0  0  0  0  0  0  0  0
   72.6520   42.1368   58.2442 C   0  0  0  0  0  0  0  0  0  0  0  0
   72.0438   40.9305   58.5027 C   0  0  0  0  0  0  0  0  0  0  0  0
   70.6749   40.8829   58.3625 C   0  0  0  0  0  0  0  0  0  0  0  0
   69.9432   41.9998   57.9788 C   0  0  0  0  0  0  0  0  0  0  0  0
   70.5600   43.2249   57.7165 C   0  0  0  0  0  0  0  0  0  0  0  0
   71.9284   43.2390   57.8646 C   0  0  0  0  0  0  0  0  0  0  0  0
   69.9391   49.0615   54.5990 C   0  0  0  0  0  0  0  0  0  0  0  0
   71.1345   49.3025   54.4106 O   0  0  0  0  0  0  0  0  0  0  0  0
   69.2748   48.0623   53.7860 C   0  0  0  0  0  0  0  0  0  0  0  0
   69.5301   48.0028   52.4137 C   0  0  0  0  0  0  0  0  0  0  0  0
   68.9383   47.0583   51.6134 C   0  0  0  0  0  0  0  0  0  0  0  0
   68.0578   46.1252   52.1634 C   0  0  0  0  0  0  0  0  0  0  0  0
   67.7916   46.1710   53.5298 C   0  0  0  0  0  0  0  0  0  0  0  0
   68.4022   47.1292   54.2988 C   0  0  0  0  0  0  0  0  0  0  0  0
 13 14  1  0
 14 15  2  0
 14 19  1  0
 15 16  1  0
 16 17  2  0
 17 18  1  0
 18 10  1  0
 18 19  2  0
 10 11  2  0
 10 12  1  0
 12  7  1  0
  7  8  1  0
  8  9  2  0
  8  1  1  0
  1  2  2  0
  1  6  1  0
  2  3  1  0
  3  4  2  0
  4  5  1  0
  5  6  2  0
  6 20  1  0
 20 21  2  0
 20 22  1  0
 22 23  2  0
 22 27  1  0
 23 24  1  0
 24 25  2  0
 25 26  1  0
 26 27  2  0
M  END
>  <minimizedAffinity>  (621) 
-8.92873

$$$$
cs_full_output_folder/data/smiles/1421.pdb
     RDKit          3D

 22 23  0  0  0  0  0  0  0  0999 V2000
   70.5940   46.1745   59.2388 O   0  0  0  0  0  0  0  0  0  0  0  0
   70.4549   45.3882   58.2709 C   0  0  0  0  0  0  0  0  0  0  0  0
   69.5883   45.8202   57.2324 N   0  0  0  0  0  0  0  0  0  0  0  0
   71.1283   44.1043   58.1923 C   0  0  0  0  0  0  0  0  0  0  0  0
   72.4919   43.9370   58.1707 C   0  0  0  0  0  0  0  0  0  0  0  0
   73.0721   42.6785   58.0945 C   0  0  0  0  0  0  0  0  0  0  0  0
   74.9644   42.5220   58.0676 Br  0  0  0  0  0  0  0  0  0  0  0  0
   72.3161   41.5360   58.0376 C   0  0  0  0  0  0  0  0  0  0  0  0
   70.9406   41.6785   58.0577 C   0  0  0  0  0  0  0  0  0  0  0  0
   70.3686   42.9221   58.1333 C   0  0  0  0  0  0  0  0  0  0  0  0
   68.9923   43.0702   58.1541 O   0  0  0  0  0  0  0  0  0  0  0  0
   68.9324   47.0182   57.2601 N   0  0  0  0  0  0  0  0  0  0  0  0
   68.5151   47.7374   56.3503 C   0  0  0  0  0  0  0  0  0  0  0  0
   68.6051   47.5114   54.9380 C   0  0  0  0  0  0  0  0  0  0  0  0
   67.9652   46.3732   54.4068 C   0  0  0  0  0  0  0  0  0  0  0  0
   67.9935   46.0687   53.0710 C   0  0  0  0  0  0  0  0  0  0  0  0
   68.6738   46.9047   52.1975 C   0  0  0  0  0  0  0  0  0  0  0  0
   69.3115   48.0221   52.6598 C   0  0  0  0  0  0  0  0  0  0  0  0
   69.2598   48.2971   54.0248 C   0  0  0  0  0  0  0  0  0  0  0  0
   70.0012   48.8645   51.7593 N   0  0  0  0  0  0  0  0  0  0  0  0
   70.7058   48.3776   50.8338 O   0  0  0  0  0  0  0  0  0  0  0  0
   69.9520   50.2294   51.8322 O   0  0  0  0  0  0  0  0  0  0  0  0
  1  2  2  0
  2  3  1  0
  2  4  1  0
  3 12  1  0
 12 13  2  0
 13 14  1  0
 14 15  2  0
 14 19  1  0
 15 16  1  0
 16 17  2  0
 17 18  1  0
 18 20  1  0
 18 19  2  0
 20 21  2  0
 20 22  1  0
  4  5  2  0
  4 10  1  0
  5  6  1  0
  6  7  1  0
  6  8  2  0
  8  9  1  0
  9 10  2  0
 10 11  1  0
M  CHG  2  20   1  22  -1
M  END
>  <minimizedAffinity>  (622) 
-8.92825

$$$$
cs_full_output_folder/data/smiles/1859.pdb
     RDKit          3D

 26 27  0  0  0  0  0  0  0  0999 V2000
   69.8981   48.9071   52.0729 S   0  0  0  0  0  0  0  0  0  0  0  0
   68.8389   49.7649   51.4274 O   0  0  0  0  0  0  0  0  0  0  0  0
   70.7406   48.3450   50.9588 O   0  0  0  0  0  0  0  0  0  0  0  0
   69.0974   47.5415   52.8343 C   0  0  0  0  0  0  0  0  0  0  0  0
   69.2012   47.3168   54.1901 C   0  0  0  0  0  0  0  0  0  0  0  0
   69.9220   48.1999   54.9448 F   0  0  0  0  0  0  0  0  0  0  0  0
   68.6029   46.2407   54.7907 C   0  0  0  0  0  0  0  0  0  0  0  0
   68.6964   46.0011   56.1421 F   0  0  0  0  0  0  0  0  0  0  0  0
   67.8686   45.3267   54.0672 C   0  0  0  0  0  0  0  0  0  0  0  0
   67.2713   44.2542   54.6582 F   0  0  0  0  0  0  0  0  0  0  0  0
   67.7740   45.5663   52.7072 C   0  0  0  0  0  0  0  0  0  0  0  0
   67.0514   44.6721   51.9884 F   0  0  0  0  0  0  0  0  0  0  0  0
   68.3658   46.6393   52.0935 C   0  0  0  0  0  0  0  0  0  0  0  0
   68.2154   46.7853   50.7604 F   0  0  0  0  0  0  0  0  0  0  0  0
   70.8484   49.8243   53.1422 N   0  0  0  0  0  0  0  0  0  0  0  0
   70.7652   52.7599   55.4787 C   0  0  0  0  0  0  0  0  0  0  0  0
   71.2272   51.7352   54.6683 C   0  0  0  0  0  0  0  0  0  0  0  0
   70.4014   50.8635   53.9883 C   0  0  0  0  0  0  0  0  0  0  0  0
   69.0125   51.0228   54.1250 C   0  0  0  0  0  0  0  0  0  0  0  0
   68.5535   52.0355   54.9264 C   0  0  0  0  0  0  0  0  0  0  0  0
   69.3987   52.8992   55.5993 C   0  0  0  0  0  0  0  0  0  0  0  0
   68.9215   53.9059   56.3959 F   0  0  0  0  0  0  0  0  0  0  0  0
   73.0698   54.2785   58.1814 C   0  0  0  0  0  0  0  0  0  0  0  0
   72.1496   53.3682   57.4630 C   0  0  0  0  0  0  0  0  0  0  0  0
   71.7896   52.3016   58.0191 O   0  0  0  0  0  0  0  0  0  0  0  0
   71.6490   53.6393   56.1646 N   0  0  0  0  0  0  0  0  0  0  0  0
 23 24  1  0
 24 25  2  0
 24 26  1  0
 26 16  1  0
 16 17  2  0
 16 21  1  0
 17 18  1  0
 18 15  1  0
 18 19  2  0
 15  1  1  0
  1  2  2  0
  1  3  2  0
  1  4  1  0
  4  5  2  0
  4 13  1  0
  5  6  1  0
  5  7  1  0
  7  8  1  0
  7  9  2  0
  9 10  1  0
  9 11  1  0
 11 12  1  0
 11 13  2  0
 13 14  1  0
 19 20  1  0
 20 21  2  0
 21 22  1  0
M  END
>  <minimizedAffinity>  (623) 
-8.92680

$$$$
cs_full_output_folder/data/smiles/5148.pdb
     RDKit          3D

 29 32  0  0  0  0  0  0  0  0999 V2000
   71.2129   46.5536   58.7667 C   0  0  0  0  0  0  0  0  0  0  0  0
   70.5121   47.4377   58.0115 C   0  0  0  0  0  0  0  0  0  0  0  0
   69.6452   46.9884   57.0241 C   0  0  0  0  0  0  0  0  0  0  0  0
   69.5025   45.6515   56.8179 C   0  0  0  0  0  0  0  0  0  0  0  0
   70.2130   44.7596   57.5837 C   0  0  0  0  0  0  0  0  0  0  0  0
   71.0701   45.1917   58.5578 C   0  0  0  0  0  0  0  0  0  0  0  0
   71.7896   44.3634   59.3368 F   0  0  0  0  0  0  0  0  0  0  0  0
   76.7869   47.6202   61.1522 C   0  0  0  0  0  0  0  0  0  0  0  0
   75.6601   46.7274   60.6609 C   0  0  2  0  0  0  0  0  0  0  0  0
   75.4550   45.7884   61.6813 F   0  0  0  0  0  0  0  0  0  0  0  0
   76.0844   46.0522   59.4105 C   0  0  0  0  0  0  0  0  0  0  0  0
   75.2500   46.1795   58.2726 N   0  0  0  0  0  0  0  0  0  0  0  0
   74.0694   46.6530   58.3179 C   0  0  0  0  0  0  0  0  0  0  0  0
   73.5106   47.0932   59.5514 N   0  0  0  0  0  0  0  0  0  0  0  0
   72.1173   47.0550   59.7963 C   0  0  0  0  0  0  0  0  0  0  0  0
   71.6333   47.4398   60.8756 O   0  0  0  0  0  0  0  0  0  0  0  0
   74.4345   47.5881   60.5605 C   0  0  0  0  0  0  0  0  0  0  0  0
   68.9175   48.0606   56.2824 C   0  0  0  0  0  0  0  0  0  0  0  0
   69.3296   48.2062   54.8850 C   0  0  0  0  0  0  0  0  0  0  0  0
   70.2978   49.1149   54.5574 N   0  0  0  0  0  0  0  0  0  0  0  0
   70.7453   49.2723   53.3333 N   0  0  0  0  0  0  0  0  0  0  0  0
   70.2638   48.5359   52.3244 C   0  0  0  0  0  0  0  0  0  0  0  0
   70.7467   48.7438   51.1662 O   0  0  0  0  0  0  0  0  0  0  0  0
   69.2943   47.6082   52.5734 C   0  0  0  0  0  0  0  0  0  0  0  0
   68.7902   46.8622   51.5540 C   0  0  0  0  0  0  0  0  0  0  0  0
   67.8009   45.9266   51.7786 C   0  0  0  0  0  0  0  0  0  0  0  0
   67.3098   45.7408   53.0545 C   0  0  0  0  0  0  0  0  0  0  0  0
   67.8324   46.5054   54.0790 C   0  0  0  0  0  0  0  0  0  0  0  0
   68.8210   47.4441   53.8788 C   0  0  0  0  0  0  0  0  0  0  0  0
  9  8  1  1
  9 10  1  0
  9 11  1  0
  9 17  1  0
 11 12  1  0
 12 13  2  0
 13 14  1  0
 14 15  1  0
 14 17  1  0
 15 16  2  0
 15  1  1  0
  1  2  2  0
  1  6  1  0
  2  3  1  0
  3 18  1  0
  3  4  2  0
 18 19  1  0
 19 20  2  0
 19 29  1  0
 20 21  1  0
 21 22  1  0
 22 23  2  0
 22 24  1  0
 24 25  1  0
 24 29  2  0
 25 26  2  0
 26 27  1  0
 27 28  2  0
 28 29  1  0
  4  5  1  0
  5  6  2  0
  6  7  1  0
M  END
>  <minimizedAffinity>  (624) 
-8.92568

$$$$
cs_full_output_folder/data/smiles/6656.pdb
     RDKit          3D

 27 30  0  0  0  0  0  0  0  0999 V2000
   71.5521   47.3983   58.8972 C   0  0  0  0  0  0  0  0  0  0  0  0
   70.6520   48.1516   58.1300 C   0  0  0  0  0  0  0  0  0  0  0  0
   69.8087   47.5827   57.2376 C   0  0  0  0  0  0  0  0  0  0  0  0
   69.8669   46.1891   57.1057 C   0  0  0  0  0  0  0  0  0  0  0  0
   70.7459   45.4414   57.8545 C   0  0  0  0  0  0  0  0  0  0  0  0
   71.6032   46.0338   58.7626 C   0  0  0  0  0  0  0  0  0  0  0  0
   72.4602   45.2648   59.4858 F   0  0  0  0  0  0  0  0  0  0  0  0
   72.1492   47.8636   61.0667 O   0  0  0  0  0  0  0  0  0  0  0  0
   72.4573   48.0390   59.8342 C   0  0  0  0  0  0  0  0  0  0  0  0
   73.5869   48.7988   59.4994 N   0  0  0  0  0  0  0  0  0  0  0  0
   74.0405   49.0698   58.1669 C   0  0  0  0  0  0  0  0  0  0  0  0
   75.2707   48.2263   57.8481 C   0  0  0  0  0  0  0  0  0  0  0  0
   76.4565   48.2729   59.1986 S   0  0  0  0  0  0  0  0  0  0  0  0
   75.6371   48.5387   60.7876 C   0  0  0  0  0  0  0  0  0  0  0  0
   74.3796   49.3739   60.5837 C   0  0  0  0  0  0  0  0  0  0  0  0
   68.8523   48.2990   56.3864 C   0  0  0  0  0  0  0  0  0  0  0  0
   69.3102   48.2869   55.0111 C   0  0  0  0  0  0  0  0  0  0  0  0
   70.2789   49.1979   54.6841 N   0  0  0  0  0  0  0  0  0  0  0  0
   70.7444   49.3417   53.4585 N   0  0  0  0  0  0  0  0  0  0  0  0
   70.2908   48.5914   52.4418 C   0  0  0  0  0  0  0  0  0  0  0  0
   70.7302   48.7220   51.2588 O   0  0  0  0  0  0  0  0  0  0  0  0
   69.3282   47.6572   52.6699 C   0  0  0  0  0  0  0  0  0  0  0  0
   68.8696   46.8716   51.6297 C   0  0  0  0  0  0  0  0  0  0  0  0
   67.9048   45.9218   51.9110 C   0  0  0  0  0  0  0  0  0  0  0  0
   67.4363   45.7899   53.2070 C   0  0  0  0  0  0  0  0  0  0  0  0
   67.8949   46.5772   54.2467 C   0  0  0  0  0  0  0  0  0  0  0  0
   68.8462   47.5177   53.9710 C   0  0  0  0  0  0  0  0  0  0  0  0
  8  9  2  0
  9  1  1  0
  9 10  1  0
  1  2  2  0
  1  6  1  0
  2  3  1  0
  3 16  1  0
  3  4  2  0
 16 17  1  0
 17 18  2  0
 17 27  1  0
 18 19  1  0
 19 20  1  0
 20 21  2  0
 20 22  1  0
 22 23  1  0
 22 27  2  0
 23 24  2  0
 24 25  1  0
 25 26  2  0
 26 27  1  0
  4  5  1  0
  5  6  2  0
  6  7  1  0
 10 11  1  0
 10 15  1  0
 11 12  1  0
 12 13  1  0
 13 14  1  0
 14 15  1  0
M  END
>  <minimizedAffinity>  (625) 
-8.92565

$$$$
cs_full_output_folder/data/smiles/1184.pdb
     RDKit          3D

 25 27  0  0  0  0  0  0  0  0999 V2000
   70.3999   42.3098   58.0317 C   0  0  0  0  0  0  0  0  0  0  0  0
   69.1102   41.8829   57.4208 C   0  0  0  0  0  0  0  0  0  0  0  0
   68.3517   42.7373   56.6233 C   0  0  0  0  0  0  0  0  0  0  0  0
   67.2653   41.9896   56.2754 C   0  0  0  0  0  0  0  0  0  0  0  0
   67.3950   40.7634   56.8463 N   0  0  0  0  0  0  0  0  0  0  0  0
   68.5332   40.6925   57.5574 N   0  0  0  0  0  0  0  0  0  0  0  0
   68.9798   39.5344   58.2756 C   0  0  0  0  0  0  0  0  0  0  0  0
   70.2248   38.9651   58.1352 C   0  0  0  0  0  0  0  0  0  0  0  0
   70.6380   37.8646   58.8595 C   0  0  0  0  0  0  0  0  0  0  0  0
   69.7901   37.2887   59.7661 C   0  0  0  0  0  0  0  0  0  0  0  0
   70.3568   35.8709   60.6505 Cl  0  0  0  0  0  0  0  0  0  0  0  0
   68.5316   37.8129   59.9523 C   0  0  0  0  0  0  0  0  0  0  0  0
   68.1420   38.9197   59.2128 C   0  0  0  0  0  0  0  0  0  0  0  0
   68.7118   44.1221   56.2545 C   0  0  0  0  0  0  0  0  0  0  0  0
   69.5176   44.7299   56.9957 O   0  0  0  0  0  0  0  0  0  0  0  0
   68.2012   44.7951   55.1256 N   0  0  0  0  0  0  0  0  0  0  0  0
   68.4642   46.1219   54.7206 C   0  0  0  0  0  0  0  0  0  0  0  0
   68.3578   47.1438   55.6725 C   0  0  0  0  0  0  0  0  0  0  0  0
   68.6552   48.4653   55.3702 C   0  0  0  0  0  0  0  0  0  0  0  0
   69.0688   48.8399   54.1158 C   0  0  0  0  0  0  0  0  0  0  0  0
   69.1766   47.8335   53.1628 C   0  0  0  0  0  0  0  0  0  0  0  0
   68.8750   46.5237   53.4849 C   0  0  0  0  0  0  0  0  0  0  0  0
   69.6887   48.1548   51.8395 C   0  0  0  0  0  0  0  0  0  0  0  0
   69.8549   49.5194   51.4239 N   0  0  0  0  0  0  0  0  0  0  0  0
   70.0160   47.2729   51.0013 O   0  0  0  0  0  0  0  0  0  0  0  0
  1  2  1  0
  2  3  2  0
  2  6  1  0
  3 14  1  0
  3  4  1  0
 14 15  2  0
 14 16  1  0
 16 17  1  0
 17 18  2  0
 17 22  1  0
 18 19  1  0
 19 20  2  0
 20 21  1  0
 21 23  1  0
 21 22  2  0
 23 24  1  0
 23 25  2  0
  4  5  2  0
  5  6  1  0
  6  7  1  0
  7  8  2  0
  7 13  1  0
  8  9  1  0
  9 10  2  0
 10 11  1  0
 10 12  1  0
 12 13  2  0
M  END
>  <minimizedAffinity>  (626) 
-8.92560

$$$$
cs_full_output_folder/data/smiles/2012.pdb
     RDKit          3D

 27 30  0  0  0  0  0  0  0  0999 V2000
   71.0763   47.1015   58.5776 C   0  0  0  0  0  0  0  0  0  0  0  0
   70.9364   45.7116   58.5294 C   0  0  0  0  0  0  0  0  0  0  0  0
   70.1074   45.0792   57.6335 C   0  0  0  0  0  0  0  0  0  0  0  0
   69.4090   45.8788   56.7732 C   0  0  0  0  0  0  0  0  0  0  0  0
   69.4979   47.2501   56.7656 N   0  0  0  0  0  0  0  0  0  0  0  0
   70.3226   47.8148   57.6586 C   0  0  0  0  0  0  0  0  0  0  0  0
   70.4077   49.0666   57.6448 O   0  0  0  0  0  0  0  0  0  0  0  0
   73.8687   49.0715   60.4203 C   0  0  0  0  0  0  0  0  0  0  0  0
   73.0743   48.5262   59.3055 N   0  0  0  0  0  0  0  0  0  0  0  0
   71.9580   47.7141   59.5364 C   0  0  0  0  0  0  0  0  0  0  0  0
   71.6918   47.4899   60.7784 O   0  0  0  0  0  0  0  0  0  0  0  0
   69.9921   43.6158   57.6197 C   0  0  0  0  0  0  0  0  0  0  0  0
   71.0049   42.9217   57.3034 O   0  0  0  0  0  0  0  0  0  0  0  0
   68.8142   42.9121   57.9385 N   0  0  0  0  0  0  0  0  0  0  0  0
   68.7242   41.4640   57.9180 C   0  0  0  0  0  0  0  0  0  0  0  0
   68.0046   40.7303   56.8838 C   0  0  0  0  0  0  0  0  0  0  0  0
   67.3923   40.8297   58.2788 C   0  0  0  0  0  0  0  0  0  0  0  0
   68.6768   47.9988   55.8409 C   0  0  0  0  0  0  0  0  0  0  0  0
   68.6372   47.3397   54.5310 C   0  0  0  0  0  0  0  0  0  0  0  0
   67.7880   46.2239   54.4003 C   0  0  0  0  0  0  0  0  0  0  0  0
   67.6128   45.5645   53.2034 C   0  0  0  0  0  0  0  0  0  0  0  0
   68.2713   45.9821   52.0860 C   0  0  0  0  0  0  0  0  0  0  0  0
   69.1091   47.0660   52.1819 C   0  0  0  0  0  0  0  0  0  0  0  0
   69.8790   47.6495   51.2580 N   0  0  0  0  0  0  0  0  0  0  0  0
   70.5481   48.6523   51.7995 C   0  0  0  0  0  0  0  0  0  0  0  0
   70.1935   48.7213   53.1328 C   0  0  0  0  0  0  0  0  0  0  0  0
   69.2856   47.7354   53.4017 C   0  0  0  0  0  0  0  0  0  0  0  0
  8  9  1  0
  9 10  1  0
 10 11  2  0
 10  1  1  0
  1  2  2  0
  1  6  1  0
  2  3  1  0
  3 12  1  0
  3  4  2  0
 12 13  2  0
 12 14  1  0
 14 15  1  0
 15 16  1  0
 15 17  1  0
 16 17  1  0
  4  5  1  0
  5 18  1  0
  5  6  1  0
 18 19  1  0
 19 20  2  0
 19 27  1  0
 20 21  1  0
 21 22  2  0
 22 23  1  0
 23 24  1  0
 23 27  2  0
 24 25  1  0
 25 26  2  0
 26 27  1  0
  6  7  2  0
M  END
>  <minimizedAffinity>  (627) 
-8.92546

$$$$
cs_full_output_folder/data/smiles/7258.pdb
     RDKit          3D

 26 29  0  0  0  0  0  0  0  0999 V2000
   69.7875   47.4196   57.0618 C   0  0  0  0  0  0  0  0  0  0  0  0
   69.6287   46.0200   57.0357 C   0  0  0  0  0  0  0  0  0  0  0  0
   70.4079   45.1954   57.8156 C   0  0  0  0  0  0  0  0  0  0  0  0
   71.3817   45.7014   58.6584 C   0  0  0  0  0  0  0  0  0  0  0  0
   72.1247   44.8509   59.4092 F   0  0  0  0  0  0  0  0  0  0  0  0
   71.5453   47.0636   58.6929 C   0  0  0  0  0  0  0  0  0  0  0  0
   70.7479   47.9072   57.8969 C   0  0  0  0  0  0  0  0  0  0  0  0
   72.7724   47.8140   59.7320 P   0  0  0  0  0  0  0  0  0  0  0  0
   72.3260   47.7409   61.1976 O   0  0  0  0  0  0  0  0  0  0  0  0
   74.3164   46.8722   59.5545 C   0  0  0  0  0  0  0  0  0  0  0  0
   75.0924   47.4446   58.4125 C   0  0  0  0  0  0  0  0  0  0  0  0
   74.3729   48.3148   57.5541 N   0  0  0  0  0  0  0  0  0  0  0  0
   74.0393   49.5831   58.1291 C   0  0  0  0  0  0  0  0  0  0  0  0
   73.1068   49.5092   59.2844 C   0  0  0  0  0  0  0  0  0  0  0  0
   68.9029   48.2640   56.2023 C   0  0  0  0  0  0  0  0  0  0  0  0
   70.5364   48.8067   50.9454 O   0  0  0  0  0  0  0  0  0  0  0  0
   70.1458   48.6393   52.1297 C   0  0  0  0  0  0  0  0  0  0  0  0
   70.6013   49.3881   53.1470 N   0  0  0  0  0  0  0  0  0  0  0  0
   70.2120   49.2426   54.4095 N   0  0  0  0  0  0  0  0  0  0  0  0
   69.2996   48.3017   54.7955 C   0  0  0  0  0  0  0  0  0  0  0  0
   68.8190   47.5204   53.7788 C   0  0  0  0  0  0  0  0  0  0  0  0
   67.9103   46.5366   54.0715 C   0  0  0  0  0  0  0  0  0  0  0  0
   67.3912   45.7060   53.1043 C   0  0  0  0  0  0  0  0  0  0  0  0
   67.7718   45.8308   51.7773 C   0  0  0  0  0  0  0  0  0  0  0  0
   68.6956   46.8287   51.4766 C   0  0  0  0  0  0  0  0  0  0  0  0
   69.2087   47.6541   52.4520 C   0  0  0  0  0  0  0  0  0  0  0  0
 16 17  2  0
 17 18  1  0
 17 26  1  0
 18 19  1  0
 19 20  2  0
 20 15  1  0
 20 21  1  0
 15  1  1  0
  1  2  2  0
  1  7  1  0
  2  3  1  0
  3  4  2  0
  4  5  1  0
  4  6  1  0
  6  8  1  0
  6  7  2  0
  8  9  2  0
  8 10  1  0
  8 14  1  0
 10 11  1  0
 11 12  1  0
 12 13  1  0
 13 14  1  0
 21 22  1  0
 21 26  2  0
 22 23  2  0
 23 24  1  0
 24 25  2  0
 25 26  1  0
M  CHG  1  12   1
M  END
>  <minimizedAffinity>  (628) 
-8.92414

$$$$
cs_full_output_folder/data/smiles/3663.pdb
     RDKit          3D

 27 30  0  0  0  0  0  0  0  0999 V2000
   71.4790   47.3029   58.8213 C   0  0  0  0  0  0  0  0  0  0  0  0
   70.6056   48.0774   58.0452 C   0  0  0  0  0  0  0  0  0  0  0  0
   69.7486   47.5016   57.1564 C   0  0  0  0  0  0  0  0  0  0  0  0
   69.7654   46.1023   57.0398 C   0  0  0  0  0  0  0  0  0  0  0  0
   70.6142   45.3425   57.7929 C   0  0  0  0  0  0  0  0  0  0  0  0
   71.4809   45.9268   58.6923 C   0  0  0  0  0  0  0  0  0  0  0  0
   72.3373   45.1997   59.4545 F   0  0  0  0  0  0  0  0  0  0  0  0
   72.1310   47.9475   61.0092 O   0  0  0  0  0  0  0  0  0  0  0  0
   72.3809   47.9170   59.7834 C   0  0  0  0  0  0  0  0  0  0  0  0
   73.6146   48.5218   59.3606 N   0  0  0  0  0  0  0  0  0  0  0  0
   73.9534   48.5089   57.9515 C   0  0  0  0  0  0  0  0  0  0  0  0
   75.4439   48.3652   57.8227 C   0  0  0  0  0  0  0  0  0  0  0  0
   76.1308   47.9768   59.0709 C   0  0  0  0  0  0  0  0  0  0  0  0
   75.7376   48.3242   60.2466 N   0  0  0  0  0  0  0  0  0  0  0  0
   74.5304   49.1490   60.2785 C   0  0  0  0  0  0  0  0  0  0  0  0
   68.7991   48.2874   56.3192 C   0  0  0  0  0  0  0  0  0  0  0  0
   69.2033   48.3967   54.9038 C   0  0  0  0  0  0  0  0  0  0  0  0
   70.1076   49.3581   54.5579 N   0  0  0  0  0  0  0  0  0  0  0  0
   70.5654   49.4794   53.3235 N   0  0  0  0  0  0  0  0  0  0  0  0
   70.1853   48.6798   52.3245 C   0  0  0  0  0  0  0  0  0  0  0  0
   70.6006   48.7694   51.1446 O   0  0  0  0  0  0  0  0  0  0  0  0
   69.2661   47.6793   52.5975 C   0  0  0  0  0  0  0  0  0  0  0  0
   68.8129   46.8341   51.6229 C   0  0  0  0  0  0  0  0  0  0  0  0
   67.8836   45.8551   51.9032 C   0  0  0  0  0  0  0  0  0  0  0  0
   67.4067   45.7321   53.1846 C   0  0  0  0  0  0  0  0  0  0  0  0
   67.8657   46.5796   54.1544 C   0  0  0  0  0  0  0  0  0  0  0  0
   68.7812   47.5521   53.9100 C   0  0  0  0  0  0  0  0  0  0  0  0
  8  9  2  0
  9  1  1  0
  9 10  1  0
  1  2  2  0
  1  6  1  0
  2  3  1  0
  3 16  1  0
  3  4  2  0
 16 17  1  0
 17 18  2  0
 17 27  1  0
 18 19  1  0
 19 20  1  0
 20 21  2  0
 20 22  1  0
 22 23  1  0
 22 27  2  0
 23 24  2  0
 24 25  1  0
 25 26  2  0
 26 27  1  0
  4  5  1  0
  5  6  2  0
  6  7  1  0
 10 11  1  0
 10 15  1  0
 11 12  1  0
 12 13  1  0
 13 14  2  0
 14 15  1  0
M  END
>  <minimizedAffinity>  (629) 
-8.92121

$$$$
cs_full_output_folder/data/smiles/4778.pdb
     RDKit          3D

 25 27  0  0  0  0  0  0  0  0999 V2000
   71.0580   41.9586   58.6011 C   0  0  0  0  0  0  0  0  0  0  0  0
   69.8129   41.5260   57.8866 C   0  0  0  0  0  0  0  0  0  0  0  0
   69.0564   42.4193   57.1583 C   0  0  0  0  0  0  0  0  0  0  0  0
   68.0028   41.6803   56.6642 C   0  0  0  0  0  0  0  0  0  0  0  0
   68.1448   40.4107   57.0898 N   0  0  0  0  0  0  0  0  0  0  0  0
   69.2633   40.3078   57.8473 N   0  0  0  0  0  0  0  0  0  0  0  0
   69.7141   39.0917   58.4426 C   0  0  0  0  0  0  0  0  0  0  0  0
   68.9155   38.5257   59.4299 C   0  0  0  0  0  0  0  0  0  0  0  0
   69.3186   37.3600   60.0240 C   0  0  0  0  0  0  0  0  0  0  0  0
   70.4917   36.7351   59.6677 C   0  0  0  0  0  0  0  0  0  0  0  0
   70.9566   35.2451   60.4624 Cl  0  0  0  0  0  0  0  0  0  0  0  0
   71.2888   37.2983   58.6831 C   0  0  0  0  0  0  0  0  0  0  0  0
   70.8827   38.4841   58.0771 C   0  0  0  0  0  0  0  0  0  0  0  0
   69.2911   43.8539   56.9457 C   0  0  0  0  0  0  0  0  0  0  0  0
   70.2390   44.4453   57.5143 O   0  0  0  0  0  0  0  0  0  0  0  0
   68.4561   44.6194   56.0923 N   0  0  0  0  0  0  0  0  0  0  0  0
   68.5792   46.0232   55.7982 C   0  0  0  0  0  0  0  0  0  0  0  0
   68.5475   46.3481   54.3528 C   0  0  0  0  0  0  0  0  0  0  0  0
   67.7729   45.5858   53.5116 C   0  0  0  0  0  0  0  0  0  0  0  0
   67.7205   45.8256   52.1334 C   0  0  0  0  0  0  0  0  0  0  0  0
   68.4715   46.8588   51.6256 C   0  0  0  0  0  0  0  0  0  0  0  0
   69.2659   47.6504   52.4542 C   0  0  0  0  0  0  0  0  0  0  0  0
   69.2924   47.3828   53.8070 C   0  0  0  0  0  0  0  0  0  0  0  0
   70.0508   48.7383   51.8051 C   0  0  0  0  0  0  0  0  0  0  0  0
   71.1802   48.9686   52.6291 O   0  0  0  0  0  0  0  0  0  0  0  0
  1  2  1  0
  2  3  2  0
  2  6  1  0
  3 14  1  0
  3  4  1  0
 14 15  2  0
 14 16  1  0
 16 17  1  0
 17 18  1  0
 18 19  2  0
 18 23  1  0
 19 20  1  0
 20 21  2  0
 21 22  1  0
 22 24  1  0
 22 23  2  0
 24 25  1  0
  4  5  2  0
  5  6  1  0
  6  7  1  0
  7  8  2  0
  7 13  1  0
  8  9  1  0
  9 10  2  0
 10 11  1  0
 10 12  1  0
 12 13  2  0
M  END
>  <minimizedAffinity>  (630) 
-8.92051

$$$$
cs_full_output_folder/data/smiles/655.pdb
     RDKit          3D

 26 28  0  0  0  0  0  0  0  0999 V2000
   71.4718   47.0398   58.7845 C   0  0  0  0  0  0  0  0  0  0  0  0
   70.6405   47.7857   57.9970 C   0  0  0  0  0  0  0  0  0  0  0  0
   69.7417   47.2356   57.0981 C   0  0  0  0  0  0  0  0  0  0  0  0
   69.6786   45.8763   56.9901 C   0  0  0  0  0  0  0  0  0  0  0  0
   70.5166   45.0733   57.7833 C   0  0  0  0  0  0  0  0  0  0  0  0
   71.4077   45.6688   58.6754 C   0  0  0  0  0  0  0  0  0  0  0  0
   72.2083   44.8760   59.4356 F   0  0  0  0  0  0  0  0  0  0  0  0
   74.4462   48.7207   60.5152 C   0  0  0  0  0  0  0  0  0  0  0  0
   73.6787   48.1246   59.4444 N   0  0  0  0  0  0  0  0  0  0  0  0
   72.3845   47.6557   59.7112 C   0  0  0  0  0  0  0  0  0  0  0  0
   71.9439   47.7812   60.9094 O   0  0  0  0  0  0  0  0  0  0  0  0
   74.3062   48.0479   58.1457 C   0  0  0  0  0  0  0  0  0  0  0  0
   74.3408   49.2988   57.3973 C   0  0  0  0  0  0  0  0  0  0  0  0
   73.9755   49.3031   56.2372 O   0  0  0  0  0  0  0  0  0  0  0  0
   68.9262   48.1905   56.3202 C   0  0  0  0  0  0  0  0  0  0  0  0
   69.3675   48.2293   54.9279 C   0  0  0  0  0  0  0  0  0  0  0  0
   70.3307   49.1367   54.5842 N   0  0  0  0  0  0  0  0  0  0  0  0
   70.7564   49.3014   53.3448 N   0  0  0  0  0  0  0  0  0  0  0  0
   70.2496   48.5680   52.3434 C   0  0  0  0  0  0  0  0  0  0  0  0
   70.6879   48.7592   51.1620 O   0  0  0  0  0  0  0  0  0  0  0  0
   69.2761   47.6255   52.5860 C   0  0  0  0  0  0  0  0  0  0  0  0
   68.7746   46.8632   51.5557 C   0  0  0  0  0  0  0  0  0  0  0  0
   67.8143   45.9085   51.8190 C   0  0  0  0  0  0  0  0  0  0  0  0
   67.3907   45.7640   53.1523 C   0  0  0  0  0  0  0  0  0  0  0  0
   67.9061   46.5387   54.1677 C   0  0  0  0  0  0  0  0  0  0  0  0
   68.8492   47.4770   53.9092 C   0  0  0  0  0  0  0  0  0  0  0  0
  8  9  1  0
  9 12  1  0
  9 10  1  0
 12 13  1  0
 13 14  2  0
 10 11  2  0
 10  1  1  0
  1  2  2  0
  1  6  1  0
  2  3  1  0
  3 15  1  0
  3  4  2  0
 15 16  1  0
 16 17  2  0
 16 26  1  0
 17 18  1  0
 18 19  1  0
 19 20  2  0
 19 21  1  0
 21 22  1  0
 21 26  2  0
 22 23  2  0
 23 24  1  0
 24 25  2  0
 25 26  1  0
  4  5  1  0
  5  6  2  0
  6  7  1  0
M  END
>  <minimizedAffinity>  (631) 
-8.92042

$$$$
cs_full_output_folder/data/smiles/9117.pdb
     RDKit          3D

 28 31  0  0  0  0  0  0  0  0999 V2000
   71.6558   47.7754   59.2027 C   0  0  0  0  0  0  0  0  0  0  0  0
   71.0848   46.7618   58.4646 C   0  0  0  0  0  0  0  0  0  0  0  0
   70.0917   46.9914   57.5051 C   0  0  0  0  0  0  0  0  0  0  0  0
   69.6428   48.2381   57.2592 C   0  0  0  0  0  0  0  0  0  0  0  0
   70.2218   49.2731   58.0095 C   0  0  0  0  0  0  0  0  0  0  0  0
   71.1989   49.0511   58.9536 C   0  0  0  0  0  0  0  0  0  0  0  0
   73.3675   46.4403   60.0733 O   0  0  0  0  0  0  0  0  0  0  0  0
   72.6880   47.4868   60.1905 C   0  0  0  0  0  0  0  0  0  0  0  0
   72.9816   48.3262   61.2963 N   0  0  0  0  0  0  0  0  0  0  0  0
   74.0126   47.9924   62.2404 C   0  0  0  0  0  0  0  0  0  0  0  0
   73.7288   47.2157   63.3423 C   0  0  0  0  0  0  0  0  0  0  0  0
   74.7414   46.9048   64.2409 C   0  0  0  0  0  0  0  0  0  0  0  0
   76.0291   47.3593   64.0541 C   0  0  0  0  0  0  0  0  0  0  0  0
   76.2873   48.1158   62.9737 N   0  0  0  0  0  0  0  0  0  0  0  0
   75.3099   48.4288   62.0858 C   0  0  0  0  0  0  0  0  0  0  0  0
   75.6083   49.2002   60.9985 F   0  0  0  0  0  0  0  0  0  0  0  0
   68.6006   48.6659   56.3038 C   0  0  0  0  0  0  0  0  0  0  0  0
   69.1092   48.5791   54.9441 C   0  0  0  0  0  0  0  0  0  0  0  0
   70.0022   49.5299   54.5305 N   0  0  0  0  0  0  0  0  0  0  0  0
   70.5012   49.5789   53.3121 N   0  0  0  0  0  0  0  0  0  0  0  0
   70.1806   48.6958   52.3519 C   0  0  0  0  0  0  0  0  0  0  0  0
   70.6724   48.7629   51.1845 O   0  0  0  0  0  0  0  0  0  0  0  0
   69.2856   47.7020   52.6841 C   0  0  0  0  0  0  0  0  0  0  0  0
   68.9265   46.7615   51.7464 C   0  0  0  0  0  0  0  0  0  0  0  0
   68.0414   45.7636   52.0866 C   0  0  0  0  0  0  0  0  0  0  0  0
   67.5256   45.7194   53.3685 C   0  0  0  0  0  0  0  0  0  0  0  0
   67.8955   46.6738   54.3057 C   0  0  0  0  0  0  0  0  0  0  0  0
   68.7652   47.6639   53.9828 C   0  0  0  0  0  0  0  0  0  0  0  0
  7  8  2  0
  8  9  1  0
  8  1  1  0
  9 10  1  0
 10 11  2  0
 10 15  1  0
 11 12  1  0
 12 13  2  0
 13 14  1  0
 14 15  2  0
 15 16  1  0
  1  2  2  0
  1  6  1  0
  2  3  1  0
  3  4  2  0
  4 17  1  0
  4  5  1  0
 17 18  1  0
 18 19  2  0
 18 28  1  0
 19 20  1  0
 20 21  1  0
 21 22  2  0
 21 23  1  0
 23 24  1  0
 23 28  2  0
 24 25  2  0
 25 26  1  0
 26 27  2  0
 27 28  1  0
  5  6  2  0
M  END
>  <minimizedAffinity>  (632) 
-8.91990

$$$$
cs_full_output_folder/data/smiles/1302.pdb
     RDKit          3D

 29 32  0  0  0  0  0  0  0  0999 V2000
   71.3822   47.1724   58.8009 C   0  0  0  0  0  0  0  0  0  0  0  0
   70.4745   47.8292   58.0082 C   0  0  0  0  0  0  0  0  0  0  0  0
   69.6476   47.0871   57.1395 C   0  0  0  0  0  0  0  0  0  0  0  0
   69.7673   45.7268   57.1046 C   0  0  0  0  0  0  0  0  0  0  0  0
   70.6918   45.0411   57.9088 C   0  0  0  0  0  0  0  0  0  0  0  0
   71.4851   45.8006   58.7474 C   0  0  0  0  0  0  0  0  0  0  0  0
   72.3883   45.1928   59.5386 F   0  0  0  0  0  0  0  0  0  0  0  0
   74.2204   51.2129   58.3775 N   0  0  0  0  0  0  0  0  0  0  0  0
   74.2159   50.8972   59.7405 C   0  0  0  0  0  0  0  0  0  0  0  0
   74.1909   49.4307   60.1001 C   0  0  0  0  0  0  0  0  0  0  0  0
   73.3008   48.7064   59.2098 N   0  0  0  0  0  0  0  0  0  0  0  0
   72.2572   47.8876   59.7158 C   0  0  0  0  0  0  0  0  0  0  0  0
   72.1258   47.8085   60.9634 O   0  0  0  0  0  0  0  0  0  0  0  0
   73.5573   48.8843   57.8027 C   0  0  0  0  0  0  0  0  0  0  0  0
   73.8225   50.2915   57.4004 C   0  0  0  0  0  0  0  0  0  0  0  0
   72.1467   52.4971   57.9314 C   0  0  0  0  0  0  0  0  0  0  0  0
   73.6162   52.4996   58.1448 C   0  0  0  0  0  0  0  0  0  0  0  0
   68.6553   47.8146   56.3158 C   0  0  0  0  0  0  0  0  0  0  0  0
   69.0948   48.0941   54.9338 C   0  0  0  0  0  0  0  0  0  0  0  0
   69.9767   49.0967   54.6726 N   0  0  0  0  0  0  0  0  0  0  0  0
   70.4474   49.3898   53.4919 N   0  0  0  0  0  0  0  0  0  0  0  0
   70.0641   48.6805   52.4348 C   0  0  0  0  0  0  0  0  0  0  0  0
   70.4731   48.8996   51.2625 O   0  0  0  0  0  0  0  0  0  0  0  0
   69.1646   47.6366   52.6034 C   0  0  0  0  0  0  0  0  0  0  0  0
   68.7472   46.8947   51.5021 C   0  0  0  0  0  0  0  0  0  0  0  0
   67.8505   45.8580   51.6074 C   0  0  0  0  0  0  0  0  0  0  0  0
   67.3854   45.5987   52.8866 C   0  0  0  0  0  0  0  0  0  0  0  0
   67.7839   46.3164   53.9816 C   0  0  0  0  0  0  0  0  0  0  0  0
   68.6728   47.3386   53.8621 C   0  0  0  0  0  0  0  0  0  0  0  0
 16 17  1  0
 17  8  1  0
  8  9  1  0
  8 15  1  0
  9 10  1  0
 10 11  1  0
 11 12  1  0
 11 14  1  0
 12 13  2  0
 12  1  1  0
  1  2  2  0
  1  6  1  0
  2  3  1  0
  3 18  1  0
  3  4  2  0
 18 19  1  0
 19 20  2  0
 19 29  1  0
 20 21  1  0
 21 22  1  0
 22 23  2  0
 22 24  1  0
 24 25  1  0
 24 29  2  0
 25 26  2  0
 26 27  1  0
 27 28  2  0
 28 29  1  0
  4  5  1  0
  5  6  2  0
  6  7  1  0
 14 15  1  0
M  CHG  1   8   1
M  END
>  <minimizedAffinity>  (633) 
-8.91944

$$$$
cs_full_output_folder/data/smiles/3962.pdb
     RDKit          3D

 27 29  0  0  0  0  0  0  0  0999 V2000
   68.3718   45.8323   54.2108 C   0  0  0  0  0  0  0  0  0  0  0  0
   67.7843   45.4251   53.0415 C   0  0  0  0  0  0  0  0  0  0  0  0
   67.8945   46.1735   51.8699 C   0  0  0  0  0  0  0  0  0  0  0  0
   68.6217   47.3501   51.9266 C   0  0  0  0  0  0  0  0  0  0  0  0
   69.2278   47.7922   53.0872 C   0  0  0  0  0  0  0  0  0  0  0  0
   69.0821   47.0020   54.2234 C   0  0  0  0  0  0  0  0  0  0  0  0
   67.6752   43.7183   55.4211 N   0  0  0  0  0  0  0  0  0  0  0  0
   68.2312   45.0234   55.3996 C   0  0  0  0  0  0  0  0  0  0  0  0
   68.6115   45.4439   56.5435 O   0  0  0  0  0  0  0  0  0  0  0  0
   67.6709   40.9509   55.5096 O   0  0  0  0  0  0  0  0  0  0  0  0
   67.5476   41.5592   56.6185 C   0  0  0  0  0  0  0  0  0  0  0  0
   67.5493   42.9532   56.5806 N   0  0  0  0  0  0  0  0  0  0  0  0
   67.4184   40.7361   57.8077 C   0  0  0  0  0  0  0  0  0  0  0  0
   68.0450   39.4999   57.9032 C   0  0  0  0  0  0  0  0  0  0  0  0
   67.9222   38.7190   59.0336 C   0  0  0  0  0  0  0  0  0  0  0  0
   67.1701   39.1467   60.1023 C   0  0  0  0  0  0  0  0  0  0  0  0
   66.5244   40.3825   60.0473 C   0  0  0  0  0  0  0  0  0  0  0  0
   66.6768   41.1211   58.9051 C   0  0  0  0  0  0  0  0  0  0  0  0
   70.1389   49.2839   53.1221 S   0  0  0  0  0  0  0  0  0  0  0  0
   69.5922   50.2468   52.0887 O   0  0  0  0  0  0  0  0  0  0  0  0
   71.5700   49.0345   52.8019 O   0  0  0  0  0  0  0  0  0  0  0  0
   69.9791   50.0913   54.7205 C   0  0  0  0  0  0  0  0  0  0  0  0
   71.2720   50.6391   55.1909 C   0  0  0  0  0  0  0  0  0  0  0  0
   71.5093   52.0814   54.8593 C   0  0  0  0  0  0  0  0  0  0  0  0
   70.4845   52.6477   54.1145 O   0  0  0  0  0  0  0  0  0  0  0  0
   69.2829   52.5021   54.7880 C   0  0  0  0  0  0  0  0  0  0  0  0
   68.8535   51.0772   54.6762 C   0  0  0  0  0  0  0  0  0  0  0  0
 10 11  2  0
 11 12  1  0
 11 13  1  0
 12  7  1  0
  7  8  1  0
  8  9  2  0
  8  1  1  0
  1  2  2  0
  1  6  1  0
  2  3  1  0
  3  4  2  0
  4  5  1  0
  5 19  1  0
  5  6  2  0
 19 20  2  0
 19 21  2  0
 19 22  1  0
 22 23  1  0
 22 27  1  0
 23 24  1  0
 24 25  1  0
 25 26  1  0
 26 27  1  0
 13 14  2  0
 13 18  1  0
 14 15  1  0
 15 16  2  0
 16 17  1  0
 17 18  2  0
M  END
>  <minimizedAffinity>  (634) 
-8.91882

$$$$
cs_full_output_folder/data/smiles/8827.pdb
     RDKit          3D

 29 33  0  0  0  0  0  0  0  0999 V2000
   71.4679   46.4787   58.5488 C   0  0  0  0  0  0  0  0  0  0  0  0
   70.4305   46.9770   57.8080 C   0  0  0  0  0  0  0  0  0  0  0  0
   70.4430   48.1911   57.1699 C   0  0  0  0  0  0  0  0  0  0  0  0
   71.6076   48.9700   57.2915 C   0  0  0  0  0  0  0  0  0  0  0  0
   72.6752   48.5090   58.0267 C   0  0  0  0  0  0  0  0  0  0  0  0
   72.6120   47.2807   58.6487 C   0  0  0  0  0  0  0  0  0  0  0  0
   73.6807   46.8595   59.3624 F   0  0  0  0  0  0  0  0  0  0  0  0
   71.4725   45.2626   60.4997 O   0  0  0  0  0  0  0  0  0  0  0  0
   71.3893   45.1980   59.2239 C   0  0  0  0  0  0  0  0  0  0  0  0
   71.2383   43.9366   58.6450 N   0  0  0  0  0  0  0  0  0  0  0  0
   71.1677   42.5896   59.1763 C   0  0  0  0  0  0  0  0  0  0  0  0
   70.2215   42.2795   58.0056 C   0  0  0  0  0  0  0  0  0  0  0  0
   71.0745   43.3225   57.3280 C   0  0  0  0  0  0  0  0  0  0  0  0
   68.9034   42.6444   58.4059 N   0  0  0  0  0  0  0  0  0  0  0  0
   67.8416   41.8011   57.9735 C   0  0  0  0  0  0  0  0  0  0  0  0
   68.0459   40.5138   57.2817 C   0  0  0  0  0  0  0  0  0  0  0  0
   67.6357   41.7322   56.4866 C   0  0  0  0  0  0  0  0  0  0  0  0
   69.3019   48.7132   56.3606 C   0  0  0  0  0  0  0  0  0  0  0  0
   69.5412   48.7019   54.9109 C   0  0  0  0  0  0  0  0  0  0  0  0
   70.3478   49.6632   54.3454 N   0  0  0  0  0  0  0  0  0  0  0  0
   70.6226   49.6862   53.0593 N   0  0  0  0  0  0  0  0  0  0  0  0
   70.1329   48.7713   52.2073 C   0  0  0  0  0  0  0  0  0  0  0  0
   70.3987   48.7980   50.9834 O   0  0  0  0  0  0  0  0  0  0  0  0
   69.3085   47.7608   52.6756 C   0  0  0  0  0  0  0  0  0  0  0  0
   68.7848   46.8165   51.8192 C   0  0  0  0  0  0  0  0  0  0  0  0
   67.9627   45.8326   52.2969 C   0  0  0  0  0  0  0  0  0  0  0  0
   67.6947   45.8396   53.6476 C   0  0  0  0  0  0  0  0  0  0  0  0
   68.2108   46.7791   54.5224 C   0  0  0  0  0  0  0  0  0  0  0  0
   69.0335   47.7627   54.0510 C   0  0  0  0  0  0  0  0  0  0  0  0
  8  9  2  0
  9  1  1  0
  9 10  1  0
  1  2  2  0
  1  6  1  0
  2  3  1  0
  3 18  1  0
  3  4  2  0
 18 19  1  0
 19 20  2  0
 19 29  1  0
 20 21  1  0
 21 22  1  0
 22 23  2  0
 22 24  1  0
 24 25  1  0
 24 29  2  0
 25 26  2  0
 26 27  1  0
 27 28  2  0
 28 29  1  0
  4  5  1  0
  5  6  2  0
  6  7  1  0
 10 11  1  0
 10 13  1  0
 11 12  1  0
 12 14  1  0
 12 13  1  0
 14 15  1  0
 15 16  1  0
 15 17  1  0
 16 17  1  0
M  CHG  1  14   1
M  END
>  <minimizedAffinity>  (635) 
-8.91846

$$$$
cs_full_output_folder/data/smiles/6137.pdb
     RDKit          3D

 27 30  0  0  0  0  0  0  0  0999 V2000
   71.4947   47.0548   58.6699 C   0  0  0  0  0  0  0  0  0  0  0  0
   70.6796   47.8210   57.8328 C   0  0  0  0  0  0  0  0  0  0  0  0
   69.7292   47.2973   56.9999 C   0  0  0  0  0  0  0  0  0  0  0  0
   69.5650   45.9247   56.9875 C   0  0  0  0  0  0  0  0  0  0  0  0
   70.3433   45.1353   57.7927 C   0  0  0  0  0  0  0  0  0  0  0  0
   71.3036   45.6908   58.6305 C   0  0  0  0  0  0  0  0  0  0  0  0
   72.0763   44.9177   59.4294 F   0  0  0  0  0  0  0  0  0  0  0  0
   75.6998   49.3236   56.9647 C   0  0  0  0  0  0  0  0  0  0  0  0
   74.6235   48.7684   57.7918 N   0  0  0  0  0  0  0  0  0  0  0  0
   75.3008   48.0011   58.8501 C   0  0  0  0  0  0  0  0  0  0  0  0
   74.3049   46.9843   59.3802 C   0  0  0  0  0  0  0  0  0  0  0  0
   72.7222   47.7948   59.7393 P   0  0  0  0  0  0  0  0  0  0  0  0
   72.3408   47.6264   61.1951 O   0  0  0  0  0  0  0  0  0  0  0  0
   72.8469   49.5478   59.3292 C   0  0  0  0  0  0  0  0  0  0  0  0
   73.9353   49.8822   58.3730 C   0  0  0  0  0  0  0  0  0  0  0  0
   68.9196   48.1872   56.1349 C   0  0  0  0  0  0  0  0  0  0  0  0
   69.3230   48.2781   54.7517 C   0  0  0  0  0  0  0  0  0  0  0  0
   70.2261   49.2222   54.3915 N   0  0  0  0  0  0  0  0  0  0  0  0
   70.6068   49.3830   53.1250 N   0  0  0  0  0  0  0  0  0  0  0  0
   70.1227   48.6220   52.1231 C   0  0  0  0  0  0  0  0  0  0  0  0
   70.5077   48.8027   50.9184 O   0  0  0  0  0  0  0  0  0  0  0  0
   69.2069   47.6515   52.4258 C   0  0  0  0  0  0  0  0  0  0  0  0
   68.7123   46.8611   51.4203 C   0  0  0  0  0  0  0  0  0  0  0  0
   67.7855   45.8493   51.6983 C   0  0  0  0  0  0  0  0  0  0  0  0
   67.4014   45.6901   53.0031 C   0  0  0  0  0  0  0  0  0  0  0  0
   67.8997   46.4857   54.0086 C   0  0  0  0  0  0  0  0  0  0  0  0
   68.8181   47.4953   53.7588 C   0  0  0  0  0  0  0  0  0  0  0  0
  8  9  1  0
  9 10  1  0
  9 15  1  0
 10 11  1  0
 11 12  1  0
 12 13  2  0
 12  1  1  0
 12 14  1  0
  1  2  2  0
  1  6  1  0
  2  3  1  0
  3 16  1  0
  3  4  2  0
 16 17  1  0
 17 18  2  0
 17 27  1  0
 18 19  1  0
 19 20  1  0
 20 21  2  0
 20 22  1  0
 22 23  1  0
 22 27  2  0
 23 24  2  0
 24 25  1  0
 25 26  2  0
 26 27  1  0
  4  5  1  0
  5  6  2  0
  6  7  1  0
 14 15  1  0
M  CHG  1   9   1
M  END
>  <minimizedAffinity>  (636) 
-8.91825

$$$$
cs_full_output_folder/data/smiles/3220.pdb
     RDKit          3D

 29 32  0  0  0  0  0  0  0  0999 V2000
   71.7952   46.4005   59.5813 C   0  0  0  0  0  0  0  0  0  0  0  0
   70.9122   46.1804   58.5468 C   0  0  0  0  0  0  0  0  0  0  0  0
   70.3079   47.2037   57.8420 C   0  0  0  0  0  0  0  0  0  0  0  0
   70.6095   48.4999   58.1984 C   0  0  0  0  0  0  0  0  0  0  0  0
   71.4897   48.7785   59.2282 C   0  0  0  0  0  0  0  0  0  0  0  0
   72.0842   47.7213   59.9233 C   0  0  0  0  0  0  0  0  0  0  0  0
   72.9534   47.9535   60.9410 F   0  0  0  0  0  0  0  0  0  0  0  0
   71.9634   44.9398   61.4303 O   0  0  0  0  0  0  0  0  0  0  0  0
   72.4210   45.3097   60.3067 C   0  0  0  0  0  0  0  0  0  0  0  0
   73.5471   44.6610   59.7474 N   0  0  0  0  0  0  0  0  0  0  0  0
   74.1435   43.5862   60.4884 C   0  0  0  0  0  0  0  0  0  0  0  0
   75.5912   43.6986   60.7411 C   0  0  0  0  0  0  0  0  0  0  0  0
   76.4223   44.3593   59.7639 C   0  0  0  0  0  0  0  0  0  0  0  0
   76.2951   45.3257   58.9382 N   0  0  0  0  0  0  0  0  0  0  0  0
   75.1243   46.0987   58.7593 C   0  0  0  0  0  0  0  0  0  0  0  0
   73.9725   45.1608   58.4756 C   0  0  0  0  0  0  0  0  0  0  0  0
   69.3512   46.8833   56.7224 C   0  0  0  0  0  0  0  0  0  0  0  0
   68.8540   48.1419   56.0718 C   0  0  0  0  0  0  0  0  0  0  0  0
   69.3296   48.3186   54.6706 C   0  0  0  0  0  0  0  0  0  0  0  0
   70.2290   49.2566   54.3472 N   0  0  0  0  0  0  0  0  0  0  0  0
   70.6213   49.4196   53.1171 N   0  0  0  0  0  0  0  0  0  0  0  0
   70.1699   48.6786   52.0932 C   0  0  0  0  0  0  0  0  0  0  0  0
   70.5259   48.8103   50.9043 O   0  0  0  0  0  0  0  0  0  0  0  0
   69.2300   47.6885   52.3940 C   0  0  0  0  0  0  0  0  0  0  0  0
   68.7225   46.8827   51.3904 C   0  0  0  0  0  0  0  0  0  0  0  0
   67.7995   45.8982   51.6723 C   0  0  0  0  0  0  0  0  0  0  0  0
   67.3893   45.7322   52.9892 C   0  0  0  0  0  0  0  0  0  0  0  0
   67.8632   46.5088   54.0224 C   0  0  0  0  0  0  0  0  0  0  0  0
   68.7974   47.4981   53.7003 C   0  0  0  0  0  0  0  0  0  0  0  0
  8  9  2  0
  9  1  1  0
  9 10  1  0
  1  2  2  0
  1  6  1  0
  2  3  1  0
  3 17  1  0
  3  4  2  0
 17 18  1  0
 18 19  1  0
 19 20  2  0
 19 29  1  0
 20 21  1  0
 21 22  1  0
 22 23  2  0
 22 24  1  0
 24 25  1  0
 24 29  2  0
 25 26  2  0
 26 27  1  0
 27 28  2  0
 28 29  1  0
  4  5  1  0
  5  6  2  0
  6  7  1  0
 10 11  1  0
 10 16  1  0
 11 12  1  0
 12 13  1  0
 13 14  2  0
 14 15  1  0
 15 16  1  0
M  END
>  <minimizedAffinity>  (637) 
-8.91693

$$$$
cs_full_output_folder/data/smiles/154.pdb
     RDKit          3D

 26 29  0  0  0  0  0  0  0  0999 V2000
   70.9478   45.5478   58.2535 C   0  0  0  0  0  0  0  0  0  0  0  0
   70.0070   46.2071   57.4754 C   0  0  0  0  0  0  0  0  0  0  0  0
   70.0026   47.5490   57.2268 C   0  0  0  0  0  0  0  0  0  0  0  0
   71.0402   48.2921   57.8152 C   0  0  0  0  0  0  0  0  0  0  0  0
   71.9964   47.6903   58.5943 C   0  0  0  0  0  0  0  0  0  0  0  0
   71.9414   46.3120   58.8080 C   0  0  0  0  0  0  0  0  0  0  0  0
   72.9271   45.7944   59.5748 F   0  0  0  0  0  0  0  0  0  0  0  0
   73.0091   43.4110   57.4540 C   0  0  0  0  0  0  0  0  0  0  0  0
   71.5263   43.1488   57.6133 C   0  0  1  0  0  0  0  0  0  0  0  0
   71.4092   41.8356   58.3592 C   0  0  0  0  0  0  0  0  0  0  0  0
   70.9806   42.2125   59.7685 C   0  0  0  0  0  0  0  0  0  0  0  0
   70.1623   43.4396   59.4438 C   0  0  0  0  0  0  0  0  0  0  0  0
   69.0707   43.7305   59.9945 O   0  0  0  0  0  0  0  0  0  0  0  0
   70.8694   44.1384   58.4342 N   0  0  0  0  0  0  0  0  0  0  0  0
   69.0176   48.2735   56.3872 C   0  0  0  0  0  0  0  0  0  0  0  0
   69.4082   48.3550   54.9560 C   0  0  0  0  0  0  0  0  0  0  0  0
   70.3513   49.2777   54.5722 N   0  0  0  0  0  0  0  0  0  0  0  0
   70.7515   49.3482   53.3378 N   0  0  0  0  0  0  0  0  0  0  0  0
   70.3010   48.5569   52.3511 C   0  0  0  0  0  0  0  0  0  0  0  0
   70.7213   48.6668   51.1819 O   0  0  0  0  0  0  0  0  0  0  0  0
   69.3531   47.6138   52.6780 C   0  0  0  0  0  0  0  0  0  0  0  0
   68.8395   46.7806   51.7143 C   0  0  0  0  0  0  0  0  0  0  0  0
   67.8828   45.8605   52.0732 C   0  0  0  0  0  0  0  0  0  0  0  0
   67.4279   45.7520   53.3680 C   0  0  0  0  0  0  0  0  0  0  0  0
   67.9465   46.5916   54.3385 C   0  0  0  0  0  0  0  0  0  0  0  0
   68.9048   47.5193   54.0056 C   0  0  0  0  0  0  0  0  0  0  0  0
  9  8  1  1
  9 10  1  0
  9 14  1  0
 10 11  1  0
 11 12  1  0
 12 13  2  0
 12 14  1  0
 14  1  1  0
  1  2  2  0
  1  6  1  0
  2  3  1  0
  3 15  1  0
  3  4  2  0
 15 16  1  0
 16 17  2  0
 16 26  1  0
 17 18  1  0
 18 19  1  0
 19 20  2  0
 19 21  1  0
 21 22  1  0
 21 26  2  0
 22 23  2  0
 23 24  1  0
 24 25  2  0
 25 26  1  0
  4  5  1  0
  5  6  2  0
  6  7  1  0
M  END
>  <minimizedAffinity>  (638) 
-8.91674

$$$$
cs_full_output_folder/data/smiles/9056.pdb
     RDKit          3D

 24 25  0  0  0  0  0  0  0  0999 V2000
   70.0289   49.2431   52.5683 S   0  0  0  0  0  0  0  0  0  0  0  0
   71.4624   49.2501   53.0248 O   0  0  0  0  0  0  0  0  0  0  0  0
   70.0711   49.1092   51.0621 O   0  0  0  0  0  0  0  0  0  0  0  0
   69.2704   47.8283   53.2185 C   0  0  0  0  0  0  0  0  0  0  0  0
   69.3311   47.5910   54.5750 C   0  0  0  0  0  0  0  0  0  0  0  0
   69.9892   48.4779   55.3741 F   0  0  0  0  0  0  0  0  0  0  0  0
   68.7300   46.4617   55.1210 C   0  0  0  0  0  0  0  0  0  0  0  0
   68.8140   46.2646   56.4704 F   0  0  0  0  0  0  0  0  0  0  0  0
   68.0660   45.5590   54.3431 C   0  0  0  0  0  0  0  0  0  0  0  0
   67.4767   44.4490   54.8941 F   0  0  0  0  0  0  0  0  0  0  0  0
   67.9978   45.7846   52.9845 C   0  0  0  0  0  0  0  0  0  0  0  0
   67.3462   44.9080   52.1862 F   0  0  0  0  0  0  0  0  0  0  0  0
   68.5988   46.9134   52.4356 C   0  0  0  0  0  0  0  0  0  0  0  0
   68.5393   47.1495   51.1049 F   0  0  0  0  0  0  0  0  0  0  0  0
   69.2180   50.6937   52.9492 N   0  0  0  0  0  0  0  0  0  0  0  0
   68.6034   51.8920   56.4274 C   0  0  0  0  0  0  0  0  0  0  0  0
   69.7130   52.6951   56.6066 C   0  0  0  0  0  0  0  0  0  0  0  0
   70.6566   52.8508   55.6097 C   0  0  0  0  0  0  0  0  0  0  0  0
   70.4908   52.1919   54.4104 C   0  0  0  0  0  0  0  0  0  0  0  0
   69.3945   51.3832   54.1999 C   0  0  0  0  0  0  0  0  0  0  0  0
   68.4720   51.2501   55.2149 C   0  0  0  0  0  0  0  0  0  0  0  0
   67.6280   51.7440   57.4761 N   0  0  0  0  0  0  0  0  0  0  0  0
   67.0815   49.4118   57.9527 C   0  0  0  0  0  0  0  0  0  0  0  0
   66.5853   50.7615   57.4320 C   0  0  0  0  0  0  0  0  0  0  0  0
 23 24  1  0
 24 22  1  0
 22 16  1  0
 16 17  2  0
 16 21  1  0
 17 18  1  0
 18 19  2  0
 19 20  1  0
 20 15  1  0
 20 21  2  0
 15  1  1  0
  1  2  2  0
  1  3  2  0
  1  4  1  0
  4  5  2  0
  4 13  1  0
  5  6  1  0
  5  7  1  0
  7  8  1  0
  7  9  2  0
  9 10  1  0
  9 11  1  0
 11 12  1  0
 11 13  2  0
 13 14  1  0
M  END
>  <minimizedAffinity>  (639) 
-8.91518

$$$$
cs_full_output_folder/data/smiles/9066.pdb
     RDKit          3D

 27 30  0  0  0  0  0  0  0  0999 V2000
   72.1286   47.4729   58.5117 C   0  0  0  0  0  0  0  0  0  0  0  0
   71.2275   48.1811   57.7603 C   0  0  0  0  0  0  0  0  0  0  0  0
   70.0995   47.6001   57.1567 C   0  0  0  0  0  0  0  0  0  0  0  0
   69.8822   46.2615   57.3221 C   0  0  0  0  0  0  0  0  0  0  0  0
   70.7918   45.5186   58.0857 C   0  0  0  0  0  0  0  0  0  0  0  0
   71.8893   46.1214   58.6649 C   0  0  0  0  0  0  0  0  0  0  0  0
   72.7869   45.4071   59.4151 F   0  0  0  0  0  0  0  0  0  0  0  0
   74.4707   48.0565   57.1091 N   0  0  0  0  0  0  0  0  0  0  0  0
   74.4494   48.3663   58.3527 C   0  0  0  0  0  0  0  0  0  0  0  0
   75.5360   48.9782   59.0336 N   0  0  0  0  0  0  0  0  0  0  0  0
   75.3537   49.8450   60.1617 C   0  0  0  0  0  0  0  0  0  0  0  0
   74.2123   49.4835   61.0534 C   0  0  0  0  0  0  0  0  0  0  0  0
   73.3062   48.4489   60.4907 C   0  0  0  0  0  0  0  0  0  0  0  0
   72.5200   47.8602   61.2843 O   0  0  0  0  0  0  0  0  0  0  0  0
   73.2735   48.0866   59.1172 N   0  0  0  0  0  0  0  0  0  0  0  0
   69.1680   48.4905   56.3768 C   0  0  0  0  0  0  0  0  0  0  0  0
   69.4255   48.5062   54.9477 C   0  0  0  0  0  0  0  0  0  0  0  0
   70.2979   49.4493   54.4732 N   0  0  0  0  0  0  0  0  0  0  0  0
   70.6399   49.5420   53.2103 N   0  0  0  0  0  0  0  0  0  0  0  0
   70.1547   48.7088   52.2753 C   0  0  0  0  0  0  0  0  0  0  0  0
   70.5020   48.8175   51.0511 O   0  0  0  0  0  0  0  0  0  0  0  0
   69.2643   47.7194   52.6493 C   0  0  0  0  0  0  0  0  0  0  0  0
   68.7399   46.8552   51.7175 C   0  0  0  0  0  0  0  0  0  0  0  0
   67.8500   45.8956   52.1362 C   0  0  0  0  0  0  0  0  0  0  0  0
   67.4952   45.8129   53.4889 C   0  0  0  0  0  0  0  0  0  0  0  0
   68.0436   46.6980   54.3955 C   0  0  0  0  0  0  0  0  0  0  0  0
   68.9237   47.6512   53.9992 C   0  0  0  0  0  0  0  0  0  0  0  0
  8  9  2  0
  9 10  1  0
  9 15  1  0
 10 11  1  0
 11 12  1  0
 12 13  1  0
 13 14  2  0
 13 15  1  0
 15  1  1  0
  1  2  2  0
  1  6  1  0
  2  3  1  0
  3 16  1  0
  3  4  2  0
 16 17  1  0
 17 18  2  0
 17 27  1  0
 18 19  1  0
 19 20  1  0
 20 21  2  0
 20 22  1  0
 22 23  1  0
 22 27  2  0
 23 24  2  0
 24 25  1  0
 25 26  2  0
 26 27  1  0
  4  5  1  0
  5  6  2  0
  6  7  1  0
M  CHG  1   8   1
M  END
>  <minimizedAffinity>  (640) 
-8.91246

$$$$
cs_full_output_folder/data/smiles/9269.pdb
     RDKit          3D

 25 26  0  0  0  0  0  0  0  0999 V2000
   70.0004   49.2747   52.6134 S   0  0  0  0  0  0  0  0  0  0  0  0
   71.4450   49.2930   53.0250 O   0  0  0  0  0  0  0  0  0  0  0  0
   69.9722   49.2230   51.0995 O   0  0  0  0  0  0  0  0  0  0  0  0
   69.2173   47.8106   53.1817 C   0  0  0  0  0  0  0  0  0  0  0  0
   68.5784   46.9096   52.3906 C   0  0  0  0  0  0  0  0  0  0  0  0
   68.5174   47.1484   51.0555 F   0  0  0  0  0  0  0  0  0  0  0  0
   67.9972   45.7773   52.9422 C   0  0  0  0  0  0  0  0  0  0  0  0
   67.3728   44.9111   52.1072 F   0  0  0  0  0  0  0  0  0  0  0  0
   68.0456   45.5242   54.3046 C   0  0  0  0  0  0  0  0  0  0  0  0
   67.4646   44.4019   54.8174 F   0  0  0  0  0  0  0  0  0  0  0  0
   68.6887   46.4284   55.1151 C   0  0  0  0  0  0  0  0  0  0  0  0
   68.7376   46.1844   56.4419 F   0  0  0  0  0  0  0  0  0  0  0  0
   69.2601   47.5471   54.5504 C   0  0  0  0  0  0  0  0  0  0  0  0
   69.8888   48.4191   55.3900 F   0  0  0  0  0  0  0  0  0  0  0  0
   69.1224   50.6138   53.2098 N   0  0  0  0  0  0  0  0  0  0  0  0
   71.7128   52.5703   55.0058 C   0  0  0  0  0  0  0  0  0  0  0  0
   71.0678   51.7022   54.1181 C   0  0  0  0  0  0  0  0  0  0  0  0
   69.7039   51.4946   54.1411 C   0  0  0  0  0  0  0  0  0  0  0  0
   68.9723   52.1846   55.0890 C   0  0  0  0  0  0  0  0  0  0  0  0
   69.6176   53.0498   55.9736 C   0  0  0  0  0  0  0  0  0  0  0  0
   70.9719   53.2422   55.9340 C   0  0  0  0  0  0  0  0  0  0  0  0
   73.6351   53.1575   53.8161 C   0  0  0  0  0  0  0  0  0  0  0  0
   73.1187   52.7156   54.9014 N   0  0  0  0  0  0  0  0  0  0  0  0
   71.5695   54.1019   56.8214 O   0  0  0  0  0  0  0  0  0  0  0  0
   72.3089   53.6687   57.9498 C   0  0  0  0  0  0  0  0  0  0  0  0
 22 23  2  0
 23 16  1  0
 16 17  2  0
 16 21  1  0
 17 18  1  0
 18 15  1  0
 18 19  2  0
 15  1  1  0
  1  2  2  0
  1  3  2  0
  1  4  1  0
  4  5  2  0
  4 13  1  0
  5  6  1  0
  5  7  1  0
  7  8  1  0
  7  9  2  0
  9 10  1  0
  9 11  1  0
 11 12  1  0
 11 13  2  0
 13 14  1  0
 19 20  1  0
 20 21  2  0
 21 24  1  0
 24 25  1  0
M  END
>  <minimizedAffinity>  (641) 
-8.91064

$$$$
cs_full_output_folder/data/smiles/1052.pdb
     RDKit          3D

 26 28  0  0  0  0  0  0  0  0999 V2000
   68.7213   42.9810   57.1186 N   0  0  0  0  0  0  0  0  0  0  0  0
   68.0079   41.7273   56.9037 C   0  0  0  0  0  0  0  0  0  0  0  0
   67.2434   41.7835   55.9166 O   0  0  0  0  0  0  0  0  0  0  0  0
   69.0853   45.3650   56.5561 C   0  0  0  0  0  0  0  0  0  0  0  0
   69.7755   45.4249   57.6403 O   0  0  0  0  0  0  0  0  0  0  0  0
   68.5472   44.0920   56.3019 N   0  0  0  0  0  0  0  0  0  0  0  0
   68.8465   47.2756   54.5712 C   0  0  0  0  0  0  0  0  0  0  0  0
   68.9355   46.5478   55.7446 C   0  0  0  0  0  0  0  0  0  0  0  0
   68.7430   48.0409   55.8166 C   0  0  0  0  0  0  0  0  0  0  0  0
   67.5477   45.3844   52.5472 C   0  0  0  0  0  0  0  0  0  0  0  0
   68.2987   46.6085   52.2463 C   0  0  0  0  0  0  0  0  0  0  0  0
   68.4298   46.9371   50.9164 F   0  0  0  0  0  0  0  0  0  0  0  0
   68.8379   47.3902   53.1265 C   0  0  0  0  0  0  0  0  0  0  0  0
   68.2082   40.5869   57.7693 C   0  0  0  0  0  0  0  0  0  0  0  0
   69.5304   40.5200   58.4270 C   0  0  0  0  0  0  0  0  0  0  0  0
   69.9699   39.1501   58.7756 C   0  0  0  0  0  0  0  0  0  0  0  0
   70.9772   38.5775   58.0523 N   0  0  0  0  0  0  0  0  0  0  0  0
   71.4320   37.3397   58.2347 C   0  0  0  0  0  0  0  0  0  0  0  0
   72.4560   36.7900   57.4845 C   0  0  0  0  0  0  0  0  0  0  0  0
   72.9026   35.5029   57.7014 C   0  0  0  0  0  0  0  0  0  0  0  0
   72.3380   34.7153   58.6825 C   0  0  0  0  0  0  0  0  0  0  0  0
   71.3192   35.2719   59.4243 C   0  0  0  0  0  0  0  0  0  0  0  0
   70.8678   36.5612   59.2117 C   0  0  0  0  0  0  0  0  0  0  0  0
   69.8483   37.1018   59.9618 C   0  0  0  0  0  0  0  0  0  0  0  0
   69.3320   36.3915   60.8524 O   0  0  0  0  0  0  0  0  0  0  0  0
   69.4280   38.3746   59.7250 N   0  0  0  0  0  0  0  0  0  0  0  0
 10 11  1  0
 11 12  1  0
 11 13  2  0
 13  7  1  0
  7  8  2  0
  7  9  1  0
  8  4  1  0
  8  9  1  0
  4  5  2  0
  4  6  1  0
  6  1  1  0
  1  2  1  0
  2  3  2  0
  2 14  1  0
 14 15  1  0
 15 16  1  0
 16 17  2  0
 16 26  1  0
 17 18  1  0
 18 19  2  0
 18 23  1  0
 19 20  1  0
 20 21  2  0
 21 22  1  0
 22 23  2  0
 23 24  1  0
 24 25  2  0
 24 26  1  0
M  END
>  <minimizedAffinity>  (642) 
-8.90841

$$$$
cs_full_output_folder/data/smiles/2099.pdb
     RDKit          3D

 25 27  0  0  0  0  0  0  0  0999 V2000
   69.6501   44.0753   57.6285 C   0  0  0  0  0  0  0  0  0  0  0  0
   69.8546   44.8986   58.5350 O   0  0  0  0  0  0  0  0  0  0  0  0
   69.1184   44.5346   56.3956 N   0  0  0  0  0  0  0  0  0  0  0  0
   72.3239   43.2253   57.6672 C   0  0  0  0  0  0  0  0  0  0  0  0
   71.2650   42.2094   57.8889 C   0  0  0  0  0  0  0  0  0  0  0  0
   71.5857   40.8987   58.1013 N   0  0  0  0  0  0  0  0  0  0  0  0
   70.6363   39.9819   58.3012 C   0  0  0  0  0  0  0  0  0  0  0  0
   69.3282   40.4047   58.2869 C   0  0  0  0  0  0  0  0  0  0  0  0
   68.9737   41.7222   58.0748 C   0  0  0  0  0  0  0  0  0  0  0  0
   69.9647   42.6657   57.8676 C   0  0  0  0  0  0  0  0  0  0  0  0
   70.9715   38.5693   58.5236 C   0  0  0  0  0  0  0  0  0  0  0  0
   71.8768   37.7656   57.9686 C   0  0  0  0  0  0  0  0  0  0  0  0
   71.9855   36.4900   58.3436 C   0  0  0  0  0  0  0  0  0  0  0  0
   71.1072   36.0709   59.3318 C   0  0  0  0  0  0  0  0  0  0  0  0
   70.1642   37.4974   59.6896 S   0  0  0  0  0  0  0  0  0  0  0  0
   68.7892   45.8911   56.0971 C   0  0  0  0  0  0  0  0  0  0  0  0
   68.6664   46.2233   54.6763 C   0  0  0  0  0  0  0  0  0  0  0  0
   67.8470   45.4958   53.8600 C   0  0  0  0  0  0  0  0  0  0  0  0
   67.7236   45.7972   52.5175 C   0  0  0  0  0  0  0  0  0  0  0  0
   68.4477   46.8563   52.0080 C   0  0  0  0  0  0  0  0  0  0  0  0
   69.2835   47.6049   52.8261 C   0  0  0  0  0  0  0  0  0  0  0  0
   69.3974   47.2889   54.1733 C   0  0  0  0  0  0  0  0  0  0  0  0
   70.0240   48.7018   52.2552 C   0  0  0  0  0  0  0  0  0  0  0  0
   71.1776   49.2056   52.8960 N   0  0  0  0  0  0  0  0  0  0  0  0
   69.6068   49.2042   51.1590 O   0  0  0  0  0  0  0  0  0  0  0  0
  4  5  1  0
  5  6  2  0
  5 10  1  0
  6  7  1  0
  7 11  1  0
  7  8  2  0
 11 12  2  0
 11 15  1  0
 12 13  1  0
 13 14  2  0
 14 15  1  0
  8  9  1  0
  9 10  2  0
 10  1  1  0
  1  2  2  0
  1  3  1  0
  3 16  1  0
 16 17  1  0
 17 18  2  0
 17 22  1  0
 18 19  1  0
 19 20  2  0
 20 21  1  0
 21 23  1  0
 21 22  2  0
 23 24  1  0
 23 25  2  0
M  END
>  <minimizedAffinity>  (643) 
-8.90411

$$$$
cs_full_output_folder/data/smiles/1257.pdb
     RDKit          3D

 27 30  0  0  0  0  0  0  0  0999 V2000
   71.1939   49.1730   57.1319 C   0  0  0  0  0  0  0  0  0  0  0  0
   72.5247   49.4323   57.0123 C   0  0  0  0  0  0  0  0  0  0  0  0
   73.4812   48.7891   57.8040 C   0  0  0  0  0  0  0  0  0  0  0  0
   73.0690   47.8709   58.7284 C   0  0  0  0  0  0  0  0  0  0  0  0
   71.7048   47.5668   58.8920 C   0  0  0  0  0  0  0  0  0  0  0  0
   70.8095   48.2257   58.0912 C   0  0  0  0  0  0  0  0  0  0  0  0
   70.1256   49.8053   56.3218 C   0  0  0  0  0  0  0  0  0  0  0  0
   70.1998   47.6189   51.1300 N   0  0  0  0  0  0  0  0  0  0  0  0
   70.1761   48.1532   52.4535 C   0  0  0  0  0  0  0  0  0  0  0  0
   71.0503   49.1022   52.8082 N   0  0  0  0  0  0  0  0  0  0  0  0
   71.0115   49.5804   54.0277 N   0  0  0  0  0  0  0  0  0  0  0  0
   70.1252   49.1756   54.9875 C   0  0  0  0  0  0  0  0  0  0  0  0
   69.2419   48.2150   54.6296 C   0  0  0  0  0  0  0  0  0  0  0  0
   69.2405   47.6717   53.3385 C   0  0  0  0  0  0  0  0  0  0  0  0
   68.2358   46.6447   53.0056 C   0  0  0  0  0  0  0  0  0  0  0  0
   68.0999   45.6177   54.0697 C   0  0  0  0  0  0  0  0  0  0  0  0
   68.4328   46.1161   55.4471 C   0  0  0  0  0  0  0  0  0  0  0  0
   68.2574   47.6486   55.5690 C   0  0  0  0  0  0  0  0  0  0  0  0
   71.4094   46.5868   59.8558 N   0  0  0  0  0  0  0  0  0  0  0  0
   71.1425   44.9355   59.6388 S   0  0  0  0  0  0  0  0  0  0  0  0
   71.1503   44.2431   61.0110 O   0  0  0  0  0  0  0  0  0  0  0  0
   69.7290   44.6629   59.1280 O   0  0  0  0  0  0  0  0  0  0  0  0
   72.3107   44.1379   58.6377 C   0  0  0  0  0  0  0  0  0  0  0  0
   72.1407   42.8343   58.1347 C   0  0  0  0  0  0  0  0  0  0  0  0
   73.2488   42.5278   57.3906 C   0  0  0  0  0  0  0  0  0  0  0  0
   74.0678   43.6402   57.4512 C   0  0  0  0  0  0  0  0  0  0  0  0
   73.4683   44.5397   58.1890 O   0  0  0  0  0  0  0  0  0  0  0  0
  8  9  1  0
  9 10  2  0
  9 14  1  0
 10 11  1  0
 11 12  2  0
 12  7  1  0
 12 13  1  0
  7  1  1  0
  1  2  2  0
  1  6  1  0
  2  3  1  0
  3  4  2  0
  4  5  1  0
  5 19  1  0
  5  6  2  0
 19 20  1  0
 20 21  2  0
 20 22  2  0
 20 23  1  0
 23 24  2  0
 23 27  1  0
 24 25  1  0
 25 26  2  0
 26 27  1  0
 13 14  2  0
 13 18  1  0
 14 15  1  0
 15 16  1  0
 16 17  1  0
 17 18  1  0
M  END
>  <minimizedAffinity>  (644) 
-8.90382

$$$$
cs_full_output_folder/data/smiles/8105.pdb
     RDKit          3D

 25 26  0  0  0  0  0  0  0  0999 V2000
   69.1310   47.5642   56.5560 S   0  0  0  0  0  0  0  0  0  0  0  0
   69.5041   49.0015   56.8525 O   0  0  0  0  0  0  0  0  0  0  0  0
   67.7536   47.3349   57.1641 O   0  0  0  0  0  0  0  0  0  0  0  0
   69.0062   47.3644   54.8334 C   0  0  0  0  0  0  0  0  0  0  0  0
   68.2357   46.3315   54.3153 C   0  0  0  0  0  0  0  0  0  0  0  0
   67.6306   45.5003   55.2169 F   0  0  0  0  0  0  0  0  0  0  0  0
   68.0858   46.1475   52.9543 C   0  0  0  0  0  0  0  0  0  0  0  0
   67.3217   45.1219   52.5008 F   0  0  0  0  0  0  0  0  0  0  0  0
   68.6930   46.9819   52.0394 C   0  0  0  0  0  0  0  0  0  0  0  0
   68.5582   46.8187   50.7008 F   0  0  0  0  0  0  0  0  0  0  0  0
   69.4600   48.0115   52.5460 C   0  0  0  0  0  0  0  0  0  0  0  0
   70.0604   48.8365   51.6350 F   0  0  0  0  0  0  0  0  0  0  0  0
   69.6114   48.1960   53.9057 C   0  0  0  0  0  0  0  0  0  0  0  0
   70.3650   49.2082   54.3856 F   0  0  0  0  0  0  0  0  0  0  0  0
   70.3006   46.5636   57.2970 N   0  0  0  0  0  0  0  0  0  0  0  0
   69.2102   42.9945   57.0465 C   0  0  0  0  0  0  0  0  0  0  0  0
   70.3003   42.3708   57.6070 C   0  0  0  0  0  0  0  0  0  0  0  0
   71.3612   43.1279   58.0579 C   0  0  0  0  0  0  0  0  0  0  0  0
   71.3746   44.4947   57.9690 C   0  0  0  0  0  0  0  0  0  0  0  0
   70.2699   45.1569   57.3988 C   0  0  0  0  0  0  0  0  0  0  0  0
   69.2247   44.3858   56.9570 C   0  0  0  0  0  0  0  0  0  0  0  0
   67.0900   42.8640   56.0376 O   0  0  0  0  0  0  0  0  0  0  0  0
   68.0519   42.2719   56.5478 C   0  0  0  0  0  0  0  0  0  0  0  0
   68.0080   40.7748   56.6450 C   0  0  0  0  0  0  0  0  0  0  0  0
   67.6118   40.2089   55.4450 O   0  0  0  0  0  0  0  0  0  0  0  0
 22 23  2  0
 23 24  1  0
 23 16  1  0
 24 25  1  0
 16 17  2  0
 16 21  1  0
 17 18  1  0
 18 19  2  0
 19 20  1  0
 20 15  1  0
 20 21  2  0
 15  1  1  0
  1  2  2  0
  1  3  2  0
  1  4  1  0
  4  5  2  0
  4 13  1  0
  5  6  1  0
  5  7  1  0
  7  8  1  0
  7  9  2  0
  9 10  1  0
  9 11  1  0
 11 12  1  0
 11 13  2  0
 13 14  1  0
M  END
>  <minimizedAffinity>  (645) 
-8.90333

$$$$
cs_full_output_folder/data/smiles/693.pdb
     RDKit          3D

 26 28  0  0  0  0  0  0  0  0999 V2000
   68.3823   46.0040   54.2005 C   0  0  0  0  0  0  0  0  0  0  0  0
   67.8740   45.5097   53.0130 C   0  0  0  0  0  0  0  0  0  0  0  0
   67.9670   46.2275   51.8346 C   0  0  0  0  0  0  0  0  0  0  0  0
   68.5778   47.4592   51.8444 C   0  0  0  0  0  0  0  0  0  0  0  0
   69.0997   47.9997   52.9930 C   0  0  0  0  0  0  0  0  0  0  0  0
   68.9822   47.2414   54.1556 C   0  0  0  0  0  0  0  0  0  0  0  0
   69.7675   49.3099   52.9880 C   0  0  0  0  0  0  0  0  0  0  0  0
   70.2518   49.6992   51.8916 O   0  0  0  0  0  0  0  0  0  0  0  0
   69.8745   50.1129   54.1475 N   0  0  0  0  0  0  0  0  0  0  0  0
   70.5547   51.3832   54.0609 C   0  0  0  0  0  0  0  0  0  0  0  0
   69.9631   52.3990   55.0176 C   0  0  0  0  0  0  0  0  0  0  0  0
   68.5120   52.0459   55.2653 C   0  0  0  0  0  0  0  0  0  0  0  0
   68.5102   50.7570   56.0837 C   0  0  0  0  0  0  0  0  0  0  0  0
   69.3210   49.6783   55.3901 C   0  0  0  0  0  0  0  0  0  0  0  0
   67.8754   43.8633   55.4554 N   0  0  0  0  0  0  0  0  0  0  0  0
   68.2959   45.2112   55.4284 C   0  0  0  0  0  0  0  0  0  0  0  0
   68.6076   45.7366   56.5326 O   0  0  0  0  0  0  0  0  0  0  0  0
   67.4268   41.1642   55.4306 O   0  0  0  0  0  0  0  0  0  0  0  0
   67.5167   41.6545   56.5725 C   0  0  0  0  0  0  0  0  0  0  0  0
   67.7617   43.0766   56.6024 N   0  0  0  0  0  0  0  0  0  0  0  0
   67.3975   40.9079   57.8246 C   0  0  0  0  0  0  0  0  0  0  0  0
   66.6650   41.3909   58.8788 C   0  0  0  0  0  0  0  0  0  0  0  0
   66.5542   40.6930   60.1045 C   0  0  0  0  0  0  0  0  0  0  0  0
   67.2062   39.4906   60.2435 C   0  0  0  0  0  0  0  0  0  0  0  0
   67.9425   39.0096   59.1803 C   0  0  0  0  0  0  0  0  0  0  0  0
   68.0386   39.7140   57.9738 C   0  0  0  0  0  0  0  0  0  0  0  0
 18 19  2  0
 19 20  1  0
 19 21  1  0
 20 15  1  0
 15 16  1  0
 16 17  2  0
 16  1  1  0
  1  2  2  0
  1  6  1  0
  2  3  1  0
  3  4  2  0
  4  5  1  0
  5  7  1  0
  5  6  2  0
  7  8  2  0
  7  9  1  0
  9 10  1  0
  9 14  1  0
 10 11  1  0
 11 12  1  0
 12 13  1  0
 13 14  1  0
 21 22  2  0
 21 26  1  0
 22 23  1  0
 23 24  2  0
 24 25  1  0
 25 26  2  0
M  END
>  <minimizedAffinity>  (646) 
-8.90233

$$$$
cs_full_output_folder/data/smiles/4738.pdb
     RDKit          3D

 26 29  0  0  0  0  0  0  0  0999 V2000
   71.4332   46.9717   58.7890 C   0  0  0  0  0  0  0  0  0  0  0  0
   70.6279   47.7534   58.0009 C   0  0  0  0  0  0  0  0  0  0  0  0
   69.7659   47.1668   57.0954 C   0  0  0  0  0  0  0  0  0  0  0  0
   69.7130   45.8143   56.9830 C   0  0  0  0  0  0  0  0  0  0  0  0
   70.5236   45.0207   57.7759 C   0  0  0  0  0  0  0  0  0  0  0  0
   71.3763   45.6087   58.6716 C   0  0  0  0  0  0  0  0  0  0  0  0
   72.1547   44.8052   59.4310 F   0  0  0  0  0  0  0  0  0  0  0  0
   71.9561   47.7567   60.9402 O   0  0  0  0  0  0  0  0  0  0  0  0
   72.3517   47.6134   59.7569 C   0  0  0  0  0  0  0  0  0  0  0  0
   73.6310   48.0569   59.3973 N   0  0  0  0  0  0  0  0  0  0  0  0
   74.5883   48.6868   60.2571 C   0  0  0  0  0  0  0  0  0  0  0  0
   75.9437   48.2335   59.7001 C   0  0  0  0  0  0  0  0  0  0  0  0
   75.6100   47.3733   58.4783 C   0  0  0  0  0  0  0  0  0  0  0  0
   74.2470   47.9711   58.1015 C   0  0  0  0  0  0  0  0  0  0  0  0
   68.8959   48.0598   56.2950 C   0  0  0  0  0  0  0  0  0  0  0  0
   69.3240   48.2350   54.9002 C   0  0  0  0  0  0  0  0  0  0  0  0
   70.2799   49.1642   54.5888 N   0  0  0  0  0  0  0  0  0  0  0  0
   70.7264   49.3293   53.3658 N   0  0  0  0  0  0  0  0  0  0  0  0
   70.2647   48.5881   52.3462 C   0  0  0  0  0  0  0  0  0  0  0  0
   70.6697   48.7166   51.1641 O   0  0  0  0  0  0  0  0  0  0  0  0
   69.2967   47.6315   52.5925 C   0  0  0  0  0  0  0  0  0  0  0  0
   68.7883   46.8559   51.5577 C   0  0  0  0  0  0  0  0  0  0  0  0
   67.8215   45.9129   51.7625 C   0  0  0  0  0  0  0  0  0  0  0  0
   67.3586   45.7479   53.0384 C   0  0  0  0  0  0  0  0  0  0  0  0
   67.8483   46.5074   54.0912 C   0  0  0  0  0  0  0  0  0  0  0  0
   68.8271   47.4618   53.8917 C   0  0  0  0  0  0  0  0  0  0  0  0
  8  9  2  0
  9  1  1  0
  9 10  1  0
  1  2  2  0
  1  6  1  0
  2  3  1  0
  3 15  1  0
  3  4  2  0
 15 16  1  0
 16 17  2  0
 16 26  1  0
 17 18  1  0
 18 19  1  0
 19 20  2  0
 19 21  1  0
 21 22  1  0
 21 26  2  0
 22 23  2  0
 23 24  1  0
 24 25  2  0
 25 26  1  0
  4  5  1  0
  5  6  2  0
  6  7  1  0
 10 11  1  0
 10 14  1  0
 11 12  1  0
 12 13  1  0
 13 14  1  0
M  END
>  <minimizedAffinity>  (647) 
-8.89950

$$$$
cs_full_output_folder/data/smiles/2549.pdb
     RDKit          3D

 28 31  0  0  0  0  0  0  0  0999 V2000
   71.5670   47.2513   58.8422 C   0  0  0  0  0  0  0  0  0  0  0  0
   70.6890   48.0004   58.0514 C   0  0  0  0  0  0  0  0  0  0  0  0
   69.8010   47.4217   57.1929 C   0  0  0  0  0  0  0  0  0  0  0  0
   69.7787   46.0115   57.1076 C   0  0  0  0  0  0  0  0  0  0  0  0
   70.6208   45.2550   57.8626 C   0  0  0  0  0  0  0  0  0  0  0  0
   71.5088   45.8911   58.7248 C   0  0  0  0  0  0  0  0  0  0  0  0
   72.3347   45.0733   59.4611 F   0  0  0  0  0  0  0  0  0  0  0  0
   72.1391   47.9462   60.9696 O   0  0  0  0  0  0  0  0  0  0  0  0
   72.4942   47.9064   59.7421 C   0  0  0  0  0  0  0  0  0  0  0  0
   73.7234   48.4810   59.3434 N   0  0  0  0  0  0  0  0  0  0  0  0
   74.5713   49.1140   60.3240 C   0  0  0  0  0  0  0  0  0  0  0  0
   75.8376   48.2969   60.4523 C   0  0  0  0  0  0  0  0  0  0  0  0
   76.2659   47.7369   59.1156 C   0  0  0  0  0  0  0  0  0  0  0  0
   75.6935   48.5897   57.9945 C   0  0  2  0  0  0  0  0  0  0  0  0
   76.1360   49.8942   58.1478 F   0  0  0  0  0  0  0  0  0  0  0  0
   74.1877   48.4791   57.9792 C   0  0  0  0  0  0  0  0  0  0  0  0
   68.8329   48.1763   56.3248 C   0  0  0  0  0  0  0  0  0  0  0  0
   69.2662   48.3019   54.9286 C   0  0  0  0  0  0  0  0  0  0  0  0
   70.2217   49.2249   54.6046 N   0  0  0  0  0  0  0  0  0  0  0  0
   70.7175   49.3660   53.3923 N   0  0  0  0  0  0  0  0  0  0  0  0
   70.2839   48.5823   52.4071 C   0  0  0  0  0  0  0  0  0  0  0  0
   70.7530   48.7080   51.2415 O   0  0  0  0  0  0  0  0  0  0  0  0
   69.3222   47.6279   52.6508 C   0  0  0  0  0  0  0  0  0  0  0  0
   68.8591   46.8301   51.6300 C   0  0  0  0  0  0  0  0  0  0  0  0
   67.8829   45.8833   51.8493 C   0  0  0  0  0  0  0  0  0  0  0  0
   67.3634   45.7414   53.1259 C   0  0  0  0  0  0  0  0  0  0  0  0
   67.8373   46.5456   54.1328 C   0  0  0  0  0  0  0  0  0  0  0  0
   68.8017   47.4792   53.9191 C   0  0  0  0  0  0  0  0  0  0  0  0
  8  9  2  0
  9  1  1  0
  9 10  1  0
  1  2  2  0
  1  6  1  0
  2  3  1  0
  3 17  1  0
  3  4  2  0
 17 18  1  0
 18 19  2  0
 18 28  1  0
 19 20  1  0
 20 21  1  0
 21 22  2  0
 21 23  1  0
 23 24  1  0
 23 28  2  0
 24 25  2  0
 25 26  1  0
 26 27  2  0
 27 28  1  0
  4  5  1  0
  5  6  2  0
  6  7  1  0
 10 11  1  0
 10 16  1  0
 11 12  1  0
 12 13  1  0
 13 14  1  0
 14 15  1  1
 14 16  1  0
M  END
>  <minimizedAffinity>  (648) 
-8.89900

$$$$
cs_full_output_folder/data/smiles/674.pdb
     RDKit          3D

 24 25  0  0  0  0  0  0  0  0999 V2000
   70.3258   49.1190   52.4170 S   0  0  0  0  0  0  0  0  0  0  0  0
   70.4540   48.8221   50.9582 O   0  0  0  0  0  0  0  0  0  0  0  0
   71.7213   49.1521   53.0137 O   0  0  0  0  0  0  0  0  0  0  0  0
   69.3635   47.8830   53.1794 C   0  0  0  0  0  0  0  0  0  0  0  0
   68.6502   46.9514   52.4601 C   0  0  0  0  0  0  0  0  0  0  0  0
   68.6785   46.9742   51.1127 F   0  0  0  0  0  0  0  0  0  0  0  0
   67.8868   45.9713   53.1001 C   0  0  0  0  0  0  0  0  0  0  0  0
   67.1953   45.0677   52.3681 F   0  0  0  0  0  0  0  0  0  0  0  0
   67.8531   45.9432   54.4763 C   0  0  0  0  0  0  0  0  0  0  0  0
   68.5596   46.8652   55.1937 C   0  0  0  0  0  0  0  0  0  0  0  0
   68.5236   46.8343   56.5512 F   0  0  0  0  0  0  0  0  0  0  0  0
   69.3200   47.8431   54.5542 C   0  0  0  0  0  0  0  0  0  0  0  0
   70.0152   48.7506   55.2707 F   0  0  0  0  0  0  0  0  0  0  0  0
   69.6012   50.6587   52.6336 N   0  0  0  0  0  0  0  0  0  0  0  0
   70.8803   52.7002   55.4774 C   0  0  0  0  0  0  0  0  0  0  0  0
   69.7214   52.8398   56.2288 C   0  0  0  0  0  0  0  0  0  0  0  0
   68.5437   52.2723   55.8016 C   0  0  0  0  0  0  0  0  0  0  0  0
   68.5145   51.5512   54.6083 C   0  0  0  0  0  0  0  0  0  0  0  0
   69.6477   51.3931   53.8400 C   0  0  0  0  0  0  0  0  0  0  0  0
   70.8192   51.9819   54.3029 C   0  0  0  0  0  0  0  0  0  0  0  0
   73.5881   52.2628   56.0439 N   0  0  0  0  0  0  0  0  0  0  0  0
   72.3501   53.4390   56.0604 S   0  0  0  0  0  0  0  0  0  0  0  0
   72.7045   54.6509   55.2392 O   0  0  0  0  0  0  0  0  0  0  0  0
   72.1471   53.9006   57.4791 O   0  0  0  0  0  0  0  0  0  0  0  0
 21 22  1  0
 22 23  2  0
 22 24  2  0
 22 15  1  0
 15 16  2  0
 15 20  1  0
 16 17  1  0
 17 18  2  0
 18 19  1  0
 19 14  1  0
 19 20  2  0
 14  1  1  0
  1  2  2  0
  1  3  2  0
  1  4  1  0
  4  5  2  0
  4 12  1  0
  5  6  1  0
  5  7  1  0
  7  8  1  0
  7  9  2  0
  9 10  1  0
 10 11  1  0
 10 12  2  0
 12 13  1  0
M  END
>  <minimizedAffinity>  (649) 
-8.89853

$$$$
cs_full_output_folder/data/smiles/2856.pdb
     RDKit          3D

 28 31  0  0  0  0  0  0  0  0999 V2000
   70.6990   45.0963   57.9094 C   0  0  0  0  0  0  0  0  0  0  0  0
   71.5631   45.8951   58.6837 C   0  0  0  0  0  0  0  0  0  0  0  0
   71.4666   47.2633   58.7466 C   0  0  0  0  0  0  0  0  0  0  0  0
   70.4701   47.9101   58.0158 C   0  0  0  0  0  0  0  0  0  0  0  0
   69.6034   47.1941   57.2501 C   0  0  0  0  0  0  0  0  0  0  0  0
   69.7534   45.7943   57.2260 C   0  0  0  0  0  0  0  0  0  0  0  0
   69.0387   43.0806   59.0258 O   0  0  0  0  0  0  0  0  0  0  0  0
   70.1061   42.6967   58.4812 C   0  0  0  0  0  0  0  0  0  0  0  0
   70.9063   43.7187   57.9375 N   0  0  0  0  0  0  0  0  0  0  0  0
   70.4416   41.2778   58.4451 C   0  0  0  0  0  0  0  0  0  0  0  0
   69.4073   40.3738   58.3878 C   0  0  0  0  0  0  0  0  0  0  0  0
   69.6125   39.0031   58.3510 C   0  0  0  0  0  0  0  0  0  0  0  0
   70.9206   38.5591   58.3740 C   0  0  0  0  0  0  0  0  0  0  0  0
   71.1894   37.3151   58.3428 O   0  0  0  0  0  0  0  0  0  0  0  0
   71.9378   39.4358   58.4304 N   0  0  0  0  0  0  0  0  0  0  0  0
   71.7110   40.7900   58.4655 C   0  0  0  0  0  0  0  0  0  0  0  0
   68.5184   47.8156   56.4719 C   0  0  0  0  0  0  0  0  0  0  0  0
   68.9192   48.3161   55.1421 C   0  0  0  0  0  0  0  0  0  0  0  0
   69.3256   49.6005   54.9743 N   0  0  0  0  0  0  0  0  0  0  0  0
   69.7281   50.0955   53.8283 N   0  0  0  0  0  0  0  0  0  0  0  0
   69.7474   49.3017   52.7436 C   0  0  0  0  0  0  0  0  0  0  0  0
   70.1400   49.7831   51.6324 O   0  0  0  0  0  0  0  0  0  0  0  0
   69.3514   47.9888   52.8319 C   0  0  0  0  0  0  0  0  0  0  0  0
   68.9283   47.4880   54.0546 C   0  0  0  0  0  0  0  0  0  0  0  0
   68.4894   46.0757   54.0477 C   0  0  0  0  0  0  0  0  0  0  0  0
   67.4798   45.9443   52.8894 C   0  0  0  0  0  0  0  0  0  0  0  0
   68.0140   46.4131   51.5850 C   0  0  0  0  0  0  0  0  0  0  0  0
   69.3689   47.0729   51.6742 C   0  0  0  0  0  0  0  0  0  0  0  0
  7  8  2  0
  8  9  1  0
  8 10  1  0
  9  1  1  0
  1  2  2  0
  1  6  1  0
  2  3  1  0
  3  4  2  0
  4  5  1  0
  5 17  1  0
  5  6  2  0
 17 18  1  0
 18 19  2  0
 18 24  1  0
 19 20  1  0
 20 21  1  0
 21 22  2  0
 21 23  1  0
 23 24  2  0
 23 28  1  0
 24 25  1  0
 25 26  1  0
 26 27  1  0
 27 28  1  0
 10 11  1  0
 10 16  2  0
 11 12  2  0
 12 13  1  0
 13 14  2  0
 13 15  1  0
 15 16  1  0
M  END
>  <minimizedAffinity>  (650) 
-8.89570

$$$$
cs_full_output_folder/data/smiles/7698.pdb
     RDKit          3D

 25 28  0  0  0  0  0  0  0  0999 V2000
   69.6696   47.7502   57.4716 C   0  0  0  0  0  0  0  0  0  0  0  0
   70.4823   48.6104   58.1498 C   0  0  0  0  0  0  0  0  0  0  0  0
   71.4968   48.1125   58.9721 C   0  0  0  0  0  0  0  0  0  0  0  0
   71.6980   46.7594   59.1168 C   0  0  0  0  0  0  0  0  0  0  0  0
   72.6898   46.2662   59.9195 F   0  0  0  0  0  0  0  0  0  0  0  0
   70.8879   45.8629   58.4404 C   0  0  0  0  0  0  0  0  0  0  0  0
   69.9039   46.3768   57.6430 C   0  0  0  0  0  0  0  0  0  0  0  0
   71.1140   44.4671   58.6047 N   0  0  0  0  0  0  0  0  0  0  0  0
   72.2754   43.7258   58.1624 C   0  0  0  0  0  0  0  0  0  0  0  0
   71.6608   42.4225   57.6982 C   0  0  0  0  0  0  0  0  0  0  0  0
   70.7173   42.1191   58.8647 C   0  0  0  0  0  0  0  0  0  0  0  0
   70.2681   43.5079   59.2275 C   0  0  0  0  0  0  0  0  0  0  0  0
   69.2937   43.7917   59.9674 O   0  0  0  0  0  0  0  0  0  0  0  0
   68.5731   48.1475   56.5604 C   0  0  0  0  0  0  0  0  0  0  0  0
   70.3471   48.8799   51.1188 N   0  0  0  0  0  0  0  0  0  0  0  0
   70.0026   48.7658   52.3618 C   0  0  0  0  0  0  0  0  0  0  0  0
   70.5262   49.8573   53.5570 S   0  0  0  0  0  0  0  0  0  0  0  0
   69.9274   49.4697   55.0742 N   0  0  0  0  0  0  0  0  0  0  0  0
   69.1147   48.3632   55.1793 C   0  0  0  0  0  0  0  0  0  0  0  0
   68.7835   47.5822   54.1286 C   0  0  0  0  0  0  0  0  0  0  0  0
   67.9766   46.4776   54.3670 C   0  0  0  0  0  0  0  0  0  0  0  0
   67.5792   45.5941   53.3882 C   0  0  0  0  0  0  0  0  0  0  0  0
   67.9793   45.7730   52.0909 C   0  0  0  0  0  0  0  0  0  0  0  0
   68.7819   46.8630   51.8385 C   0  0  0  0  0  0  0  0  0  0  0  0
   69.1815   47.7501   52.8183 C   0  0  0  0  0  0  0  0  0  0  0  0
 15 16  2  0
 16 17  1  0
 16 25  1  0
 17 18  1  0
 18 19  2  0
 19 14  1  0
 19 20  1  0
 14  1  1  0
  1  2  2  0
  1  7  1  0
  2  3  1  0
  3  4  2  0
  4  5  1  0
  4  6  1  0
  6  8  1  0
  6  7  2  0
  8  9  1  0
  8 12  1  0
  9 10  1  0
 10 11  1  0
 11 12  1  0
 12 13  2  0
 20 21  1  0
 20 25  2  0
 21 22  2  0
 22 23  1  0
 23 24  2  0
 24 25  1  0
M  END
>  <minimizedAffinity>  (651) 
-8.89453

$$$$
cs_full_output_folder/data/smiles/1616.pdb
     RDKit          3D

 24 26  0  0  0  0  0  0  0  0999 V2000
   67.7904   45.7337   54.9346 N   0  0  0  0  0  0  0  0  0  0  0  0
   69.7741   48.5641   53.5017 C   0  0  0  0  0  0  0  0  0  0  0  0
   69.7208   48.2515   52.1459 C   0  0  0  0  0  0  0  0  0  0  0  0
   69.0355   47.1284   51.7463 C   0  0  0  0  0  0  0  0  0  0  0  0
   68.4065   46.3202   52.6790 C   0  0  0  0  0  0  0  0  0  0  0  0
   68.4441   46.6072   54.0269 C   0  0  0  0  0  0  0  0  0  0  0  0
   69.1278   47.7263   54.4186 C   0  0  0  0  0  0  0  0  0  0  0  0
   70.6389   49.9816   54.0641 S   0  0  2  0  0  0  0  0  0  0  0  0
   72.0944   49.8685   53.6386 O   0  0  0  0  0  0  0  0  0  0  0  0
   70.6510   49.9612   55.7849 S   0  0  0  0  0  0  0  0  0  0  0  0
   69.0582   52.0269   54.5347 C   0  0  0  0  0  0  0  0  0  0  0  0
   69.9448   51.4500   53.5412 N   0  0  0  0  0  0  0  0  0  0  0  0
   68.5950   45.1485   55.9451 C   0  0  0  0  0  0  0  0  0  0  0  0
   69.4582   45.9247   56.6137 N   0  0  0  0  0  0  0  0  0  0  0  0
   70.2660   45.4594   57.5861 C   0  0  0  0  0  0  0  0  0  0  0  0
   70.1635   44.0913   57.8772 C   0  0  0  0  0  0  0  0  0  0  0  0
   69.2889   43.2751   57.2076 C   0  0  0  0  0  0  0  0  0  0  0  0
   68.5352   43.8560   56.2575 N   0  0  0  0  0  0  0  0  0  0  0  0
   69.2098   41.8643   57.5187 C   0  0  0  0  0  0  0  0  0  0  0  0
   70.2818   41.2929   58.2045 C   0  0  0  0  0  0  0  0  0  0  0  0
   70.2760   39.9478   58.5386 C   0  0  0  0  0  0  0  0  0  0  0  0
   69.2157   39.1453   58.2030 C   0  0  0  0  0  0  0  0  0  0  0  0
   68.1432   39.6787   57.5266 C   0  0  0  0  0  0  0  0  0  0  0  0
   68.1737   41.0359   57.2020 C   0  0  0  0  0  0  0  0  0  0  0  0
 11 12  1  0
  8 12  1  1
  8  9  2  0
  8 10  2  0
  8  2  1  0
  2  3  2  0
  2  7  1  0
  3  4  1  0
  4  5  2  0
  5  6  1  0
  6  1  1  0
  6  7  2  0
  1 13  1  0
 13 14  2  0
 13 18  1  0
 14 15  1  0
 15 16  2  0
 16 17  1  0
 17 19  1  0
 17 18  2  0
 19 20  2  0
 19 24  1  0
 20 21  1  0
 21 22  2  0
 22 23  1  0
 23 24  2  0
M  END
>  <minimizedAffinity>  (652) 
-8.89441

$$$$
cs_full_output_folder/data/smiles/9086.pdb
     RDKit          3D

 27 30  0  0  0  0  0  0  0  0999 V2000
   71.6041   47.2557   58.5155 C   0  0  0  0  0  0  0  0  0  0  0  0
   70.7446   48.0011   57.7382 C   0  0  0  0  0  0  0  0  0  0  0  0
   69.7214   47.4249   56.9847 C   0  0  0  0  0  0  0  0  0  0  0  0
   69.5731   46.0831   57.0205 C   0  0  0  0  0  0  0  0  0  0  0  0
   70.4152   45.2919   57.7876 C   0  0  0  0  0  0  0  0  0  0  0  0
   71.4244   45.8910   58.5288 C   0  0  0  0  0  0  0  0  0  0  0  0
   72.2176   45.0715   59.2616 F   0  0  0  0  0  0  0  0  0  0  0  0
   75.1543   49.7339   56.6451 C   0  0  0  0  0  0  0  0  0  0  0  0
   75.0771   49.2532   57.9622 N   0  0  0  0  0  0  0  0  0  0  0  0
   75.3669   47.9233   58.2262 C   0  0  0  0  0  0  0  0  0  0  0  0
   74.4937   47.1952   59.1985 C   0  0  0  0  0  0  0  0  0  0  0  0
   72.9036   48.0012   59.4721 P   0  0  0  0  0  0  0  0  0  0  0  0
   72.4961   47.9417   61.1135 O   0  0  0  0  0  0  0  0  0  0  0  0
   73.0020   49.7573   59.0082 C   0  0  0  0  0  0  0  0  0  0  0  0
   74.5040   50.0697   58.9424 C   0  0  0  0  0  0  0  0  0  0  0  0
   68.8529   48.3188   56.2179 C   0  0  0  0  0  0  0  0  0  0  0  0
   69.2346   48.4021   54.8053 C   0  0  0  0  0  0  0  0  0  0  0  0
   70.1282   49.3552   54.4101 N   0  0  0  0  0  0  0  0  0  0  0  0
   70.5643   49.4891   53.1852 N   0  0  0  0  0  0  0  0  0  0  0  0
   70.1387   48.6579   52.1972 C   0  0  0  0  0  0  0  0  0  0  0  0
   70.5623   48.7917   51.0243 O   0  0  0  0  0  0  0  0  0  0  0  0
   69.2401   47.6738   52.5102 C   0  0  0  0  0  0  0  0  0  0  0  0
   68.7986   46.8402   51.5167 C   0  0  0  0  0  0  0  0  0  0  0  0
   67.8898   45.8607   51.8141 C   0  0  0  0  0  0  0  0  0  0  0  0
   67.4261   45.7193   53.1018 C   0  0  0  0  0  0  0  0  0  0  0  0
   67.8912   46.5750   54.0815 C   0  0  0  0  0  0  0  0  0  0  0  0
   68.7967   47.5593   53.8212 C   0  0  0  0  0  0  0  0  0  0  0  0
  8  9  1  0
  9 10  1  0
  9 15  1  0
 10 11  1  0
 11 12  1  0
 12 13  1  0
 12  1  1  0
 12 14  1  0
  1  2  2  0
  1  6  1  0
  2  3  1  0
  3 16  1  0
  3  4  2  0
 16 17  1  0
 17 18  2  0
 17 27  1  0
 18 19  1  0
 19 20  1  0
 20 21  2  0
 20 22  1  0
 22 23  1  0
 22 27  2  0
 23 24  2  0
 24 25  1  0
 25 26  2  0
 26 27  1  0
  4  5  1  0
  5  6  2  0
  6  7  1  0
 14 15  1  0
M  CHG  2   9   1  12   1
M  END
>  <minimizedAffinity>  (653) 
-8.89425

$$$$
cs_full_output_folder/data/smiles/8574.pdb
     RDKit          3D

 26 28  0  0  0  0  0  0  0  0999 V2000
   69.8930   46.0490   57.3982 N   0  0  0  0  0  0  0  0  0  0  0  0
   69.4157   44.8390   57.2603 N   0  0  0  0  0  0  0  0  0  0  0  0
   70.0344   43.7067   57.6816 C   0  0  0  0  0  0  0  0  0  0  0  0
   71.2526   43.8375   58.2993 C   0  0  0  0  0  0  0  0  0  0  0  0
   71.8114   45.1104   58.4734 C   0  0  0  0  0  0  0  0  0  0  0  0
   71.0849   46.1772   58.0013 C   0  0  0  0  0  0  0  0  0  0  0  0
   71.6199   47.3176   58.1749 O   0  0  0  0  0  0  0  0  0  0  0  0
   69.4021   42.4129   57.4726 C   0  0  0  0  0  0  0  0  0  0  0  0
   69.7132   41.2906   58.1929 C   0  0  0  0  0  0  0  0  0  0  0  0
   69.0572   40.0796   57.9278 C   0  0  0  0  0  0  0  0  0  0  0  0
   69.3573   38.9610   58.6357 F   0  0  0  0  0  0  0  0  0  0  0  0
   68.0901   39.9595   56.9546 C   0  0  0  0  0  0  0  0  0  0  0  0
   67.7809   41.0902   56.2332 C   0  0  0  0  0  0  0  0  0  0  0  0
   66.8249   40.9599   55.2749 F   0  0  0  0  0  0  0  0  0  0  0  0
   68.4189   42.2852   56.4836 C   0  0  0  0  0  0  0  0  0  0  0  0
   69.1866   47.2340   56.9290 C   0  0  0  0  0  0  0  0  0  0  0  0
   69.2597   48.2863   53.3106 C   0  0  0  0  0  0  0  0  0  0  0  0
   68.6608   47.2137   52.6963 C   0  0  0  0  0  0  0  0  0  0  0  0
   68.2316   46.1497   53.4553 C   0  0  0  0  0  0  0  0  0  0  0  0
   68.3983   46.1468   54.8443 C   0  0  0  0  0  0  0  0  0  0  0  0
   68.9975   47.2161   55.4636 C   0  0  0  0  0  0  0  0  0  0  0  0
   69.4086   48.2527   54.6790 C   0  0  0  0  0  0  0  0  0  0  0  0
   70.3663   51.7148   52.4695 N   0  0  0  0  0  0  0  0  0  0  0  0
   69.9054   50.5891   53.1518 N   0  0  0  0  0  0  0  0  0  0  0  0
   69.7393   49.4454   52.5881 C   0  0  0  0  0  0  0  0  0  0  0  0
   70.0371   49.3111   51.2096 N   0  0  0  0  0  0  0  0  0  0  0  0
 23 24  1  0
 24 25  2  0
 25 26  1  0
 25 17  1  0
 17 18  2  0
 17 22  1  0
 18 19  1  0
 19 20  2  0
 20 21  1  0
 21 16  1  0
 21 22  2  0
 16  1  1  0
  1  2  1  0
  1  6  1  0
  2  3  2  0
  3  8  1  0
  3  4  1  0
  8  9  2  0
  8 15  1  0
  9 10  1  0
 10 11  1  0
 10 12  2  0
 12 13  1  0
 13 14  1  0
 13 15  2  0
  4  5  2  0
  5  6  1  0
  6  7  2  0
M  CHG  1  24   1
M  END
>  <minimizedAffinity>  (654) 
-8.89356

$$$$
cs_full_output_folder/data/smiles/7921.pdb
     RDKit          3D

 27 30  0  0  0  0  0  0  0  0999 V2000
   69.2318   47.4166   56.1389 N   0  0  0  0  0  0  0  0  0  0  0  0
   69.6683   48.4285   55.4479 N   0  0  0  0  0  0  0  0  0  0  0  0
   69.5510   48.5357   54.0937 C   0  0  0  0  0  0  0  0  0  0  0  0
   68.9298   47.5115   53.4268 C   0  0  0  0  0  0  0  0  0  0  0  0
   68.7450   47.5291   52.0694 C   0  0  0  0  0  0  0  0  0  0  0  0
   68.1085   46.5004   51.3969 C   0  0  0  0  0  0  0  0  0  0  0  0
   67.6340   45.4125   52.0823 C   0  0  0  0  0  0  0  0  0  0  0  0
   67.8098   45.3795   53.4484 C   0  0  0  0  0  0  0  0  0  0  0  0
   68.4444   46.4081   54.1120 C   0  0  0  0  0  0  0  0  0  0  0  0
   68.6244   46.4148   55.4797 C   0  0  0  0  0  0  0  0  0  0  0  0
   68.1631   45.3858   56.0767 O   0  0  0  0  0  0  0  0  0  0  0  0
   69.3634   47.2828   57.5654 C   0  0  0  0  0  0  0  0  0  0  0  0
   71.3622   45.1495   58.7609 C   0  0  0  0  0  0  0  0  0  0  0  0
   70.9854   46.4793   59.2619 N   0  0  1  0  0  0  0  0  0  0  0  0
   72.1520   47.0136   59.9242 C   0  0  0  0  0  0  0  0  0  0  0  0
   72.4242   48.3972   59.3953 C   0  0  0  0  0  0  0  0  0  0  0  0
   71.1742   48.7153   58.5744 C   0  0  0  0  0  0  0  0  0  0  0  0
   70.7080   47.3542   58.1412 C   0  0  2  0  0  0  0  0  0  0  0  0
   70.1387   49.7219   53.4142 C   0  0  0  0  0  0  0  0  0  0  0  0
   70.0609   50.9373   54.2484 C   0  0  0  0  0  0  0  0  0  0  0  0
   68.9007   51.5667   54.5239 C   0  0  0  0  0  0  0  0  0  0  0  0
   68.8250   52.7251   55.3012 C   0  0  0  0  0  0  0  0  0  0  0  0
   69.9894   53.2619   55.8181 C   0  0  0  0  0  0  0  0  0  0  0  0
   69.9314   54.3862   56.5744 F   0  0  0  0  0  0  0  0  0  0  0  0
   71.1707   52.6101   55.5314 C   0  0  0  0  0  0  0  0  0  0  0  0
   72.2974   53.1734   56.0609 F   0  0  0  0  0  0  0  0  0  0  0  0
   71.2281   51.4832   54.7731 C   0  0  0  0  0  0  0  0  0  0  0  0
 14 13  1  6
 14 15  1  0
 14 18  1  0
 15 16  1  0
 16 17  1  0
 17 18  1  0
 18 12  1  1
 12  1  1  0
  1  2  1  0
  1 10  1  0
  2  3  2  0
  3 19  1  0
  3  4  1  0
 19 20  1  0
 20 21  2  0
 20 27  1  0
 21 22  1  0
 22 23  2  0
 23 24  1  0
 23 25  1  0
 25 26  1  0
 25 27  2  0
  4  5  2  0
  4  9  1  0
  5  6  1  0
  6  7  2  0
  7  8  1  0
  8  9  2  0
  9 10  1  0
 10 11  2  0
M  CHG  1  14   1
M  END
>  <minimizedAffinity>  (655) 
-8.89351

$$$$
cs_full_output_folder/data/smiles/2565.pdb
     RDKit          3D

 26 29  0  0  0  0  0  0  0  0999 V2000
   70.1583   48.3301   57.0954 C   0  0  0  0  0  0  0  0  0  0  0  0
   71.4707   48.6258   57.3507 C   0  0  0  0  0  0  0  0  0  0  0  0
   72.2543   47.7977   58.1586 C   0  0  0  0  0  0  0  0  0  0  0  0
   71.7074   46.6645   58.7112 C   0  0  0  0  0  0  0  0  0  0  0  0
   72.4527   45.8500   59.4966 F   0  0  0  0  0  0  0  0  0  0  0  0
   70.3761   46.3297   58.4768 C   0  0  0  0  0  0  0  0  0  0  0  0
   69.6516   47.1806   57.6738 C   0  0  0  0  0  0  0  0  0  0  0  0
   69.2899   49.1768   56.2292 C   0  0  0  0  0  0  0  0  0  0  0  0
   70.7052   48.3608   50.9978 O   0  0  0  0  0  0  0  0  0  0  0  0
   70.3457   48.5039   52.1984 C   0  0  0  0  0  0  0  0  0  0  0  0
   70.9581   49.4218   52.9622 N   0  0  0  0  0  0  0  0  0  0  0  0
   70.6331   49.6251   54.2226 N   0  0  0  0  0  0  0  0  0  0  0  0
   69.6361   48.8939   54.8220 C   0  0  0  0  0  0  0  0  0  0  0  0
   68.9993   47.9496   54.0556 C   0  0  0  0  0  0  0  0  0  0  0  0
   69.3177   47.7203   52.7439 C   0  0  0  0  0  0  0  0  0  0  0  0
   68.6675   46.7374   51.8662 C   0  0  0  0  0  0  0  0  0  0  0  0
   67.7417   45.8096   52.5669 C   0  0  0  0  0  0  0  0  0  0  0  0
   68.0464   45.7232   54.0460 C   0  0  0  0  0  0  0  0  0  0  0  0
   67.9334   47.1282   54.6709 C   0  0  0  0  0  0  0  0  0  0  0  0
   69.8192   45.1789   59.0389 O   0  0  0  0  0  0  0  0  0  0  0  0
   69.9943   43.9931   58.4174 N   0  0  0  0  0  0  0  0  0  0  0  0
   69.8335   42.8416   59.2298 C   0  0  0  0  0  0  0  0  0  0  0  0
   68.6696   41.9688   58.9133 C   0  0  0  0  0  0  0  0  0  0  0  0
   68.6388   41.7438   57.4079 C   0  0  0  0  0  0  0  0  0  0  0  0
   68.4471   43.0606   56.8144 N   0  0  0  0  0  0  0  0  0  0  0  0
   69.5631   43.9127   57.0716 C   0  0  0  0  0  0  0  0  0  0  0  0
  9 10  2  0
 10 11  1  0
 10 15  1  0
 11 12  1  0
 12 13  2  0
 13  8  1  0
 13 14  1  0
  8  1  1  0
  1  2  2  0
  1  7  1  0
  2  3  1  0
  3  4  2  0
  4  5  1  0
  4  6  1  0
  6 20  1  0
  6  7  2  0
 20 21  1  0
 21 22  1  0
 21 26  1  0
 22 23  1  0
 23 24  1  0
 24 25  1  0
 25 26  1  0
 14 15  2  0
 14 19  1  0
 15 16  1  0
 16 17  1  0
 17 18  1  0
 18 19  1  0
M  CHG  1  25   1
M  END
>  <minimizedAffinity>  (656) 
-8.89176

$$$$
cs_full_output_folder/data/smiles/1568.pdb
     RDKit          3D

 28 31  0  0  0  0  0  0  0  0999 V2000
   68.7749   46.5324   55.0872 C   0  0  0  0  0  0  0  0  0  0  0  0
   69.2097   47.7201   54.5047 C   0  0  0  0  0  0  0  0  0  0  0  0
   69.0765   48.0329   53.1759 C   0  0  0  0  0  0  0  0  0  0  0  0
   68.4699   47.1008   52.3733 C   0  0  0  0  0  0  0  0  0  0  0  0
   68.0251   45.9184   52.8913 C   0  0  0  0  0  0  0  0  0  0  0  0
   68.1663   45.6146   54.2399 C   0  0  0  0  0  0  0  0  0  0  0  0
   67.7259   44.4433   54.7525 F   0  0  0  0  0  0  0  0  0  0  0  0
   69.4436   47.4845   57.2745 C   0  0  0  0  0  0  0  0  0  0  0  0
   68.9331   46.2493   56.5382 C   0  0  2  0  0  0  0  0  0  0  0  0
   69.9160   45.2781   56.6757 O   0  0  0  0  0  0  0  0  0  0  0  0
   69.6638   44.4069   57.6479 N   0  0  0  0  0  0  0  0  0  0  0  0
   69.2062   43.1477   57.0675 C   0  0  0  0  0  0  0  0  0  0  0  0
   69.7058   42.0292   57.9885 C   0  0  0  0  0  0  0  0  0  0  0  0
   71.0552   41.8688   57.7275 O   0  0  0  0  0  0  0  0  0  0  0  0
   71.7016   43.0660   57.8923 C   0  0  0  0  0  0  0  0  0  0  0  0
   70.8721   44.1915   58.4128 C   0  0  0  0  0  0  0  0  0  0  0  0
   69.5663   49.3132   52.6123 C   0  0  0  0  0  0  0  0  0  0  0  0
   70.4611   50.0905   53.4505 C   0  0  0  0  0  0  0  0  0  0  0  0
   71.7941   49.7540   53.5185 N   0  0  0  0  0  0  0  0  0  0  0  0
   72.6381   50.4131   54.2911 N   0  0  0  0  0  0  0  0  0  0  0  0
   72.2720   51.4505   55.0630 C   0  0  0  0  0  0  0  0  0  0  0  0
   73.1084   52.0630   55.7958 O   0  0  0  0  0  0  0  0  0  0  0  0
   70.9629   51.8387   55.0438 C   0  0  0  0  0  0  0  0  0  0  0  0
   70.0821   51.1298   54.2175 C   0  0  0  0  0  0  0  0  0  0  0  0
   68.7008   51.6290   54.2238 C   0  0  0  0  0  0  0  0  0  0  0  0
   68.2744   51.5923   55.7012 C   0  0  0  0  0  0  0  0  0  0  0  0
   69.1832   52.3946   56.5678 C   0  0  0  0  0  0  0  0  0  0  0  0
   70.3942   52.9521   55.8315 C   0  0  0  0  0  0  0  0  0  0  0  0
  9  8  1  1
  9 10  1  0
  9  1  1  0
 10 11  1  0
 11 12  1  0
 11 16  1  0
 12 13  1  0
 13 14  1  0
 14 15  1  0
 15 16  1  0
  1  2  2  0
  1  6  1  0
  2  3  1  0
  3 17  1  0
  3  4  2  0
 17 18  1  0
 18 19  2  0
 18 24  1  0
 19 20  1  0
 20 21  1  0
 21 22  2  0
 21 23  1  0
 23 24  2  0
 23 28  1  0
 24 25  1  0
 25 26  1  0
 26 27  1  0
 27 28  1  0
  4  5  1  0
  5  6  2  0
  6  7  1  0
M  END
>  <minimizedAffinity>  (657) 
-8.89112

$$$$
cs_full_output_folder/data/smiles/6108.pdb
     RDKit          3D

 26 27  0  0  0  0  0  0  0  0999 V2000
   70.0983   49.2689   52.5908 S   0  0  0  0  0  0  0  0  0  0  0  0
   70.2483   49.0219   51.1113 O   0  0  0  0  0  0  0  0  0  0  0  0
   71.4876   49.3554   53.1604 O   0  0  0  0  0  0  0  0  0  0  0  0
   69.3202   47.8679   53.2691 C   0  0  0  0  0  0  0  0  0  0  0  0
   69.4013   47.6950   54.6493 C   0  0  0  0  0  0  0  0  0  0  0  0
   70.0666   48.5992   55.4088 F   0  0  0  0  0  0  0  0  0  0  0  0
   68.7882   46.5864   55.1892 C   0  0  0  0  0  0  0  0  0  0  0  0
   68.8567   46.4023   56.5362 F   0  0  0  0  0  0  0  0  0  0  0  0
   68.1161   45.6846   54.3680 C   0  0  0  0  0  0  0  0  0  0  0  0
   67.5190   44.6000   54.9238 F   0  0  0  0  0  0  0  0  0  0  0  0
   68.0455   45.8709   53.0025 C   0  0  0  0  0  0  0  0  0  0  0  0
   67.3813   44.9684   52.2434 F   0  0  0  0  0  0  0  0  0  0  0  0
   68.6668   46.9944   52.4517 C   0  0  0  0  0  0  0  0  0  0  0  0
   68.5710   47.1318   51.1141 F   0  0  0  0  0  0  0  0  0  0  0  0
   69.2856   50.7289   52.9188 N   0  0  0  0  0  0  0  0  0  0  0  0
   70.4454   52.6349   55.9013 C   0  0  0  0  0  0  0  0  0  0  0  0
   69.3341   52.5316   56.6996 C   0  0  0  0  0  0  0  0  0  0  0  0
   68.1925   51.8512   56.3005 C   0  0  0  0  0  0  0  0  0  0  0  0
   68.2032   51.2700   55.0566 C   0  0  0  0  0  0  0  0  0  0  0  0
   69.2881   51.3412   54.2170 C   0  0  0  0  0  0  0  0  0  0  0  0
   70.4044   52.0373   54.6715 C   0  0  0  0  0  0  0  0  0  0  0  0
   71.5436   53.3279   56.3648 O   0  0  0  0  0  0  0  0  0  0  0  0
   73.6453   51.1826   58.7121 C   0  0  0  0  0  0  0  0  0  0  0  0
   72.4725   51.7911   58.0727 N   0  0  0  0  0  0  0  0  0  0  0  0
   72.6093   52.7202   57.0082 C   0  0  0  0  0  0  0  0  0  0  0  0
   73.7734   53.0048   56.6317 O   0  0  0  0  0  0  0  0  0  0  0  0
 23 24  1  0
 24 25  1  0
 25 26  2  0
 25 22  1  0
 22 16  1  0
 16 17  2  0
 16 21  1  0
 17 18  1  0
 18 19  2  0
 19 20  1  0
 20 15  1  0
 20 21  2  0
 15  1  1  0
  1  2  2  0
  1  3  2  0
  1  4  1  0
  4  5  2  0
  4 13  1  0
  5  6  1  0
  5  7  1  0
  7  8  1  0
  7  9  2  0
  9 10  1  0
  9 11  1  0
 11 12  1  0
 11 13  2  0
 13 14  1  0
M  END
>  <minimizedAffinity>  (658) 
-8.89085

$$$$
cs_full_output_folder/data/smiles/415.pdb
     RDKit          3D

 28 31  0  0  0  0  0  0  0  0999 V2000
   71.1509   45.5780   58.6458 C   0  0  0  0  0  0  0  0  0  0  0  0
   72.0496   46.4404   59.2342 C   0  0  0  0  0  0  0  0  0  0  0  0
   71.9406   47.8098   59.1093 C   0  0  0  0  0  0  0  0  0  0  0  0
   70.8991   48.3233   58.3721 C   0  0  0  0  0  0  0  0  0  0  0  0
   69.9544   47.4870   57.7526 C   0  0  0  0  0  0  0  0  0  0  0  0
   70.1193   46.1478   57.9155 C   0  0  0  0  0  0  0  0  0  0  0  0
   72.3433   43.4009   58.1731 C   0  0  0  0  0  0  0  0  0  0  0  0
   73.1080   44.0130   57.3694 O   0  0  0  0  0  0  0  0  0  0  0  0
   71.3620   44.1953   58.8168 N   0  0  0  0  0  0  0  0  0  0  0  0
   71.3892   38.4687   58.5731 C   0  0  0  0  0  0  0  0  0  0  0  0
   72.0525   39.7892   58.6017 C   0  0  0  0  0  0  0  0  0  0  0  0
   71.4955   41.0225   58.2348 C   0  0  0  0  0  0  0  0  0  0  0  0
   72.4643   41.9738   58.4189 C   0  0  0  0  0  0  0  0  0  0  0  0
   73.5583   41.3182   58.8798 C   0  0  0  0  0  0  0  0  0  0  0  0
   74.9075   41.8108   59.2572 C   0  0  0  0  0  0  0  0  0  0  0  0
   73.2713   40.0045   58.9758 O   0  0  0  0  0  0  0  0  0  0  0  0
   68.8538   48.1459   56.9692 C   0  0  0  0  0  0  0  0  0  0  0  0
   68.6482   47.3245   55.7474 C   0  0  0  0  0  0  0  0  0  0  0  0
   68.0737   46.0830   55.8797 N   0  0  0  0  0  0  0  0  0  0  0  0
   67.8028   45.3028   54.8624 N   0  0  0  0  0  0  0  0  0  0  0  0
   68.1066   45.7502   53.6347 C   0  0  0  0  0  0  0  0  0  0  0  0
   67.8515   45.0114   52.6446 O   0  0  0  0  0  0  0  0  0  0  0  0
   68.6963   47.0082   53.4203 C   0  0  0  0  0  0  0  0  0  0  0  0
   68.9737   47.8146   54.5093 C   0  0  0  0  0  0  0  0  0  0  0  0
   69.6205   49.1188   54.3455 C   0  0  0  0  0  0  0  0  0  0  0  0
   70.5768   48.9747   53.1458 C   0  0  0  0  0  0  0  0  0  0  0  0
   69.6691   48.7456   51.9294 C   0  0  0  0  0  0  0  0  0  0  0  0
   68.9900   47.4283   52.0304 C   0  0  0  0  0  0  0  0  0  0  0  0
 10 11  1  0
 11 12  2  0
 11 16  1  0
 12 13  1  0
 13  7  1  0
 13 14  2  0
  7  8  2  0
  7  9  1  0
  9  1  1  0
  1  2  2  0
  1  6  1  0
  2  3  1  0
  3  4  2  0
  4  5  1  0
  5 17  1  0
  5  6  2  0
 17 18  1  0
 18 19  2  0
 18 24  1  0
 19 20  1  0
 20 21  1  0
 21 22  2  0
 21 23  1  0
 23 24  2  0
 23 28  1  0
 24 25  1  0
 25 26  1  0
 26 27  1  0
 27 28  1  0
 14 15  1  0
 14 16  1  0
M  END
>  <minimizedAffinity>  (659) 
-8.88854

$$$$
cs_full_output_folder/data/smiles/1035.pdb
     RDKit          3D

 28 31  0  0  0  0  0  0  0  0999 V2000
   72.7014   49.7675   57.4779 C   0  0  0  0  0  0  0  0  0  0  0  0
   71.6071   49.6259   56.6590 C   0  0  0  0  0  0  0  0  0  0  0  0
   70.3901   50.2527   56.8867 C   0  0  0  0  0  0  0  0  0  0  0  0
   70.2524   51.0615   57.9806 C   0  0  0  0  0  0  0  0  0  0  0  0
   71.3447   51.2302   58.8398 C   0  0  0  0  0  0  0  0  0  0  0  0
   72.5313   50.5874   58.5716 C   0  0  0  0  0  0  0  0  0  0  0  0
   73.5475   50.8114   59.4675 F   0  0  0  0  0  0  0  0  0  0  0  0
   74.9020   51.0411   56.3788 O   0  0  0  0  0  0  0  0  0  0  0  0
   75.0725   49.8437   56.6979 C   0  0  0  0  0  0  0  0  0  0  0  0
   73.9582   49.1431   57.2731 N   0  0  0  0  0  0  0  0  0  0  0  0
   76.3251   49.2576   56.4818 N   0  0  0  0  0  0  0  0  0  0  0  0
   77.4322   50.0259   55.8902 C   0  0  0  0  0  0  0  0  0  0  0  0
   78.2649   50.6940   56.9456 C   0  0  0  0  0  0  0  0  0  0  0  0
   79.6544   50.7949   56.3352 C   0  0  0  0  0  0  0  0  0  0  0  0
   79.7809   49.4273   55.6972 C   0  0  0  0  0  0  0  0  0  0  0  0
   78.3905   49.0057   55.3132 C   0  0  0  0  0  0  0  0  0  0  0  0
   69.2533   50.0758   55.9543 C   0  0  0  0  0  0  0  0  0  0  0  0
   68.9400   48.6698   55.6364 C   0  0  0  0  0  0  0  0  0  0  0  0
   68.6733   47.7921   56.6530 N   0  0  0  0  0  0  0  0  0  0  0  0
   68.3459   46.5305   56.4463 N   0  0  0  0  0  0  0  0  0  0  0  0
   68.2481   46.0099   55.2114 C   0  0  0  0  0  0  0  0  0  0  0  0
   67.9389   44.8195   55.0059 O   0  0  0  0  0  0  0  0  0  0  0  0
   68.5057   46.8414   54.1140 C   0  0  0  0  0  0  0  0  0  0  0  0
   68.8477   48.1588   54.3649 C   0  0  0  0  0  0  0  0  0  0  0  0
   69.1535   49.0038   53.1854 C   0  0  0  0  0  0  0  0  0  0  0  0
   70.0103   48.1706   52.2471 C   0  0  0  0  0  0  0  0  0  0  0  0
   69.2897   46.9748   51.7427 C   0  0  0  0  0  0  0  0  0  0  0  0
   68.3985   46.3210   52.7347 C   0  0  0  0  0  0  0  0  0  0  0  0
  8  9  2  0
  9 10  1  0
  9 11  1  0
 10  1  1  0
  1  2  2  0
  1  6  1  0
  2  3  1  0
  3 17  1  0
  3  4  2  0
 17 18  1  0
 18 19  2  0
 18 24  1  0
 19 20  1  0
 20 21  1  0
 21 22  2  0
 21 23  1  0
 23 24  2  0
 23 28  1  0
 24 25  1  0
 25 26  1  0
 26 27  1  0
 27 28  1  0
  4  5  1  0
  5  6  2  0
  6  7  1  0
 11 12  1  0
 12 13  1  0
 12 16  1  0
 13 14  1  0
 14 15  1  0
 15 16  1  0
M  END
>  <minimizedAffinity>  (660) 
-8.88787

$$$$
cs_full_output_folder/data/smiles/7064.pdb
     RDKit          3D

 28 32  0  0  0  0  0  0  0  0999 V2000
   71.5033   47.1039   58.9592 C   0  0  0  0  0  0  0  0  0  0  0  0
   70.5580   47.7619   58.1804 C   0  0  0  0  0  0  0  0  0  0  0  0
   69.7292   47.1024   57.3095 C   0  0  0  0  0  0  0  0  0  0  0  0
   69.8709   45.7130   57.2297 C   0  0  0  0  0  0  0  0  0  0  0  0
   70.7887   45.0187   57.9776 C   0  0  0  0  0  0  0  0  0  0  0  0
   71.6112   45.7349   58.8512 C   0  0  0  0  0  0  0  0  0  0  0  0
   72.5204   45.0646   59.5941 F   0  0  0  0  0  0  0  0  0  0  0  0
   72.1937   47.7719   61.1232 O   0  0  0  0  0  0  0  0  0  0  0  0
   72.3825   47.8063   59.8838 C   0  0  0  0  0  0  0  0  0  0  0  0
   73.4803   48.5465   59.3614 N   0  0  0  0  0  0  0  0  0  0  0  0
   73.8665   48.7094   57.9729 C   0  0  0  0  0  0  0  0  0  0  0  0
   75.3698   48.5570   58.0238 C   0  0  1  0  0  0  0  0  0  0  0  0
   75.9584   49.4756   56.9787 C   0  0  0  0  0  0  0  0  0  0  0  0
   76.8437   50.3630   57.6738 N   0  0  0  0  0  0  0  0  0  0  0  0
   76.4821   50.3691   59.0615 C   0  0  0  0  0  0  0  0  0  0  0  0
   75.7663   49.0887   59.3631 C   0  0  1  0  0  0  0  0  0  0  0  0
   74.4726   49.3142   60.1205 C   0  0  0  0  0  0  0  0  0  0  0  0
   68.7140   47.7678   56.4491 C   0  0  0  0  0  0  0  0  0  0  0  0
   69.1298   48.0198   55.0814 C   0  0  0  0  0  0  0  0  0  0  0  0
   69.9755   49.0781   54.8811 N   0  0  0  0  0  0  0  0  0  0  0  0
   70.4059   49.4511   53.6726 C   0  0  0  0  0  0  0  0  0  0  0  0
   70.0102   48.7725   52.5461 C   0  0  0  0  0  0  0  0  0  0  0  0
   69.1660   47.7050   52.6766 C   0  0  0  0  0  0  0  0  0  0  0  0
   68.7660   47.0045   51.5412 C   0  0  0  0  0  0  0  0  0  0  0  0
   67.9293   45.9349   51.7246 C   0  0  0  0  0  0  0  0  0  0  0  0
   67.5045   45.5717   52.9745 C   0  0  0  0  0  0  0  0  0  0  0  0
   67.9141   46.2822   54.0798 C   0  0  0  0  0  0  0  0  0  0  0  0
   68.7396   47.3471   53.9446 C   0  0  0  0  0  0  0  0  0  0  0  0
  8  9  2  0
  9  1  1  0
  9 10  1  0
  1  2  2  0
  1  6  1  0
  2  3  1  0
  3 18  1  0
  3  4  2  0
 18 19  1  0
 19 20  2  0
 19 28  1  0
 20 21  1  0
 21 22  2  0
 22 23  1  0
 23 24  1  0
 23 28  2  0
 24 25  2  0
 25 26  1  0
 26 27  2  0
 27 28  1  0
  4  5  1  0
  5  6  2  0
  6  7  1  0
 10 11  1  0
 10 17  1  0
 12 11  1  1
 12 13  1  0
 12 16  1  0
 13 14  1  0
 14 15  1  0
 16 15  1  6
 16 17  1  0
M  CHG  1  14   1
M  END
>  <minimizedAffinity>  (661) 
-8.88680

$$$$
cs_full_output_folder/data/smiles/9354.pdb
     RDKit          3D

 27 29  0  0  0  0  0  0  0  0999 V2000
   68.8639   44.6868   56.6395 C   0  0  0  0  0  0  0  0  0  0  0  0
   68.2957   43.4912   56.2707 C   0  0  0  0  0  0  0  0  0  0  0  0
   68.8703   42.2808   56.6852 C   0  0  0  0  0  0  0  0  0  0  0  0
   69.9842   42.2762   57.4492 C   0  0  0  0  0  0  0  0  0  0  0  0
   70.5341   43.5016   57.8056 C   0  0  0  0  0  0  0  0  0  0  0  0
   69.9959   44.7039   57.4153 C   0  0  0  0  0  0  0  0  0  0  0  0
   70.6193   41.0427   57.9061 C   0  0  0  0  0  0  0  0  0  0  0  0
   71.8669   41.0530   58.1907 O   0  0  0  0  0  0  0  0  0  0  0  0
   69.9454   39.8109   58.0606 N   0  0  0  0  0  0  0  0  0  0  0  0
   70.4876   38.5828   58.4938 C   0  0  0  0  0  0  0  0  0  0  0  0
   69.8118   37.9207   59.5253 C   0  0  0  0  0  0  0  0  0  0  0  0
   70.2407   36.7141   60.0373 C   0  0  0  0  0  0  0  0  0  0  0  0
   71.3688   36.0933   59.5529 C   0  0  0  0  0  0  0  0  0  0  0  0
   71.8164   34.9083   60.0352 F   0  0  0  0  0  0  0  0  0  0  0  0
   72.0466   36.7226   58.5440 C   0  0  0  0  0  0  0  0  0  0  0  0
   71.5996   37.9498   58.0325 C   0  0  0  0  0  0  0  0  0  0  0  0
   68.3347   45.9256   56.2564 O   0  0  0  0  0  0  0  0  0  0  0  0
   69.3693   47.8505   53.3246 C   0  0  0  0  0  0  0  0  0  0  0  0
   68.8196   47.0733   52.3061 C   0  0  0  0  0  0  0  0  0  0  0  0
   68.1118   45.9208   52.5757 C   0  0  0  0  0  0  0  0  0  0  0  0
   67.9568   45.5483   53.9033 C   0  0  0  0  0  0  0  0  0  0  0  0
   68.4800   46.2830   54.9286 C   0  0  0  0  0  0  0  0  0  0  0  0
   69.1879   47.4393   54.6060 C   0  0  0  0  0  0  0  0  0  0  0  0
   71.3302   49.0046   52.6998 O   0  0  0  0  0  0  0  0  0  0  0  0
   70.1036   49.0531   52.9608 C   0  0  0  0  0  0  0  0  0  0  0  0
   69.4899   50.3307   52.8803 N   0  0  0  0  0  0  0  0  0  0  0  0
   70.1978   51.4175   52.5414 O   0  0  0  0  0  0  0  0  0  0  0  0
 24 25  2  0
 25 26  1  0
 25 18  1  0
 26 27  1  0
 18 19  2  0
 18 23  1  0
 19 20  1  0
 20 21  2  0
 21 22  1  0
 22 17  1  0
 22 23  2  0
 17  1  1  0
  1  2  2  0
  1  6  1  0
  2  3  1  0
  3  4  2  0
  4  7  1  0
  4  5  1  0
  7  8  2  0
  7  9  1  0
  9 10  1  0
 10 11  2  0
 10 16  1  0
 11 12  1  0
 12 13  2  0
 13 14  1  0
 13 15  1  0
 15 16  2  0
  5  6  2  0
M  END
>  <minimizedAffinity>  (662) 
-8.88525

$$$$
cs_full_output_folder/data/smiles/3283.pdb
     RDKit          3D

 25 26  0  0  0  0  0  0  0  0999 V2000
   70.0317   49.2641   52.5648 S   0  0  0  0  0  0  0  0  0  0  0  0
   71.4780   49.2145   52.9604 O   0  0  0  0  0  0  0  0  0  0  0  0
   69.9403   49.2095   51.0643 O   0  0  0  0  0  0  0  0  0  0  0  0
   69.2645   47.8405   53.1973 C   0  0  0  0  0  0  0  0  0  0  0  0
   68.6225   46.9195   52.3953 C   0  0  0  0  0  0  0  0  0  0  0  0
   68.6000   47.1493   51.0733 F   0  0  0  0  0  0  0  0  0  0  0  0
   68.0152   45.7872   52.9219 C   0  0  0  0  0  0  0  0  0  0  0  0
   67.3820   44.8770   52.1416 F   0  0  0  0  0  0  0  0  0  0  0  0
   68.0408   45.5558   54.2811 C   0  0  0  0  0  0  0  0  0  0  0  0
   67.4460   44.4440   54.8209 F   0  0  0  0  0  0  0  0  0  0  0  0
   68.6680   46.4520   55.0906 C   0  0  0  0  0  0  0  0  0  0  0  0
   68.6793   46.2006   56.4253 F   0  0  0  0  0  0  0  0  0  0  0  0
   69.2759   47.5857   54.5533 C   0  0  0  0  0  0  0  0  0  0  0  0
   69.8840   48.4385   55.4117 F   0  0  0  0  0  0  0  0  0  0  0  0
   69.3259   50.7113   53.0902 N   0  0  0  0  0  0  0  0  0  0  0  0
   71.5028   54.0640   57.2062 C   0  0  0  0  0  0  0  0  0  0  0  0
   70.9523   53.1932   56.1341 C   0  0  0  0  0  0  0  0  0  0  0  0
   69.6014   52.9062   56.0580 C   0  0  0  0  0  0  0  0  0  0  0  0
   69.0477   52.1075   55.0863 C   0  0  0  0  0  0  0  0  0  0  0  0
   69.8461   51.5458   54.1190 C   0  0  0  0  0  0  0  0  0  0  0  0
   71.1924   51.8130   54.1689 C   0  0  0  0  0  0  0  0  0  0  0  0
   71.7320   52.6142   55.1473 C   0  0  0  0  0  0  0  0  0  0  0  0
   73.1721   52.8776   55.1689 C   0  0  0  0  0  0  0  0  0  0  0  0
   73.6116   53.7913   54.4254 O   0  0  0  0  0  0  0  0  0  0  0  0
   74.0424   52.1593   55.9719 O   0  0  0  0  0  0  0  0  0  0  0  0
 16 17  1  0
 17 18  2  0
 17 22  1  0
 18 19  1  0
 19 20  2  0
 20 15  1  0
 20 21  1  0
 15  1  1  0
  1  2  2  0
  1  3  2  0
  1  4  1  0
  4  5  2  0
  4 13  1  0
  5  6  1  0
  5  7  1  0
  7  8  1  0
  7  9  2  0
  9 10  1  0
  9 11  1  0
 11 12  1  0
 11 13  2  0
 13 14  1  0
 21 22  2  0
 22 23  1  0
 23 24  2  0
 23 25  1  0
M  END
>  <minimizedAffinity>  (663) 
-8.88373

$$$$
cs_full_output_folder/data/smiles/6636.pdb
     RDKit          3D

 27 29  0  0  0  0  0  0  0  0999 V2000
   69.8019   45.4541   57.7165 C   0  0  0  0  0  0  0  0  0  0  0  0
   69.7561   46.6393   58.1664 O   0  0  0  0  0  0  0  0  0  0  0  0
   69.0066   45.1836   56.5754 N   0  0  0  0  0  0  0  0  0  0  0  0
   70.6528   44.4456   58.3817 C   0  0  0  0  0  0  0  0  0  0  0  0
   67.4863   42.7409   61.6975 C   0  0  0  0  0  0  0  0  0  0  0  0
   68.2941   42.5891   60.4460 C   0  0  0  0  0  0  0  0  0  0  0  0
   69.0943   43.5594   59.9728 N   0  0  0  0  0  0  0  0  0  0  0  0
   69.7958   43.3837   58.8657 N   0  0  0  0  0  0  0  0  0  0  0  0
   69.7271   42.2389   58.1914 C   0  0  0  0  0  0  0  0  0  0  0  0
   70.3797   42.0209   57.1246 O   0  0  0  0  0  0  0  0  0  0  0  0
   68.9178   41.2054   58.6335 C   0  0  0  0  0  0  0  0  0  0  0  0
   68.8146   40.0049   57.9550 C   0  0  0  0  0  0  0  0  0  0  0  0
   67.9987   38.9910   58.4097 C   0  0  0  0  0  0  0  0  0  0  0  0
   67.2533   39.1620   59.5765 C   0  0  0  0  0  0  0  0  0  0  0  0
   67.3589   40.3614   60.2484 C   0  0  0  0  0  0  0  0  0  0  0  0
   68.1761   41.3725   59.7916 C   0  0  0  0  0  0  0  0  0  0  0  0
   68.2162   46.1903   56.0169 N   0  0  0  0  0  0  0  0  0  0  0  0
   68.3757   46.4333   54.6215 C   0  0  0  0  0  0  0  0  0  0  0  0
   67.7278   45.6320   53.6878 C   0  0  0  0  0  0  0  0  0  0  0  0
   67.8411   45.8349   52.3260 C   0  0  0  0  0  0  0  0  0  0  0  0
   68.6146   46.8612   51.8630 C   0  0  0  0  0  0  0  0  0  0  0  0
   69.2750   47.6832   52.7600 C   0  0  0  0  0  0  0  0  0  0  0  0
   69.1434   47.4519   54.1310 C   0  0  0  0  0  0  0  0  0  0  0  0
   70.1048   48.7979   52.2284 C   0  0  0  0  0  0  0  0  0  0  0  0
   71.0745   49.1920   53.1621 F   0  0  0  0  0  0  0  0  0  0  0  0
   70.6554   48.5044   51.0063 F   0  0  0  0  0  0  0  0  0  0  0  0
   69.2314   49.8874   52.1107 F   0  0  0  0  0  0  0  0  0  0  0  0
  5  6  1  0
  6  7  2  0
  6 16  1  0
  7  8  1  0
  8  4  1  0
  8  9  1  0
  4  1  1  0
  1  2  2  0
  1  3  1  0
  3 17  1  0
 17 18  1  0
 18 19  2  0
 18 23  1  0
 19 20  1  0
 20 21  2  0
 21 22  1  0
 22 24  1  0
 22 23  2  0
 24 25  1  0
 24 26  1  0
 24 27  1  0
  9 10  2  0
  9 11  1  0
 11 12  1  0
 11 16  2  0
 12 13  2  0
 13 14  1  0
 14 15  2  0
 15 16  1  0
M  END
>  <minimizedAffinity>  (664) 
-8.88351

$$$$
cs_full_output_folder/data/smiles/1316.pdb
     RDKit          3D

 26 29  0  0  0  0  0  0  0  0999 V2000
   71.0550   45.5852   58.1069 C   0  0  0  0  0  0  0  0  0  0  0  0
   70.0719   46.2339   57.4103 C   0  0  0  0  0  0  0  0  0  0  0  0
   70.0226   47.6189   57.2313 C   0  0  0  0  0  0  0  0  0  0  0  0
   71.0334   48.3513   57.7970 C   0  0  0  0  0  0  0  0  0  0  0  0
   72.0630   47.7406   58.5199 C   0  0  0  0  0  0  0  0  0  0  0  0
   72.0552   46.3642   58.6614 C   0  0  0  0  0  0  0  0  0  0  0  0
   73.0377   45.7497   59.3545 F   0  0  0  0  0  0  0  0  0  0  0  0
   73.0601   43.5190   57.0643 O   0  0  0  0  0  0  0  0  0  0  0  0
   72.1077   43.2693   57.8453 C   0  0  0  0  0  0  0  0  0  0  0  0
   71.8780   41.9246   58.4652 C   0  0  0  0  0  0  0  0  0  0  0  0
   70.3504   41.9297   58.5553 C   0  0  0  0  0  0  0  0  0  0  0  0
   70.1234   43.3559   58.9440 C   0  0  0  0  0  0  0  0  0  0  0  0
   69.2514   43.8391   59.7109 O   0  0  0  0  0  0  0  0  0  0  0  0
   71.0969   44.1722   58.2842 N   0  0  0  0  0  0  0  0  0  0  0  0
   68.9164   48.2280   56.4288 C   0  0  0  0  0  0  0  0  0  0  0  0
   69.2989   48.3529   55.0050 C   0  0  0  0  0  0  0  0  0  0  0  0
   70.1865   49.3148   54.6041 N   0  0  0  0  0  0  0  0  0  0  0  0
   70.5946   49.4492   53.3666 N   0  0  0  0  0  0  0  0  0  0  0  0
   70.1746   48.6549   52.3924 C   0  0  0  0  0  0  0  0  0  0  0  0
   70.5796   48.7959   51.1980 O   0  0  0  0  0  0  0  0  0  0  0  0
   69.2811   47.6547   52.6819 C   0  0  0  0  0  0  0  0  0  0  0  0
   68.8279   46.8346   51.6938 C   0  0  0  0  0  0  0  0  0  0  0  0
   67.9204   45.8414   51.9934 C   0  0  0  0  0  0  0  0  0  0  0  0
   67.4817   45.6863   53.2732 C   0  0  0  0  0  0  0  0  0  0  0  0
   67.9563   46.5304   54.2557 C   0  0  0  0  0  0  0  0  0  0  0  0
   68.8578   47.5258   54.0026 C   0  0  0  0  0  0  0  0  0  0  0  0
  8  9  2  0
  9 10  1  0
  9 14  1  0
 10 11  1  0
 11 12  1  0
 12 13  2  0
 12 14  1  0
 14  1  1  0
  1  2  2  0
  1  6  1  0
  2  3  1  0
  3 15  1  0
  3  4  2  0
 15 16  1  0
 16 17  2  0
 16 26  1  0
 17 18  1  0
 18 19  1  0
 19 20  2  0
 19 21  1  0
 21 22  1  0
 21 26  2  0
 22 23  2  0
 23 24  1  0
 24 25  2  0
 25 26  1  0
  4  5  1  0
  5  6  2  0
  6  7  1  0
M  END
>  <minimizedAffinity>  (665) 
-8.88258

$$$$
cs_full_output_folder/data/smiles/6168.pdb
     RDKit          3D

 25 26  0  0  0  0  0  0  0  0999 V2000
   68.6970   47.3196   56.1205 C   0  0  0  0  0  0  0  0  0  0  0  0
   68.4478   46.1555   56.5317 N   0  0  0  0  0  0  0  0  0  0  0  0
   69.0067   47.6013   52.4201 C   0  0  0  0  0  0  0  0  0  0  0  0
   68.6638   47.1060   53.6568 C   0  0  0  0  0  0  0  0  0  0  0  0
   69.0189   47.7740   54.7968 C   0  0  0  0  0  0  0  0  0  0  0  0
   69.7260   48.9479   54.6381 C   0  0  0  0  0  0  0  0  0  0  0  0
   70.0801   49.4629   53.4097 C   0  0  0  0  0  0  0  0  0  0  0  0
   69.7131   48.7763   52.2782 C   0  0  0  0  0  0  0  0  0  0  0  0
   70.0664   49.2879   51.0287 O   0  0  0  0  0  0  0  0  0  0  0  0
   67.5961   46.0447   51.1492 C   0  0  0  0  0  0  0  0  0  0  0  0
   68.6663   46.9552   51.2364 O   0  0  0  0  0  0  0  0  0  0  0  0
   70.7946   50.6517   53.2764 O   0  0  0  0  0  0  0  0  0  0  0  0
   70.7832   51.6710   54.2332 C   0  0  0  0  0  0  0  0  0  0  0  0
   68.3972   44.9532   55.8904 N   0  0  0  0  0  0  0  0  0  0  0  0
   68.7384   43.7042   56.4809 C   0  0  0  0  0  0  0  0  0  0  0  0
   69.8551   43.6280   57.2817 C   0  0  0  0  0  0  0  0  0  0  0  0
   70.6344   44.7368   57.5128 F   0  0  0  0  0  0  0  0  0  0  0  0
   70.2073   42.4254   57.8659 C   0  0  0  0  0  0  0  0  0  0  0  0
   71.3257   42.3776   58.6607 F   0  0  0  0  0  0  0  0  0  0  0  0
   69.4430   41.2972   57.6511 C   0  0  0  0  0  0  0  0  0  0  0  0
   69.7970   40.1106   58.2329 F   0  0  0  0  0  0  0  0  0  0  0  0
   68.3164   41.3624   56.8464 C   0  0  0  0  0  0  0  0  0  0  0  0
   67.5472   40.2673   56.6187 F   0  0  0  0  0  0  0  0  0  0  0  0
   67.9726   42.5641   56.2677 C   0  0  0  0  0  0  0  0  0  0  0  0
   66.8834   42.6742   55.4769 F   0  0  0  0  0  0  0  0  0  0  0  0
 10 11  1  0
 11  3  1  0
  3  4  2  0
  3  8  1  0
  4  5  1  0
  5  1  1  0
  5  6  2  0
  1  2  2  0
  2 14  1  0
 14 15  1  0
 15 16  2  0
 15 24  1  0
 16 17  1  0
 16 18  1  0
 18 19  1  0
 18 20  2  0
 20 21  1  0
 20 22  1  0
 22 23  1  0
 22 24  2  0
 24 25  1  0
  6  7  1  0
  7 12  1  0
  7  8  2  0
 12 13  1  0
  8  9  1  0
M  END
>  <minimizedAffinity>  (666) 
-8.88105

$$$$
cs_full_output_folder/data/smiles/3721.pdb
     RDKit          3D

 26 27  0  0  0  0  0  0  0  0999 V2000
   68.0188   43.0966   56.4377 C   0  0  0  0  0  0  0  0  0  0  0  0
   66.7196   41.9810   56.2730 S   0  0  0  0  0  0  0  0  0  0  0  0
   68.1272   43.8987   55.2993 N   0  0  0  0  0  0  0  0  0  0  0  0
   68.2730   45.2765   55.1444 C   0  0  0  0  0  0  0  0  0  0  0  0
   68.3240   45.9832   56.1660 O   0  0  0  0  0  0  0  0  0  0  0  0
   68.3731   45.9593   53.8436 C   0  0  0  0  0  0  0  0  0  0  0  0
   67.5944   45.5241   52.7768 C   0  0  0  0  0  0  0  0  0  0  0  0
   67.6276   46.1001   51.5421 C   0  0  0  0  0  0  0  0  0  0  0  0
   68.4581   47.1656   51.2961 C   0  0  0  0  0  0  0  0  0  0  0  0
   69.2386   47.6176   52.3288 C   0  0  0  0  0  0  0  0  0  0  0  0
   69.1948   47.0175   53.5919 C   0  0  0  0  0  0  0  0  0  0  0  0
   70.1046   48.7128   52.1095 N   0  0  0  0  0  0  0  0  0  0  0  0
   69.9133   49.4769   51.1530 O   0  0  0  0  0  0  0  0  0  0  0  0
   71.1793   48.9744   52.9332 O   0  0  0  0  0  0  0  0  0  0  0  0
   68.7152   43.0120   57.6272 N   0  0  0  0  0  0  0  0  0  0  0  0
   70.9596   40.2201   58.5627 C   0  0  0  0  0  0  0  0  0  0  0  0
   72.1526   40.9051   58.4955 C   0  0  0  0  0  0  0  0  0  0  0  0
   72.2137   42.2443   58.1690 C   0  0  0  0  0  0  0  0  0  0  0  0
   71.0856   42.9700   57.8906 C   0  0  0  0  0  0  0  0  0  0  0  0
   71.1405   44.3323   57.5567 O   0  0  0  0  0  0  0  0  0  0  0  0
   69.8597   42.3104   57.9489 C   0  0  0  0  0  0  0  0  0  0  0  0
   69.8282   40.9519   58.2833 C   0  0  0  0  0  0  0  0  0  0  0  0
   70.8678   38.7812   58.9138 C   0  0  1  0  0  0  0  0  0  0  0  0
   69.4355   38.3199   59.0742 C   0  0  0  0  0  0  0  0  0  0  0  0
   72.4054   36.7920   58.6542 C   0  0  0  0  0  0  0  0  0  0  0  0
   71.6497   37.8886   57.9896 C   0  0  0  0  0  0  0  0  0  0  0  0
 25 26  1  0
 26 23  1  0
 23 24  1  6
 23 16  1  0
 16 17  2  0
 16 22  1  0
 17 18  1  0
 18 19  2  0
 19 20  1  0
 19 21  1  0
 21 15  1  0
 21 22  2  0
 15  1  1  0
  1  2  2  0
  1  3  1  0
  3  4  1  0
  4  5  2  0
  4  6  1  0
  6  7  2  0
  6 11  1  0
  7  8  1  0
  8  9  2  0
  9 10  1  0
 10 12  1  0
 10 11  2  0
 12 13  2  0
 12 14  1  0
M  CHG  2  12   1  14  -1
M  END
>  <minimizedAffinity>  (667) 
-8.88033

$$$$
cs_full_output_folder/data/smiles/7285.pdb
     RDKit          3D

 27 29  0  0  0  0  0  0  0  0999 V2000
   68.0186   42.8049   56.3652 C   0  0  0  0  0  0  0  0  0  0  0  0
   68.6799   44.0231   56.2005 C   0  0  0  0  0  0  0  0  0  0  0  0
   68.1017   44.7458   55.1783 C   0  0  0  0  0  0  0  0  0  0  0  0
   67.1008   43.9678   54.7341 N   0  0  0  0  0  0  0  0  0  0  0  0
   67.0555   42.8214   55.4389 N   0  0  0  0  0  0  0  0  0  0  0  0
   69.0570   41.1837   59.5729 C   0  0  0  0  0  0  0  0  0  0  0  0
   68.9369   39.8351   59.2967 C   0  0  0  0  0  0  0  0  0  0  0  0
   68.5106   39.4623   58.0423 C   0  0  0  0  0  0  0  0  0  0  0  0
   68.2104   40.4251   57.0836 C   0  0  0  0  0  0  0  0  0  0  0  0
   67.7862   39.9857   55.8430 O   0  0  0  0  0  0  0  0  0  0  0  0
   68.3194   41.7652   57.3287 C   0  0  0  0  0  0  0  0  0  0  0  0
   68.7542   42.1226   58.6083 C   0  0  0  0  0  0  0  0  0  0  0  0
   69.4960   41.5962   60.8591 N   0  0  0  0  0  0  0  0  0  0  0  0
   67.6169   41.8809   63.0685 C   0  0  0  0  0  0  0  0  0  0  0  0
   68.6675   42.6676   61.8864 S   0  0  0  0  0  0  0  0  0  0  0  0
   69.6730   43.4817   62.6653 O   0  0  0  0  0  0  0  0  0  0  0  0
   67.7791   43.6252   61.0994 O   0  0  0  0  0  0  0  0  0  0  0  0
   68.4951   46.0727   54.6874 C   0  0  0  0  0  0  0  0  0  0  0  0
   68.5191   46.3711   53.3437 C   0  0  0  0  0  0  0  0  0  0  0  0
   68.8857   47.6096   52.8603 C   0  0  0  0  0  0  0  0  0  0  0  0
   69.2480   48.6121   53.7415 C   0  0  0  0  0  0  0  0  0  0  0  0
   69.2265   48.3225   55.0908 C   0  0  0  0  0  0  0  0  0  0  0  0
   68.8544   47.0635   55.5728 C   0  0  0  0  0  0  0  0  0  0  0  0
   69.6394   49.9393   53.2075 C   0  0  0  0  0  0  0  0  0  0  0  0
   70.8575   50.3548   53.6671 F   0  0  0  0  0  0  0  0  0  0  0  0
   69.6511   49.9462   51.8146 F   0  0  0  0  0  0  0  0  0  0  0  0
   68.7019   50.9017   53.5788 F   0  0  0  0  0  0  0  0  0  0  0  0
 14 15  1  0
 15 16  2  0
 15 17  2  0
 15 13  1  0
 13  6  1  0
  6  7  2  0
  6 12  1  0
  7  8  1  0
  8  9  2  0
  9 10  1  0
  9 11  1  0
 11  1  1  0
 11 12  2  0
  1  2  2  0
  1  5  1  0
  2  3  1  0
  3 18  1  0
  3  4  2  0
 18 19  2  0
 18 23  1  0
 19 20  1  0
 20 21  2  0
 21 24  1  0
 21 22  1  0
 24 25  1  0
 24 26  1  0
 24 27  1  0
 22 23  2  0
  4  5  1  0
M  END
>  <minimizedAffinity>  (668) 
-8.87875

$$$$
cs_full_output_folder/data/smiles/74.pdb
     RDKit          3D

 28 31  0  0  0  0  0  0  0  0999 V2000
   70.7584   45.5090   57.9940 C   0  0  0  0  0  0  0  0  0  0  0  0
   69.7478   46.1455   57.3040 C   0  0  0  0  0  0  0  0  0  0  0  0
   69.6567   47.5378   57.2397 C   0  0  0  0  0  0  0  0  0  0  0  0
   70.6184   48.2597   57.8932 C   0  0  0  0  0  0  0  0  0  0  0  0
   71.6312   47.5957   58.5853 C   0  0  0  0  0  0  0  0  0  0  0  0
   71.7163   46.2256   58.6453 C   0  0  0  0  0  0  0  0  0  0  0  0
   72.6848   45.5666   59.3062 F   0  0  0  0  0  0  0  0  0  0  0  0
   69.3596   43.8454   59.7942 O   0  0  0  0  0  0  0  0  0  0  0  0
   70.0156   43.2772   58.8836 C   0  0  0  0  0  0  0  0  0  0  0  0
   70.7204   44.0805   57.9747 N   0  0  0  0  0  0  0  0  0  0  0  0
   70.0140   41.7957   58.8128 C   0  0  2  0  0  0  0  0  0  0  0  0
   71.3538   41.2365   58.3657 C   0  0  0  0  0  0  0  0  0  0  0  0
   71.2805   39.7478   58.5850 C   0  0  0  0  0  0  0  0  0  0  0  0
   69.9439   39.1561   58.5381 C   0  0  0  0  0  0  0  0  0  0  0  0
   68.8852   39.8828   57.9602 N   0  0  0  0  0  0  0  0  0  0  0  0
   69.0209   41.2765   57.8164 C   0  0  0  0  0  0  0  0  0  0  0  0
   68.5298   48.0979   56.4555 C   0  0  0  0  0  0  0  0  0  0  0  0
   68.9266   48.4105   55.0495 C   0  0  0  0  0  0  0  0  0  0  0  0
   69.3954   49.6594   54.7433 N   0  0  0  0  0  0  0  0  0  0  0  0
   69.7956   49.9915   53.5330 N   0  0  0  0  0  0  0  0  0  0  0  0
   69.7753   49.1291   52.4974 C   0  0  0  0  0  0  0  0  0  0  0  0
   70.1579   49.4422   51.3352 O   0  0  0  0  0  0  0  0  0  0  0  0
   69.3175   47.8651   52.7331 C   0  0  0  0  0  0  0  0  0  0  0  0
   68.8964   47.5177   54.0099 C   0  0  0  0  0  0  0  0  0  0  0  0
   68.3831   46.1533   54.2061 C   0  0  0  0  0  0  0  0  0  0  0  0
   67.4487   45.7941   53.0689 C   0  0  0  0  0  0  0  0  0  0  0  0
   67.8921   46.2170   51.7212 C   0  0  0  0  0  0  0  0  0  0  0  0
   69.2564   46.8184   51.6687 C   0  0  0  0  0  0  0  0  0  0  0  0
  8  9  2  0
  9 10  1  0
 11  9  1  6
 10  1  1  0
  1  2  2  0
  1  6  1  0
  2  3  1  0
  3 17  1  0
  3  4  2  0
 17 18  1  0
 18 19  2  0
 18 24  1  0
 19 20  1  0
 20 21  1  0
 21 22  2  0
 21 23  1  0
 23 24  2  0
 23 28  1  0
 24 25  1  0
 25 26  1  0
 26 27  1  0
 27 28  1  0
  4  5  1  0
  5  6  2  0
  6  7  1  0
 11 12  1  0
 11 16  1  0
 12 13  1  0
 13 14  1  0
 14 15  1  0
 15 16  1  0
M  CHG  1  15   1
M  END
>  <minimizedAffinity>  (669) 
-8.87818

$$$$
cs_full_output_folder/data/smiles/300.pdb
     RDKit          3D

 26 28  0  0  0  0  0  0  0  0999 V2000
   71.9038   45.1182   57.8065 O   0  0  0  0  0  0  0  0  0  0  0  0
   70.9517   45.7063   58.3688 C   0  0  0  0  0  0  0  0  0  0  0  0
   70.1122   44.8437   59.1522 N   0  0  0  0  0  0  0  0  0  0  0  0
   70.3684   43.4735   59.2527 N   0  0  0  0  0  0  0  0  0  0  0  0
   69.7433   42.5297   58.3959 C   0  0  0  0  0  0  0  0  0  0  0  0
   68.9445   42.9840   57.5393 O   0  0  0  0  0  0  0  0  0  0  0  0
   69.9768   41.0837   58.4588 C   0  0  0  0  0  0  0  0  0  0  0  0
   71.2280   40.5393   58.4366 C   0  0  0  0  0  0  0  0  0  0  0  0
   71.4163   39.1869   58.4965 C   0  0  0  0  0  0  0  0  0  0  0  0
   70.3145   38.3614   58.5807 C   0  0  0  0  0  0  0  0  0  0  0  0
   70.5310   37.0054   58.6390 F   0  0  0  0  0  0  0  0  0  0  0  0
   69.0303   38.8781   58.6045 C   0  0  0  0  0  0  0  0  0  0  0  0
   68.8845   40.2517   58.5423 C   0  0  0  0  0  0  0  0  0  0  0  0
   70.7547   47.1207   58.2166 C   0  0  0  0  0  0  0  0  0  0  0  0
   69.5598   47.6935   57.6280 C   0  0  0  0  0  0  0  0  0  0  0  0
   69.0867   47.0885   56.3646 C   0  0  0  0  0  0  0  0  0  0  0  0
   69.2700   47.7462   55.1796 N   0  0  0  0  0  0  0  0  0  0  0  0
   68.9015   47.2656   53.9978 C   0  0  0  0  0  0  0  0  0  0  0  0
   69.0983   47.9523   52.8056 C   0  0  0  0  0  0  0  0  0  0  0  0
   68.7079   47.4379   51.5881 C   0  0  0  0  0  0  0  0  0  0  0  0
   68.1015   46.2024   51.5251 C   0  0  0  0  0  0  0  0  0  0  0  0
   67.8992   45.5060   52.7069 C   0  0  0  0  0  0  0  0  0  0  0  0
   68.2927   46.0302   53.9213 C   0  0  0  0  0  0  0  0  0  0  0  0
   68.1045   45.3611   55.1070 C   0  0  0  0  0  0  0  0  0  0  0  0
   67.5501   44.2323   55.0481 O   0  0  0  0  0  0  0  0  0  0  0  0
   68.4978   45.8898   56.2935 N   0  0  0  0  0  0  0  0  0  0  0  0
  1  2  2  0
  2 14  1  0
  2  3  1  0
 14 15  1  0
 15 16  1  0
 16 17  2  0
 16 26  1  0
 17 18  1  0
 18 19  2  0
 18 23  1  0
 19 20  1  0
 20 21  2  0
 21 22  1  0
 22 23  2  0
 23 24  1  0
 24 25  2  0
 24 26  1  0
  3  4  1  0
  4  5  1  0
  5  6  2  0
  5  7  1  0
  7  8  2  0
  7 13  1  0
  8  9  1  0
  9 10  2  0
 10 11  1  0
 10 12  1  0
 12 13  2  0
M  END
>  <minimizedAffinity>  (670) 
-8.87713

$$$$
cs_full_output_folder/data/smiles/5666.pdb
     RDKit          3D

 29 32  0  0  0  0  0  0  0  0999 V2000
   71.4298   47.1633   58.8450 C   0  0  0  0  0  0  0  0  0  0  0  0
   71.4926   45.7832   58.7054 C   0  0  0  0  0  0  0  0  0  0  0  0
   70.6506   45.1188   57.8391 C   0  0  0  0  0  0  0  0  0  0  0  0
   69.7341   45.8210   57.0996 C   0  0  0  0  0  0  0  0  0  0  0  0
   69.6267   47.2196   57.2018 C   0  0  0  0  0  0  0  0  0  0  0  0
   70.4771   47.8434   58.0694 C   0  0  0  0  0  0  0  0  0  0  0  0
   76.1035   48.1202   59.1464 N   0  0  0  0  0  0  0  0  0  0  0  0
   75.3572   48.2002   57.9629 C   0  0  0  0  0  0  0  0  0  0  0  0
   73.9998   48.8477   58.0917 C   0  0  0  0  0  0  0  0  0  0  0  0
   73.4756   48.5863   59.4282 N   0  0  0  0  0  0  0  0  0  0  0  0
   72.3393   47.8410   59.7387 C   0  0  0  0  0  0  0  0  0  0  0  0
   72.0654   47.7459   60.9994 O   0  0  0  0  0  0  0  0  0  0  0  0
   74.2876   49.2051   60.4623 C   0  0  0  0  0  0  0  0  0  0  0  0
   75.6773   48.7061   60.3412 C   0  0  0  0  0  0  0  0  0  0  0  0
   75.4656   45.7357   58.9340 C   0  0  0  0  0  0  0  0  0  0  0  0
   76.5058   46.7463   59.3668 C   0  0  0  0  0  0  0  0  0  0  0  0
   76.6030   46.5972   60.8913 C   0  0  0  0  0  0  0  0  0  0  0  0
   68.5973   47.8919   56.3419 C   0  0  0  0  0  0  0  0  0  0  0  0
   69.1647   48.0310   54.9880 C   0  0  0  0  0  0  0  0  0  0  0  0
   70.1274   48.9763   54.7736 N   0  0  0  0  0  0  0  0  0  0  0  0
   70.6254   49.2370   53.5943 N   0  0  0  0  0  0  0  0  0  0  0  0
   70.2073   48.5743   52.5129 C   0  0  0  0  0  0  0  0  0  0  0  0
   70.6777   48.8124   51.3539 O   0  0  0  0  0  0  0  0  0  0  0  0
   69.2369   47.5928   52.6183 C   0  0  0  0  0  0  0  0  0  0  0  0
   68.8241   46.8884   51.5071 C   0  0  0  0  0  0  0  0  0  0  0  0
   67.8664   45.8945   51.6973 C   0  0  0  0  0  0  0  0  0  0  0  0
   67.3519   45.6246   52.9438 C   0  0  0  0  0  0  0  0  0  0  0  0
   67.7812   46.3474   54.0446 C   0  0  0  0  0  0  0  0  0  0  0  0
   68.7191   47.3336   53.8959 C   0  0  0  0  0  0  0  0  0  0  0  0
 15 16  1  0
 16 17  1  0
 16  7  1  0
  7  8  1  0
  7 14  1  0
  8  9  1  0
  9 10  1  0
 10 11  1  0
 10 13  1  0
 11 12  2  0
 11  1  1  0
  1  2  2  0
  1  6  1  0
  2  3  1  0
  3  4  2  0
  4  5  1  0
  5 18  1  0
  5  6  2  0
 18 19  1  0
 19 20  2  0
 19 29  1  0
 20 21  1  0
 21 22  1  0
 22 23  2  0
 22 24  1  0
 24 25  1  0
 24 29  2  0
 25 26  2  0
 26 27  1  0
 27 28  2  0
 28 29  1  0
 13 14  1  0
M  CHG  1   7   1
M  END
>  <minimizedAffinity>  (671) 
-8.87621

$$$$
cs_full_output_folder/data/smiles/6596.pdb
     RDKit          3D

 26 29  0  0  0  0  0  0  0  0999 V2000
   71.6215   47.2816   58.7281 C   0  0  0  0  0  0  0  0  0  0  0  0
   71.4862   45.9087   58.7014 C   0  0  0  0  0  0  0  0  0  0  0  0
   70.5418   45.3074   57.8885 C   0  0  0  0  0  0  0  0  0  0  0  0
   69.7527   46.1040   57.1203 C   0  0  0  0  0  0  0  0  0  0  0  0
   69.8450   47.4935   57.1077 C   0  0  0  0  0  0  0  0  0  0  0  0
   70.7997   48.0468   57.9330 C   0  0  0  0  0  0  0  0  0  0  0  0
   76.8628   49.6441   59.1719 C   0  0  0  0  0  0  0  0  0  0  0  0
   75.5832   49.0914   59.6149 N   0  0  0  0  0  0  0  0  0  0  0  0
   74.6094   50.1248   59.5103 C   0  0  0  0  0  0  0  0  0  0  0  0
   73.1866   49.7102   59.4679 C   0  0  0  0  0  0  0  0  0  0  0  0
   72.8519   47.9893   59.7943 P   0  0  0  0  0  0  0  0  0  0  0  0
   72.3656   47.8092   61.2196 O   0  0  0  0  0  0  0  0  0  0  0  0
   74.3776   47.0077   59.6283 C   0  0  0  0  0  0  0  0  0  0  0  0
   75.3411   47.9105   58.8488 C   0  0  0  0  0  0  0  0  0  0  0  0
   68.9284   48.2015   56.2301 C   0  0  0  0  0  0  0  0  0  0  0  0
   69.3214   48.3211   54.8314 C   0  0  0  0  0  0  0  0  0  0  0  0
   70.2035   49.2611   54.4548 N   0  0  0  0  0  0  0  0  0  0  0  0
   70.6097   49.4357   53.2080 N   0  0  0  0  0  0  0  0  0  0  0  0
   70.1559   48.6635   52.2047 C   0  0  0  0  0  0  0  0  0  0  0  0
   70.5265   48.8073   51.0007 O   0  0  0  0  0  0  0  0  0  0  0  0
   69.2476   47.6834   52.5397 C   0  0  0  0  0  0  0  0  0  0  0  0
   68.7518   46.8615   51.5327 C   0  0  0  0  0  0  0  0  0  0  0  0
   67.8368   45.8689   51.8453 C   0  0  0  0  0  0  0  0  0  0  0  0
   67.4278   45.7070   53.1585 C   0  0  0  0  0  0  0  0  0  0  0  0
   67.8992   46.5039   54.1788 C   0  0  0  0  0  0  0  0  0  0  0  0
   68.8143   47.4933   53.8540 C   0  0  0  0  0  0  0  0  0  0  0  0
  7  8  1  0
  8  9  1  0
  8 14  1  0
  9 10  1  0
 10 11  1  0
 11 12  2  0
 11  1  1  0
 11 13  1  0
  1  2  2  0
  1  6  1  0
  2  3  1  0
  3  4  2  0
  4  5  1  0
  5 15  1  0
  5  6  2  0
 15 16  1  0
 16 17  2  0
 16 26  1  0
 17 18  1  0
 18 19  1  0
 19 20  2  0
 19 21  1  0
 21 22  1  0
 21 26  2  0
 22 23  2  0
 23 24  1  0
 24 25  2  0
 25 26  1  0
 13 14  1  0
M  CHG  1   8   1
M  END
>  <minimizedAffinity>  (672) 
-8.87491

$$$$
cs_full_output_folder/data/smiles/5849.pdb
     RDKit          3D

 29 32  0  0  0  0  0  0  0  0999 V2000
   71.6388   46.9534   58.9942 C   0  0  0  0  0  0  0  0  0  0  0  0
   70.6872   47.6899   58.3090 C   0  0  0  0  0  0  0  0  0  0  0  0
   69.8065   47.1516   57.4168 C   0  0  0  0  0  0  0  0  0  0  0  0
   69.9131   45.7652   57.2158 C   0  0  0  0  0  0  0  0  0  0  0  0
   70.8433   45.0012   57.8754 C   0  0  0  0  0  0  0  0  0  0  0  0
   71.7060   45.5998   58.7653 C   0  0  0  0  0  0  0  0  0  0  0  0
   72.6400   44.8518   59.4346 F   0  0  0  0  0  0  0  0  0  0  0  0
   75.3789   48.7962   57.8571 C   0  0  1  0  0  0  0  0  0  0  0  0
   75.2822   49.7401   59.0836 C   0  0  0  0  0  0  0  0  0  0  0  0
   74.8608   48.7082   60.1552 C   0  0  0  0  0  0  0  0  0  0  0  0
   73.8260   48.0398   59.4416 N   0  0  0  0  0  0  0  0  0  0  0  0
   72.5244   47.6280   59.9385 C   0  0  0  0  0  0  0  0  0  0  0  0
   72.2476   47.8747   61.1272 O   0  0  0  0  0  0  0  0  0  0  0  0
   74.2759   47.8176   58.0810 C   0  0  0  0  0  0  0  0  0  0  0  0
   75.1555   49.5689   56.5950 C   0  0  0  0  0  0  0  0  0  0  0  0
   73.2740   50.9019   55.7578 C   0  0  0  0  0  0  0  0  0  0  0  0
   73.8055   49.7043   56.2604 N   0  0  0  0  0  0  0  0  0  0  0  0
   68.7604   47.8893   56.6689 C   0  0  0  0  0  0  0  0  0  0  0  0
   69.2080   48.0937   55.3042 C   0  0  0  0  0  0  0  0  0  0  0  0
   70.1744   49.0423   55.1076 N   0  0  0  0  0  0  0  0  0  0  0  0
   70.7101   49.2988   53.9390 N   0  0  0  0  0  0  0  0  0  0  0  0
   70.3455   48.6388   52.8198 C   0  0  0  0  0  0  0  0  0  0  0  0
   70.8841   48.9149   51.7186 O   0  0  0  0  0  0  0  0  0  0  0  0
   69.3766   47.6677   52.9290 C   0  0  0  0  0  0  0  0  0  0  0  0
   68.9651   46.9804   51.8088 C   0  0  0  0  0  0  0  0  0  0  0  0
   67.9806   46.0127   51.9032 C   0  0  0  0  0  0  0  0  0  0  0  0
   67.4415   45.7765   53.1488 C   0  0  0  0  0  0  0  0  0  0  0  0
   67.8549   46.4694   54.2869 C   0  0  0  0  0  0  0  0  0  0  0  0
   68.8233   47.4140   54.1783 C   0  0  0  0  0  0  0  0  0  0  0  0
 16 17  1  0
 17 15  1  0
  8 15  1  6
  8  9  1  0
  8 14  1  0
  9 10  1  0
 10 11  1  0
 11 12  1  0
 11 14  1  0
 12 13  2  0
 12  1  1  0
  1  2  2  0
  1  6  1  0
  2  3  1  0
  3 18  1  0
  3  4  2  0
 18 19  1  0
 19 20  2  0
 19 29  1  0
 20 21  1  0
 21 22  1  0
 22 23  2  0
 22 24  1  0
 24 25  1  0
 24 29  2  0
 25 26  2  0
 26 27  1  0
 27 28  2  0
 28 29  1  0
  4  5  1  0
  5  6  2  0
  6  7  1  0
M  CHG  1  17   1
M  END
>  <minimizedAffinity>  (673) 
-8.87463

$$$$
cs_full_output_folder/data/smiles/1264.pdb
     RDKit          3D

 27 30  0  0  0  0  0  0  0  0999 V2000
   71.7491   46.8777   59.1891 C   0  0  0  0  0  0  0  0  0  0  0  0
   71.4854   48.2165   59.0572 C   0  0  0  0  0  0  0  0  0  0  0  0
   70.4839   48.6697   58.1895 C   0  0  0  0  0  0  0  0  0  0  0  0
   69.7478   47.7872   57.4573 C   0  0  0  0  0  0  0  0  0  0  0  0
   70.0481   46.4235   57.6192 C   0  0  0  0  0  0  0  0  0  0  0  0
   71.0281   45.9632   58.4665 C   0  0  0  0  0  0  0  0  0  0  0  0
   71.2414   44.5675   58.5475 N   0  0  0  0  0  0  0  0  0  0  0  0
   70.3976   43.6398   59.1865 C   0  0  0  0  0  0  0  0  0  0  0  0
   69.3539   43.8362   59.8737 O   0  0  0  0  0  0  0  0  0  0  0  0
   70.9301   42.2571   58.9316 C   0  0  0  0  0  0  0  0  0  0  0  0
   71.8466   42.4785   57.7421 C   0  0  0  0  0  0  0  0  0  0  0  0
   72.3328   43.8582   58.0070 C   0  0  0  0  0  0  0  0  0  0  0  0
   73.5141   44.2917   57.7785 O   0  0  0  0  0  0  0  0  0  0  0  0
   73.2016   47.0756   61.1915 C   0  0  0  0  0  0  0  0  0  0  0  0
   72.7356   46.4483   60.0437 O   0  0  0  0  0  0  0  0  0  0  0  0
   68.6634   48.1528   56.5254 C   0  0  0  0  0  0  0  0  0  0  0  0
   69.2035   48.3112   55.1499 C   0  0  0  0  0  0  0  0  0  0  0  0
   70.1641   49.2325   54.8865 N   0  0  0  0  0  0  0  0  0  0  0  0
   70.7327   49.4128   53.7160 N   0  0  0  0  0  0  0  0  0  0  0  0
   70.3714   48.6540   52.6680 C   0  0  0  0  0  0  0  0  0  0  0  0
   70.9158   48.8210   51.5351 O   0  0  0  0  0  0  0  0  0  0  0  0
   69.3879   47.6812   52.8512 C   0  0  0  0  0  0  0  0  0  0  0  0
   69.0199   46.9175   51.7539 C   0  0  0  0  0  0  0  0  0  0  0  0
   68.0369   45.9562   51.9017 C   0  0  0  0  0  0  0  0  0  0  0  0
   67.4625   45.8021   53.1515 C   0  0  0  0  0  0  0  0  0  0  0  0
   67.8303   46.5614   54.2422 C   0  0  0  0  0  0  0  0  0  0  0  0
   68.8120   47.5207   54.0980 C   0  0  0  0  0  0  0  0  0  0  0  0
 14 15  1  0
 15  1  1  0
  1  2  2  0
  1  6  1  0
  2  3  1  0
  3  4  2  0
  4 16  1  0
  4  5  1  0
 16 17  1  0
 17 18  2  0
 17 27  1  0
 18 19  1  0
 19 20  1  0
 20 21  2  0
 20 22  1  0
 22 23  1  0
 22 27  2  0
 23 24  2  0
 24 25  1  0
 25 26  2  0
 26 27  1  0
  5  6  2  0
  6  7  1  0
  7  8  1  0
  7 12  1  0
  8  9  2  0
  8 10  1  0
 10 11  1  0
 11 12  1  0
 12 13  2  0
M  END
>  <minimizedAffinity>  (674) 
-8.87258

$$$$
cs_full_output_folder/data/smiles/2668.pdb
     RDKit          3D

 25 26  0  0  0  0  0  0  0  0999 V2000
   69.0642   47.7094   52.6819 C   0  0  0  0  0  0  0  0  0  0  0  0
   68.4291   47.1885   51.5741 C   0  0  0  0  0  0  0  0  0  0  0  0
   67.7193   46.0097   51.6439 C   0  0  0  0  0  0  0  0  0  0  0  0
   67.6634   45.3571   52.8740 C   0  0  0  0  0  0  0  0  0  0  0  0
   68.2838   45.8425   54.0039 C   0  0  0  0  0  0  0  0  0  0  0  0
   68.9796   47.0273   53.8756 C   0  0  0  0  0  0  0  0  0  0  0  0
   69.9681   49.2116   52.5964 S   0  0  0  0  0  0  0  0  0  0  0  0
   71.4309   48.9594   52.8878 O   0  0  0  0  0  0  0  0  0  0  0  0
   69.9025   49.6677   51.1594 O   0  0  0  0  0  0  0  0  0  0  0  0
   68.5780   49.8836   57.2276 C   0  0  0  0  0  0  0  0  0  0  0  0
   69.4381   50.0595   56.0015 C   0  0  2  0  0  0  0  0  0  0  0  0
   70.2601   51.2936   56.1362 C   0  0  0  0  0  0  0  0  0  0  0  0
   70.0232   52.2909   55.0224 C   0  0  0  0  0  0  0  0  0  0  0  0
   70.0896   51.6319   53.6648 C   0  0  0  0  0  0  0  0  0  0  0  0
   69.3233   50.4393   53.5710 N   0  0  0  0  0  0  0  0  0  0  0  0
   68.6209   50.0270   54.7320 C   0  0  0  0  0  0  0  0  0  0  0  0
   68.2184   45.1469   55.2951 C   0  0  0  0  0  0  0  0  0  0  0  0
   68.5196   45.7871   56.3349 O   0  0  0  0  0  0  0  0  0  0  0  0
   67.8385   43.8005   55.4465 N   0  0  0  0  0  0  0  0  0  0  0  0
   67.7790   43.1454   56.6810 N   0  0  0  0  0  0  0  0  0  0  0  0
   67.5969   41.7381   56.7347 C   0  0  0  0  0  0  0  0  0  0  0  0
   67.4945   41.1354   55.6249 O   0  0  0  0  0  0  0  0  0  0  0  0
   67.5274   40.9972   58.0375 C   0  0  0  0  0  0  0  0  0  0  0  0
   68.1629   41.7894   59.1526 C   0  0  0  0  0  0  0  0  0  0  0  0
   68.2595   39.6875   57.8549 C   0  0  0  0  0  0  0  0  0  0  0  0
 11 10  1  1
 11 12  1  0
 11 16  1  0
 12 13  1  0
 13 14  1  0
 14 15  1  0
 15  7  1  0
 15 16  1  0
  7  8  2  0
  7  9  2  0
  7  1  1  0
  1  2  2  0
  1  6  1  0
  2  3  1  0
  3  4  2  0
  4  5  1  0
  5 17  1  0
  5  6  2  0
 17 18  2  0
 17 19  1  0
 19 20  1  0
 20 21  1  0
 21 22  2  0
 21 23  1  0
 23 24  1  0
 23 25  1  0
M  END
>  <minimizedAffinity>  (675) 
-8.87257

$$$$
cs_full_output_folder/data/smiles/963.pdb
     RDKit          3D

 27 30  0  0  0  0  0  0  0  0999 V2000
   73.6303   50.0405   56.7497 C   0  0  0  0  0  0  0  0  0  0  0  0
   72.7740   50.8043   55.9796 C   0  0  0  0  0  0  0  0  0  0  0  0
   71.4206   50.6099   55.9485 C   0  0  0  0  0  0  0  0  0  0  0  0
   70.8587   49.6128   56.7122 C   0  0  0  0  0  0  0  0  0  0  0  0
   71.6993   48.8484   57.4799 C   0  0  0  0  0  0  0  0  0  0  0  0
   73.0432   49.0804   57.4776 N   0  0  0  0  0  0  0  0  0  0  0  0
   75.3405   49.5478   54.6317 O   0  0  0  0  0  0  0  0  0  0  0  0
   75.8872   49.9976   55.6552 C   0  0  0  0  0  0  0  0  0  0  0  0
   75.0373   50.2626   56.7649 N   0  0  0  0  0  0  0  0  0  0  0  0
   77.3140   50.2293   55.6842 C   0  0  0  0  0  0  0  0  0  0  0  0
   77.9905   50.2814   56.8134 C   0  0  0  0  0  0  0  0  0  0  0  0
   77.5627   50.1382   58.1990 C   0  0  0  0  0  0  0  0  0  0  0  0
   78.6339   50.2719   58.9699 C   0  0  0  0  0  0  0  0  0  0  0  0
   79.7633   50.4978   58.1535 N   0  0  0  0  0  0  0  0  0  0  0  0
   79.4495   50.5121   56.9141 C   0  0  0  0  0  0  0  0  0  0  0  0
   69.3976   49.3382   56.7011 C   0  0  0  0  0  0  0  0  0  0  0  0
   68.9897   48.1199   56.0379 C   0  0  0  0  0  0  0  0  0  0  0  0
   68.7330   46.9948   56.7754 N   0  0  0  0  0  0  0  0  0  0  0  0
   68.3870   45.8489   56.2166 N   0  0  0  0  0  0  0  0  0  0  0  0
   68.2636   45.7060   54.8917 C   0  0  0  0  0  0  0  0  0  0  0  0
   67.9361   44.6210   54.3401 O   0  0  0  0  0  0  0  0  0  0  0  0
   68.5041   46.7846   54.1040 C   0  0  0  0  0  0  0  0  0  0  0  0
   68.8691   48.0003   54.6996 C   0  0  0  0  0  0  0  0  0  0  0  0
   69.0741   49.1033   53.7628 C   0  0  0  0  0  0  0  0  0  0  0  0
   70.1380   48.6509   52.7828 C   0  0  0  0  0  0  0  0  0  0  0  0
   69.6687   47.4085   52.0738 C   0  0  0  0  0  0  0  0  0  0  0  0
   68.4256   46.7943   52.6283 C   0  0  0  0  0  0  0  0  0  0  0  0
  7  8  2  0
  8 10  1  0
  8  9  1  0
 10 11  2  0
 11 12  1  0
 11 15  1  0
 12 13  2  0
 13 14  1  0
 14 15  2  0
  9  1  1  0
  1  2  2  0
  1  6  1  0
  2  3  1  0
  3  4  2  0
  4 16  1  0
  4  5  1  0
 16 17  1  0
 17 18  2  0
 17 23  1  0
 18 19  1  0
 19 20  1  0
 20 21  2  0
 20 22  1  0
 22 23  2  0
 22 27  1  0
 23 24  1  0
 24 25  1  0
 25 26  1  0
 26 27  1  0
  5  6  2  0
M  END
>  <minimizedAffinity>  (676) 
-8.87034

$$$$
cs_full_output_folder/data/smiles/2301.pdb
     RDKit          3D

 28 32  0  0  0  0  0  0  0  0999 V2000
   71.6710   47.0343   58.9982 C   0  0  0  0  0  0  0  0  0  0  0  0
   70.6966   47.6744   58.2679 C   0  0  0  0  0  0  0  0  0  0  0  0
   69.8487   46.9783   57.3874 C   0  0  0  0  0  0  0  0  0  0  0  0
   70.0333   45.6327   57.2843 C   0  0  0  0  0  0  0  0  0  0  0  0
   71.0099   44.9444   58.0069 C   0  0  0  0  0  0  0  0  0  0  0  0
   71.8165   45.6703   58.8585 C   0  0  0  0  0  0  0  0  0  0  0  0
   72.8011   45.0656   59.6047 F   0  0  0  0  0  0  0  0  0  0  0  0
   72.2027   47.8915   61.1139 O   0  0  0  0  0  0  0  0  0  0  0  0
   72.5378   47.7925   59.9078 C   0  0  0  0  0  0  0  0  0  0  0  0
   73.7331   48.4079   59.4577 N   0  0  0  0  0  0  0  0  0  0  0  0
   74.1898   48.3371   58.0737 C   0  0  0  0  0  0  0  0  0  0  0  0
   75.0493   49.5701   57.8759 C   0  0  0  0  0  0  0  0  0  0  0  0
   75.5581   49.8749   59.2699 C   0  0  2  0  0  0  0  0  0  0  0  0
   76.7073   48.9704   59.6490 C   0  0  0  0  0  0  0  0  0  0  0  0
   75.8570   48.4073   60.7599 C   0  0  0  0  0  0  0  0  0  0  0  0
   74.6594   49.1736   60.2481 C   0  0  2  0  0  0  0  0  0  0  0  0
   68.8731   47.8113   56.6700 C   0  0  0  0  0  0  0  0  0  0  0  0
   69.3013   48.0069   55.2894 C   0  0  0  0  0  0  0  0  0  0  0  0
   70.2381   48.9828   55.0542 N   0  0  0  0  0  0  0  0  0  0  0  0
   70.6868   49.2929   53.8738 N   0  0  0  0  0  0  0  0  0  0  0  0
   70.2712   48.6828   52.7710 C   0  0  0  0  0  0  0  0  0  0  0  0
   70.7327   49.0160   51.6512 O   0  0  0  0  0  0  0  0  0  0  0  0
   69.3233   47.6788   52.9089 C   0  0  0  0  0  0  0  0  0  0  0  0
   68.8694   47.0086   51.7837 C   0  0  0  0  0  0  0  0  0  0  0  0
   67.9280   46.0032   51.9793 C   0  0  0  0  0  0  0  0  0  0  0  0
   67.4616   45.6813   53.2326 C   0  0  0  0  0  0  0  0  0  0  0  0
   67.9424   46.3745   54.3083 C   0  0  0  0  0  0  0  0  0  0  0  0
   68.8600   47.3648   54.1725 C   0  0  0  0  0  0  0  0  0  0  0  0
  8  9  2  0
  9  1  1  0
  9 10  1  0
  1  2  2  0
  1  6  1  0
  2  3  1  0
  3 17  1  0
  3  4  2  0
 17 18  1  0
 18 19  2  0
 18 28  1  0
 19 20  1  0
 20 21  1  0
 21 22  2  0
 21 23  1  0
 23 24  1  0
 23 28  2  0
 24 25  2  0
 25 26  1  0
 26 27  2  0
 27 28  1  0
  4  5  1  0
  5  6  2  0
  6  7  1  0
 10 11  1  0
 10 16  1  0
 11 12  1  0
 13 12  1  6
 13 14  1  0
 13 16  1  0
 14 15  1  0
 16 15  1  1
M  END
>  <minimizedAffinity>  (677) 
-8.86971

$$$$
cs_full_output_folder/data/smiles/8999.pdb
     RDKit          3D

 27 30  0  0  0  0  0  0  0  0999 V2000
   70.8524   46.1859   58.5233 C   0  0  0  0  0  0  0  0  0  0  0  0
   70.0041   46.8205   57.6501 C   0  0  0  0  0  0  0  0  0  0  0  0
   70.1137   48.1893   57.3701 C   0  0  0  0  0  0  0  0  0  0  0  0
   71.0876   48.9101   57.9819 C   0  0  0  0  0  0  0  0  0  0  0  0
   71.9641   48.2970   58.8715 C   0  0  0  0  0  0  0  0  0  0  0  0
   71.8298   46.9484   59.1250 C   0  0  0  0  0  0  0  0  0  0  0  0
   72.7146   46.3974   60.0056 F   0  0  0  0  0  0  0  0  0  0  0  0
   69.6420   44.4092   59.3467 O   0  0  0  0  0  0  0  0  0  0  0  0
   70.7113   44.7620   58.7939 C   0  0  0  0  0  0  0  0  0  0  0  0
   71.6741   43.7993   58.4805 N   0  0  0  0  0  0  0  0  0  0  0  0
   72.9504   44.0807   57.8415 C   0  0  0  0  0  0  0  0  0  0  0  0
   73.5946   42.8002   57.3943 C   0  0  0  0  0  0  0  0  0  0  0  0
   73.6930   41.7906   58.3917 N   0  0  0  0  0  0  0  0  0  0  0  0
   72.7298   41.9109   59.4384 C   0  0  0  0  0  0  0  0  0  0  0  0
   71.4281   42.4073   58.7955 C   0  0  0  0  0  0  0  0  0  0  0  0
   69.1690   48.8479   56.4399 C   0  0  0  0  0  0  0  0  0  0  0  0
   69.5334   48.6901   55.0076 C   0  0  0  0  0  0  0  0  0  0  0  0
   70.5226   49.4901   54.5012 N   0  0  0  0  0  0  0  0  0  0  0  0
   70.9091   49.4408   53.2499 N   0  0  0  0  0  0  0  0  0  0  0  0
   70.3307   48.5769   52.3895 C   0  0  0  0  0  0  0  0  0  0  0  0
   70.7462   48.5748   51.1904 O   0  0  0  0  0  0  0  0  0  0  0  0
   69.3283   47.7386   52.8219 C   0  0  0  0  0  0  0  0  0  0  0  0
   68.9466   47.8140   54.1388 C   0  0  0  0  0  0  0  0  0  0  0  0
   67.8790   46.9074   54.6238 C   0  0  0  0  0  0  0  0  0  0  0  0
   67.8379   45.5943   53.8790 C   0  0  0  0  0  0  0  0  0  0  0  0
   67.8468   45.7592   52.3923 C   0  0  0  0  0  0  0  0  0  0  0  0
   68.7262   46.8212   51.8723 C   0  0  0  0  0  0  0  0  0  0  0  0
  8  9  2  0
  9  1  1  0
  9 10  1  0
  1  2  2  0
  1  6  1  0
  2  3  1  0
  3 16  1  0
  3  4  2  0
 16 17  1  0
 17 18  2  0
 17 23  1  0
 18 19  1  0
 19 20  1  0
 20 21  2  0
 20 22  1  0
 22 23  2  0
 22 27  1  0
 23 24  1  0
 24 25  1  0
 25 26  1  0
 26 27  1  0
  4  5  1  0
  5  6  2  0
  6  7  1  0
 10 11  1  0
 10 15  1  0
 11 12  1  0
 12 13  1  0
 13 14  1  0
 14 15  1  0
M  CHG  1  13   1
M  END
>  <minimizedAffinity>  (678) 
-8.86888

$$$$
cs_full_output_folder/data/smiles/8007.pdb
     RDKit          3D

 28 31  0  0  0  0  0  0  0  0999 V2000
   69.9898   46.1534   57.2677 C   0  0  0  0  0  0  0  0  0  0  0  0
   70.1553   44.7727   57.2883 C   0  0  0  0  0  0  0  0  0  0  0  0
   70.9006   44.0957   58.2192 C   0  0  0  0  0  0  0  0  0  0  0  0
   71.5231   44.8827   59.1996 C   0  0  0  0  0  0  0  0  0  0  0  0
   71.3959   46.2435   59.2291 C   0  0  0  0  0  0  0  0  0  0  0  0
   70.6185   46.8757   58.2477 C   0  0  0  0  0  0  0  0  0  0  0  0
   70.5147   48.2198   58.3218 F   0  0  0  0  0  0  0  0  0  0  0  0
   71.0698   42.6541   58.2734 C   0  0  0  0  0  0  0  0  0  0  0  0
   72.2990   42.1138   58.4616 N   0  0  0  0  0  0  0  0  0  0  0  0
   72.5455   40.8238   58.5304 N   0  0  0  0  0  0  0  0  0  0  0  0
   71.5165   39.9767   58.4087 C   0  0  0  0  0  0  0  0  0  0  0  0
   71.7139   38.7238   58.4684 O   0  0  0  0  0  0  0  0  0  0  0  0
   70.2208   40.3954   58.2150 C   0  0  0  0  0  0  0  0  0  0  0  0
   69.2023   39.4767   58.1114 C   0  0  0  0  0  0  0  0  0  0  0  0
   67.9141   39.9346   57.9354 C   0  0  0  0  0  0  0  0  0  0  0  0
   67.7015   41.2931   57.8720 C   0  0  0  0  0  0  0  0  0  0  0  0
   68.7327   42.2227   57.9772 C   0  0  0  0  0  0  0  0  0  0  0  0
   70.0132   41.7808   58.1497 C   0  0  0  0  0  0  0  0  0  0  0  0
   69.5795   47.7157   55.2860 N   0  0  0  0  0  0  0  0  0  0  0  0
   69.1935   46.7523   56.2275 C   0  0  0  0  0  0  0  0  0  0  0  0
   67.9703   46.3702   56.1312 O   0  0  0  0  0  0  0  0  0  0  0  0
   68.6903   48.2577   54.2724 C   0  0  0  0  0  0  0  0  0  0  0  0
   67.8260   45.8185   52.5710 C   0  0  0  0  0  0  0  0  0  0  0  0
   68.8312   46.8403   52.1787 C   0  0  0  0  0  0  0  0  0  0  0  0
   69.5436   46.8999   51.0294 N   0  0  0  0  0  0  0  0  0  0  0  0
   70.3279   47.9415   51.0418 O   0  0  0  0  0  0  0  0  0  0  0  0
   70.1699   48.5955   52.1696 C   0  0  0  0  0  0  0  0  0  0  0  0
   69.2201   47.9261   52.9277 C   0  0  0  0  0  0  0  0  0  0  0  0
 23 24  1  0
 24 25  2  0
 24 28  1  0
 25 26  1  0
 26 27  1  0
 27 28  2  0
 28 22  1  0
 22 19  1  0
 19 20  1  0
 20 21  2  0
 20  1  1  0
  1  2  2  0
  1  6  1  0
  2  3  1  0
  3  8  1  0
  3  4  2  0
  8  9  2  0
  8 18  1  0
  9 10  1  0
 10 11  1  0
 11 12  2  0
 11 13  1  0
 13 14  1  0
 13 18  2  0
 14 15  2  0
 15 16  1  0
 16 17  2  0
 17 18  1  0
  4  5  1  0
  5  6  2  0
  6  7  1  0
M  END
>  <minimizedAffinity>  (679) 
-8.86863

$$$$
cs_full_output_folder/data/smiles/631.pdb
     RDKit          3D

 26 28  0  0  0  0  0  0  0  0999 V2000
   71.3865   46.9771   58.7344 C   0  0  0  0  0  0  0  0  0  0  0  0
   72.6836   47.4491   58.9610 C   0  0  0  0  0  0  0  0  0  0  0  0
   73.0748   48.5701   58.2611 C   0  0  0  0  0  0  0  0  0  0  0  0
   72.1839   49.1561   57.3911 C   0  0  0  0  0  0  0  0  0  0  0  0
   70.9108   48.6984   57.1649 C   0  0  0  0  0  0  0  0  0  0  0  0
   70.5111   47.5697   57.8664 C   0  0  0  0  0  0  0  0  0  0  0  0
   71.0422   45.8108   59.4928 N   0  0  0  0  0  0  0  0  0  0  0  0
   70.3567   44.4133   58.7465 S   0  0  0  0  0  0  0  0  0  0  0  0
   69.5098   44.8675   57.5925 O   0  0  0  0  0  0  0  0  0  0  0  0
   69.4981   43.6625   59.7090 O   0  0  0  0  0  0  0  0  0  0  0  0
   73.9441   42.7087   57.8593 C   0  0  0  0  0  0  0  0  0  0  0  0
   72.8843   43.5786   58.4220 C   0  0  0  0  0  0  0  0  0  0  0  0
   71.6204   43.3828   58.0829 C   0  0  0  0  0  0  0  0  0  0  0  0
   71.3064   42.3878   57.2236 F   0  0  0  0  0  0  0  0  0  0  0  0
   69.9761   49.3742   56.2266 C   0  0  0  0  0  0  0  0  0  0  0  0
   70.0148   48.9665   54.8485 C   0  0  0  0  0  0  0  0  0  0  0  0
   70.9894   49.4806   54.0172 N   0  0  0  0  0  0  0  0  0  0  0  0
   71.1085   49.1329   52.7591 N   0  0  0  0  0  0  0  0  0  0  0  0
   70.2796   48.2364   52.1721 C   0  0  0  0  0  0  0  0  0  0  0  0
   70.3997   47.9063   50.9639 O   0  0  0  0  0  0  0  0  0  0  0  0
   69.2838   47.6808   52.9344 C   0  0  0  0  0  0  0  0  0  0  0  0
   69.1828   48.0758   54.2797 C   0  0  0  0  0  0  0  0  0  0  0  0
   68.0709   47.4590   55.0111 C   0  0  0  0  0  0  0  0  0  0  0  0
   68.2308   45.9456   54.7709 C   0  0  0  0  0  0  0  0  0  0  0  0
   68.0284   45.5588   53.3488 C   0  0  0  0  0  0  0  0  0  0  0  0
   68.3133   46.6849   52.4133 C   0  0  0  0  0  0  0  0  0  0  0  0
 11 12  1  0
 12 13  2  0
 13 14  1  0
 13  8  1  0
  8  9  2  0
  8 10  2  0
  8  7  1  0
  7  1  1  0
  1  2  2  0
  1  6  1  0
  2  3  1  0
  3  4  2  0
  4  5  1  0
  5 15  1  0
  5  6  2  0
 15 16  1  0
 16 17  2  0
 16 22  1  0
 17 18  1  0
 18 19  1  0
 19 20  2  0
 19 21  1  0
 21 22  2  0
 21 26  1  0
 22 23  1  0
 23 24  1  0
 24 25  1  0
 25 26  1  0
M  END
>  <minimizedAffinity>  (680) 
-8.86557

$$$$
cs_full_output_folder/data/smiles/5799.pdb
     RDKit          3D

 29 32  0  0  0  0  0  0  0  0999 V2000
   71.9439   46.7898   59.4492 C   0  0  0  0  0  0  0  0  0  0  0  0
   70.9659   47.2910   58.6364 C   0  0  0  0  0  0  0  0  0  0  0  0
   70.1946   46.5276   57.7693 C   0  0  0  0  0  0  0  0  0  0  0  0
   70.4701   45.1793   57.7617 C   0  0  0  0  0  0  0  0  0  0  0  0
   71.4473   44.6219   58.5629 C   0  0  0  0  0  0  0  0  0  0  0  0
   72.1930   45.4330   59.4162 C   0  0  0  0  0  0  0  0  0  0  0  0
   73.1489   44.9281   60.2115 F   0  0  0  0  0  0  0  0  0  0  0  0
   76.7863   49.5910   58.2970 C   0  0  0  0  0  0  0  0  0  0  0  0
   76.2864   48.3726   58.7887 N   0  0  1  0  0  0  0  0  0  0  0  0
   76.4701   48.0539   60.1432 C   0  0  0  0  0  0  0  0  0  0  0  0
   75.6992   48.8589   61.1274 C   0  0  0  0  0  0  0  0  0  0  0  0
   74.4108   49.4140   60.6253 C   0  0  0  0  0  0  0  0  0  0  0  0
   73.6843   48.5166   59.7475 N   0  0  0  0  0  0  0  0  0  0  0  0
   72.6816   47.6932   60.3134 C   0  0  0  0  0  0  0  0  0  0  0  0
   72.4568   47.7659   61.5513 O   0  0  0  0  0  0  0  0  0  0  0  0
   73.9011   48.3966   58.3197 C   0  0  0  0  0  0  0  0  0  0  0  0
   75.2268   47.7499   58.0990 C   0  0  0  0  0  0  0  0  0  0  0  0
   69.1788   47.1262   56.9845 C   0  0  0  0  0  0  0  0  0  0  0  0
   68.7923   46.7342   55.6519 C   0  0  0  0  0  0  0  0  0  0  0  0
   68.0565   45.5653   55.6328 N   0  0  0  0  0  0  0  0  0  0  0  0
   67.5997   44.9742   54.5734 N   0  0  0  0  0  0  0  0  0  0  0  0
   67.8547   45.5310   53.3841 C   0  0  0  0  0  0  0  0  0  0  0  0
   67.4245   44.9821   52.3248 O   0  0  0  0  0  0  0  0  0  0  0  0
   68.6010   46.7276   53.3143 C   0  0  0  0  0  0  0  0  0  0  0  0
   69.0731   47.3360   54.4513 C   0  0  0  0  0  0  0  0  0  0  0  0
   69.8522   48.5783   54.4431 C   0  0  0  0  0  0  0  0  0  0  0  0
   69.5740   49.2834   53.0962 C   0  0  0  0  0  0  0  0  0  0  0  0
   69.8969   48.2815   51.9784 C   0  0  0  0  0  0  0  0  0  0  0  0
   68.8333   47.2389   51.9424 C   0  0  0  0  0  0  0  0  0  0  0  0
  9  8  1  1
  9 10  1  0
  9 17  1  0
 10 11  1  0
 11 12  1  0
 12 13  1  0
 13 14  1  0
 13 16  1  0
 14 15  2  0
 14  1  1  0
  1  2  2  0
  1  6  1  0
  2  3  1  0
  3 18  1  0
  3  4  2  0
 18 19  1  0
 19 20  2  0
 19 25  1  0
 20 21  1  0
 21 22  1  0
 22 23  2  0
 22 24  1  0
 24 25  2  0
 24 29  1  0
 25 26  1  0
 26 27  1  0
 27 28  1  0
 28 29  1  0
  4  5  1  0
  5  6  2  0
  6  7  1  0
 16 17  1  0
M  CHG  1   9   1
M  END
>  <minimizedAffinity>  (681) 
-8.86483

$$$$
cs_full_output_folder/data/smiles/7672.pdb
     RDKit          3D

 26 29  0  0  0  0  0  0  0  0999 V2000
   70.6433   45.7267   58.1046 C   0  0  0  0  0  0  0  0  0  0  0  0
   71.5332   46.3664   58.9837 C   0  0  0  0  0  0  0  0  0  0  0  0
   71.6023   47.7434   59.0096 C   0  0  0  0  0  0  0  0  0  0  0  0
   70.7948   48.4843   58.1691 C   0  0  0  0  0  0  0  0  0  0  0  0
   69.9158   47.9174   57.2985 C   0  0  0  0  0  0  0  0  0  0  0  0
   69.8652   46.5136   57.2930 C   0  0  0  0  0  0  0  0  0  0  0  0
   69.3856   43.5897   58.4125 N   0  0  0  0  0  0  0  0  0  0  0  0
   70.5782   44.2688   58.0897 C   0  0  0  0  0  0  0  0  0  0  0  0
   71.5821   43.5638   57.7884 O   0  0  0  0  0  0  0  0  0  0  0  0
   68.1513   39.5129   58.0694 C   0  0  0  0  0  0  0  0  0  0  0  0
   67.6720   40.8744   57.9575 N   0  0  0  0  0  0  0  0  0  0  0  0
   68.5749   41.6710   57.1533 C   0  0  0  0  0  0  0  0  0  0  0  0
   69.2891   42.1291   58.4073 C   0  0  0  0  0  0  0  0  0  0  0  0
   68.0359   41.6596   59.0960 C   0  0  0  0  0  0  0  0  0  0  0  0
   69.0187   48.6387   56.3651 C   0  0  0  0  0  0  0  0  0  0  0  0
   69.4571   48.6155   54.9922 C   0  0  0  0  0  0  0  0  0  0  0  0
   70.4171   49.4952   54.5670 N   0  0  0  0  0  0  0  0  0  0  0  0
   70.8381   49.5059   53.3204 N   0  0  0  0  0  0  0  0  0  0  0  0
   70.3555   48.6629   52.4083 C   0  0  0  0  0  0  0  0  0  0  0  0
   70.7477   48.6605   51.2121 O   0  0  0  0  0  0  0  0  0  0  0  0
   69.3609   47.7176   52.7588 C   0  0  0  0  0  0  0  0  0  0  0  0
   68.9433   47.7342   54.0671 C   0  0  0  0  0  0  0  0  0  0  0  0
   67.9252   46.7935   54.5219 C   0  0  0  0  0  0  0  0  0  0  0  0
   67.9513   45.5316   53.6294 C   0  0  0  0  0  0  0  0  0  0  0  0
   67.6724   46.0376   52.2170 C   0  0  0  0  0  0  0  0  0  0  0  0
   68.8645   46.7918   51.7291 C   0  0  0  0  0  0  0  0  0  0  0  0
 10 11  1  0
 11 12  1  0
 11 14  1  0
 12 13  1  0
 13  7  1  0
 13 14  1  0
  7  8  1  0
  8  9  2  0
  8  1  1  0
  1  2  2  0
  1  6  1  0
  2  3  1  0
  3  4  2  0
  4  5  1  0
  5 15  1  0
  5  6  2  0
 15 16  1  0
 16 17  2  0
 16 22  1  0
 17 18  1  0
 18 19  1  0
 19 20  2  0
 19 21  1  0
 21 22  2  0
 21 26  1  0
 22 23  1  0
 23 24  1  0
 24 25  1  0
 25 26  1  0
M  CHG  1  11   1
M  END
>  <minimizedAffinity>  (682) 
-8.86441

$$$$
cs_full_output_folder/data/smiles/4428.pdb
     RDKit          3D

 25 27  0  0  0  0  0  0  0  0999 V2000
   69.9404   50.3472   52.7125 O   0  0  0  0  0  0  0  0  0  0  0  0
   70.4653   49.5833   53.5928 C   0  0  0  0  0  0  0  0  0  0  0  0
   69.6481   48.5248   54.1765 C   0  0  0  0  0  0  0  0  0  0  0  0
   69.5495   48.4700   55.5795 C   0  0  0  0  0  0  0  0  0  0  0  0
   68.7886   47.4860   56.1512 C   0  0  0  0  0  0  0  0  0  0  0  0
   68.7048   47.4433   57.4107 O   0  0  0  0  0  0  0  0  0  0  0  0
   68.1280   46.5661   55.4326 N   0  0  0  0  0  0  0  0  0  0  0  0
   68.1958   46.5842   54.0834 C   0  0  0  0  0  0  0  0  0  0  0  0
   67.5071   45.6270   53.3810 C   0  0  0  0  0  0  0  0  0  0  0  0
   67.5563   45.6187   52.0154 C   0  0  0  0  0  0  0  0  0  0  0  0
   66.8748   44.6708   51.2786 F   0  0  0  0  0  0  0  0  0  0  0  0
   68.3055   46.5844   51.3958 C   0  0  0  0  0  0  0  0  0  0  0  0
   69.0058   47.5568   52.0984 C   0  0  0  0  0  0  0  0  0  0  0  0
   68.9643   47.5752   53.4730 C   0  0  0  0  0  0  0  0  0  0  0  0
   71.7419   49.8602   53.8797 O   0  0  0  0  0  0  0  0  0  0  0  0
   72.4444   50.6528   54.7297 C   0  0  0  0  0  0  0  0  0  0  0  0
   72.0465   52.0905   54.6884 C   0  0  0  0  0  0  0  0  0  0  0  0
   71.1462   52.5980   55.5742 O   0  0  0  0  0  0  0  0  0  0  0  0
   70.0408   52.0664   56.1892 C   0  0  0  0  0  0  0  0  0  0  0  0
   70.0610   51.5108   57.4420 C   0  0  0  0  0  0  0  0  0  0  0  0
   68.9126   50.9865   58.0250 C   0  0  0  0  0  0  0  0  0  0  0  0
   67.7112   51.0038   57.3687 C   0  0  0  0  0  0  0  0  0  0  0  0
   66.2764   50.3320   58.1344 Cl  0  0  0  0  0  0  0  0  0  0  0  0
   67.6868   51.5611   56.1092 C   0  0  0  0  0  0  0  0  0  0  0  0
   68.8034   52.0834   55.5145 C   0  0  0  0  0  0  0  0  0  0  0  0
  1  2  2  0
  2 15  1  0
  2  3  1  0
 15 16  1  0
 16 17  1  0
 17 18  1  0
 18 19  1  0
 19 20  2  0
 19 25  1  0
 20 21  1  0
 21 22  2  0
 22 23  1  0
 22 24  1  0
 24 25  2  0
  3  4  2  0
  3 14  1  0
  4  5  1  0
  5  6  2  0
  5  7  1  0
  7  8  1  0
  8  9  1  0
  8 14  2  0
  9 10  2  0
 10 11  1  0
 10 12  1  0
 12 13  2  0
 13 14  1  0
M  END
>  <minimizedAffinity>  (683) 
-8.86398

$$$$
cs_full_output_folder/data/smiles/4767.pdb
     RDKit          3D

 29 32  0  0  0  0  0  0  0  0999 V2000
   71.2087   46.6812   58.8192 C   0  0  0  0  0  0  0  0  0  0  0  0
   70.2862   47.3981   58.1143 C   0  0  0  0  0  0  0  0  0  0  0  0
   69.4781   46.7793   57.1514 C   0  0  0  0  0  0  0  0  0  0  0  0
   69.6272   45.4407   56.9277 C   0  0  0  0  0  0  0  0  0  0  0  0
   70.5556   44.6896   57.6276 C   0  0  0  0  0  0  0  0  0  0  0  0
   71.3259   45.3394   58.5621 C   0  0  0  0  0  0  0  0  0  0  0  0
   72.2367   44.5714   59.2412 F   0  0  0  0  0  0  0  0  0  0  0  0
   76.5161   48.4053   60.3033 C   0  0  0  0  0  0  0  0  0  0  0  0
   75.2808   49.2611   60.0651 C   0  0  1  0  0  0  0  0  0  0  0  0
   75.4513   50.4037   60.8599 F   0  0  0  0  0  0  0  0  0  0  0  0
   75.2696   49.7329   58.6455 C   0  0  0  0  0  0  0  0  0  0  0  0
   74.5045   48.8841   57.7326 C   0  0  0  0  0  0  0  0  0  0  0  0
   73.5796   48.0992   58.1404 N   0  0  0  0  0  0  0  0  0  0  0  0
   73.2420   48.0055   59.4950 N   0  0  0  0  0  0  0  0  0  0  0  0
   72.0607   47.2968   59.8269 C   0  0  0  0  0  0  0  0  0  0  0  0
   71.7738   47.2207   61.0673 O   0  0  0  0  0  0  0  0  0  0  0  0
   74.0332   48.5899   60.5145 C   0  0  0  0  0  0  0  0  0  0  0  0
   68.5039   47.5726   56.3724 C   0  0  0  0  0  0  0  0  0  0  0  0
   69.1107   47.8762   55.0445 C   0  0  0  0  0  0  0  0  0  0  0  0
   70.0686   48.8496   54.9815 N   0  0  0  0  0  0  0  0  0  0  0  0
   70.6023   49.2027   53.8361 N   0  0  0  0  0  0  0  0  0  0  0  0
   70.2442   48.6345   52.6770 C   0  0  0  0  0  0  0  0  0  0  0  0
   70.7617   48.9793   51.5776 O   0  0  0  0  0  0  0  0  0  0  0  0
   69.2810   47.6368   52.6455 C   0  0  0  0  0  0  0  0  0  0  0  0
   68.9200   47.0386   51.4520 C   0  0  0  0  0  0  0  0  0  0  0  0
   67.9678   46.0445   51.5041 C   0  0  0  0  0  0  0  0  0  0  0  0
   67.4003   45.6609   52.6968 C   0  0  0  0  0  0  0  0  0  0  0  0
   67.7776   46.2733   53.8778 C   0  0  0  0  0  0  0  0  0  0  0  0
   68.7243   47.2762   53.8805 C   0  0  0  0  0  0  0  0  0  0  0  0
  9  8  1  6
  9 10  1  0
  9 11  1  0
  9 17  1  0
 11 12  1  0
 12 13  2  0
 13 14  1  0
 14 15  1  0
 14 17  1  0
 15 16  2  0
 15  1  1  0
  1  2  2  0
  1  6  1  0
  2  3  1  0
  3 18  1  0
  3  4  2  0
 18 19  1  0
 19 20  2  0
 19 29  1  0
 20 21  1  0
 21 22  1  0
 22 23  2  0
 22 24  1  0
 24 25  1  0
 24 29  2  0
 25 26  2  0
 26 27  1  0
 27 28  2  0
 28 29  1  0
  4  5  1  0
  5  6  2  0
  6  7  1  0
M  END
>  <minimizedAffinity>  (684) 
-8.86219

$$$$
cs_full_output_folder/data/smiles/4718.pdb
     RDKit          3D

 26 28  0  0  0  0  0  0  0  0999 V2000
   70.8266   42.2360   58.5296 C   0  0  0  0  0  0  0  0  0  0  0  0
   69.6803   41.6852   57.7906 C   0  0  0  0  0  0  0  0  0  0  0  0
   68.8242   42.4908   57.0279 C   0  0  0  0  0  0  0  0  0  0  0  0
   67.8826   41.6266   56.5294 C   0  0  0  0  0  0  0  0  0  0  0  0
   68.1630   40.3985   56.9666 N   0  0  0  0  0  0  0  0  0  0  0  0
   69.2737   40.4153   57.7484 N   0  0  0  0  0  0  0  0  0  0  0  0
   69.8449   39.2571   58.3337 C   0  0  0  0  0  0  0  0  0  0  0  0
   69.1258   38.5778   59.2420 C   0  0  0  0  0  0  0  0  0  0  0  0
   69.6610   37.3889   59.8843 C   0  0  0  0  0  0  0  0  0  0  0  0
   70.8612   36.9138   59.6334 C   0  0  0  0  0  0  0  0  0  0  0  0
   71.4267   35.4438   60.4666 Cl  0  0  0  0  0  0  0  0  0  0  0  0
   71.7541   37.6286   58.7111 C   0  0  0  0  0  0  0  0  0  0  0  0
   71.0753   38.6645   57.9965 N   0  0  0  0  0  0  0  0  0  0  0  0
   68.9728   43.9277   56.8438 C   0  0  0  0  0  0  0  0  0  0  0  0
   69.7965   44.5675   57.5476 O   0  0  0  0  0  0  0  0  0  0  0  0
   68.2237   44.6655   55.8930 N   0  0  0  0  0  0  0  0  0  0  0  0
   68.2948   46.0724   55.6429 C   0  0  0  0  0  0  0  0  0  0  0  0
   68.3891   46.3647   54.1689 C   0  0  0  0  0  0  0  0  0  0  0  0
   67.6846   45.6616   53.2415 C   0  0  0  0  0  0  0  0  0  0  0  0
   67.8215   45.9784   51.8992 C   0  0  0  0  0  0  0  0  0  0  0  0
   68.6417   46.9802   51.4267 C   0  0  0  0  0  0  0  0  0  0  0  0
   69.3586   47.6934   52.3877 C   0  0  0  0  0  0  0  0  0  0  0  0
   69.2287   47.3855   53.7201 C   0  0  0  0  0  0  0  0  0  0  0  0
   70.2388   48.7673   51.9586 C   0  0  0  0  0  0  0  0  0  0  0  0
   71.3718   48.9048   52.4833 O   0  0  0  0  0  0  0  0  0  0  0  0
   69.8807   49.6798   50.9686 O   0  0  0  0  0  0  0  0  0  0  0  0
  1  2  1  0
  2  3  2  0
  2  6  1  0
  3 14  1  0
  3  4  1  0
 14 15  2  0
 14 16  1  0
 16 17  1  0
 17 18  1  0
 18 19  2  0
 18 23  1  0
 19 20  1  0
 20 21  2  0
 21 22  1  0
 22 24  1  0
 22 23  2  0
 24 25  2  0
 24 26  1  0
  4  5  2  0
  5  6  1  0
  6  7  1  0
  7  8  2  0
  7 13  1  0
  8  9  1  0
  9 10  2  0
 10 11  1  0
 10 12  1  0
 12 13  1  0
M  END
>  <minimizedAffinity>  (685) 
-8.86121

$$$$
cs_full_output_folder/data/smiles/1444.pdb
     RDKit          3D

 25 26  0  0  0  0  0  0  0  0999 V2000
   69.2241   50.4103   53.4139 N   0  0  0  0  0  0  0  0  0  0  0  0
   71.7238   52.7741   55.8636 C   0  0  0  0  0  0  0  0  0  0  0  0
   70.4322   53.1886   55.5152 C   0  0  0  0  0  0  0  0  0  0  0  0
   69.6075   52.4358   54.7235 C   0  0  0  0  0  0  0  0  0  0  0  0
   70.0677   51.2064   54.2439 C   0  0  0  0  0  0  0  0  0  0  0  0
   71.3357   50.8310   54.6031 C   0  0  0  0  0  0  0  0  0  0  0  0
   72.1943   51.5631   55.3971 C   0  0  0  0  0  0  0  0  0  0  0  0
   73.4962   51.0765   55.7107 N   0  0  0  0  0  0  0  0  0  0  0  0
   74.3697   50.4879   54.7750 C   0  0  0  0  0  0  0  0  0  0  0  0
   75.6676   50.0011   55.0787 N   0  0  0  0  0  0  0  0  0  0  0  0
   73.9511   50.3944   53.5782 O   0  0  0  0  0  0  0  0  0  0  0  0
   73.4962   54.4520   56.1917 C   0  0  0  0  0  0  0  0  0  0  0  0
   72.5527   53.5377   56.6615 O   0  0  0  0  0  0  0  0  0  0  0  0
   69.8312   48.9976   52.6604 S   0  0  0  0  0  0  0  0  0  0  0  0
   71.3150   48.8816   52.9000 O   0  0  0  0  0  0  0  0  0  0  0  0
   69.5778   49.0803   51.1832 O   0  0  0  0  0  0  0  0  0  0  0  0
   69.0163   47.5359   53.2318 C   0  0  0  0  0  0  0  0  0  0  0  0
   69.0420   47.2893   54.5851 C   0  0  0  0  0  0  0  0  0  0  0  0
   69.6783   48.1665   55.4129 F   0  0  0  0  0  0  0  0  0  0  0  0
   68.4194   46.1554   55.0618 C   0  0  0  0  0  0  0  0  0  0  0  0
   67.7929   45.3078   54.1794 C   0  0  0  0  0  0  0  0  0  0  0  0
   67.7739   45.5646   52.8295 C   0  0  0  0  0  0  0  0  0  0  0  0
   67.1620   44.7351   51.9738 F   0  0  0  0  0  0  0  0  0  0  0  0
   68.3971   46.7078   52.3157 C   0  0  0  0  0  0  0  0  0  0  0  0
   68.3767   46.9493   50.9857 F   0  0  0  0  0  0  0  0  0  0  0  0
 12 13  1  0
 13  2  1  0
  2  3  2  0
  2  7  1  0
  3  4  1  0
  4  5  2  0
  5  1  1  0
  5  6  1  0
  1 14  1  0
 14 15  2  0
 14 16  2  0
 14 17  1  0
 17 18  2  0
 17 24  1  0
 18 19  1  0
 18 20  1  0
 20 21  2  0
 21 22  1  0
 22 23  1  0
 22 24  2  0
 24 25  1  0
  6  7  2  0
  7  8  1  0
  8  9  1  0
  9 10  1  0
  9 11  2  0
M  END
>  <minimizedAffinity>  (686) 
-8.86113

$$$$
cs_full_output_folder/data/smiles/2391.pdb
     RDKit          3D

 26 27  0  0  0  0  0  0  0  0999 V2000
   70.0579   49.3117   52.6529 S   0  0  0  0  0  0  0  0  0  0  0  0
   70.1658   49.0890   51.1760 O   0  0  0  0  0  0  0  0  0  0  0  0
   71.4483   49.4478   53.2348 O   0  0  0  0  0  0  0  0  0  0  0  0
   69.3062   47.8889   53.3330 C   0  0  0  0  0  0  0  0  0  0  0  0
   68.6396   46.9975   52.5114 C   0  0  0  0  0  0  0  0  0  0  0  0
   68.5909   47.2718   51.1740 F   0  0  0  0  0  0  0  0  0  0  0  0
   68.0432   45.8700   53.0329 C   0  0  0  0  0  0  0  0  0  0  0  0
   67.3994   45.0212   52.2010 F   0  0  0  0  0  0  0  0  0  0  0  0
   68.0971   45.6027   54.3818 C   0  0  0  0  0  0  0  0  0  0  0  0
   67.5120   44.4973   54.8882 F   0  0  0  0  0  0  0  0  0  0  0  0
   68.7558   46.4755   55.2180 C   0  0  0  0  0  0  0  0  0  0  0  0
   68.8010   46.2008   56.5411 F   0  0  0  0  0  0  0  0  0  0  0  0
   69.3558   47.6167   54.6715 C   0  0  0  0  0  0  0  0  0  0  0  0
   69.9925   48.4486   55.5086 F   0  0  0  0  0  0  0  0  0  0  0  0
   69.0914   50.6808   53.0243 N   0  0  0  0  0  0  0  0  0  0  0  0
   70.1775   52.9222   55.7677 C   0  0  0  0  0  0  0  0  0  0  0  0
   69.1781   52.6794   56.6907 C   0  0  0  0  0  0  0  0  0  0  0  0
   68.1586   51.7814   56.3968 C   0  0  0  0  0  0  0  0  0  0  0  0
   68.1007   51.1068   55.1954 C   0  0  0  0  0  0  0  0  0  0  0  0
   69.0974   51.3491   54.2756 C   0  0  0  0  0  0  0  0  0  0  0  0
   70.1242   52.2522   54.5681 C   0  0  0  0  0  0  0  0  0  0  0  0
   72.4351   53.4639   56.7030 C   0  0  0  0  0  0  0  0  0  0  0  0
   72.5962   52.2377   56.9259 O   0  0  0  0  0  0  0  0  0  0  0  0
   71.2021   53.8485   56.1074 N   0  0  0  0  0  0  0  0  0  0  0  0
   73.7564   54.7307   58.3587 C   0  0  0  0  0  0  0  0  0  0  0  0
   73.4400   54.3253   57.0426 O   0  0  0  0  0  0  0  0  0  0  0  0
 25 26  1  0
 26 22  1  0
 22 23  2  0
 22 24  1  0
 24 16  1  0
 16 17  2  0
 16 21  1  0
 17 18  1  0
 18 19  2  0
 19 20  1  0
 20 15  1  0
 20 21  2  0
 15  1  1  0
  1  2  2  0
  1  3  2  0
  1  4  1  0
  4  5  2  0
  4 13  1  0
  5  6  1  0
  5  7  1  0
  7  8  1  0
  7  9  2  0
  9 10  1  0
  9 11  1  0
 11 12  1  0
 11 13  2  0
 13 14  1  0
M  END
>  <minimizedAffinity>  (687) 
-8.86112

$$$$
cs_full_output_folder/data/smiles/2547.pdb
     RDKit          3D

 26 29  0  0  0  0  0  0  0  0999 V2000
   71.0235   45.7010   58.3352 C   0  0  0  0  0  0  0  0  0  0  0  0
   70.1379   46.3144   57.4948 C   0  0  0  0  0  0  0  0  0  0  0  0
   70.0157   47.7008   57.3467 C   0  0  0  0  0  0  0  0  0  0  0  0
   70.8617   48.4552   58.1192 C   0  0  0  0  0  0  0  0  0  0  0  0
   71.7848   47.8609   58.9936 C   0  0  0  0  0  0  0  0  0  0  0  0
   71.8726   46.4955   59.1078 C   0  0  0  0  0  0  0  0  0  0  0  0
   72.7555   45.9018   59.9462 F   0  0  0  0  0  0  0  0  0  0  0  0
   73.0946   43.8096   57.2789 O   0  0  0  0  0  0  0  0  0  0  0  0
   72.1129   43.4126   57.9638 C   0  0  0  0  0  0  0  0  0  0  0  0
   71.7705   42.0483   58.3777 C   0  0  0  0  0  0  0  0  0  0  0  0
   70.6895   42.1099   59.0610 N   0  0  0  0  0  0  0  0  0  0  0  0
   70.2115   43.4569   59.1751 C   0  0  0  0  0  0  0  0  0  0  0  0
   69.1769   43.7805   59.7918 O   0  0  0  0  0  0  0  0  0  0  0  0
   71.1218   44.2900   58.4739 N   0  0  0  0  0  0  0  0  0  0  0  0
   68.9945   48.2530   56.4097 C   0  0  0  0  0  0  0  0  0  0  0  0
   69.3977   48.2700   55.0081 C   0  0  0  0  0  0  0  0  0  0  0  0
   70.3420   49.1993   54.6594 N   0  0  0  0  0  0  0  0  0  0  0  0
   70.7625   49.3571   53.4246 N   0  0  0  0  0  0  0  0  0  0  0  0
   70.2842   48.6077   52.4203 C   0  0  0  0  0  0  0  0  0  0  0  0
   70.6496   48.7168   51.2231 O   0  0  0  0  0  0  0  0  0  0  0  0
   69.3291   47.6479   52.6916 C   0  0  0  0  0  0  0  0  0  0  0  0
   68.8252   46.8465   51.6708 C   0  0  0  0  0  0  0  0  0  0  0  0
   67.8888   45.8901   51.9705 C   0  0  0  0  0  0  0  0  0  0  0  0
   67.4727   45.7488   53.2737 C   0  0  0  0  0  0  0  0  0  0  0  0
   67.9689   46.5445   54.2972 C   0  0  0  0  0  0  0  0  0  0  0  0
   68.9048   47.4996   53.9873 C   0  0  0  0  0  0  0  0  0  0  0  0
  8  9  2  0
  9 10  1  0
  9 14  1  0
 10 11  2  0
 11 12  1  0
 12 13  2  0
 12 14  1  0
 14  1  1  0
  1  2  2  0
  1  6  1  0
  2  3  1  0
  3 15  1  0
  3  4  2  0
 15 16  1  0
 16 17  2  0
 16 26  1  0
 17 18  1  0
 18 19  1  0
 19 20  2  0
 19 21  1  0
 21 22  1  0
 21 26  2  0
 22 23  2  0
 23 24  1  0
 24 25  2  0
 25 26  1  0
  4  5  1  0
  5  6  2  0
  6  7  1  0
M  END
>  <minimizedAffinity>  (688) 
-8.86101

$$$$
cs_full_output_folder/data/smiles/4119.pdb
     RDKit          3D

 25 27  0  0  0  0  0  0  0  0999 V2000
   69.6757   44.2957   57.0915 C   0  0  0  0  0  0  0  0  0  0  0  0
   70.5549   45.1460   57.4826 O   0  0  0  0  0  0  0  0  0  0  0  0
   68.6441   44.8206   56.2706 N   0  0  0  0  0  0  0  0  0  0  0  0
   72.3015   42.7945   57.5887 C   0  0  0  0  0  0  0  0  0  0  0  0
   70.9667   42.1923   57.7724 C   0  0  0  0  0  0  0  0  0  0  0  0
   69.8125   42.9241   57.5110 C   0  0  0  0  0  0  0  0  0  0  0  0
   68.7926   42.0257   57.7597 C   0  0  0  0  0  0  0  0  0  0  0  0
   69.3300   40.8531   58.1392 N   0  0  0  0  0  0  0  0  0  0  0  0
   70.6759   40.9506   58.1500 N   0  0  0  0  0  0  0  0  0  0  0  0
   71.5484   39.8716   58.5637 C   0  0  0  0  0  0  0  0  0  0  0  0
   72.6663   39.9103   59.2234 C   0  0  0  0  0  0  0  0  0  0  0  0
   73.2073   38.5579   59.4141 C   0  0  0  0  0  0  0  0  0  0  0  0
   74.6923   38.1462   60.2487 Cl  0  0  0  0  0  0  0  0  0  0  0  0
   72.3894   37.7083   58.8493 C   0  0  0  0  0  0  0  0  0  0  0  0
   71.2722   38.4439   58.2539 C   0  0  0  0  0  0  0  0  0  0  0  0
   68.5134   46.2076   55.8805 C   0  0  0  0  0  0  0  0  0  0  0  0
   68.5266   46.4231   54.4148 C   0  0  0  0  0  0  0  0  0  0  0  0
   67.7901   45.7154   53.5040 C   0  0  0  0  0  0  0  0  0  0  0  0
   67.8207   45.9614   52.1399 C   0  0  0  0  0  0  0  0  0  0  0  0
   68.6422   46.9842   51.6501 C   0  0  0  0  0  0  0  0  0  0  0  0
   69.3887   47.7117   52.5443 C   0  0  0  0  0  0  0  0  0  0  0  0
   69.3320   47.4393   53.8742 C   0  0  0  0  0  0  0  0  0  0  0  0
   70.2164   48.8052   52.0626 C   0  0  0  0  0  0  0  0  0  0  0  0
   71.2980   49.0845   52.6815 O   0  0  0  0  0  0  0  0  0  0  0  0
   69.8484   49.5466   50.9527 O   0  0  0  0  0  0  0  0  0  0  0  0
  4  5  1  0
  5  6  2  0
  5  9  1  0
  6  1  1  0
  6  7  1  0
  1  2  2  0
  1  3  1  0
  3 16  1  0
 16 17  1  0
 17 18  2  0
 17 22  1  0
 18 19  1  0
 19 20  2  0
 20 21  1  0
 21 23  1  0
 21 22  2  0
 23 24  2  0
 23 25  1  0
  7  8  2  0
  8  9  1  0
  9 10  1  0
 10 11  2  0
 10 15  1  0
 11 12  1  0
 12 13  1  0
 12 14  2  0
 14 15  1  0
M  END
>  <minimizedAffinity>  (689) 
-8.86083

$$$$
cs_full_output_folder/data/smiles/1292.pdb
     RDKit          3D

 23 25  0  0  0  0  0  0  0  0999 V2000
   68.3949   43.7313   56.1557 N   0  0  0  0  0  0  0  0  0  0  0  0
   68.1885   42.4977   56.4242 C   0  0  0  0  0  0  0  0  0  0  0  0
   67.1009   41.7052   55.8659 C   0  0  0  0  0  0  0  0  0  0  0  0
   66.2219   42.1035   55.0548 O   0  0  0  0  0  0  0  0  0  0  0  0
   67.2548   40.3974   56.4373 N   0  0  0  0  0  0  0  0  0  0  0  0
   68.3769   40.3866   57.3003 C   0  0  0  0  0  0  0  0  0  0  0  0
   68.8958   39.3591   58.0614 C   0  0  0  0  0  0  0  0  0  0  0  0
   70.0197   39.5520   58.8623 C   0  0  0  0  0  0  0  0  0  0  0  0
   70.6946   38.2594   59.8407 Cl  0  0  0  0  0  0  0  0  0  0  0  0
   70.6133   40.7920   58.8876 C   0  0  0  0  0  0  0  0  0  0  0  0
   70.0721   41.8108   58.1129 C   0  0  0  0  0  0  0  0  0  0  0  0
   68.9674   41.6273   57.3235 C   0  0  0  0  0  0  0  0  0  0  0  0
   67.6394   44.5309   55.3041 N   0  0  0  0  0  0  0  0  0  0  0  0
   69.3006   48.0421   53.5393 C   0  0  0  0  0  0  0  0  0  0  0  0
   68.7386   47.0281   52.7559 C   0  0  0  0  0  0  0  0  0  0  0  0
   68.2021   45.8953   53.3429 C   0  0  0  0  0  0  0  0  0  0  0  0
   68.1847   45.6939   54.7013 C   0  0  0  0  0  0  0  0  0  0  0  0
   68.7494   46.7143   55.4835 C   0  0  0  0  0  0  0  0  0  0  0  0
   69.2815   47.8365   54.8956 C   0  0  0  0  0  0  0  0  0  0  0  0
   69.9155   49.4095   51.1032 N   0  0  0  0  0  0  0  0  0  0  0  0
   69.9838   49.4807   52.8075 S   0  0  0  0  0  0  0  0  0  0  0  0
   71.4345   49.5658   53.2408 O   0  0  0  0  0  0  0  0  0  0  0  0
   69.2867   50.6832   53.3773 O   0  0  0  0  0  0  0  0  0  0  0  0
 20 21  1  0
 21 22  2  0
 21 23  2  0
 21 14  1  0
 14 15  2  0
 14 19  1  0
 15 16  1  0
 16 17  2  0
 17 13  1  0
 17 18  1  0
 13  1  1  0
  1  2  2  0
  2  3  1  0
  2 12  1  0
  3  4  2  0
  3  5  1  0
  5  6  1  0
  6  7  1  0
  6 12  2  0
  7  8  2  0
  8  9  1  0
  8 10  1  0
 10 11  2  0
 11 12  1  0
 18 19  2  0
M  END
>  <minimizedAffinity>  (690) 
-8.86035

$$$$
cs_full_output_folder/data/smiles/3015.pdb
     RDKit          3D

 27 30  0  0  0  0  0  0  0  0999 V2000
   70.5954   45.1692   58.6806 C   0  0  0  0  0  0  0  0  0  0  0  0
   69.7537   45.9436   57.9642 N   0  0  0  0  0  0  0  0  0  0  0  0
   69.9685   47.1916   57.6281 C   0  0  0  0  0  0  0  0  0  0  0  0
   71.1658   47.7775   58.0415 C   0  0  0  0  0  0  0  0  0  0  0  0
   72.0692   47.0385   58.7766 C   0  0  0  0  0  0  0  0  0  0  0  0
   71.7859   45.7046   59.1059 C   0  0  0  0  0  0  0  0  0  0  0  0
   72.7161   45.0393   59.8226 F   0  0  0  0  0  0  0  0  0  0  0  0
   69.3094   43.6533   59.9014 O   0  0  0  0  0  0  0  0  0  0  0  0
   70.2707   43.8022   59.0345 C   0  0  0  0  0  0  0  0  0  0  0  0
   70.8407   42.6255   58.5824 N   0  0  0  0  0  0  0  0  0  0  0  0
   70.3900   41.2939   59.0342 C   0  0  0  0  0  0  0  0  0  0  0  0
   71.6169   40.5644   59.5070 C   0  0  0  0  0  0  0  0  0  0  0  0
   72.7205   41.4119   59.6078 O   0  0  0  0  0  0  0  0  0  0  0  0
   73.1000   41.9113   58.3658 C   0  0  0  0  0  0  0  0  0  0  0  0
   71.9345   42.5846   57.6336 C   0  0  0  0  0  0  0  0  0  0  0  0
   69.0253   48.0221   56.8096 C   0  0  0  0  0  0  0  0  0  0  0  0
   68.6175   47.2012   55.6753 C   0  0  0  0  0  0  0  0  0  0  0  0
   68.0704   45.9928   55.8301 N   0  0  0  0  0  0  0  0  0  0  0  0
   67.7666   45.1929   54.8340 N   0  0  0  0  0  0  0  0  0  0  0  0
   68.0002   45.5630   53.5838 C   0  0  0  0  0  0  0  0  0  0  0  0
   67.7450   44.8604   52.5758 O   0  0  0  0  0  0  0  0  0  0  0  0
   68.5730   46.8201   53.3455 C   0  0  0  0  0  0  0  0  0  0  0  0
   68.8793   47.6442   54.4028 C   0  0  0  0  0  0  0  0  0  0  0  0
   69.3898   48.9807   54.1921 C   0  0  0  0  0  0  0  0  0  0  0  0
   69.8893   49.3069   52.8260 C   0  0  0  0  0  0  0  0  0  0  0  0
   70.0325   48.1207   51.9212 C   0  0  0  0  0  0  0  0  0  0  0  0
   68.8445   47.2184   51.9454 C   0  0  0  0  0  0  0  0  0  0  0  0
  8  9  2  0
  9  1  1  0
  9 10  1  0
  1  2  2  0
  1  6  1  0
  2  3  1  0
  3 16  1  0
  3  4  2  0
 16 17  1  0
 17 18  2  0
 17 23  1  0
 18 19  1  0
 19 20  1  0
 20 21  2  0
 20 22  1  0
 22 23  2  0
 22 27  1  0
 23 24  1  0
 24 25  1  0
 25 26  1  0
 26 27  1  0
  4  5  1  0
  5  6  2  0
  6  7  1  0
 10 11  1  0
 10 15  1  0
 11 12  1  0
 12 13  1  0
 13 14  1  0
 14 15  1  0
M  END
>  <minimizedAffinity>  (691) 
-8.86003

$$$$
cs_full_output_folder/data/smiles/379.pdb
     RDKit          3D

 26 28  0  0  0  0  0  0  0  0999 V2000
   69.0715   42.1940   57.2487 C   0  0  0  0  0  0  0  0  0  0  0  0
   67.9330   41.4648   56.8857 C   0  0  0  0  0  0  0  0  0  0  0  0
   67.8108   40.1226   57.1731 C   0  0  0  0  0  0  0  0  0  0  0  0
   68.8265   39.4653   57.8329 C   0  0  0  0  0  0  0  0  0  0  0  0
   69.9500   40.1368   58.2030 C   0  0  0  0  0  0  0  0  0  0  0  0
   70.0578   41.5022   57.9040 C   0  0  0  0  0  0  0  0  0  0  0  0
   70.1100   44.3369   57.3115 O   0  0  0  0  0  0  0  0  0  0  0  0
   69.1586   43.6093   56.9264 C   0  0  0  0  0  0  0  0  0  0  0  0
   68.1615   44.2566   56.1483 N   0  0  0  0  0  0  0  0  0  0  0  0
   68.2275   45.6139   55.8284 N   0  0  0  0  0  0  0  0  0  0  0  0
   68.3142   46.0591   54.4847 C   0  0  0  0  0  0  0  0  0  0  0  0
   67.7086   45.3308   53.4651 C   0  0  0  0  0  0  0  0  0  0  0  0
   67.7812   45.7451   52.1532 C   0  0  0  0  0  0  0  0  0  0  0  0
   68.4577   46.8972   51.8099 C   0  0  0  0  0  0  0  0  0  0  0  0
   69.0516   47.6098   52.8242 C   0  0  0  0  0  0  0  0  0  0  0  0
   68.9863   47.2066   54.1319 C   0  0  0  0  0  0  0  0  0  0  0  0
   69.5846   47.9311   55.1214 F   0  0  0  0  0  0  0  0  0  0  0  0
   71.2794   39.3531   59.0488 S   0  0  0  0  0  0  0  0  0  0  0  0
   72.5731   40.0280   58.7817 O   0  0  0  0  0  0  0  0  0  0  0  0
   70.9898   39.4653   60.5192 O   0  0  0  0  0  0  0  0  0  0  0  0
   71.3578   37.6702   58.6648 N   0  0  0  0  0  0  0  0  0  0  0  0
   72.6285   37.2827   58.1531 C   0  0  0  0  0  0  0  0  0  0  0  0
   72.4829   35.8407   57.6559 C   0  0  0  0  0  0  0  0  0  0  0  0
   72.2955   35.0088   58.9193 C   0  0  0  0  0  0  0  0  0  0  0  0
   71.0879   35.4369   59.6636 C   0  0  0  0  0  0  0  0  0  0  0  0
   70.9080   36.9177   59.7862 C   0  0  0  0  0  0  0  0  0  0  0  0
  7  8  2  0
  8  9  1  0
  8  1  1  0
  9 10  1  0
 10 11  1  0
 11 12  2  0
 11 16  1  0
 12 13  1  0
 13 14  2  0
 14 15  1  0
 15 16  2  0
 16 17  1  0
  1  2  2  0
  1  6  1  0
  2  3  1  0
  3  4  2  0
  4  5  1  0
  5 18  1  0
  5  6  2  0
 18 19  2  0
 18 20  2  0
 18 21  1  0
 21 22  1  0
 21 26  1  0
 22 23  1  0
 23 24  1  0
 24 25  1  0
 25 26  1  0
M  END
>  <minimizedAffinity>  (692) 
-8.85653

$$$$
cs_full_output_folder/data/smiles/2937.pdb
     RDKit          3D

 28 31  0  0  0  0  0  0  0  0999 V2000
   72.4840   48.3566   57.9909 C   0  0  0  0  0  0  0  0  0  0  0  0
   72.5252   47.2483   58.7955 C   0  0  0  0  0  0  0  0  0  0  0  0
   71.3931   46.4667   58.9751 C   0  0  0  0  0  0  0  0  0  0  0  0
   70.2055   46.7837   58.3548 C   0  0  0  0  0  0  0  0  0  0  0  0
   70.1541   47.8946   57.5451 C   0  0  0  0  0  0  0  0  0  0  0  0
   71.2658   48.6503   57.3758 C   0  0  0  0  0  0  0  0  0  0  0  0
   75.0295   47.4065   57.5982 O   0  0  0  0  0  0  0  0  0  0  0  0
   74.9230   48.6546   57.5594 C   0  0  0  0  0  0  0  0  0  0  0  0
   73.6098   49.2031   57.7579 N   0  0  0  0  0  0  0  0  0  0  0  0
   76.1039   49.4484   57.3208 C   0  0  0  0  0  0  0  0  0  0  0  0
   76.9203   49.8353   58.3104 N   0  0  0  0  0  0  0  0  0  0  0  0
   78.0269   50.5765   58.0841 C   0  0  0  0  0  0  0  0  0  0  0  0
   78.3749   50.9772   56.7945 C   0  0  0  0  0  0  0  0  0  0  0  0
   77.5546   50.5932   55.7723 C   0  0  0  0  0  0  0  0  0  0  0  0
   76.4236   49.8300   56.0407 C   0  0  0  0  0  0  0  0  0  0  0  0
   75.6425   49.4828   54.9410 O   0  0  0  0  0  0  0  0  0  0  0  0
   68.8972   48.2498   56.8589 C   0  0  0  0  0  0  0  0  0  0  0  0
   68.5951   47.3541   55.7237 C   0  0  0  0  0  0  0  0  0  0  0  0
   68.0933   46.1133   55.9367 N   0  0  0  0  0  0  0  0  0  0  0  0
   67.8147   45.2746   54.9553 N   0  0  0  0  0  0  0  0  0  0  0  0
   68.0085   45.5950   53.6784 C   0  0  0  0  0  0  0  0  0  0  0  0
   67.7396   44.7863   52.7328 O   0  0  0  0  0  0  0  0  0  0  0  0
   68.5192   46.8476   53.3967 C   0  0  0  0  0  0  0  0  0  0  0  0
   68.8084   47.7180   54.4142 C   0  0  0  0  0  0  0  0  0  0  0  0
   69.3416   49.0376   54.0641 C   0  0  0  0  0  0  0  0  0  0  0  0
   70.4071   48.8633   53.0235 C   0  0  0  0  0  0  0  0  0  0  0  0
   69.8779   48.2121   51.7959 C   0  0  0  0  0  0  0  0  0  0  0  0
   68.7511   47.2636   51.9777 C   0  0  0  0  0  0  0  0  0  0  0  0
  7  8  2  0
  8  9  1  0
  8 10  1  0
  9  1  1  0
  1  2  2  0
  1  6  1  0
  2  3  1  0
  3  4  2  0
  4  5  1  0
  5 17  1  0
  5  6  2  0
 17 18  1  0
 18 19  2  0
 18 24  1  0
 19 20  1  0
 20 21  1  0
 21 22  2  0
 21 23  1  0
 23 24  2  0
 23 28  1  0
 24 25  1  0
 25 26  1  0
 26 27  1  0
 27 28  1  0
 10 11  2  0
 10 15  1  0
 11 12  1  0
 12 13  2  0
 13 14  1  0
 14 15  2  0
 15 16  1  0
M  END
>  <minimizedAffinity>  (693) 
-8.85622

$$$$
cs_full_output_folder/data/smiles/3321.pdb
     RDKit          3D

 26 27  0  0  0  0  0  0  0  0999 V2000
   69.0149   46.8257   56.4506 S   0  0  0  0  0  0  0  0  0  0  0  0
   70.1746   47.7169   56.7330 O   0  0  0  0  0  0  0  0  0  0  0  0
   67.8172   47.3813   57.1814 O   0  0  0  0  0  0  0  0  0  0  0  0
   68.7523   46.7845   54.7309 C   0  0  0  0  0  0  0  0  0  0  0  0
   68.0908   45.7278   54.1699 C   0  0  0  0  0  0  0  0  0  0  0  0
   67.6332   44.7232   54.9313 F   0  0  0  0  0  0  0  0  0  0  0  0
   67.8691   45.6676   52.7907 C   0  0  0  0  0  0  0  0  0  0  0  0
   67.2086   44.6031   52.2700 F   0  0  0  0  0  0  0  0  0  0  0  0
   68.3384   46.7058   52.0119 C   0  0  0  0  0  0  0  0  0  0  0  0
   68.1160   46.6327   50.6787 F   0  0  0  0  0  0  0  0  0  0  0  0
   69.0103   47.7830   52.5617 C   0  0  0  0  0  0  0  0  0  0  0  0
   69.4596   48.7864   51.7805 F   0  0  0  0  0  0  0  0  0  0  0  0
   69.2136   47.8146   53.9267 C   0  0  0  0  0  0  0  0  0  0  0  0
   69.8702   48.8666   54.4705 F   0  0  0  0  0  0  0  0  0  0  0  0
   69.2757   45.2208   57.0048 N   0  0  0  0  0  0  0  0  0  0  0  0
   72.4170   45.3342   58.9771 C   0  0  0  0  0  0  0  0  0  0  0  0
   71.2711   45.6622   58.3369 C   0  0  0  0  0  0  0  0  0  0  0  0
   70.4570   44.7596   57.6370 C   0  0  0  0  0  0  0  0  0  0  0  0
   70.8310   43.4362   57.5838 C   0  0  0  0  0  0  0  0  0  0  0  0
   71.9928   43.0664   58.2242 C   0  0  0  0  0  0  0  0  0  0  0  0
   72.7769   43.9777   58.9073 C   0  0  0  0  0  0  0  0  0  0  0  0
   74.0160   43.5246   59.5777 C   0  0  0  0  0  0  0  0  0  0  0  0
   73.9368   47.9462   61.3953 C   0  0  0  0  0  0  0  0  0  0  0  0
   72.8909   47.0961   60.6950 C   0  0  0  0  0  0  0  0  0  0  0  0
   71.6873   47.2094   60.9972 O   0  0  0  0  0  0  0  0  0  0  0  0
   73.2851   46.1767   59.6982 N   0  0  0  0  0  0  0  0  0  0  0  0
 23 24  1  0
 24 25  2  0
 24 26  1  0
 26 16  1  0
 16 17  2  0
 16 21  1  0
 17 18  1  0
 18 15  1  0
 18 19  2  0
 15  1  1  0
  1  2  2  0
  1  3  2  0
  1  4  1  0
  4  5  2  0
  4 13  1  0
  5  6  1  0
  5  7  1  0
  7  8  1  0
  7  9  2  0
  9 10  1  0
  9 11  1  0
 11 12  1  0
 11 13  2  0
 13 14  1  0
 19 20  1  0
 20 21  2  0
 21 22  1  0
M  END
>  <minimizedAffinity>  (694) 
-8.85557

$$$$
cs_full_output_folder/data/smiles/2841.pdb
     RDKit          3D

 28 31  0  0  0  0  0  0  0  0999 V2000
   71.6803   47.2378   59.0443 C   0  0  0  0  0  0  0  0  0  0  0  0
   70.6809   47.8634   58.3423 C   0  0  0  0  0  0  0  0  0  0  0  0
   69.8701   47.1768   57.4823 C   0  0  0  0  0  0  0  0  0  0  0  0
   70.0682   45.8138   57.3218 C   0  0  0  0  0  0  0  0  0  0  0  0
   71.0650   45.1670   58.0178 C   0  0  0  0  0  0  0  0  0  0  0  0
   71.8697   45.8928   58.8809 C   0  0  0  0  0  0  0  0  0  0  0  0
   72.8617   45.2210   59.5656 F   0  0  0  0  0  0  0  0  0  0  0  0
   72.2594   47.8782   61.1863 O   0  0  0  0  0  0  0  0  0  0  0  0
   72.5283   47.9865   59.9474 C   0  0  0  0  0  0  0  0  0  0  0  0
   73.5930   48.7995   59.5757 N   0  0  0  0  0  0  0  0  0  0  0  0
   73.8433   48.8774   58.1274 C   0  0  0  0  0  0  0  0  0  0  0  0
   75.0566   47.9936   57.9430 C   0  0  0  0  0  0  0  0  0  0  0  0
   75.9820   47.4437   58.9189 S   0  0  0  0  0  0  0  0  0  0  0  0
   75.7838   47.4817   60.3377 C   0  0  0  0  0  0  0  0  0  0  0  0
   75.3559   48.5797   61.2049 C   0  0  0  0  0  0  0  0  0  0  0  0
   74.3679   49.4932   60.5701 C   0  0  0  0  0  0  0  0  0  0  0  0
   68.7788   47.8611   56.6924 C   0  0  0  0  0  0  0  0  0  0  0  0
   69.2600   48.0391   55.3366 C   0  0  0  0  0  0  0  0  0  0  0  0
   70.2085   49.0126   55.1485 N   0  0  0  0  0  0  0  0  0  0  0  0
   70.6943   49.3118   53.9618 N   0  0  0  0  0  0  0  0  0  0  0  0
   70.2983   48.6850   52.8390 C   0  0  0  0  0  0  0  0  0  0  0  0
   70.7831   48.9982   51.7256 O   0  0  0  0  0  0  0  0  0  0  0  0
   69.3461   47.6891   52.9399 C   0  0  0  0  0  0  0  0  0  0  0  0
   68.8936   46.9873   51.8473 C   0  0  0  0  0  0  0  0  0  0  0  0
   67.9531   45.9820   51.9496 C   0  0  0  0  0  0  0  0  0  0  0  0
   67.4689   45.6942   53.2101 C   0  0  0  0  0  0  0  0  0  0  0  0
   67.9159   46.3936   54.3165 C   0  0  0  0  0  0  0  0  0  0  0  0
   68.8526   47.3944   54.1924 C   0  0  0  0  0  0  0  0  0  0  0  0
  8  9  2  0
  9  1  1  0
  9 10  1  0
  1  2  2  0
  1  6  1  0
  2  3  1  0
  3 17  1  0
  3  4  2  0
 17 18  1  0
 18 19  2  0
 18 28  1  0
 19 20  1  0
 20 21  1  0
 21 22  2  0
 21 23  1  0
 23 24  1  0
 23 28  2  0
 24 25  2  0
 25 26  1  0
 26 27  2  0
 27 28  1  0
  4  5  1  0
  5  6  2  0
  6  7  1  0
 10 11  1  0
 10 16  1  0
 11 12  1  0
 12 13  2  0
 13 14  2  0
 14 15  1  0
 15 16  1  0
M  END
>  <minimizedAffinity>  (695) 
-8.85555

$$$$
cs_full_output_folder/data/smiles/8719.pdb
     RDKit          3D

 29 32  0  0  0  0  0  0  0  0999 V2000
   72.0811   47.9184   58.5713 C   0  0  0  0  0  0  0  0  0  0  0  0
   73.3070   48.4881   58.3138 C   0  0  0  0  0  0  0  0  0  0  0  0
   73.4678   49.4478   57.3204 C   0  0  0  0  0  0  0  0  0  0  0  0
   72.3649   49.8153   56.5971 C   0  0  0  0  0  0  0  0  0  0  0  0
   71.1168   49.2748   56.8170 C   0  0  0  0  0  0  0  0  0  0  0  0
   71.0099   48.3299   57.8096 C   0  0  0  0  0  0  0  0  0  0  0  0
   70.7519   43.6877   58.6915 C   0  0  0  0  0  0  0  0  0  0  0  0
   71.1161   43.5501   60.1488 C   0  0  0  0  0  0  0  0  0  0  0  0
   72.1817   44.5719   60.4873 C   0  0  0  0  0  0  0  0  0  0  0  0
   72.2867   45.5614   59.4150 N   0  0  0  0  0  0  0  0  0  0  0  0
   71.9881   46.9236   59.6234 C   0  0  0  0  0  0  0  0  0  0  0  0
   71.6285   47.2834   60.7637 O   0  0  0  0  0  0  0  0  0  0  0  0
   72.7234   45.0233   58.1286 C   0  0  0  0  0  0  0  0  0  0  0  0
   72.0115   43.7075   57.8515 C   0  0  0  0  0  0  0  0  0  0  0  0
   68.4934   42.6429   58.8435 N   0  0  0  0  0  0  0  0  0  0  0  0
   69.7712   42.7142   58.2328 C   0  0  0  0  0  0  0  0  0  0  0  0
   70.0326   41.9263   57.2984 O   0  0  0  0  0  0  0  0  0  0  0  0
   69.9840   49.7454   55.9831 C   0  0  0  0  0  0  0  0  0  0  0  0
   69.9698   49.1024   54.6493 C   0  0  0  0  0  0  0  0  0  0  0  0
   70.7360   49.6716   53.6855 N   0  0  0  0  0  0  0  0  0  0  0  0
   70.8019   49.2040   52.4620 N   0  0  0  0  0  0  0  0  0  0  0  0
   70.1127   48.1327   52.0987 C   0  0  0  0  0  0  0  0  0  0  0  0
   70.1628   47.6681   50.9301 O   0  0  0  0  0  0  0  0  0  0  0  0
   69.3082   47.5096   53.0566 C   0  0  0  0  0  0  0  0  0  0  0  0
   69.2372   47.9957   54.3303 C   0  0  0  0  0  0  0  0  0  0  0  0
   68.4059   47.3465   55.3562 C   0  0  0  0  0  0  0  0  0  0  0  0
   68.2538   45.8610   55.1003 C   0  0  0  0  0  0  0  0  0  0  0  0
   67.8363   45.5741   53.6831 C   0  0  0  0  0  0  0  0  0  0  0  0
   68.5596   46.3329   52.6337 C   0  0  0  0  0  0  0  0  0  0  0  0
 15 16  1  0
 16 17  2  0
 16  7  1  0
  7  8  1  0
  7 14  1  0
  8  9  1  0
  9 10  1  0
 10 11  1  0
 10 13  1  0
 11 12  2  0
 11  1  1  0
  1  2  2  0
  1  6  1  0
  2  3  1  0
  3  4  2  0
  4  5  1  0
  5 18  1  0
  5  6  2  0
 18 19  1  0
 19 20  2  0
 19 25  1  0
 20 21  1  0
 21 22  1  0
 22 23  2  0
 22 24  1  0
 24 25  2  0
 24 29  1  0
 25 26  1  0
 26 27  1  0
 27 28  1  0
 28 29  1  0
 13 14  1  0
M  END
>  <minimizedAffinity>  (696) 
-8.84943

$$$$
cs_full_output_folder/data/smiles/5841.pdb
     RDKit          3D

 28 29  0  0  0  0  0  0  0  0999 V2000
   70.8003   44.1235   57.9965 C   0  0  0  0  0  0  0  0  0  0  0  0
   71.7370   45.1749   58.8853 S   0  0  0  0  0  0  0  0  0  0  0  0
   71.0957   42.7631   58.0014 N   0  0  0  0  0  0  0  0  0  0  0  0
   70.7248   41.7523   58.8921 C   0  0  0  0  0  0  0  0  0  0  0  0
   69.9998   42.0525   59.8828 O   0  0  0  0  0  0  0  0  0  0  0  0
   71.1331   40.3341   58.7551 C   0  0  0  0  0  0  0  0  0  0  0  0
   70.3209   39.3190   58.3814 C   0  0  0  0  0  0  0  0  0  0  0  0
   70.8009   38.0122   58.2476 C   0  0  0  0  0  0  0  0  0  0  0  0
   72.1108   37.6804   58.4805 C   0  0  0  0  0  0  0  0  0  0  0  0
   72.9555   38.7242   58.8652 C   0  0  0  0  0  0  0  0  0  0  0  0
   72.4757   40.0072   58.9962 C   0  0  0  0  0  0  0  0  0  0  0  0
   72.6574   36.3060   58.3556 C   0  0  0  0  0  0  0  0  0  0  0  0
   71.6937   35.2808   58.9325 C   0  0  0  0  0  0  0  0  0  0  0  0
   72.7837   35.9016   56.8718 C   0  0  0  0  0  0  0  0  0  0  0  0
   74.0004   36.1192   58.9715 C   0  0  0  0  0  0  0  0  0  0  0  0
   69.6230   45.9489   56.9345 N   0  0  0  0  0  0  0  0  0  0  0  0
   69.7229   44.7303   57.2534 C   0  0  0  0  0  0  0  0  0  0  0  0
   68.6472   46.6346   56.2299 C   0  0  0  0  0  0  0  0  0  0  0  0
   67.6999   47.2102   56.8610 O   0  0  0  0  0  0  0  0  0  0  0  0
   69.2278   47.8496   52.7175 C   0  0  0  0  0  0  0  0  0  0  0  0
   68.6318   46.8700   51.9504 C   0  0  0  0  0  0  0  0  0  0  0  0
   68.0375   45.8232   52.6186 C   0  0  0  0  0  0  0  0  0  0  0  0
   68.0420   45.7631   53.9988 C   0  0  0  0  0  0  0  0  0  0  0  0
   68.6380   46.7395   54.7807 C   0  0  0  0  0  0  0  0  0  0  0  0
   69.2377   47.7967   54.1061 C   0  0  0  0  0  0  0  0  0  0  0  0
   69.8258   50.2882   52.5931 C   0  0  0  0  0  0  0  0  0  0  0  0
   69.8532   48.9544   52.0422 N   0  0  0  0  0  0  0  0  0  0  0  0
   70.4349   48.7832   50.9594 O   0  0  0  0  0  0  0  0  0  0  0  0
 26 27  1  0
 27 28  2  0
 27 20  1  0
 20 21  2  0
 20 25  1  0
 21 22  1  0
 22 23  2  0
 23 24  1  0
 24 18  1  0
 24 25  2  0
 18 19  2  0
 18 16  1  0
 16 17  2  0
 17  1  1  0
  1  2  2  0
  1  3  1  0
  3  4  1  0
  4  5  2  0
  4  6  1  0
  6  7  2  0
  6 11  1  0
  7  8  1  0
  8  9  2  0
  9 12  1  0
  9 10  1  0
 12 13  1  0
 12 14  1  0
 12 15  1  0
 10 11  2  0
M  CHG  1  27   1
M  END
>  <minimizedAffinity>  (697) 
-8.84797

$$$$
cs_full_output_folder/data/smiles/8091.pdb
     RDKit          3D

 27 29  0  0  0  0  0  0  0  0999 V2000
   70.4923   43.9288   57.6770 N   0  0  0  0  0  0  0  0  0  0  0  0
   70.4545   42.5162   57.5958 C   0  0  0  0  0  0  0  0  0  0  0  0
   69.5005   41.9913   56.9824 O   0  0  0  0  0  0  0  0  0  0  0  0
   71.4813   41.6579   58.1969 C   0  0  0  0  0  0  0  0  0  0  0  0
   72.6411   42.1812   58.7039 C   0  0  0  0  0  0  0  0  0  0  0  0
   73.5917   41.3537   59.2641 C   0  0  0  0  0  0  0  0  0  0  0  0
   73.3661   39.9916   59.3103 C   0  0  0  0  0  0  0  0  0  0  0  0
   74.2142   39.2365   59.8120 O   0  0  0  0  0  0  0  0  0  0  0  0
   72.2130   39.5074   58.8024 N   0  0  0  0  0  0  0  0  0  0  0  0
   71.3262   40.3221   58.2752 N   0  0  0  0  0  0  0  0  0  0  0  0
   71.9316   38.0946   58.8277 C   0  0  0  0  0  0  0  0  0  0  0  0
   72.4760   37.2887   57.8384 C   0  0  0  0  0  0  0  0  0  0  0  0
   72.2226   35.9276   57.8365 C   0  0  0  0  0  0  0  0  0  0  0  0
   71.4368   35.3558   58.8056 C   0  0  0  0  0  0  0  0  0  0  0  0
   70.9019   36.1680   59.7843 C   0  0  0  0  0  0  0  0  0  0  0  0
   71.1523   37.5252   59.7878 C   0  0  0  0  0  0  0  0  0  0  0  0
   70.7706   46.6116   57.5501 O   0  0  0  0  0  0  0  0  0  0  0  0
   69.7100   46.1454   57.0635 C   0  0  0  0  0  0  0  0  0  0  0  0
   69.5114   44.7496   57.1025 N   0  0  0  0  0  0  0  0  0  0  0  0
   68.7408   47.1047   56.4816 C   0  0  0  0  0  0  0  0  0  0  0  0
   68.6267   46.9818   55.0229 C   0  0  0  0  0  0  0  0  0  0  0  0
   69.1735   47.9295   54.1963 C   0  0  0  0  0  0  0  0  0  0  0  0
   69.0705   47.8217   52.8071 C   0  0  0  0  0  0  0  0  0  0  0  0
   68.4070   46.7432   52.2613 C   0  0  0  0  0  0  0  0  0  0  0  0
   68.2935   46.6162   50.8964 F   0  0  0  0  0  0  0  0  0  0  0  0
   67.8565   45.7905   53.0677 C   0  0  0  0  0  0  0  0  0  0  0  0
   67.9755   45.9261   54.4356 C   0  0  0  0  0  0  0  0  0  0  0  0
 17 18  2  0
 18 20  1  0
 18 19  1  0
 20 21  1  0
 21 22  2  0
 21 27  1  0
 22 23  1  0
 23 24  2  0
 24 25  1  0
 24 26  1  0
 26 27  2  0
 19  1  1  0
  1  2  1  0
  2  3  2  0
  2  4  1  0
  4  5  1  0
  4 10  2  0
  5  6  2  0
  6  7  1  0
  7  8  2  0
  7  9  1  0
  9 11  1  0
  9 10  1  0
 11 12  2  0
 11 16  1  0
 12 13  1  0
 13 14  2  0
 14 15  1  0
 15 16  2  0
M  END
>  <minimizedAffinity>  (698) 
-8.84722

$$$$
cs_full_output_folder/data/smiles/2981.pdb
     RDKit          3D

 27 30  0  0  0  0  0  0  0  0999 V2000
   71.0940   44.8504   58.2960 C   0  0  0  0  0  0  0  0  0  0  0  0
   71.9564   45.5487   59.1173 C   0  0  0  0  0  0  0  0  0  0  0  0
   71.9030   46.9234   59.2461 C   0  0  0  0  0  0  0  0  0  0  0  0
   70.9518   47.6497   58.5296 C   0  0  0  0  0  0  0  0  0  0  0  0
   70.0857   46.9935   57.7117 C   0  0  0  0  0  0  0  0  0  0  0  0
   70.1678   45.5965   57.6038 C   0  0  0  0  0  0  0  0  0  0  0  0
   69.1300   43.0321   59.0863 O   0  0  0  0  0  0  0  0  0  0  0  0
   70.1834   42.5386   58.6137 C   0  0  0  0  0  0  0  0  0  0  0  0
   71.1966   43.4344   58.2047 N   0  0  0  0  0  0  0  0  0  0  0  0
   70.2737   41.0877   58.5270 C   0  0  0  0  0  0  0  0  0  0  0  0
   69.1496   40.2917   58.4697 C   0  0  0  0  0  0  0  0  0  0  0  0
   69.3038   38.9156   58.3886 C   0  0  0  0  0  0  0  0  0  0  0  0
   70.5027   38.3084   58.3621 N   0  0  0  0  0  0  0  0  0  0  0  0
   71.6129   39.0716   58.4172 C   0  0  0  0  0  0  0  0  0  0  0  0
   71.4896   40.4412   58.4985 C   0  0  0  0  0  0  0  0  0  0  0  0
   69.0576   47.7185   56.9454 C   0  0  0  0  0  0  0  0  0  0  0  0
   68.7194   47.0508   55.6552 C   0  0  0  0  0  0  0  0  0  0  0  0
   68.0500   45.8516   55.6978 N   0  0  0  0  0  0  0  0  0  0  0  0
   67.6994   45.1879   54.6220 N   0  0  0  0  0  0  0  0  0  0  0  0
   67.9733   45.6441   53.3960 C   0  0  0  0  0  0  0  0  0  0  0  0
   67.6457   45.0239   52.3524 O   0  0  0  0  0  0  0  0  0  0  0  0
   68.6549   46.8641   53.2647 C   0  0  0  0  0  0  0  0  0  0  0  0
   69.0162   47.5457   54.4127 C   0  0  0  0  0  0  0  0  0  0  0  0
   69.7411   48.8382   54.3242 C   0  0  0  0  0  0  0  0  0  0  0  0
   70.5147   48.8906   53.0001 C   0  0  0  0  0  0  0  0  0  0  0  0
   69.5344   48.6923   51.8509 C   0  0  0  0  0  0  0  0  0  0  0  0
   68.9311   47.3291   51.8966 C   0  0  0  0  0  0  0  0  0  0  0  0
  7  8  2  0
  8  9  1  0
  8 10  1  0
  9  1  1  0
  1  2  2  0
  1  6  1  0
  2  3  1  0
  3  4  2  0
  4  5  1  0
  5 16  1  0
  5  6  2  0
 16 17  1  0
 17 18  2  0
 17 23  1  0
 18 19  1  0
 19 20  1  0
 20 21  2  0
 20 22  1  0
 22 23  2  0
 22 27  1  0
 23 24  1  0
 24 25  1  0
 25 26  1  0
 26 27  1  0
 10 11  2  0
 10 15  1  0
 11 12  1  0
 12 13  2  0
 13 14  1  0
 14 15  2  0
M  END
>  <minimizedAffinity>  (699) 
-8.84713

$$$$
cs_full_output_folder/data/smiles/73.pdb
     RDKit          3D

 23 24  0  0  0  0  0  0  0  0999 V2000
   69.7623   47.6937   54.9124 N   0  0  0  0  0  0  0  0  0  0  0  0
   69.0390   47.7062   52.6252 C   0  0  0  0  0  0  0  0  0  0  0  0
   68.3412   47.1989   51.5238 C   0  0  0  0  0  0  0  0  0  0  0  0
   67.6042   46.0410   51.6411 C   0  0  0  0  0  0  0  0  0  0  0  0
   66.9180   45.5264   50.5891 F   0  0  0  0  0  0  0  0  0  0  0  0
   67.5909   45.4216   52.8711 C   0  0  0  0  0  0  0  0  0  0  0  0
   68.2907   45.9306   53.9751 C   0  0  0  0  0  0  0  0  0  0  0  0
   69.0277   47.0882   53.8600 C   0  0  0  0  0  0  0  0  0  0  0  0
   69.7603   49.8621   50.8751 N   0  0  0  0  0  0  0  0  0  0  0  0
   69.9607   49.1792   52.4494 S   0  0  0  0  0  0  0  0  0  0  0  0
   71.3843   49.0307   52.8206 O   0  0  0  0  0  0  0  0  0  0  0  0
   69.3429   50.1918   53.4079 O   0  0  0  0  0  0  0  0  0  0  0  0
   69.2808   47.5453   56.5596 S   0  0  0  0  0  0  0  0  0  0  0  0
   68.5253   46.2573   56.7907 O   0  0  0  0  0  0  0  0  0  0  0  0
   70.4428   47.5356   57.5015 O   0  0  0  0  0  0  0  0  0  0  0  0
   68.2612   48.9088   57.0284 C   0  0  0  0  0  0  0  0  0  0  0  0
   67.0455   48.7081   57.6105 C   0  0  0  0  0  0  0  0  0  0  0  0
   66.2648   49.7730   57.9691 C   0  0  0  0  0  0  0  0  0  0  0  0
   66.6833   51.0732   57.7533 C   0  0  0  0  0  0  0  0  0  0  0  0
   67.9166   51.2422   57.1622 C   0  0  0  0  0  0  0  0  0  0  0  0
   68.3847   52.4993   56.9223 F   0  0  0  0  0  0  0  0  0  0  0  0
   68.7150   50.1820   56.7953 C   0  0  0  0  0  0  0  0  0  0  0  0
   69.9381   50.4021   56.2089 F   0  0  0  0  0  0  0  0  0  0  0  0
  9 10  1  0
 10 11  2  0
 10 12  2  0
 10  2  1  0
  2  3  2  0
  2  8  1  0
  3  4  1  0
  4  5  1  0
  4  6  2  0
  6  7  1  0
  7  8  2  0
  8  1  1  0
  1 13  1  0
 13 14  2  0
 13 15  2  0
 13 16  1  0
 16 17  2  0
 16 22  1  0
 17 18  1  0
 18 19  2  0
 19 20  1  0
 20 21  1  0
 20 22  2  0
 22 23  1  0
M  END
>  <minimizedAffinity>  (700) 
-8.84606

$$$$
cs_full_output_folder/data/smiles/523.pdb
     RDKit          3D

 27 28  0  0  0  0  0  0  0  0999 V2000
   69.1749   42.3996   58.7836 N   0  0  0  0  0  0  0  0  0  0  0  0
   69.2283   42.9911   57.5120 C   0  0  0  0  0  0  0  0  0  0  0  0
   70.3601   43.1722   56.9918 O   0  0  0  0  0  0  0  0  0  0  0  0
   68.0850   43.4008   56.7706 N   0  0  0  0  0  0  0  0  0  0  0  0
   68.1745   43.9883   55.5045 N   0  0  0  0  0  0  0  0  0  0  0  0
   68.2725   45.3737   55.2689 C   0  0  0  0  0  0  0  0  0  0  0  0
   68.2802   46.1323   56.2703 O   0  0  0  0  0  0  0  0  0  0  0  0
   68.3645   45.9782   53.9449 C   0  0  0  0  0  0  0  0  0  0  0  0
   67.5995   45.5011   52.9020 C   0  0  0  0  0  0  0  0  0  0  0  0
   67.6477   46.0340   51.6324 C   0  0  0  0  0  0  0  0  0  0  0  0
   68.4821   47.0918   51.3460 C   0  0  0  0  0  0  0  0  0  0  0  0
   69.2561   47.5854   52.3737 C   0  0  0  0  0  0  0  0  0  0  0  0
   69.1999   47.0369   53.6620 C   0  0  0  0  0  0  0  0  0  0  0  0
   70.1263   48.6768   52.1080 N   0  0  0  0  0  0  0  0  0  0  0  0
   71.1340   48.8626   52.8061 O   0  0  0  0  0  0  0  0  0  0  0  0
   69.9034   49.5668   51.0861 O   0  0  0  0  0  0  0  0  0  0  0  0
   70.0543   42.0297   61.0449 C   0  0  0  0  0  0  0  0  0  0  0  0
   70.3196   41.9712   59.5622 C   0  0  1  0  0  0  0  0  0  0  0  0
   70.7266   40.5864   59.2224 C   0  0  0  0  0  0  0  0  0  0  0  0
   69.7920   39.6323   58.8732 C   0  0  0  0  0  0  0  0  0  0  0  0
   70.1749   38.3417   58.5575 C   0  0  0  0  0  0  0  0  0  0  0  0
   71.4906   37.9292   58.5716 C   0  0  0  0  0  0  0  0  0  0  0  0
   72.4314   38.8950   58.9245 C   0  0  0  0  0  0  0  0  0  0  0  0
   72.0453   40.1821   59.2384 C   0  0  0  0  0  0  0  0  0  0  0  0
   71.8697   36.6017   58.2460 N   0  0  0  0  0  0  0  0  0  0  0  0
   72.6293   36.2299   57.0757 C   0  0  0  0  0  0  0  0  0  0  0  0
   71.4690   35.5448   59.1451 C   0  0  0  0  0  0  0  0  0  0  0  0
 18 17  1  1
 18  1  1  0
 18 19  1  0
  1  2  1  0
  2  3  2  0
  2  4  1  0
  4  5  1  0
  5  6  1  0
  6  7  2  0
  6  8  1  0
  8  9  2  0
  8 13  1  0
  9 10  1  0
 10 11  2  0
 11 12  1  0
 12 14  1  0
 12 13  2  0
 14 15  2  0
 14 16  1  0
 19 20  2  0
 19 24  1  0
 20 21  1  0
 21 22  2  0
 22 25  1  0
 22 23  1  0
 25 26  1  0
 25 27  1  0
 23 24  2  0
M  CHG  2  14   1  16  -1
M  END
>  <minimizedAffinity>  (701) 
-8.84500

$$$$
cs_full_output_folder/data/smiles/8495.pdb
     RDKit          3D

 27 30  0  0  0  0  0  0  0  0999 V2000
   70.7081   46.5327   58.5112 C   0  0  0  0  0  0  0  0  0  0  0  0
   69.7994   46.9830   57.5941 C   0  0  0  0  0  0  0  0  0  0  0  0
   69.6839   48.3487   57.3413 C   0  0  0  0  0  0  0  0  0  0  0  0
   70.5092   49.1827   58.0440 C   0  0  0  0  0  0  0  0  0  0  0  0
   71.4176   48.7105   58.9631 C   0  0  0  0  0  0  0  0  0  0  0  0
   71.5467   47.3643   59.2264 C   0  0  0  0  0  0  0  0  0  0  0  0
   72.4387   46.8821   60.1323 F   0  0  0  0  0  0  0  0  0  0  0  0
   69.8704   44.5053   59.2998 O   0  0  0  0  0  0  0  0  0  0  0  0
   70.8425   45.1057   58.7890 C   0  0  0  0  0  0  0  0  0  0  0  0
   72.0690   44.4637   58.4665 N   0  0  0  0  0  0  0  0  0  0  0  0
   73.2425   45.0871   57.8742 C   0  0  0  0  0  0  0  0  0  0  0  0
   74.3507   44.0891   58.1930 C   0  0  0  0  0  0  0  0  0  0  0  0
   73.6068   42.7844   58.0193 C   0  0  2  0  0  0  0  0  0  0  0  0
   73.3524   42.5581   56.6550 O   0  0  0  0  0  0  0  0  0  0  0  0
   72.3026   43.0525   58.7012 C   0  0  0  0  0  0  0  0  0  0  0  0
   68.6907   48.7934   56.3159 C   0  0  0  0  0  0  0  0  0  0  0  0
   69.1739   48.7287   54.9397 C   0  0  0  0  0  0  0  0  0  0  0  0
   70.0770   49.6530   54.4913 N   0  0  0  0  0  0  0  0  0  0  0  0
   70.5810   49.6367   53.2861 N   0  0  0  0  0  0  0  0  0  0  0  0
   70.2591   48.7021   52.3621 C   0  0  0  0  0  0  0  0  0  0  0  0
   70.7532   48.6988   51.2062 O   0  0  0  0  0  0  0  0  0  0  0  0
   69.3545   47.7394   52.7437 C   0  0  0  0  0  0  0  0  0  0  0  0
   68.9788   46.7680   51.8440 C   0  0  0  0  0  0  0  0  0  0  0  0
   68.0597   45.7972   52.2046 C   0  0  0  0  0  0  0  0  0  0  0  0
   67.5167   45.8016   53.4754 C   0  0  0  0  0  0  0  0  0  0  0  0
   67.9256   46.7980   54.3441 C   0  0  0  0  0  0  0  0  0  0  0  0
   68.8242   47.7688   54.0322 C   0  0  0  0  0  0  0  0  0  0  0  0
  8  9  2  0
  9  1  1  0
  9 10  1  0
  1  2  2  0
  1  6  1  0
  2  3  1  0
  3 16  1  0
  3  4  2  0
 16 17  1  0
 17 18  2  0
 17 27  1  0
 18 19  1  0
 19 20  1  0
 20 21  2  0
 20 22  1  0
 22 23  1  0
 22 27  2  0
 23 24  2  0
 24 25  1  0
 25 26  2  0
 26 27  1  0
  4  5  1  0
  5  6  2  0
  6  7  1  0
 10 11  1  0
 10 15  1  0
 11 12  1  0
 12 13  1  0
 13 14  1  6
 13 15  1  0
M  END
>  <minimizedAffinity>  (702) 
-8.84112

$$$$
cs_full_output_folder/data/smiles/5597.pdb
     RDKit          3D

 26 29  0  0  0  0  0  0  0  0999 V2000
   70.7141   45.5609   57.9115 C   0  0  0  0  0  0  0  0  0  0  0  0
   71.3703   46.6244   58.5421 C   0  0  0  0  0  0  0  0  0  0  0  0
   71.0432   47.9289   58.2782 C   0  0  0  0  0  0  0  0  0  0  0  0
   70.0469   48.2240   57.3738 C   0  0  0  0  0  0  0  0  0  0  0  0
   69.3721   47.1911   56.7274 C   0  0  0  0  0  0  0  0  0  0  0  0
   69.7225   45.8890   57.0125 C   0  0  0  0  0  0  0  0  0  0  0  0
   71.0956   44.2427   58.2588 N   0  0  0  0  0  0  0  0  0  0  0  0
   70.8697   42.1350   59.7819 O   0  0  0  0  0  0  0  0  0  0  0  0
   70.0263   43.1142   58.9795 S   0  0  0  0  0  0  0  0  0  0  0  0
   69.1428   43.8221   59.9751 O   0  0  0  0  0  0  0  0  0  0  0  0
   69.0425   42.2951   57.8111 C   0  0  0  0  0  0  0  0  0  0  0  0
   68.3927   42.9957   56.8311 C   0  0  0  0  0  0  0  0  0  0  0  0
   67.6101   42.3287   55.9263 C   0  0  0  0  0  0  0  0  0  0  0  0
   67.4579   40.9611   55.9788 C   0  0  0  0  0  0  0  0  0  0  0  0
   68.1058   40.2361   56.9612 C   0  0  0  0  0  0  0  0  0  0  0  0
   68.8958   40.9283   57.8708 C   0  0  0  0  0  0  0  0  0  0  0  0
   68.3610   47.5505   55.8269 N   0  0  0  0  0  0  0  0  0  0  0  0
   68.2875   46.9257   54.5547 C   0  0  0  0  0  0  0  0  0  0  0  0
   67.5755   45.7631   54.3975 N   0  0  0  0  0  0  0  0  0  0  0  0
   67.5279   45.2125   53.1754 C   0  0  0  0  0  0  0  0  0  0  0  0
   68.1487   45.7600   52.1180 N   0  0  0  0  0  0  0  0  0  0  0  0
   68.8478   46.8921   52.2501 C   0  0  0  0  0  0  0  0  0  0  0  0
   69.5516   47.6448   51.3721 N   0  0  0  0  0  0  0  0  0  0  0  0
   70.0682   48.7020   52.0235 C   0  0  0  0  0  0  0  0  0  0  0  0
   69.7028   48.6507   53.3479 C   0  0  0  0  0  0  0  0  0  0  0  0
   68.9345   47.5096   53.4882 C   0  0  0  0  0  0  0  0  0  0  0  0
  8  9  2  0
  9 10  2  0
  9  7  1  0
  9 11  1  0
  7  1  1  0
  1  2  2  0
  1  6  1  0
  2  3  1  0
  3  4  2  0
  4  5  1  0
  5 17  1  0
  5  6  2  0
 17 18  1  0
 18 19  2  0
 18 26  1  0
 19 20  1  0
 20 21  2  0
 21 22  1  0
 22 23  1  0
 22 26  2  0
 23 24  1  0
 24 25  2  0
 25 26  1  0
 11 12  2  0
 11 16  1  0
 12 13  1  0
 13 14  2  0
 14 15  1  0
 15 16  2  0
M  END
>  <minimizedAffinity>  (703) 
-8.84073

$$$$
cs_full_output_folder/data/smiles/431.pdb
     RDKit          3D

 27 30  0  0  0  0  0  0  0  0999 V2000
   71.4037   46.7643   58.8759 C   0  0  0  0  0  0  0  0  0  0  0  0
   71.4699   45.4007   58.6722 C   0  0  0  0  0  0  0  0  0  0  0  0
   70.6644   44.8100   57.7352 C   0  0  0  0  0  0  0  0  0  0  0  0
   69.7735   45.5948   56.9851 C   0  0  0  0  0  0  0  0  0  0  0  0
   69.6801   46.9497   57.1575 C   0  0  0  0  0  0  0  0  0  0  0  0
   70.5293   47.4982   58.1305 C   0  0  0  0  0  0  0  0  0  0  0  0
   71.8010   47.3529   61.0732 O   0  0  0  0  0  0  0  0  0  0  0  0
   72.2284   47.4370   59.8723 C   0  0  0  0  0  0  0  0  0  0  0  0
   73.3997   48.1170   59.5273 N   0  0  0  0  0  0  0  0  0  0  0  0
   74.2214   48.7579   60.5270 C   0  0  0  0  0  0  0  0  0  0  0  0
   75.6355   48.1588   60.4936 C   0  0  0  0  0  0  0  0  0  0  0  0
   75.6957   47.2300   59.4138 N   0  0  0  0  0  0  0  0  0  0  0  0
   77.1031   46.2235   59.3456 S   0  0  0  0  0  0  0  0  0  0  0  0
   75.2911   47.7579   58.1503 C   0  0  0  0  0  0  0  0  0  0  0  0
   73.8236   48.2059   58.1549 C   0  0  0  0  0  0  0  0  0  0  0  0
   68.7523   47.8522   56.4066 C   0  0  0  0  0  0  0  0  0  0  0  0
   69.1508   48.1099   55.0225 C   0  0  0  0  0  0  0  0  0  0  0  0
   70.0468   49.0856   54.7527 N   0  0  0  0  0  0  0  0  0  0  0  0
   70.5192   49.3496   53.5550 N   0  0  0  0  0  0  0  0  0  0  0  0
   70.1279   48.6428   52.4965 C   0  0  0  0  0  0  0  0  0  0  0  0
   70.5612   48.8642   51.3122 O   0  0  0  0  0  0  0  0  0  0  0  0
   69.2162   47.6198   52.6392 C   0  0  0  0  0  0  0  0  0  0  0  0
   68.7826   46.8855   51.5551 C   0  0  0  0  0  0  0  0  0  0  0  0
   67.8599   45.8860   51.7192 C   0  0  0  0  0  0  0  0  0  0  0  0
   67.4013   45.6630   52.9937 C   0  0  0  0  0  0  0  0  0  0  0  0
   67.8122   46.3735   54.0897 C   0  0  0  0  0  0  0  0  0  0  0  0
   68.7387   47.3755   53.9349 C   0  0  0  0  0  0  0  0  0  0  0  0
  7  8  2  0
  8  1  1  0
  8  9  1  0
  1  2  2  0
  1  6  1  0
  2  3  1  0
  3  4  2  0
  4  5  1  0
  5 16  1  0
  5  6  2  0
 16 17  1  0
 17 18  2  0
 17 27  1  0
 18 19  1  0
 19 20  1  0
 20 21  2  0
 20 22  1  0
 22 23  1  0
 22 27  2  0
 23 24  2  0
 24 25  1  0
 25 26  2  0
 26 27  1  0
  9 10  1  0
  9 15  1  0
 10 11  1  0
 11 12  1  0
 12 13  1  0
 12 14  1  0
 14 15  1  0
M  END
>  <minimizedAffinity>  (704) 
-8.83827

$$$$
cs_full_output_folder/data/smiles/2068.pdb
     RDKit          3D

 25 26  0  0  0  0  0  0  0  0999 V2000
   70.0821   49.2103   52.5555 S   0  0  0  0  0  0  0  0  0  0  0  0
   70.0853   49.0500   51.0615 O   0  0  0  0  0  0  0  0  0  0  0  0
   71.5315   49.1576   52.9875 O   0  0  0  0  0  0  0  0  0  0  0  0
   69.2858   47.7922   53.2124 C   0  0  0  0  0  0  0  0  0  0  0  0
   68.6459   46.8838   52.3802 C   0  0  0  0  0  0  0  0  0  0  0  0
   68.6397   47.1061   51.0260 F   0  0  0  0  0  0  0  0  0  0  0  0
   68.0344   45.7876   52.9061 C   0  0  0  0  0  0  0  0  0  0  0  0
   67.4063   44.8943   52.1049 F   0  0  0  0  0  0  0  0  0  0  0  0
   68.0527   45.5848   54.2686 C   0  0  0  0  0  0  0  0  0  0  0  0
   67.4319   44.4796   54.7689 F   0  0  0  0  0  0  0  0  0  0  0  0
   68.6964   46.4973   55.1089 C   0  0  0  0  0  0  0  0  0  0  0  0
   68.6934   46.2612   56.4582 F   0  0  0  0  0  0  0  0  0  0  0  0
   69.3185   47.6110   54.5743 C   0  0  0  0  0  0  0  0  0  0  0  0
   69.9319   48.4700   55.4329 F   0  0  0  0  0  0  0  0  0  0  0  0
   69.3242   50.6641   52.9877 N   0  0  0  0  0  0  0  0  0  0  0  0
   71.0308   54.1973   57.1454 C   0  0  0  0  0  0  0  0  0  0  0  0
   70.6435   53.2685   56.0408 C   0  0  0  0  0  0  0  0  0  0  0  0
   69.2856   52.9426   55.9094 C   0  0  0  0  0  0  0  0  0  0  0  0
   68.8970   52.0940   54.9060 C   0  0  0  0  0  0  0  0  0  0  0  0
   69.7995   51.5426   54.0120 C   0  0  0  0  0  0  0  0  0  0  0  0
   71.1084   51.8668   54.1523 C   0  0  0  0  0  0  0  0  0  0  0  0
   71.5503   52.7329   55.1672 C   0  0  0  0  0  0  0  0  0  0  0  0
   72.9780   53.0272   55.2506 C   0  0  0  0  0  0  0  0  0  0  0  0
   73.8675   52.3150   56.0552 N   0  0  0  0  0  0  0  0  0  0  0  0
   73.4756   53.9819   54.5646 O   0  0  0  0  0  0  0  0  0  0  0  0
 16 17  1  0
 17 18  2  0
 17 22  1  0
 18 19  1  0
 19 20  2  0
 20 15  1  0
 20 21  1  0
 15  1  1  0
  1  2  2  0
  1  3  2  0
  1  4  1  0
  4  5  2  0
  4 13  1  0
  5  6  1  0
  5  7  1  0
  7  8  1  0
  7  9  2  0
  9 10  1  0
  9 11  1  0
 11 12  1  0
 11 13  2  0
 13 14  1  0
 21 22  2  0
 22 23  1  0
 23 24  1  0
 23 25  2  0
M  END
>  <minimizedAffinity>  (705) 
-8.83825

$$$$
cs_full_output_folder/data/smiles/6979.pdb
     RDKit          3D

 29 32  0  0  0  0  0  0  0  0999 V2000
   71.7172   47.3180   58.9878 C   0  0  0  0  0  0  0  0  0  0  0  0
   72.0139   45.9508   58.9267 C   0  0  0  0  0  0  0  0  0  0  0  0
   71.2238   45.1128   58.1673 C   0  0  0  0  0  0  0  0  0  0  0  0
   70.1311   45.5935   57.4540 C   0  0  0  0  0  0  0  0  0  0  0  0
   69.8184   46.9294   57.4949 C   0  0  0  0  0  0  0  0  0  0  0  0
   70.6339   47.7649   58.2743 C   0  0  0  0  0  0  0  0  0  0  0  0
   76.0559   49.5833   58.3907 C   0  0  0  0  0  0  0  0  0  0  0  0
   75.0091   48.9471   57.5623 C   0  0  0  0  0  0  0  0  0  0  0  0
   73.5881   49.4015   57.8840 C   0  0  0  0  0  0  0  0  0  0  0  0
   73.4522   49.1501   59.3028 N   0  0  0  0  0  0  0  0  0  0  0  0
   72.5668   48.1694   59.8050 C   0  0  0  0  0  0  0  0  0  0  0  0
   72.5014   48.0119   61.0659 O   0  0  0  0  0  0  0  0  0  0  0  0
   74.2825   49.9717   60.1600 C   0  0  0  0  0  0  0  0  0  0  0  0
   75.6324   50.2444   59.6534 C   0  0  0  0  0  0  0  0  0  0  0  0
   78.2066   50.7060   58.3257 C   0  0  0  0  0  0  0  0  0  0  0  0
   76.9604   50.4669   57.6411 N   0  0  0  0  0  0  0  0  0  0  0  0
   77.2386   49.9996   56.3230 C   0  0  0  0  0  0  0  0  0  0  0  0
   68.6693   47.5224   56.7497 C   0  0  0  0  0  0  0  0  0  0  0  0
   68.4659   46.8776   55.4077 C   0  0  0  0  0  0  0  0  0  0  0  0
   67.8819   45.6387   55.3724 N   0  0  0  0  0  0  0  0  0  0  0  0
   67.6943   45.0927   54.1962 N   0  0  0  0  0  0  0  0  0  0  0  0
   68.0386   45.6745   53.0455 C   0  0  0  0  0  0  0  0  0  0  0  0
   67.8356   45.1040   51.9353 O   0  0  0  0  0  0  0  0  0  0  0  0
   68.6412   46.9446   53.0286 C   0  0  0  0  0  0  0  0  0  0  0  0
   68.8462   47.5346   54.2621 C   0  0  0  0  0  0  0  0  0  0  0  0
   69.4991   48.8933   54.3460 C   0  0  0  0  0  0  0  0  0  0  0  0
   70.4663   48.9135   53.1469 C   0  0  0  0  0  0  0  0  0  0  0  0
   69.6411   48.8678   51.8851 C   0  0  0  0  0  0  0  0  0  0  0  0
   68.9941   47.5300   51.7142 C   0  0  0  0  0  0  0  0  0  0  0  0
 15 16  1  0
 16 17  1  0
 16  7  1  0
  7  8  1  0
  7 14  1  0
  8  9  1  0
  9 10  1  0
 10 11  1  0
 10 13  1  0
 11 12  2  0
 11  1  1  0
  1  2  2  0
  1  6  1  0
  2  3  1  0
  3  4  2  0
  4  5  1  0
  5 18  1  0
  5  6  2  0
 18 19  1  0
 19 20  2  0
 19 25  1  0
 20 21  1  0
 21 22  1  0
 22 23  2  0
 22 24  1  0
 24 25  2  0
 24 29  1  0
 25 26  1  0
 26 27  1  0
 27 28  1  0
 28 29  1  0
 13 14  1  0
M  CHG  1  16   1
M  END
>  <minimizedAffinity>  (706) 
-8.83657

$$$$
cs_full_output_folder/data/smiles/9630.pdb
     RDKit          3D

 27 30  0  0  0  0  0  0  0  0999 V2000
   70.7276   45.9513   58.2856 C   0  0  0  0  0  0  0  0  0  0  0  0
   71.7938   46.6696   58.7808 C   0  0  0  0  0  0  0  0  0  0  0  0
   71.8599   48.0304   58.5093 C   0  0  0  0  0  0  0  0  0  0  0  0
   70.8632   48.6382   57.7538 C   0  0  0  0  0  0  0  0  0  0  0  0
   69.8152   47.9346   57.2665 C   0  0  0  0  0  0  0  0  0  0  0  0
   69.7547   46.5770   57.5400 C   0  0  0  0  0  0  0  0  0  0  0  0
   70.3147   44.1142   59.6958 O   0  0  0  0  0  0  0  0  0  0  0  0
   70.5985   44.5023   58.5378 C   0  0  0  0  0  0  0  0  0  0  0  0
   70.7830   43.5373   57.5143 N   0  0  0  0  0  0  0  0  0  0  0  0
   70.6350   42.1591   57.8639 C   0  0  0  0  0  0  0  0  0  0  0  0
   71.7129   41.3577   58.2098 C   0  0  0  0  0  0  0  0  0  0  0  0
   71.5239   40.0229   58.5434 C   0  0  0  0  0  0  0  0  0  0  0  0
   70.2745   39.4434   58.5441 C   0  0  0  0  0  0  0  0  0  0  0  0
   69.2025   40.2391   58.1998 C   0  0  0  0  0  0  0  0  0  0  0  0
   69.3902   41.5678   57.8679 C   0  0  0  0  0  0  0  0  0  0  0  0
   68.7036   48.5116   56.4289 C   0  0  0  0  0  0  0  0  0  0  0  0
   69.0850   48.6584   55.0274 C   0  0  0  0  0  0  0  0  0  0  0  0
   69.5263   49.8794   54.5966 N   0  0  0  0  0  0  0  0  0  0  0  0
   69.8666   50.1317   53.3598 N   0  0  0  0  0  0  0  0  0  0  0  0
   69.8093   49.1973   52.3889 C   0  0  0  0  0  0  0  0  0  0  0  0
   70.1263   49.4042   51.1944 O   0  0  0  0  0  0  0  0  0  0  0  0
   69.3721   47.9487   52.7647 C   0  0  0  0  0  0  0  0  0  0  0  0
   69.0137   47.6896   54.0843 C   0  0  0  0  0  0  0  0  0  0  0  0
   68.5956   46.3266   54.3645 C   0  0  0  0  0  0  0  0  0  0  0  0
   67.4360   46.0135   53.4293 C   0  0  0  0  0  0  0  0  0  0  0  0
   67.8933   46.1277   52.0046 C   0  0  0  0  0  0  0  0  0  0  0  0
   69.2356   46.7983   51.8382 C   0  0  0  0  0  0  0  0  0  0  0  0
  7  8  2  0
  8  9  1  0
  8  1  1  0
  9 10  1  0
 10 11  2  0
 10 15  1  0
 11 12  1  0
 12 13  2  0
 13 14  1  0
 14 15  2  0
  1  2  2  0
  1  6  1  0
  2  3  1  0
  3  4  2  0
  4  5  1  0
  5 16  1  0
  5  6  2  0
 16 17  1  0
 17 18  2  0
 17 23  1  0
 18 19  1  0
 19 20  1  0
 20 21  2  0
 20 22  1  0
 22 23  2  0
 22 27  1  0
 23 24  1  0
 24 25  1  0
 25 26  1  0
 26 27  1  0
M  END
>  <minimizedAffinity>  (707) 
-8.83582

$$$$
cs_full_output_folder/data/smiles/1915.pdb
     RDKit          3D

 27 30  0  0  0  0  0  0  0  0999 V2000
   70.6072   45.6749   58.3699 C   0  0  0  0  0  0  0  0  0  0  0  0
   69.7316   46.2978   57.5160 C   0  0  0  0  0  0  0  0  0  0  0  0
   69.8963   47.6177   57.1673 C   0  0  0  0  0  0  0  0  0  0  0  0
   70.9650   48.3349   57.6846 C   0  0  0  0  0  0  0  0  0  0  0  0
   71.8488   47.7213   58.5422 C   0  0  0  0  0  0  0  0  0  0  0  0
   71.6613   46.3997   58.8748 C   0  0  0  0  0  0  0  0  0  0  0  0
   72.5183   45.7542   59.7252 F   0  0  0  0  0  0  0  0  0  0  0  0
   75.0086   41.7638   59.1985 C   0  0  0  0  0  0  0  0  0  0  0  0
   73.6614   42.2154   58.6538 C   0  0  0  0  0  0  0  0  0  0  0  0
   73.6021   43.2107   57.7858 C   0  0  0  0  0  0  0  0  0  0  0  0
   72.2978   43.6649   57.2443 C   0  0  0  0  0  0  0  0  0  0  0  0
   71.2951   43.2872   58.1971 N   0  0  0  0  0  0  0  0  0  0  0  0
   70.4531   44.2565   58.7627 C   0  0  0  0  0  0  0  0  0  0  0  0
   69.5546   43.9932   59.6026 O   0  0  0  0  0  0  0  0  0  0  0  0
   71.1742   41.8988   58.5587 C   0  0  0  0  0  0  0  0  0  0  0  0
   72.4838   41.4714   59.1626 C   0  0  0  0  0  0  0  0  0  0  0  0
   68.9936   48.3655   56.2639 C   0  0  0  0  0  0  0  0  0  0  0  0
   69.3765   48.3669   54.8536 C   0  0  0  0  0  0  0  0  0  0  0  0
   70.2709   49.2835   54.3874 N   0  0  0  0  0  0  0  0  0  0  0  0
   70.6673   49.3780   53.1537 N   0  0  0  0  0  0  0  0  0  0  0  0
   70.1989   48.5450   52.2360 C   0  0  0  0  0  0  0  0  0  0  0  0
   70.5811   48.6304   51.0208 O   0  0  0  0  0  0  0  0  0  0  0  0
   69.2913   47.5830   52.6028 C   0  0  0  0  0  0  0  0  0  0  0  0
   68.8700   47.4857   53.9248 C   0  0  0  0  0  0  0  0  0  0  0  0
   68.0164   46.4843   54.0115 C   0  0  0  0  0  0  0  0  0  0  0  0
   67.8111   45.8526   52.6857 C   0  0  0  0  0  0  0  0  0  0  0  0
   68.7171   46.6670   51.8441 C   0  0  0  0  0  0  0  0  0  0  0  0
  8  9  1  0
  9 10  2  0
  9 16  1  0
 10 11  1  0
 11 12  1  0
 12 13  1  0
 12 15  1  0
 13 14  2  0
 13  1  1  0
  1  2  2  0
  1  6  1  0
  2  3  1  0
  3 17  1  0
  3  4  2  0
 17 18  1  0
 18 19  2  0
 18 24  1  0
 19 20  1  0
 20 21  1  0
 21 22  2  0
 21 23  1  0
 23 24  1  0
 23 27  2  0
 24 25  2  0
 25 26  1  0
 26 27  1  0
  4  5  1  0
  5  6  2  0
  6  7  1  0
 15 16  1  0
M  END
>  <minimizedAffinity>  (708) 
-8.83275

$$$$
cs_full_output_folder/data/smiles/8911.pdb
     RDKit          3D

 27 28  0  0  0  0  0  0  0  0999 V2000
   68.2593   42.6519   57.1862 C   0  0  0  0  0  0  0  0  0  0  0  0
   68.7727   40.4947   58.4349 C   0  0  0  0  0  0  0  0  0  0  0  0
   67.7390   40.6523   59.1255 O   0  0  0  0  0  0  0  0  0  0  0  0
   69.0724   41.4823   57.4547 N   0  0  0  0  0  0  0  0  0  0  0  0
   71.3938   37.1568   58.9063 C   0  0  0  0  0  0  0  0  0  0  0  0
   70.1463   37.1600   59.4672 C   0  0  0  0  0  0  0  0  0  0  0  0
   69.2639   38.2422   59.3339 C   0  0  0  0  0  0  0  0  0  0  0  0
   69.6641   39.3388   58.6159 C   0  0  0  0  0  0  0  0  0  0  0  0
   70.9326   39.3198   58.0519 C   0  0  0  0  0  0  0  0  0  0  0  0
   71.8085   38.2669   58.1736 C   0  0  0  0  0  0  0  0  0  0  0  0
   73.1959   35.9672   57.8423 C   0  0  0  0  0  0  0  0  0  0  0  0
   72.3197   36.0306   59.0906 C   0  0  0  0  0  0  0  0  0  0  0  0
   73.1986   36.3033   60.3201 C   0  0  0  0  0  0  0  0  0  0  0  0
   71.6607   34.7111   59.2915 C   0  0  0  0  0  0  0  0  0  0  0  0
   69.2611   43.7109   56.7255 C   0  0  0  0  0  0  0  0  0  0  0  0
   68.8980   44.7589   56.2891 N   0  0  0  0  0  0  0  0  0  0  0  0
   68.5036   45.9051   55.8125 C   0  0  0  0  0  0  0  0  0  0  0  0
   68.0470   46.8486   56.5526 O   0  0  0  0  0  0  0  0  0  0  0  0
   68.5357   46.2536   54.3663 C   0  0  0  0  0  0  0  0  0  0  0  0
   67.7876   45.5579   53.4362 C   0  0  0  0  0  0  0  0  0  0  0  0
   67.8021   45.8639   52.0907 C   0  0  0  0  0  0  0  0  0  0  0  0
   68.6002   46.9104   51.6599 C   0  0  0  0  0  0  0  0  0  0  0  0
   69.3611   47.6287   52.5514 C   0  0  0  0  0  0  0  0  0  0  0  0
   69.3165   47.2893   53.8914 C   0  0  0  0  0  0  0  0  0  0  0  0
   70.1921   48.7210   52.1127 N   0  0  0  0  0  0  0  0  0  0  0  0
   71.2480   48.9307   52.7366 O   0  0  0  0  0  0  0  0  0  0  0  0
   69.8959   49.5263   51.0664 O   0  0  0  0  0  0  0  0  0  0  0  0
 11 12  1  0
 12 13  1  0
 12 14  1  0
 12  5  1  0
  5  6  2  0
  5 10  1  0
  6  7  1  0
  7  8  2  0
  8  2  1  0
  8  9  1  0
  2  3  2  0
  2  4  1  0
  4  1  1  0
  1 15  1  0
 15 16  2  3
 16 17  1  0
 17 18  2  0
 17 19  1  0
 19 20  2  0
 19 24  1  0
 20 21  1  0
 21 22  2  0
 22 23  1  0
 23 25  1  0
 23 24  2  0
 25 26  2  0
 25 27  1  0
  9 10  2  0
M  CHG  2  25   1  27  -1
M  END
>  <minimizedAffinity>  (709) 
-8.83227

$$$$
cs_full_output_folder/data/smiles/433.pdb
     RDKit          3D

 27 30  0  0  0  0  0  0  0  0999 V2000
   69.8855   47.1933   57.2603 C   0  0  0  0  0  0  0  0  0  0  0  0
   69.8584   45.8328   57.3037 C   0  0  0  0  0  0  0  0  0  0  0  0
   70.8764   45.0906   57.9084 C   0  0  0  0  0  0  0  0  0  0  0  0
   71.9360   45.7546   58.4760 C   0  0  0  0  0  0  0  0  0  0  0  0
   72.9650   45.1105   59.0832 F   0  0  0  0  0  0  0  0  0  0  0  0
   72.0065   47.1524   58.4555 C   0  0  0  0  0  0  0  0  0  0  0  0
   70.9831   47.8126   57.8512 C   0  0  0  0  0  0  0  0  0  0  0  0
   73.1163   47.8087   59.0528 N   0  0  0  0  0  0  0  0  0  0  0  0
   73.1332   48.2290   60.4158 C   0  0  0  0  0  0  0  0  0  0  0  0
   72.3211   47.7357   61.2122 O   0  0  0  0  0  0  0  0  0  0  0  0
   74.1596   49.2534   60.7522 C   0  0  0  0  0  0  0  0  0  0  0  0
   75.5059   48.6866   60.3761 C   0  0  0  0  0  0  0  0  0  0  0  0
   75.5949   48.1942   58.9664 C   0  0  0  0  0  0  0  0  0  0  0  0
   74.2833   48.0762   58.2870 C   0  0  0  0  0  0  0  0  0  0  0  0
   74.2311   48.2171   57.0397 O   0  0  0  0  0  0  0  0  0  0  0  0
   68.8176   47.9720   56.6113 C   0  0  0  0  0  0  0  0  0  0  0  0
   70.4929   48.9070   51.3224 N   0  0  0  0  0  0  0  0  0  0  0  0
   70.0577   48.6827   52.6578 C   0  0  0  0  0  0  0  0  0  0  0  0
   70.4345   49.4144   53.6915 N   0  0  0  0  0  0  0  0  0  0  0  0
   70.0486   49.2259   54.9244 N   0  0  0  0  0  0  0  0  0  0  0  0
   69.1867   48.1963   55.1892 C   0  0  0  0  0  0  0  0  0  0  0  0
   68.7518   47.3978   54.1767 C   0  0  0  0  0  0  0  0  0  0  0  0
   67.8608   46.3526   54.4110 C   0  0  0  0  0  0  0  0  0  0  0  0
   67.4527   45.5955   53.3482 C   0  0  0  0  0  0  0  0  0  0  0  0
   67.8770   45.8154   52.0552 C   0  0  0  0  0  0  0  0  0  0  0  0
   68.7568   46.8495   51.8197 C   0  0  0  0  0  0  0  0  0  0  0  0
   69.1962   47.6432   52.8741 C   0  0  0  0  0  0  0  0  0  0  0  0
 17 18  1  0
 18 19  2  0
 18 27  1  0
 19 20  1  0
 20 21  2  0
 21 16  1  0
 21 22  1  0
 16  1  1  0
  1  2  2  0
  1  7  1  0
  2  3  1  0
  3  4  2  0
  4  5  1  0
  4  6  1  0
  6  8  1  0
  6  7  2  0
  8  9  1  0
  8 14  1  0
  9 10  2  0
  9 11  1  0
 11 12  1  0
 12 13  1  0
 13 14  1  0
 14 15  2  0
 22 23  1  0
 22 27  2  0
 23 24  2  0
 24 25  1  0
 25 26  2  0
 26 27  1  0
M  END
>  <minimizedAffinity>  (710) 
-8.83200

$$$$
cs_full_output_folder/data/smiles/4620.pdb
     RDKit          3D

 28 31  0  0  0  0  0  0  0  0999 V2000
   70.2765   49.4276   57.9683 C   0  0  0  0  0  0  0  0  0  0  0  0
   71.1999   49.0873   58.9724 C   0  0  0  0  0  0  0  0  0  0  0  0
   71.5418   47.7959   59.2679 C   0  0  0  0  0  0  0  0  0  0  0  0
   72.4357   47.5315   60.2486 F   0  0  0  0  0  0  0  0  0  0  0  0
   70.9685   46.7594   58.5589 C   0  0  0  0  0  0  0  0  0  0  0  0
   70.0487   47.0694   57.5551 C   0  0  0  0  0  0  0  0  0  0  0  0
   69.6996   48.3820   57.2563 C   0  0  0  0  0  0  0  0  0  0  0  0
   73.9354   53.6800   57.6766 O   0  0  0  0  0  0  0  0  0  0  0  0
   73.0315   53.1136   57.0344 C   0  0  0  0  0  0  0  0  0  0  0  0
   73.2322   51.7973   56.4232 C   0  0  0  0  0  0  0  0  0  0  0  0
   72.0179   50.9404   56.3295 C   0  0  0  0  0  0  0  0  0  0  0  0
   70.8311   51.5859   56.9062 N   0  0  0  0  0  0  0  0  0  0  0  0
   69.9763   50.8216   57.7226 C   0  0  0  0  0  0  0  0  0  0  0  0
   68.9737   51.3596   58.2186 O   0  0  0  0  0  0  0  0  0  0  0  0
   70.5647   52.9902   56.6253 C   0  0  0  0  0  0  0  0  0  0  0  0
   71.7672   53.8505   56.9348 C   0  0  0  0  0  0  0  0  0  0  0  0
   68.7365   48.6554   56.1754 C   0  0  0  0  0  0  0  0  0  0  0  0
   69.1838   48.5748   54.8001 C   0  0  0  0  0  0  0  0  0  0  0  0
   70.0522   49.4964   54.3086 N   0  0  0  0  0  0  0  0  0  0  0  0
   70.4791   49.5365   53.0753 N   0  0  0  0  0  0  0  0  0  0  0  0
   70.0926   48.6454   52.1479 C   0  0  0  0  0  0  0  0  0  0  0  0
   70.5353   48.7313   50.9682 O   0  0  0  0  0  0  0  0  0  0  0  0
   69.2200   47.6696   52.5308 C   0  0  0  0  0  0  0  0  0  0  0  0
   68.8257   46.7168   51.6053 C   0  0  0  0  0  0  0  0  0  0  0  0
   67.9710   45.7143   52.0060 C   0  0  0  0  0  0  0  0  0  0  0  0
   67.5413   45.7014   53.3221 C   0  0  0  0  0  0  0  0  0  0  0  0
   67.9363   46.6486   54.2343 C   0  0  0  0  0  0  0  0  0  0  0  0
   68.7775   47.6419   53.8434 C   0  0  0  0  0  0  0  0  0  0  0  0
  8  9  2  0
  9 10  1  0
  9 16  1  0
 10 11  1  0
 11 12  1  0
 12 13  1  0
 12 15  1  0
 13 14  2  0
 13  1  1  0
  1  2  2  0
  1  7  1  0
  2  3  1  0
  3  4  1  0
  3  5  2  0
  5  6  1  0
  6  7  2  0
  7 17  1  0
 17 18  1  0
 18 19  2  0
 18 28  1  0
 19 20  1  0
 20 21  1  0
 21 22  2  0
 21 23  1  0
 23 24  1  0
 23 28  2  0
 24 25  2  0
 25 26  1  0
 26 27  2  0
 27 28  1  0
 15 16  1  0
M  END
>  <minimizedAffinity>  (711) 
-8.83003

$$$$
cs_full_output_folder/data/smiles/9189.pdb
     RDKit          3D

 26 29  0  0  0  0  0  0  0  0999 V2000
   71.4889   47.2349   58.6854 C   0  0  0  0  0  0  0  0  0  0  0  0
   70.6943   48.0512   57.9221 C   0  0  0  0  0  0  0  0  0  0  0  0
   69.7603   47.4232   57.0826 C   0  0  0  0  0  0  0  0  0  0  0  0
   69.6862   46.0535   57.0634 C   0  0  0  0  0  0  0  0  0  0  0  0
   70.5015   45.2413   57.8445 C   0  0  0  0  0  0  0  0  0  0  0  0
   71.4094   45.8551   58.6608 C   0  0  0  0  0  0  0  0  0  0  0  0
   72.2100   45.0772   59.4269 F   0  0  0  0  0  0  0  0  0  0  0  0
   76.8335   48.9846   57.9780 C   0  0  0  0  0  0  0  0  0  0  0  0
   75.3689   49.1492   58.3249 C   0  0  0  0  0  0  0  0  0  0  0  0
   75.0134   48.6371   59.7051 C   0  0  0  0  0  0  0  0  0  0  0  0
   73.8031   48.0988   59.1385 N   0  0  0  0  0  0  0  0  0  0  0  0
   72.5037   47.8005   59.6010 C   0  0  0  0  0  0  0  0  0  0  0  0
   72.1236   47.9856   60.7820 O   0  0  0  0  0  0  0  0  0  0  0  0
   74.4967   47.9938   57.8807 C   0  0  0  0  0  0  0  0  0  0  0  0
   68.9165   48.3496   56.3030 C   0  0  0  0  0  0  0  0  0  0  0  0
   69.2867   48.4313   54.8648 C   0  0  0  0  0  0  0  0  0  0  0  0
   70.1950   49.3767   54.4599 N   0  0  0  0  0  0  0  0  0  0  0  0
   70.5984   49.4759   53.2130 N   0  0  0  0  0  0  0  0  0  0  0  0
   70.1482   48.6578   52.2539 C   0  0  0  0  0  0  0  0  0  0  0  0
   70.5547   48.7721   51.0529 O   0  0  0  0  0  0  0  0  0  0  0  0
   69.2259   47.6658   52.5523 C   0  0  0  0  0  0  0  0  0  0  0  0
   68.7407   46.8235   51.5814 C   0  0  0  0  0  0  0  0  0  0  0  0
   67.8206   45.8696   51.9269 C   0  0  0  0  0  0  0  0  0  0  0  0
   67.4006   45.7743   53.2339 C   0  0  0  0  0  0  0  0  0  0  0  0
   67.8836   46.6194   54.2233 C   0  0  0  0  0  0  0  0  0  0  0  0
   68.8174   47.5884   53.8912 C   0  0  0  0  0  0  0  0  0  0  0  0
  8  9  1  0
  9 10  1  0
  9 14  1  0
 10 11  1  0
 11 12  1  0
 11 14  1  0
 12 13  2  0
 12  1  1  0
  1  2  2  0
  1  6  1  0
  2  3  1  0
  3 15  1  0
  3  4  2  0
 15 16  1  0
 16 17  2  0
 16 26  1  0
 17 18  1  0
 18 19  1  0
 19 20  2  0
 19 21  1  0
 21 22  1  0
 21 26  2  0
 22 23  2  0
 23 24  1  0
 24 25  2  0
 25 26  1  0
  4  5  1  0
  5  6  2  0
  6  7  1  0
M  END
>  <minimizedAffinity>  (712) 
-8.82934

$$$$
cs_full_output_folder/data/smiles/2693.pdb
     RDKit          3D

 24 25  0  0  0  0  0  0  0  0999 V2000
   70.1841   49.1623   52.5076 S   0  0  0  0  0  0  0  0  0  0  0  0
   71.5631   49.2443   53.1133 O   0  0  0  0  0  0  0  0  0  0  0  0
   70.2989   48.9163   51.0312 O   0  0  0  0  0  0  0  0  0  0  0  0
   69.3044   47.8187   53.2339 C   0  0  0  0  0  0  0  0  0  0  0  0
   68.5893   46.9380   52.4537 C   0  0  0  0  0  0  0  0  0  0  0  0
   68.5358   47.0716   51.0897 F   0  0  0  0  0  0  0  0  0  0  0  0
   67.8967   45.8843   53.0180 C   0  0  0  0  0  0  0  0  0  0  0  0
   67.1817   44.9989   52.2805 F   0  0  0  0  0  0  0  0  0  0  0  0
   67.9367   45.7286   54.3893 C   0  0  0  0  0  0  0  0  0  0  0  0
   68.6513   46.6042   55.1906 C   0  0  0  0  0  0  0  0  0  0  0  0
   68.6926   46.4559   56.5297 F   0  0  0  0  0  0  0  0  0  0  0  0
   69.3335   47.6490   54.5997 C   0  0  0  0  0  0  0  0  0  0  0  0
   70.0284   48.4938   55.4154 F   0  0  0  0  0  0  0  0  0  0  0  0
   69.3640   50.6457   52.7680 N   0  0  0  0  0  0  0  0  0  0  0  0
   68.2218   51.6320   56.1620 C   0  0  0  0  0  0  0  0  0  0  0  0
   69.1564   52.5613   56.4895 C   0  0  0  0  0  0  0  0  0  0  0  0
   70.1687   52.8726   55.6011 C   0  0  0  0  0  0  0  0  0  0  0  0
   70.2562   52.2587   54.3756 C   0  0  0  0  0  0  0  0  0  0  0  0
   69.3094   51.3154   54.0397 C   0  0  0  0  0  0  0  0  0  0  0  0
   68.3078   51.0137   54.9317 C   0  0  0  0  0  0  0  0  0  0  0  0
   66.2041   49.7034   58.7355 N   0  0  0  0  0  0  0  0  0  0  0  0
   67.2217   50.0943   57.8382 C   0  0  0  0  0  0  0  0  0  0  0  0
   68.2718   49.3930   57.6717 O   0  0  0  0  0  0  0  0  0  0  0  0
   67.1594   51.2837   57.0578 N   0  0  0  0  0  0  0  0  0  0  0  0
 21 22  1  0
 22 23  2  0
 22 24  1  0
 24 15  1  0
 15 16  2  0
 15 20  1  0
 16 17  1  0
 17 18  2  0
 18 19  1  0
 19 14  1  0
 19 20  2  0
 14  1  1  0
  1  2  2  0
  1  3  2  0
  1  4  1  0
  4  5  2  0
  4 12  1  0
  5  6  1  0
  5  7  1  0
  7  8  1  0
  7  9  2  0
  9 10  1  0
 10 11  1  0
 10 12  2  0
 12 13  1  0
M  END
>  <minimizedAffinity>  (713) 
-8.82845

$$$$
cs_full_output_folder/data/smiles/5999.pdb
     RDKit          3D

 27 30  0  0  0  0  0  0  0  0999 V2000
   71.1718   47.7213   58.6771 C   0  0  0  0  0  0  0  0  0  0  0  0
   71.1469   46.0016   58.6513 C   0  0  0  0  0  0  0  0  0  0  0  0
   70.3774   45.3153   57.8911 C   0  0  0  0  0  0  0  0  0  0  0  0
   69.4706   45.8335   56.9949 C   0  0  0  0  0  0  0  0  0  0  0  0
   69.4222   47.2061   56.9550 N   0  0  0  0  0  0  0  0  0  0  0  0
   70.2737   47.7381   57.7943 C   0  0  0  0  0  0  0  0  0  0  0  0
   70.1383   49.1498   57.6570 O   0  0  0  0  0  0  0  0  0  0  0  0
   73.5299   47.5318   61.7008 C   0  0  0  0  0  0  0  0  0  0  0  0
   72.2479   47.5069   61.0362 N   0  0  0  0  0  0  0  0  0  0  0  0
   72.1612   47.7028   59.6501 C   0  0  0  0  0  0  0  0  0  0  0  0
   73.4060   47.8953   59.1419 O   0  0  0  0  0  0  0  0  0  0  0  0
   70.3994   43.7973   57.9090 C   0  0  0  0  0  0  0  0  0  0  0  0
   71.3745   43.1753   58.1913 O   0  0  0  0  0  0  0  0  0  0  0  0
   69.1702   43.1621   57.5697 N   0  0  0  0  0  0  0  0  0  0  0  0
   68.8883   41.7709   57.4815 C   0  0  0  0  0  0  0  0  0  0  0  0
   67.7758   41.3376   56.5169 C   0  0  0  0  0  0  0  0  0  0  0  0
   67.5102   41.3038   57.9541 C   0  0  0  0  0  0  0  0  0  0  0  0
   68.5607   47.9172   56.0465 C   0  0  0  0  0  0  0  0  0  0  0  0
   68.6243   47.5042   54.6455 C   0  0  0  0  0  0  0  0  0  0  0  0
   67.7263   46.5473   54.1982 C   0  0  0  0  0  0  0  0  0  0  0  0
   67.7283   46.1309   52.8903 C   0  0  0  0  0  0  0  0  0  0  0  0
   68.5855   46.6014   51.9299 C   0  0  0  0  0  0  0  0  0  0  0  0
   69.4969   47.5645   52.3716 C   0  0  0  0  0  0  0  0  0  0  0  0
   70.4852   48.2590   51.6877 C   0  0  0  0  0  0  0  0  0  0  0  0
   71.0368   49.0610   52.5789 N   0  0  0  0  0  0  0  0  0  0  0  0
   70.4586   48.9092   53.7762 N   0  0  0  0  0  0  0  0  0  0  0  0
   69.5009   47.9922   53.6967 C   0  0  0  0  0  0  0  0  0  0  0  0
  8  9  1  0
  9 10  1  0
 10 11  2  0
 10  1  1  0
  1  2  2  0
  1  6  1  0
  2  3  1  0
  3 12  1  0
  3  4  2  0
 12 13  2  0
 12 14  1  0
 14 15  1  0
 15 16  1  0
 15 17  1  0
 16 17  1  0
  4  5  1  0
  5 18  1  0
  5  6  1  0
 18 19  1  0
 19 20  2  0
 19 27  1  0
 20 21  1  0
 21 22  2  0
 22 23  1  0
 23 24  1  0
 23 27  2  0
 24 25  2  0
 25 26  1  0
 26 27  1  0
  6  7  2  0
M  END
>  <minimizedAffinity>  (714) 
-8.82674

$$$$
cs_full_output_folder/data/smiles/3852.pdb
     RDKit          3D

 29 32  0  0  0  0  0  0  0  0999 V2000
   70.9776   44.6762   58.0971 C   0  0  0  0  0  0  0  0  0  0  0  0
   70.0501   45.4043   57.3968 C   0  0  0  0  0  0  0  0  0  0  0  0
   69.9148   46.7817   57.4666 C   0  0  0  0  0  0  0  0  0  0  0  0
   70.7881   47.4252   58.3059 C   0  0  0  0  0  0  0  0  0  0  0  0
   71.7393   46.7265   59.0299 C   0  0  0  0  0  0  0  0  0  0  0  0
   71.8575   45.3580   58.9458 C   0  0  0  0  0  0  0  0  0  0  0  0
   72.7673   44.6449   59.6327 F   0  0  0  0  0  0  0  0  0  0  0  0
   69.5985   42.8867   59.9701 C   0  0  0  0  0  0  0  0  0  0  0  0
   70.3570   42.3701   58.8377 N   0  0  0  0  0  0  0  0  0  0  0  0
   71.0177   43.2472   57.9388 C   0  0  0  0  0  0  0  0  0  0  0  0
   71.6572   42.7541   56.9768 O   0  0  0  0  0  0  0  0  0  0  0  0
   70.4015   40.9696   58.6793 C   0  0  0  0  0  0  0  0  0  0  0  0
   69.2586   40.2569   58.4275 C   0  0  0  0  0  0  0  0  0  0  0  0
   69.3258   38.8958   58.2763 C   0  0  0  0  0  0  0  0  0  0  0  0
   70.5123   38.2723   58.3783 N   0  0  0  0  0  0  0  0  0  0  0  0
   71.6541   38.9247   58.6238 C   0  0  0  0  0  0  0  0  0  0  0  0
   71.5956   40.3030   58.7771 C   0  0  0  0  0  0  0  0  0  0  0  0
   68.8437   47.4337   56.6683 C   0  0  0  0  0  0  0  0  0  0  0  0
   69.3211   47.8148   55.3269 C   0  0  0  0  0  0  0  0  0  0  0  0
   70.2139   48.8364   55.2174 N   0  0  0  0  0  0  0  0  0  0  0  0
   70.6323   49.2415   54.0474 N   0  0  0  0  0  0  0  0  0  0  0  0
   70.2193   48.6849   52.8973 C   0  0  0  0  0  0  0  0  0  0  0  0
   70.6343   49.0878   51.7677 O   0  0  0  0  0  0  0  0  0  0  0  0
   69.3228   47.6505   52.9216 C   0  0  0  0  0  0  0  0  0  0  0  0
   68.8902   47.0524   51.7668 C   0  0  0  0  0  0  0  0  0  0  0  0
   67.9881   45.9912   51.8231 C   0  0  0  0  0  0  0  0  0  0  0  0
   67.5374   45.5502   53.0401 C   0  0  0  0  0  0  0  0  0  0  0  0
   67.9889   46.1704   54.2008 C   0  0  0  0  0  0  0  0  0  0  0  0
   68.8754   47.2193   54.1755 C   0  0  0  0  0  0  0  0  0  0  0  0
  8  9  1  0
  9 10  1  0
  9 12  1  0
 10 11  2  0
 10  1  1  0
  1  2  2  0
  1  6  1  0
  2  3  1  0
  3 18  1  0
  3  4  2  0
 18 19  1  0
 19 20  2  0
 19 29  1  0
 20 21  1  0
 21 22  1  0
 22 23  2  0
 22 24  1  0
 24 25  1  0
 24 29  2  0
 25 26  2  0
 26 27  1  0
 27 28  2  0
 28 29  1  0
  4  5  1  0
  5  6  2  0
  6  7  1  0
 12 13  2  0
 12 17  1  0
 13 14  1  0
 14 15  2  0
 15 16  1  0
 16 17  2  0
M  END
>  <minimizedAffinity>  (715) 
-8.82572

$$$$
cs_full_output_folder/data/smiles/541.pdb
     RDKit          3D

 27 29  0  0  0  0  0  0  0  0999 V2000
   68.6211   46.4048   54.1357 C   0  0  0  0  0  0  0  0  0  0  0  0
   68.3471   46.0768   52.8315 C   0  0  0  0  0  0  0  0  0  0  0  0
   68.7183   46.9185   51.7761 C   0  0  0  0  0  0  0  0  0  0  0  0
   69.3673   48.0899   52.0677 C   0  0  0  0  0  0  0  0  0  0  0  0
   69.6613   48.4541   53.3677 C   0  0  0  0  0  0  0  0  0  0  0  0
   69.2748   47.5926   54.3705 C   0  0  0  0  0  0  0  0  0  0  0  0
   68.2222   45.9318   56.4000 O   0  0  0  0  0  0  0  0  0  0  0  0
   68.2163   45.4992   55.1954 C   0  0  0  0  0  0  0  0  0  0  0  0
   67.8105   44.1663   55.0262 N   0  0  0  0  0  0  0  0  0  0  0  0
   67.4263   43.3241   56.0784 N   0  0  0  0  0  0  0  0  0  0  0  0
   68.3459   42.5913   56.8585 C   0  0  0  0  0  0  0  0  0  0  0  0
   69.5678   42.7345   56.5522 O   0  0  0  0  0  0  0  0  0  0  0  0
   67.9587   41.7178   57.9502 C   0  0  0  0  0  0  0  0  0  0  0  0
   68.0308   40.3537   57.7740 C   0  0  0  0  0  0  0  0  0  0  0  0
   67.6755   39.4622   58.7775 C   0  0  0  0  0  0  0  0  0  0  0  0
   67.2390   39.9712   59.9816 C   0  0  0  0  0  0  0  0  0  0  0  0
   67.1731   41.3380   60.1405 C   0  0  0  0  0  0  0  0  0  0  0  0
   67.5340   42.1741   59.1224 N   0  0  0  0  0  0  0  0  0  0  0  0
   70.4956   49.9616   53.7167 S   0  0  0  0  0  0  0  0  0  0  0  0
   71.9756   49.8019   53.6441 O   0  0  0  0  0  0  0  0  0  0  0  0
   70.0539   50.9481   52.6444 O   0  0  0  0  0  0  0  0  0  0  0  0
   69.9396   50.5444   55.2094 N   0  0  0  0  0  0  0  0  0  0  0  0
   68.7713   51.3410   55.1672 C   0  0  0  0  0  0  0  0  0  0  0  0
   68.9555   52.8048   55.3431 C   0  0  0  0  0  0  0  0  0  0  0  0
   70.0897   53.2088   56.2221 C   0  0  0  0  0  0  0  0  0  0  0  0
   70.5100   52.0345   57.0733 C   0  0  0  0  0  0  0  0  0  0  0  0
   70.9528   50.9393   56.1216 C   0  0  0  0  0  0  0  0  0  0  0  0
  7  8  2  0
  8  9  1  0
  8  1  1  0
  9 10  1  0
 10 11  1  0
 11 12  2  0
 11 13  1  0
 13 14  2  0
 13 18  1  0
 14 15  1  0
 15 16  2  0
 16 17  1  0
 17 18  2  0
  1  2  2  0
  1  6  1  0
  2  3  1  0
  3  4  2  0
  4  5  1  0
  5 19  1  0
  5  6  2  0
 19 20  2  0
 19 21  2  0
 19 22  1  0
 22 23  1  0
 22 27  1  0
 23 24  1  0
 24 25  1  0
 25 26  1  0
 26 27  1  0
M  END
>  <minimizedAffinity>  (716) 
-8.82380

$$$$
cs_full_output_folder/data/smiles/2640.pdb
     RDKit          3D

 26 27  0  0  0  0  0  0  0  0999 V2000
   69.1484   50.9737   56.8285 C   0  0  0  0  0  0  0  0  0  0  0  0
   69.0830   52.3568   56.9273 C   0  0  0  0  0  0  0  0  0  0  0  0
   68.9643   53.0790   55.7637 C   0  0  0  0  0  0  0  0  0  0  0  0
   68.9094   52.4672   54.5433 C   0  0  0  0  0  0  0  0  0  0  0  0
   68.9708   51.1034   54.4147 C   0  0  0  0  0  0  0  0  0  0  0  0
   69.0918   50.3744   55.5887 C   0  0  0  0  0  0  0  0  0  0  0  0
   70.7184   49.6455   58.5577 S   0  0  0  0  0  0  0  0  0  0  0  0
   69.2747   50.2360   58.0793 C   0  0  0  0  0  0  0  0  0  0  0  0
   73.2040   50.0206   56.9276 C   0  0  0  0  0  0  0  0  0  0  0  0
   72.1876   49.8740   57.5812 C   0  0  0  0  0  0  0  0  0  0  0  0
   75.6059   49.8583   56.6702 C   0  0  0  0  0  0  0  0  0  0  0  0
   74.4222   50.1936   56.1730 C   0  0  0  0  0  0  0  0  0  0  0  0
   77.6380   50.9557   56.1777 O   0  0  0  0  0  0  0  0  0  0  0  0
   76.8488   50.0148   55.9475 C   0  0  0  0  0  0  0  0  0  0  0  0
   77.1840   49.0737   54.9490 N   0  0  0  0  0  0  0  0  0  0  0  0
   78.3252   49.1353   54.2190 O   0  0  0  0  0  0  0  0  0  0  0  0
   68.9069   50.5393   53.1366 N   0  0  0  0  0  0  0  0  0  0  0  0
   69.8817   49.2207   52.6044 S   0  0  0  0  0  0  0  0  0  0  0  0
   70.1603   49.3067   51.1405 O   0  0  0  0  0  0  0  0  0  0  0  0
   71.2133   49.2070   53.3140 O   0  0  0  0  0  0  0  0  0  0  0  0
   69.0690   47.7345   53.0365 C   0  0  0  0  0  0  0  0  0  0  0  0
   68.9224   47.2976   54.3345 C   0  0  0  0  0  0  0  0  0  0  0  0
   68.2617   46.0991   54.6140 C   0  0  0  0  0  0  0  0  0  0  0  0
   67.7396   45.3211   53.6021 C   0  0  0  0  0  0  0  0  0  0  0  0
   67.8978   45.7768   52.3102 C   0  0  0  0  0  0  0  0  0  0  0  0
   68.5467   46.9558   52.0201 C   0  0  0  0  0  0  0  0  0  0  0  0
 13 14  2  0
 14 11  1  0
 14 15  1  0
 11 12  2  0
 12  9  1  0
  9 10  3  0
 10  7  1  0
  7  8  2  0
  8  1  1  0
  1  2  2  0
  1  6  1  0
  2  3  1  0
  3  4  2  0
  4  5  1  0
  5 17  1  0
  5  6  2  0
 17 18  1  0
 18 19  2  0
 18 20  2  0
 18 21  1  0
 21 22  2  0
 21 26  1  0
 22 23  1  0
 23 24  2  0
 24 25  1  0
 25 26  2  0
 15 16  1  0
M  END
>  <minimizedAffinity>  (717) 
-8.82288

$$$$
cs_full_output_folder/data/smiles/608.pdb
     RDKit          3D

 27 28  0  0  0  0  0  0  0  0999 V2000
   70.9676   44.2350   58.4930 O   0  0  0  0  0  0  0  0  0  0  0  0
   69.9956   43.5272   58.1274 C   0  0  0  0  0  0  0  0  0  0  0  0
   69.7989   42.2395   58.6878 N   0  0  0  0  0  0  0  0  0  0  0  0
   69.1050   44.0671   57.1341 N   0  0  0  0  0  0  0  0  0  0  0  0
   69.3816   45.3479   56.6420 N   0  0  0  0  0  0  0  0  0  0  0  0
   68.6841   45.8882   55.5305 C   0  0  0  0  0  0  0  0  0  0  0  0
   67.8018   45.1192   55.0280 O   0  0  0  0  0  0  0  0  0  0  0  0
   68.9106   47.1925   54.9705 C   0  0  0  0  0  0  0  0  0  0  0  0
   68.8289   48.3537   55.6891 C   0  0  0  0  0  0  0  0  0  0  0  0
   69.0567   49.5866   55.1127 C   0  0  0  0  0  0  0  0  0  0  0  0
   69.3751   49.6687   53.7772 C   0  0  0  0  0  0  0  0  0  0  0  0
   69.4643   48.5253   53.0274 C   0  0  0  0  0  0  0  0  0  0  0  0
   69.2332   47.3155   53.6288 C   0  0  0  0  0  0  0  0  0  0  0  0
   69.7936   48.5564   51.6458 N   0  0  0  0  0  0  0  0  0  0  0  0
   70.1027   47.5148   51.0344 O   0  0  0  0  0  0  0  0  0  0  0  0
   69.7900   49.7220   50.9126 O   0  0  0  0  0  0  0  0  0  0  0  0
   70.6407   41.6261   59.6856 C   0  0  0  0  0  0  0  0  0  0  0  0
   71.0683   40.2935   59.1915 C   0  0  0  0  0  0  0  0  0  0  0  0
   72.4124   39.9758   59.2656 C   0  0  0  0  0  0  0  0  0  0  0  0
   72.8803   38.7516   58.8353 C   0  0  0  0  0  0  0  0  0  0  0  0
   71.9725   37.8488   58.3290 C   0  0  0  0  0  0  0  0  0  0  0  0
   70.6493   38.1327   58.2442 C   0  0  0  0  0  0  0  0  0  0  0  0
   70.1968   39.3637   58.6792 C   0  0  0  0  0  0  0  0  0  0  0  0
   72.4358   36.5158   57.8552 C   0  0  0  0  0  0  0  0  0  0  0  0
   73.7056   36.2725   58.3156 F   0  0  0  0  0  0  0  0  0  0  0  0
   71.5382   35.5359   58.2314 F   0  0  0  0  0  0  0  0  0  0  0  0
   72.4757   36.5190   56.4805 F   0  0  0  0  0  0  0  0  0  0  0  0
  1  2  2  0
  2  3  1  0
  2  4  1  0
  3 17  1  0
 17 18  1  0
 18 19  2  0
 18 23  1  0
 19 20  1  0
 20 21  2  0
 21 24  1  0
 21 22  1  0
 24 25  1  0
 24 26  1  0
 24 27  1  0
 22 23  2  0
  4  5  1  0
  5  6  1  0
  6  7  2  0
  6  8  1  0
  8  9  2  0
  8 13  1  0
  9 10  1  0
 10 11  2  0
 11 12  1  0
 12 14  1  0
 12 13  2  0
 14 15  2  0
 14 16  1  0
M  CHG  2  14   1  16  -1
M  END
>  <minimizedAffinity>  (718) 
-8.82129

$$$$
cs_full_output_folder/data/smiles/8251.pdb
     RDKit          3D

 29 32  0  0  0  0  0  0  0  0999 V2000
   71.8834   46.6926   58.8771 C   0  0  0  0  0  0  0  0  0  0  0  0
   70.6745   46.7061   58.2032 C   0  0  0  0  0  0  0  0  0  0  0  0
   70.2758   47.8256   57.5024 C   0  0  0  0  0  0  0  0  0  0  0  0
   71.1322   48.9502   57.4859 C   0  0  0  0  0  0  0  0  0  0  0  0
   72.3222   48.9330   58.1452 C   0  0  0  0  0  0  0  0  0  0  0  0
   72.6575   47.7860   58.8211 C   0  0  0  0  0  0  0  0  0  0  0  0
   73.8876   47.8216   59.4634 F   0  0  0  0  0  0  0  0  0  0  0  0
   73.1499   42.7308   58.1271 C   0  0  0  0  0  0  0  0  0  0  0  0
   73.2569   44.1928   57.9433 C   0  0  0  0  0  0  0  0  0  0  0  0
   72.7088   44.4073   59.2556 N   0  0  0  0  0  0  0  0  0  0  0  0
   72.0886   45.5891   59.8624 C   0  0  0  0  0  0  0  0  0  0  0  0
   71.7446   45.7295   60.9972 O   0  0  0  0  0  0  0  0  0  0  0  0
   72.8791   43.0495   59.5656 C   0  0  0  0  0  0  0  0  0  0  0  0
   72.0352   42.0898   57.4466 N   0  0  0  0  0  0  0  0  0  0  0  0
   70.7936   42.3658   57.7589 C   0  0  0  0  0  0  0  0  0  0  0  0
   68.4250   42.4594   56.9119 C   0  0  0  0  0  0  0  0  0  0  0  0
   69.5567   42.4146   57.3101 C   0  0  0  0  0  0  0  0  0  0  0  0
   68.9358   47.9778   56.9095 C   0  0  0  0  0  0  0  0  0  0  0  0
   68.7168   47.2672   55.7288 C   0  0  0  0  0  0  0  0  0  0  0  0
   68.0703   46.0290   55.8393 N   0  0  0  0  0  0  0  0  0  0  0  0
   67.7512   45.2989   54.8143 N   0  0  0  0  0  0  0  0  0  0  0  0
   67.9754   45.5809   53.4967 C   0  0  0  0  0  0  0  0  0  0  0  0
   67.6755   44.9306   52.5448 O   0  0  0  0  0  0  0  0  0  0  0  0
   68.6622   46.8566   53.3045 C   0  0  0  0  0  0  0  0  0  0  0  0
   68.9635   47.1700   51.9895 C   0  0  0  0  0  0  0  0  0  0  0  0
   69.6590   48.3904   51.8617 C   0  0  0  0  0  0  0  0  0  0  0  0
   70.0066   49.1629   52.9268 C   0  0  0  0  0  0  0  0  0  0  0  0
   69.6722   48.7625   54.2013 C   0  0  0  0  0  0  0  0  0  0  0  0
   68.9645   47.5648   54.3803 C   0  0  0  0  0  0  0  0  0  0  0  0
 16 17  3  0
 17 15  1  0
 15 14  1  0
 14  8  1  0
  8  9  1  0
  8 13  1  0
  9 10  1  0
 10 11  1  0
 10 13  1  0
 11 12  2  0
 11  1  1  0
  1  2  2  0
  1  6  1  0
  2  3  1  0
  3 18  1  0
  3  4  2  0
 18 19  1  0
 19 20  2  0
 19 29  1  0
 20 21  1  0
 21 22  1  0
 22 23  2  0
 22 24  1  0
 24 25  1  0
 24 29  2  0
 25 26  2  0
 26 27  1  0
 27 28  2  0
 28 29  1  0
  4  5  1  0
  5  6  2  0
  6  7  1  0
M  CHG  1  14   1
M  END
>  <minimizedAffinity>  (719) 
-8.82077

$$$$
cs_full_output_folder/data/smiles/8263.pdb
     RDKit          3D

 27 30  0  0  0  0  0  0  0  0999 V2000
   70.8926   46.6189   58.3459 C   0  0  0  0  0  0  0  0  0  0  0  0
   69.9007   47.1440   57.4794 C   0  0  0  0  0  0  0  0  0  0  0  0
   69.8686   48.4323   57.1126 C   0  0  0  0  0  0  0  0  0  0  0  0
   70.8526   49.2868   57.6067 C   0  0  0  0  0  0  0  0  0  0  0  0
   71.8229   48.8146   58.4453 C   0  0  0  0  0  0  0  0  0  0  0  0
   71.8398   47.4631   58.8173 C   0  0  0  0  0  0  0  0  0  0  0  0
   72.8090   47.0962   59.6773 F   0  0  0  0  0  0  0  0  0  0  0  0
   69.7470   44.8306   59.2221 O   0  0  0  0  0  0  0  0  0  0  0  0
   70.8465   45.1987   58.6171 C   0  0  0  0  0  0  0  0  0  0  0  0
   71.8308   44.2056   58.2967 C   0  0  2  0  0  0  0  0  0  0  0  0
   71.2385   42.8189   57.9631 C   0  0  0  0  0  0  0  0  0  0  0  0
   72.3678   41.9849   57.6763 N   0  0  0  0  0  0  0  0  0  0  0  0
   73.5536   42.6539   57.2427 C   0  0  0  0  0  0  0  0  0  0  0  0
   74.0717   43.5864   58.3390 C   0  0  0  0  0  0  0  0  0  0  0  0
   72.9148   43.9559   59.2001 N   0  0  0  0  0  0  0  0  0  0  0  0
   68.8259   49.0084   56.1753 C   0  0  0  0  0  0  0  0  0  0  0  0
   69.2062   48.8436   54.7851 C   0  0  0  0  0  0  0  0  0  0  0  0
   70.0632   49.7700   54.2498 N   0  0  0  0  0  0  0  0  0  0  0  0
   70.5231   49.7350   53.0372 N   0  0  0  0  0  0  0  0  0  0  0  0
   70.1709   48.7527   52.2074 C   0  0  0  0  0  0  0  0  0  0  0  0
   70.6072   48.7001   51.0268 O   0  0  0  0  0  0  0  0  0  0  0  0
   69.3172   47.7779   52.6484 C   0  0  0  0  0  0  0  0  0  0  0  0
   68.9352   46.7591   51.7991 C   0  0  0  0  0  0  0  0  0  0  0  0
   68.0704   45.7850   52.2280 C   0  0  0  0  0  0  0  0  0  0  0  0
   67.6017   45.8610   53.5311 C   0  0  0  0  0  0  0  0  0  0  0  0
   67.9870   46.8787   54.3738 C   0  0  0  0  0  0  0  0  0  0  0  0
   68.8443   47.8345   53.9316 C   0  0  0  0  0  0  0  0  0  0  0  0
  8  9  2  0
  9  1  1  0
 10  9  1  1
  1  2  2  0
  1  6  1  0
  2  3  1  0
  3 16  1  0
  3  4  2  0
 16 17  1  0
 17 18  2  0
 17 27  1  0
 18 19  1  0
 19 20  1  0
 20 21  2  0
 20 22  1  0
 22 23  1  0
 22 27  2  0
 23 24  2  0
 24 25  1  0
 25 26  2  0
 26 27  1  0
  4  5  1  0
  5  6  2  0
  6  7  1  0
 10 11  1  0
 10 15  1  0
 11 12  1  0
 12 13  1  0
 13 14  1  0
 14 15  1  0
M  CHG  2  12   1  15   1
M  END
>  <minimizedAffinity>  (720) 
-8.82060

$$$$
cs_full_output_folder/data/smiles/1424.pdb
     RDKit          3D

 27 30  0  0  0  0  0  0  0  0999 V2000
   70.7272   46.5499   58.4515 C   0  0  0  0  0  0  0  0  0  0  0  0
   69.8205   47.0357   57.5203 C   0  0  0  0  0  0  0  0  0  0  0  0
   69.6211   48.3677   57.2342 C   0  0  0  0  0  0  0  0  0  0  0  0
   70.3867   49.2750   57.9313 C   0  0  0  0  0  0  0  0  0  0  0  0
   71.3046   48.8525   58.8698 C   0  0  0  0  0  0  0  0  0  0  0  0
   71.4622   47.4814   59.1170 C   0  0  0  0  0  0  0  0  0  0  0  0
   72.3743   47.1258   60.0403 F   0  0  0  0  0  0  0  0  0  0  0  0
   71.6498   44.4176   57.9902 O   0  0  0  0  0  0  0  0  0  0  0  0
   70.8022   45.1067   58.6297 C   0  0  0  0  0  0  0  0  0  0  0  0
   69.9685   44.3649   59.4975 N   0  0  0  0  0  0  0  0  0  0  0  0
   70.0901   42.9201   59.6356 C   0  0  1  0  0  0  0  0  0  0  0  0
   69.6425   42.4180   60.9628 C   0  0  0  0  0  0  0  0  0  0  0  0
   68.1380   42.4502   60.8190 C   0  0  0  0  0  0  0  0  0  0  0  0
   67.8429   42.5001   59.4813 O   0  0  0  0  0  0  0  0  0  0  0  0
   68.9855   42.3366   58.7379 C   0  0  0  0  0  0  0  0  0  0  0  0
   68.6453   48.8153   56.2093 C   0  0  0  0  0  0  0  0  0  0  0  0
   69.1079   48.7382   54.8246 C   0  0  0  0  0  0  0  0  0  0  0  0
   69.7786   49.7855   54.3319 N   0  0  0  0  0  0  0  0  0  0  0  0
   70.2635   49.8798   53.1221 N   0  0  0  0  0  0  0  0  0  0  0  0
   70.1017   48.8654   52.2617 C   0  0  0  0  0  0  0  0  0  0  0  0
   70.5620   48.9223   51.0729 O   0  0  0  0  0  0  0  0  0  0  0  0
   69.4243   47.7553   52.6921 C   0  0  0  0  0  0  0  0  0  0  0  0
   68.9052   47.6633   53.9979 C   0  0  0  0  0  0  0  0  0  0  0  0
   68.1818   46.4656   54.4468 C   0  0  0  0  0  0  0  0  0  0  0  0
   67.6532   45.5989   53.3666 C   0  0  0  0  0  0  0  0  0  0  0  0
   67.7180   46.2349   51.9992 C   0  0  0  0  0  0  0  0  0  0  0  0
   69.1958   46.6006   51.7678 C   0  0  0  0  0  0  0  0  0  0  0  0
  8  9  2  0
  9 10  1  0
  9  1  1  0
 11 10  1  1
 11 12  1  0
 11 15  1  0
 12 13  1  0
 13 14  1  0
 14 15  1  0
  1  2  2  0
  1  6  1  0
  2  3  1  0
  3 16  1  0
  3  4  2  0
 16 17  1  0
 17 18  2  0
 17 23  1  0
 18 19  1  0
 19 20  1  0
 20 21  2  0
 20 22  1  0
 22 23  2  0
 22 27  1  0
 23 24  1  0
 24 25  1  0
 25 26  1  0
 26 27  1  0
  4  5  1  0
  5  6  2  0
  6  7  1  0
M  END
>  <minimizedAffinity>  (721) 
-8.81825

$$$$
cs_full_output_folder/data/smiles/3054.pdb
     RDKit          3D

 28 31  0  0  0  0  0  0  0  0999 V2000
   71.6884   47.0444   59.0096 C   0  0  0  0  0  0  0  0  0  0  0  0
   70.7364   47.7261   58.2800 C   0  0  0  0  0  0  0  0  0  0  0  0
   69.8763   47.0935   57.4137 C   0  0  0  0  0  0  0  0  0  0  0  0
   69.9338   45.7336   57.2400 C   0  0  0  0  0  0  0  0  0  0  0  0
   70.8917   45.0160   57.9703 C   0  0  0  0  0  0  0  0  0  0  0  0
   71.7432   45.6789   58.8334 C   0  0  0  0  0  0  0  0  0  0  0  0
   72.6429   44.9219   59.5068 F   0  0  0  0  0  0  0  0  0  0  0  0
   74.5339   50.3474   60.4662 C   0  0  0  0  0  0  0  0  0  0  0  0
   74.7207   48.8265   60.5162 C   0  0  2  0  0  0  0  0  0  0  0  0
   76.1757   48.5067   60.3559 C   0  0  0  0  0  0  0  0  0  0  0  0
   76.5794   48.1829   59.0368 N   0  0  0  0  0  0  0  0  0  0  0  0
   75.6868   47.3114   58.3235 C   0  0  0  0  0  0  0  0  0  0  0  0
   74.3456   48.0244   58.2243 C   0  0  0  0  0  0  0  0  0  0  0  0
   73.8710   48.1810   59.5661 N   0  0  0  0  0  0  0  0  0  0  0  0
   72.6000   47.7089   59.9277 C   0  0  0  0  0  0  0  0  0  0  0  0
   72.1969   47.8606   61.1335 O   0  0  0  0  0  0  0  0  0  0  0  0
   68.8845   47.8848   56.6651 C   0  0  0  0  0  0  0  0  0  0  0  0
   69.3655   48.1386   55.2828 C   0  0  0  0  0  0  0  0  0  0  0  0
   70.2860   49.0830   55.0293 N   0  0  0  0  0  0  0  0  0  0  0  0
   70.7530   49.3605   53.8470 N   0  0  0  0  0  0  0  0  0  0  0  0
   70.3090   48.6801   52.7846 C   0  0  0  0  0  0  0  0  0  0  0  0
   70.7800   48.9732   51.6579 O   0  0  0  0  0  0  0  0  0  0  0  0
   69.3568   47.6884   52.9614 C   0  0  0  0  0  0  0  0  0  0  0  0
   68.9121   46.9987   51.8527 C   0  0  0  0  0  0  0  0  0  0  0  0
   67.9518   46.0004   52.0384 C   0  0  0  0  0  0  0  0  0  0  0  0
   67.4601   45.7080   53.2912 C   0  0  0  0  0  0  0  0  0  0  0  0
   67.9353   46.4268   54.3790 C   0  0  0  0  0  0  0  0  0  0  0  0
   68.8772   47.4115   54.2203 C   0  0  0  0  0  0  0  0  0  0  0  0
  9  8  1  6
  9 10  1  0
  9 14  1  0
 10 11  1  0
 11 12  1  0
 12 13  1  0
 13 14  1  0
 14 15  1  0
 15 16  2  0
 15  1  1  0
  1  2  2  0
  1  6  1  0
  2  3  1  0
  3 17  1  0
  3  4  2  0
 17 18  1  0
 18 19  2  0
 18 28  1  0
 19 20  1  0
 20 21  1  0
 21 22  2  0
 21 23  1  0
 23 24  1  0
 23 28  2  0
 24 25  2  0
 25 26  1  0
 26 27  2  0
 27 28  1  0
  4  5  1  0
  5  6  2  0
  6  7  1  0
M  CHG  1  11   1
M  END
>  <minimizedAffinity>  (722) 
-8.81800

$$$$
cs_full_output_folder/data/smiles/1936.pdb
     RDKit          3D

 24 25  0  0  0  0  0  0  0  0999 V2000
   69.1295   50.4220   53.3703 N   0  0  0  0  0  0  0  0  0  0  0  0
   69.9090   49.4811   56.8350 C   0  0  0  0  0  0  0  0  0  0  0  0
   69.8761   49.4709   55.4593 C   0  0  0  0  0  0  0  0  0  0  0  0
   69.1680   50.4258   54.7684 C   0  0  0  0  0  0  0  0  0  0  0  0
   68.4954   51.3911   55.4733 C   0  0  0  0  0  0  0  0  0  0  0  0
   68.5296   51.4024   56.8452 C   0  0  0  0  0  0  0  0  0  0  0  0
   69.2373   50.4463   57.5363 C   0  0  0  0  0  0  0  0  0  0  0  0
   69.2544   50.4783   58.9099 F   0  0  0  0  0  0  0  0  0  0  0  0
   70.8827   46.2415   58.5291 N   0  0  0  0  0  0  0  0  0  0  0  0
   70.1218   47.2055   57.8307 C   0  0  0  0  0  0  0  0  0  0  0  0
   68.9567   46.9286   57.4593 O   0  0  0  0  0  0  0  0  0  0  0  0
   70.6406   48.4924   57.5318 N   0  0  0  0  0  0  0  0  0  0  0  0
   69.9366   49.2095   52.4123 S   0  0  0  0  0  0  0  0  0  0  0  0
   70.0157   49.6371   50.9689 O   0  0  0  0  0  0  0  0  0  0  0  0
   71.3232   48.9843   52.9130 O   0  0  0  0  0  0  0  0  0  0  0  0
   69.0218   47.7252   52.5917 C   0  0  0  0  0  0  0  0  0  0  0  0
   68.9265   47.0612   53.8120 C   0  0  0  0  0  0  0  0  0  0  0  0
   68.2041   45.8938   53.9451 C   0  0  0  0  0  0  0  0  0  0  0  0
   68.1185   45.2567   55.1358 F   0  0  0  0  0  0  0  0  0  0  0  0
   67.5450   45.3320   52.8734 C   0  0  0  0  0  0  0  0  0  0  0  0
   66.8275   44.1839   52.9797 F   0  0  0  0  0  0  0  0  0  0  0  0
   67.6297   45.9802   51.6560 C   0  0  0  0  0  0  0  0  0  0  0  0
   66.9735   45.4131   50.6100 F   0  0  0  0  0  0  0  0  0  0  0  0
   68.3542   47.1469   51.5322 C   0  0  0  0  0  0  0  0  0  0  0  0
  9 10  1  0
 10 11  2  0
 10 12  1  0
 12  2  1  0
  2  3  2  0
  2  7  1  0
  3  4  1  0
  4  1  1  0
  4  5  2  0
  1 13  1  0
 13 14  2  0
 13 15  2  0
 13 16  1  0
 16 17  2  0
 16 24  1  0
 17 18  1  0
 18 19  1  0
 18 20  2  0
 20 21  1  0
 20 22  1  0
 22 23  1  0
 22 24  2  0
  5  6  1  0
  6  7  2  0
  7  8  1  0
M  END
>  <minimizedAffinity>  (723) 
-8.81558

$$$$
cs_full_output_folder/data/smiles/4008.pdb
     RDKit          3D

 26 27  0  0  0  0  0  0  0  0999 V2000
   69.2370   46.7890   56.6310 S   0  0  0  0  0  0  0  0  0  0  0  0
   70.5434   47.4667   56.9615 O   0  0  0  0  0  0  0  0  0  0  0  0
   69.4311   45.3417   57.0394 O   0  0  0  0  0  0  0  0  0  0  0  0
   68.9109   46.8369   54.9255 C   0  0  0  0  0  0  0  0  0  0  0  0
   69.3186   47.8351   54.0882 C   0  0  0  0  0  0  0  0  0  0  0  0
   70.0106   48.8771   54.5864 F   0  0  0  0  0  0  0  0  0  0  0  0
   69.0336   47.8113   52.7400 C   0  0  0  0  0  0  0  0  0  0  0  0
   69.4408   48.8041   51.9128 F   0  0  0  0  0  0  0  0  0  0  0  0
   68.3190   46.7595   52.2012 C   0  0  0  0  0  0  0  0  0  0  0  0
   68.0415   46.7447   50.8619 F   0  0  0  0  0  0  0  0  0  0  0  0
   67.9089   45.7566   53.0374 C   0  0  0  0  0  0  0  0  0  0  0  0
   67.2054   44.7234   52.5044 F   0  0  0  0  0  0  0  0  0  0  0  0
   68.1959   45.7856   54.3846 C   0  0  0  0  0  0  0  0  0  0  0  0
   67.7616   44.7629   55.1588 F   0  0  0  0  0  0  0  0  0  0  0  0
   67.9260   47.5217   57.4624 N   0  0  0  0  0  0  0  0  0  0  0  0
   68.8679   51.1444   57.3052 C   0  0  0  0  0  0  0  0  0  0  0  0
   67.5706   51.6884   57.4382 C   0  0  0  0  0  0  0  0  0  0  0  0
   66.4548   50.8994   57.5705 C   0  0  0  0  0  0  0  0  0  0  0  0
   66.5598   49.5290   57.5781 C   0  0  0  0  0  0  0  0  0  0  0  0
   67.8045   48.9374   57.4516 C   0  0  0  0  0  0  0  0  0  0  0  0
   68.8937   49.7773   57.3218 C   0  0  0  0  0  0  0  0  0  0  0  0
   70.2973   52.7504   56.0367 C   0  0  0  0  0  0  0  0  0  0  0  0
   69.6151   52.6572   54.9963 O   0  0  0  0  0  0  0  0  0  0  0  0
   69.9562   52.0251   57.1749 N   0  0  0  0  0  0  0  0  0  0  0  0
   72.6025   53.0766   55.1811 C   0  0  0  0  0  0  0  0  0  0  0  0
   71.5054   53.6777   56.0155 C   0  0  0  0  0  0  0  0  0  0  0  0
 25 26  1  0
 26 22  1  0
 22 23  2  0
 22 24  1  0
 24 16  1  0
 16 17  2  0
 16 21  1  0
 17 18  1  0
 18 19  2  0
 19 20  1  0
 20 15  1  0
 20 21  2  0
 15  1  1  0
  1  2  2  0
  1  3  2  0
  1  4  1  0
  4  5  2  0
  4 13  1  0
  5  6  1  0
  5  7  1  0
  7  8  1  0
  7  9  2  0
  9 10  1  0
  9 11  1  0
 11 12  1  0
 11 13  2  0
 13 14  1  0
M  END
>  <minimizedAffinity>  (724) 
-8.81419

$$$$
cs_full_output_folder/data/smiles/2982.pdb
     RDKit          3D

 27 30  0  0  0  0  0  0  0  0999 V2000
   71.4265   47.2222   58.7932 C   0  0  0  0  0  0  0  0  0  0  0  0
   70.4883   47.9823   58.0864 C   0  0  0  0  0  0  0  0  0  0  0  0
   69.6488   47.3666   57.2275 C   0  0  0  0  0  0  0  0  0  0  0  0
   69.7530   45.9746   57.0797 C   0  0  0  0  0  0  0  0  0  0  0  0
   70.6669   45.2276   57.7676 C   0  0  0  0  0  0  0  0  0  0  0  0
   71.5238   45.8572   58.6437 C   0  0  0  0  0  0  0  0  0  0  0  0
   72.4579   45.1530   59.3564 F   0  0  0  0  0  0  0  0  0  0  0  0
   72.0527   47.8644   60.9421 O   0  0  0  0  0  0  0  0  0  0  0  0
   72.3182   47.8891   59.7074 C   0  0  0  0  0  0  0  0  0  0  0  0
   73.4887   48.5764   59.2902 N   0  0  0  0  0  0  0  0  0  0  0  0
   74.3630   49.2364   60.2360 C   0  0  0  0  0  0  0  0  0  0  0  0
   75.6584   48.4568   60.2708 C   0  0  0  0  0  0  0  0  0  0  0  0
   75.8592   47.6543   59.0059 C   0  0  0  0  0  0  0  0  0  0  0  0
   75.3306   48.3866   57.7862 C   0  0  0  0  0  0  0  0  0  0  0  0
   73.8605   48.6480   57.8885 C   0  0  0  0  0  0  0  0  0  0  0  0
   68.6056   47.9832   56.3799 C   0  0  0  0  0  0  0  0  0  0  0  0
   69.0900   48.1179   55.0188 C   0  0  0  0  0  0  0  0  0  0  0  0
   69.9999   49.1040   54.7585 N   0  0  0  0  0  0  0  0  0  0  0  0
   70.4755   49.3502   53.5627 N   0  0  0  0  0  0  0  0  0  0  0  0
   70.0875   48.6304   52.5017 C   0  0  0  0  0  0  0  0  0  0  0  0
   70.5738   48.9008   51.3531 O   0  0  0  0  0  0  0  0  0  0  0  0
   69.1810   47.6193   52.6562 C   0  0  0  0  0  0  0  0  0  0  0  0
   68.7744   46.8552   51.5802 C   0  0  0  0  0  0  0  0  0  0  0  0
   67.8686   45.8340   51.7738 C   0  0  0  0  0  0  0  0  0  0  0  0
   67.3871   45.5959   53.0377 C   0  0  0  0  0  0  0  0  0  0  0  0
   67.7861   46.3499   54.1069 C   0  0  0  0  0  0  0  0  0  0  0  0
   68.6855   47.3712   53.9379 C   0  0  0  0  0  0  0  0  0  0  0  0
  8  9  2  0
  9  1  1  0
  9 10  1  0
  1  2  2  0
  1  6  1  0
  2  3  1  0
  3 16  1  0
  3  4  2  0
 16 17  1  0
 17 18  2  0
 17 27  1  0
 18 19  1  0
 19 20  1  0
 20 21  2  0
 20 22  1  0
 22 23  1  0
 22 27  2  0
 23 24  2  0
 24 25  1  0
 25 26  2  0
 26 27  1  0
  4  5  1  0
  5  6  2  0
  6  7  1  0
 10 11  1  0
 10 15  1  0
 11 12  1  0
 12 13  1  0
 13 14  1  0
 14 15  1  0
M  END
>  <minimizedAffinity>  (725) 
-8.81362

$$$$
cs_full_output_folder/data/smiles/6522.pdb
     RDKit          3D

 26 29  0  0  0  0  0  0  0  0999 V2000
   69.9581   48.0032   57.0495 C   0  0  0  0  0  0  0  0  0  0  0  0
   70.9817   48.7094   57.5706 C   0  0  0  0  0  0  0  0  0  0  0  0
   71.9283   48.0795   58.3597 C   0  0  0  0  0  0  0  0  0  0  0  0
   71.8249   46.7211   58.6158 C   0  0  0  0  0  0  0  0  0  0  0  0
   72.7864   46.1654   59.3978 F   0  0  0  0  0  0  0  0  0  0  0  0
   70.7906   45.9780   58.0967 C   0  0  0  0  0  0  0  0  0  0  0  0
   69.8758   46.6413   57.3203 C   0  0  0  0  0  0  0  0  0  0  0  0
   70.7008   44.2447   58.4505 P   0  0  0  0  0  0  0  0  0  0  0  0
   70.3288   43.9487   60.0696 O   0  0  0  0  0  0  0  0  0  0  0  0
   69.4778   43.4501   57.3484 C   0  0  0  0  0  0  0  0  0  0  0  0
   69.6153   41.9544   57.5605 C   0  0  0  0  0  0  0  0  0  0  0  0
   70.6595   41.5837   58.4353 N   0  0  0  0  0  0  0  0  0  0  0  0
   71.9731   41.9212   58.0499 C   0  0  0  0  0  0  0  0  0  0  0  0
   72.2863   43.4005   58.0989 C   0  0  0  0  0  0  0  0  0  0  0  0
   68.9120   48.6364   56.2114 C   0  0  0  0  0  0  0  0  0  0  0  0
   70.5673   48.7386   51.0413 O   0  0  0  0  0  0  0  0  0  0  0  0
   70.1542   48.6936   52.2162 C   0  0  0  0  0  0  0  0  0  0  0  0
   70.5670   49.6010   53.1073 N   0  0  0  0  0  0  0  0  0  0  0  0
   70.1594   49.5902   54.3544 N   0  0  0  0  0  0  0  0  0  0  0  0
   69.2814   48.6270   54.7867 C   0  0  0  0  0  0  0  0  0  0  0  0
   68.8259   47.6765   53.9219 C   0  0  0  0  0  0  0  0  0  0  0  0
   67.9413   46.7080   54.2863 C   0  0  0  0  0  0  0  0  0  0  0  0
   67.4930   45.7708   53.3800 C   0  0  0  0  0  0  0  0  0  0  0  0
   67.9340   45.7925   52.0629 C   0  0  0  0  0  0  0  0  0  0  0  0
   68.8237   46.7660   51.6891 C   0  0  0  0  0  0  0  0  0  0  0  0
   69.2711   47.6997   52.5910 C   0  0  0  0  0  0  0  0  0  0  0  0
 16 17  2  0
 17 18  1  0
 17 26  1  0
 18 19  1  0
 19 20  2  0
 20 15  1  0
 20 21  1  0
 15  1  1  0
  1  2  2  0
  1  7  1  0
  2  3  1  0
  3  4  2  0
  4  5  1  0
  4  6  1  0
  6  8  1  0
  6  7  2  0
  8  9  1  0
  8 10  1  0
  8 14  1  0
 10 11  1  0
 11 12  1  0
 12 13  1  0
 13 14  1  0
 21 22  1  0
 21 26  2  0
 22 23  2  0
 23 24  1  0
 24 25  2  0
 25 26  1  0
M  CHG  2   8   1  12   1
M  END
>  <minimizedAffinity>  (726) 
-8.81308

$$$$
cs_full_output_folder/data/smiles/3193.pdb
     RDKit          3D

 25 27  0  0  0  0  0  0  0  0999 V2000
   69.8453   42.1762   58.5028 C   0  0  0  0  0  0  0  0  0  0  0  0
   68.8056   41.8036   57.5036 C   0  0  0  0  0  0  0  0  0  0  0  0
   68.3046   42.6462   56.5398 C   0  0  0  0  0  0  0  0  0  0  0  0
   67.3842   41.8575   55.8742 C   0  0  0  0  0  0  0  0  0  0  0  0
   67.3785   40.6306   56.4470 N   0  0  0  0  0  0  0  0  0  0  0  0
   68.2344   40.5729   57.4406 N   0  0  0  0  0  0  0  0  0  0  0  0
   68.5534   39.4701   58.3256 C   0  0  0  0  0  0  0  0  0  0  0  0
   67.6579   38.9565   59.1975 C   0  0  0  0  0  0  0  0  0  0  0  0
   68.0125   37.8846   60.0166 C   0  0  0  0  0  0  0  0  0  0  0  0
   69.2773   37.3471   59.9355 C   0  0  0  0  0  0  0  0  0  0  0  0
   69.7613   35.9817   60.9488 Cl  0  0  0  0  0  0  0  0  0  0  0  0
   70.2137   37.8657   59.0414 C   0  0  0  0  0  0  0  0  0  0  0  0
   69.8352   38.9159   58.2540 C   0  0  0  0  0  0  0  0  0  0  0  0
   68.6623   44.0445   56.2807 C   0  0  0  0  0  0  0  0  0  0  0  0
   69.4682   44.5577   57.0789 O   0  0  0  0  0  0  0  0  0  0  0  0
   68.1571   44.7963   55.2184 N   0  0  0  0  0  0  0  0  0  0  0  0
   68.4501   46.1624   54.8814 C   0  0  0  0  0  0  0  0  0  0  0  0
   68.3121   47.2141   55.7372 C   0  0  0  0  0  0  0  0  0  0  0  0
   68.6121   48.5005   55.3215 C   0  0  0  0  0  0  0  0  0  0  0  0
   69.0544   48.8004   54.0610 C   0  0  0  0  0  0  0  0  0  0  0  0
   69.1909   47.7120   53.1982 C   0  0  0  0  0  0  0  0  0  0  0  0
   68.8989   46.4470   53.5992 C   0  0  0  0  0  0  0  0  0  0  0  0
   69.6587   48.0307   51.8511 C   0  0  0  0  0  0  0  0  0  0  0  0
   69.8885   49.3728   51.4633 N   0  0  0  0  0  0  0  0  0  0  0  0
   69.8729   47.1346   50.9946 O   0  0  0  0  0  0  0  0  0  0  0  0
  1  2  1  0
  2  3  2  0
  2  6  1  0
  3 14  1  0
  3  4  1  0
 14 15  2  0
 14 16  1  0
 16 17  1  0
 17 18  2  0
 17 22  1  0
 18 19  1  0
 19 20  2  0
 20 21  1  0
 21 23  1  0
 21 22  2  0
 23 24  1  0
 23 25  2  0
  4  5  2  0
  5  6  1  0
  6  7  1  0
  7  8  2  0
  7 13  1  0
  8  9  1  0
  9 10  2  0
 10 11  1  0
 10 12  1  0
 12 13  2  0
M  END
>  <minimizedAffinity>  (727) 
-8.81304

$$$$
cs_full_output_folder/data/smiles/8761.pdb
     RDKit          3D

 26 29  0  0  0  0  0  0  0  0999 V2000
   70.2233   48.0408   57.2324 C   0  0  0  0  0  0  0  0  0  0  0  0
   71.3468   48.6088   57.7748 C   0  0  0  0  0  0  0  0  0  0  0  0
   72.1683   47.9047   58.6534 C   0  0  0  0  0  0  0  0  0  0  0  0
   71.8933   46.6054   59.0194 C   0  0  0  0  0  0  0  0  0  0  0  0
   70.7513   46.0349   58.4651 C   0  0  0  0  0  0  0  0  0  0  0  0
   69.9476   46.7317   57.6030 C   0  0  0  0  0  0  0  0  0  0  0  0
   69.3648   48.7895   56.2918 C   0  0  0  0  0  0  0  0  0  0  0  0
   70.6826   48.3935   50.9881 O   0  0  0  0  0  0  0  0  0  0  0  0
   70.3546   48.4474   52.2078 C   0  0  0  0  0  0  0  0  0  0  0  0
   70.9516   49.2971   53.0374 N   0  0  0  0  0  0  0  0  0  0  0  0
   70.6212   49.3620   54.2974 N   0  0  0  0  0  0  0  0  0  0  0  0
   69.6735   48.6047   54.8757 C   0  0  0  0  0  0  0  0  0  0  0  0
   69.0109   47.6957   54.0670 C   0  0  0  0  0  0  0  0  0  0  0  0
   69.3517   47.6182   52.7329 C   0  0  0  0  0  0  0  0  0  0  0  0
   68.7228   46.7030   51.7459 C   0  0  0  0  0  0  0  0  0  0  0  0
   67.5811   45.9175   52.3361 C   0  0  0  0  0  0  0  0  0  0  0  0
   67.9821   45.5211   53.7636 C   0  0  0  0  0  0  0  0  0  0  0  0
   67.9699   46.7919   54.5900 C   0  0  0  0  0  0  0  0  0  0  0  0
   72.7717   45.8874   59.9502 C   0  0  0  0  0  0  0  0  0  0  0  0
   73.2642   44.6261   59.5942 N   0  0  0  0  0  0  0  0  0  0  0  0
   73.9898   44.4363   58.3955 C   0  0  0  0  0  0  0  0  0  0  0  0
   75.3677   43.7821   58.7115 C   0  0  0  0  0  0  0  0  0  0  0  0
   75.3153   42.2959   58.6241 C   0  0  0  0  0  0  0  0  0  0  0  0
   74.0087   41.7905   59.1657 C   0  0  0  0  0  0  0  0  0  0  0  0
   72.9443   42.1960   58.1671 C   0  0  0  0  0  0  0  0  0  0  0  0
   73.3722   43.4422   57.4235 C   0  0  0  0  0  0  0  0  0  0  0  0
  8  9  2  0
  9 10  1  0
  9 14  1  0
 10 11  1  0
 11 12  2  0
 12  7  1  0
 12 13  1  0
  7  1  1  0
  1  2  2  0
  1  6  1  0
  2  3  1  0
  3  4  2  0
  4 19  1  0
  4  5  1  0
 19 20  1  0
 20 21  1  0
 21 22  1  0
 21 26  1  0
 22 23  1  0
 23 24  1  0
 24 25  1  0
 25 26  1  0
  5  6  2  0
 13 14  2  0
 13 18  1  0
 14 15  1  0
 15 16  1  0
 16 17  1  0
 17 18  1  0
M  CHG  1  20   1
M  END
>  <minimizedAffinity>  (728) 
-8.81221

$$$$
cs_full_output_folder/data/smiles/3858.pdb
     RDKit          3D

 25 27  0  0  0  0  0  0  0  0999 V2000
   70.9162   41.8928   58.6873 C   0  0  0  0  0  0  0  0  0  0  0  0
   69.7229   41.5485   57.8771 C   0  0  0  0  0  0  0  0  0  0  0  0
   69.0272   42.4501   57.0988 C   0  0  0  0  0  0  0  0  0  0  0  0
   68.0123   41.7078   56.5342 C   0  0  0  0  0  0  0  0  0  0  0  0
   68.1306   40.4499   56.9718 N   0  0  0  0  0  0  0  0  0  0  0  0
   69.1748   40.3170   57.8020 N   0  0  0  0  0  0  0  0  0  0  0  0
   69.6027   39.1346   58.4533 C   0  0  0  0  0  0  0  0  0  0  0  0
   70.7636   38.4943   58.0954 C   0  0  0  0  0  0  0  0  0  0  0  0
   71.1870   37.3329   58.7357 C   0  0  0  0  0  0  0  0  0  0  0  0
   70.4208   36.8020   59.7633 C   0  0  0  0  0  0  0  0  0  0  0  0
   70.9255   35.3267   60.6036 Cl  0  0  0  0  0  0  0  0  0  0  0  0
   69.2617   37.4405   60.1214 C   0  0  0  0  0  0  0  0  0  0  0  0
   68.8533   38.5981   59.4739 C   0  0  0  0  0  0  0  0  0  0  0  0
   69.3236   43.8874   56.9255 C   0  0  0  0  0  0  0  0  0  0  0  0
   70.3423   44.4080   57.4223 O   0  0  0  0  0  0  0  0  0  0  0  0
   68.4360   44.7002   56.1780 N   0  0  0  0  0  0  0  0  0  0  0  0
   68.6016   46.1124   55.9233 C   0  0  0  0  0  0  0  0  0  0  0  0
   68.6118   46.4337   54.4740 C   0  0  0  0  0  0  0  0  0  0  0  0
   67.9632   45.6390   53.5674 C   0  0  0  0  0  0  0  0  0  0  0  0
   67.9701   45.9610   52.2259 C   0  0  0  0  0  0  0  0  0  0  0  0
   68.6297   47.0859   51.7881 C   0  0  0  0  0  0  0  0  0  0  0  0
   69.2841   47.8968   52.6684 C   0  0  0  0  0  0  0  0  0  0  0  0
   69.2743   47.5657   54.0278 C   0  0  0  0  0  0  0  0  0  0  0  0
   69.9689   49.0766   52.1934 C   0  0  0  0  0  0  0  0  0  0  0  0
   70.1045   49.2767   50.9707 O   0  0  0  0  0  0  0  0  0  0  0  0
  1  2  1  0
  2  3  2  0
  2  6  1  0
  3 14  1  0
  3  4  1  0
 14 15  2  0
 14 16  1  0
 16 17  1  0
 17 18  1  0
 18 19  2  0
 18 23  1  0
 19 20  1  0
 20 21  2  0
 21 22  1  0
 22 24  1  0
 22 23  2  0
 24 25  2  0
  4  5  2  0
  5  6  1  0
  6  7  1  0
  7  8  2  0
  7 13  1  0
  8  9  1  0
  9 10  2  0
 10 11  1  0
 10 12  1  0
 12 13  2  0
M  END
>  <minimizedAffinity>  (729) 
-8.80304

$$$$
cs_full_output_folder/data/smiles/5384.pdb
     RDKit          3D

 29 32  0  0  0  0  0  0  0  0999 V2000
   70.6079   45.7168   58.4137 C   0  0  0  0  0  0  0  0  0  0  0  0
   69.7026   46.4567   57.6756 C   0  0  0  0  0  0  0  0  0  0  0  0
   69.9565   47.7129   57.2112 C   0  0  0  0  0  0  0  0  0  0  0  0
   71.2139   48.2548   57.5169 C   0  0  0  0  0  0  0  0  0  0  0  0
   72.1542   47.5640   58.2475 C   0  0  0  0  0  0  0  0  0  0  0  0
   71.8316   46.2777   58.6955 C   0  0  0  0  0  0  0  0  0  0  0  0
   72.7933   45.6429   59.4088 F   0  0  0  0  0  0  0  0  0  0  0  0
   67.0782   41.2264   58.6548 C   0  0  0  0  0  0  0  0  0  0  0  0
   68.0947   41.8306   58.0552 C   0  0  0  0  0  0  0  0  0  0  0  0
   68.1129   42.4824   56.7138 C   0  0  0  0  0  0  0  0  0  0  0  0
   69.3426   43.3890   56.7304 C   0  0  0  0  0  0  0  0  0  0  0  0
   69.7629   43.3576   58.1171 N   0  0  0  0  0  0  0  0  0  0  0  0
   70.3336   44.3716   58.9157 C   0  0  0  0  0  0  0  0  0  0  0  0
   70.6166   44.0836   60.1265 O   0  0  0  0  0  0  0  0  0  0  0  0
   69.4787   42.0123   58.5729 C   0  0  0  0  0  0  0  0  0  0  0  0
   66.5636   39.2016   59.8939 C   0  0  0  0  0  0  0  0  0  0  0  0
   67.1668   40.6078   59.9965 C   0  0  0  0  0  0  0  0  0  0  0  0
   69.0348   48.5421   56.4103 C   0  0  0  0  0  0  0  0  0  0  0  0
   69.3678   48.5477   54.9471 C   0  0  0  0  0  0  0  0  0  0  0  0
   70.2208   49.4921   54.4644 N   0  0  0  0  0  0  0  0  0  0  0  0
   70.6180   49.5796   53.2222 N   0  0  0  0  0  0  0  0  0  0  0  0
   70.1834   48.6975   52.3066 C   0  0  0  0  0  0  0  0  0  0  0  0
   70.5539   48.7560   51.0884 O   0  0  0  0  0  0  0  0  0  0  0  0
   69.3150   47.7071   52.7134 C   0  0  0  0  0  0  0  0  0  0  0  0
   68.8085   46.7664   51.8438 C   0  0  0  0  0  0  0  0  0  0  0  0
   67.9303   45.7706   52.2028 C   0  0  0  0  0  0  0  0  0  0  0  0
   67.5461   45.7281   53.5198 C   0  0  0  0  0  0  0  0  0  0  0  0
   68.0194   46.6446   54.4463 C   0  0  0  0  0  0  0  0  0  0  0  0
   68.8951   47.6235   54.0471 C   0  0  0  0  0  0  0  0  0  0  0  0
 16 17  1  0
 17  8  1  0
  8  9  2  0
  9 10  1  0
  9 15  1  0
 10 11  1  0
 11 12  1  0
 12 13  1  0
 12 15  1  0
 13 14  2  0
 13  1  1  0
  1  2  2  0
  1  6  1  0
  2  3  1  0
  3 18  1  0
  3  4  2  0
 18 19  1  0
 19 20  2  0
 19 29  1  0
 20 21  1  0
 21 22  1  0
 22 23  2  0
 22 24  1  0
 24 25  1  0
 24 29  2  0
 25 26  2  0
 26 27  1  0
 27 28  2  0
 28 29  1  0
  4  5  1  0
  5  6  2  0
  6  7  1  0
M  END
>  <minimizedAffinity>  (730) 
-8.80126

$$$$
cs_full_output_folder/data/smiles/8204.pdb
     RDKit          3D

 26 28  0  0  0  0  0  0  0  0999 V2000
   70.6089   45.4602   58.6958 C   0  0  0  0  0  0  0  0  0  0  0  0
   71.2376   46.1567   59.5219 O   0  0  0  0  0  0  0  0  0  0  0  0
   69.7748   46.1432   57.7658 N   0  0  0  0  0  0  0  0  0  0  0  0
   69.0368   42.9144   57.0247 C   0  0  0  0  0  0  0  0  0  0  0  0
   70.1295   43.0082   58.0468 C   0  0  0  0  0  0  0  0  0  0  0  0
   70.7239   43.9870   58.6798 C   0  0  0  0  0  0  0  0  0  0  0  0
   71.5715   43.0150   59.3863 C   0  0  0  0  0  0  0  0  0  0  0  0
   70.8853   42.0029   58.6646 N   0  0  0  0  0  0  0  0  0  0  0  0
   70.9830   40.5721   58.6368 C   0  0  0  0  0  0  0  0  0  0  0  0
   69.8396   39.8126   58.6336 C   0  0  0  0  0  0  0  0  0  0  0  0
   69.9071   38.4155   58.6074 C   0  0  0  0  0  0  0  0  0  0  0  0
   71.1194   37.7573   58.5837 C   0  0  0  0  0  0  0  0  0  0  0  0
   71.1804   36.3925   58.5582 F   0  0  0  0  0  0  0  0  0  0  0  0
   72.2612   38.5266   58.5862 C   0  0  0  0  0  0  0  0  0  0  0  0
   72.1911   39.9164   58.6132 C   0  0  0  0  0  0  0  0  0  0  0  0
   69.6196   47.5461   57.7275 C   0  0  0  0  0  0  0  0  0  0  0  0
   69.3002   48.1731   56.6321 C   0  0  0  0  0  0  0  0  0  0  0  0
   69.0492   47.6889   55.3031 C   0  0  0  0  0  0  0  0  0  0  0  0
   68.1603   46.6093   55.1708 C   0  0  0  0  0  0  0  0  0  0  0  0
   67.8444   46.1068   53.9443 C   0  0  0  0  0  0  0  0  0  0  0  0
   68.3821   46.6363   52.8013 C   0  0  0  0  0  0  0  0  0  0  0  0
   69.2507   47.6877   52.8792 C   0  0  0  0  0  0  0  0  0  0  0  0
   69.5635   48.1893   54.1313 C   0  0  0  0  0  0  0  0  0  0  0  0
   69.8362   48.2668   51.6650 C   0  0  0  0  0  0  0  0  0  0  0  0
   69.8111   49.6466   51.3917 N   0  0  0  0  0  0  0  0  0  0  0  0
   70.3788   47.5117   50.8362 O   0  0  0  0  0  0  0  0  0  0  0  0
  4  5  1  0
  5  6  2  0
  5  8  1  0
  6  1  1  0
  6  7  1  0
  1  2  2  0
  1  3  1  0
  3 16  1  0
 16 17  2  0
 17 18  1  0
 18 19  2  0
 18 23  1  0
 19 20  1  0
 20 21  2  0
 21 22  1  0
 22 24  1  0
 22 23  2  0
 24 25  1  0
 24 26  2  0
  7  8  1  0
  8  9  1  0
  9 10  2  0
  9 15  1  0
 10 11  1  0
 11 12  2  0
 12 13  1  0
 12 14  1  0
 14 15  2  0
M  END
>  <minimizedAffinity>  (731) 
-8.80053

$$$$
cs_full_output_folder/data/smiles/4126.pdb
     RDKit          3D

 25 27  0  0  0  0  0  0  0  0999 V2000
   69.7198   45.4390   58.1208 N   0  0  0  0  0  0  0  0  0  0  0  0
   69.6447   45.5472   56.7297 N   0  0  0  0  0  0  0  0  0  0  0  0
   68.7763   46.4379   56.0530 C   0  0  0  0  0  0  0  0  0  0  0  0
   68.0379   47.1660   56.7620 O   0  0  0  0  0  0  0  0  0  0  0  0
   68.6862   46.5629   54.6038 C   0  0  0  0  0  0  0  0  0  0  0  0
   67.9367   45.7047   53.8284 C   0  0  0  0  0  0  0  0  0  0  0  0
   67.8827   45.8681   52.4383 C   0  0  0  0  0  0  0  0  0  0  0  0
   68.5709   46.8820   51.8056 C   0  0  0  0  0  0  0  0  0  0  0  0
   69.3219   47.7426   52.5818 C   0  0  0  0  0  0  0  0  0  0  0  0
   69.3601   47.5643   53.9418 C   0  0  0  0  0  0  0  0  0  0  0  0
   70.0271   48.7850   51.9207 N   0  0  0  0  0  0  0  0  0  0  0  0
   70.6363   48.4807   50.8770 O   0  0  0  0  0  0  0  0  0  0  0  0
   70.0730   50.0666   52.3520 O   0  0  0  0  0  0  0  0  0  0  0  0
   70.8320   44.7386   58.6741 C   0  0  0  0  0  0  0  0  0  0  0  0
   72.1994   45.5825   58.9609 S   0  0  0  0  0  0  0  0  0  0  0  0
   71.3633   42.4335   58.0402 C   0  0  0  0  0  0  0  0  0  0  0  0
   71.8983   42.8867   57.0251 O   0  0  0  0  0  0  0  0  0  0  0  0
   70.7715   43.3635   58.9686 N   0  0  0  0  0  0  0  0  0  0  0  0
   71.7308   38.7059   58.9631 C   0  0  0  0  0  0  0  0  0  0  0  0
   70.9060   39.7011   58.4909 C   0  0  0  0  0  0  0  0  0  0  0  0
   71.3099   41.0412   58.3257 C   0  0  0  0  0  0  0  0  0  0  0  0
   72.2015   40.0273   58.8228 C   0  0  0  0  0  0  0  0  0  0  0  0
   70.6266   36.7756   59.9172 C   0  0  0  0  0  0  0  0  0  0  0  0
   71.9039   37.3285   59.3155 C   0  0  0  0  0  0  0  0  0  0  0  0
   72.1670   36.5430   58.0243 C   0  0  0  0  0  0  0  0  0  0  0  0
 23 24  1  0
 24 25  1  0
 24 19  1  0
 19 20  2  0
 19 22  1  0
 20 21  1  0
 20 22  1  0
 21 16  1  0
 21 22  2  0
 16 17  2  0
 16 18  1  0
 18 14  1  0
 14 15  2  0
 14  1  1  0
  1  2  1  0
  2  3  1  0
  3  4  2  0
  3  5  1  0
  5  6  2  0
  5 10  1  0
  6  7  1  0
  7  8  2  0
  8  9  1  0
  9 11  1  0
  9 10  2  0
 11 12  2  0
 11 13  1  0
M  CHG  2  11   1  13  -1
M  END
>  <minimizedAffinity>  (732) 
-8.79997

$$$$
cs_full_output_folder/data/smiles/7992.pdb
     RDKit          3D

 26 29  0  0  0  0  0  0  0  0999 V2000
   69.8864   50.1989   56.8294 C   0  0  0  0  0  0  0  0  0  0  0  0
   68.8254   50.9392   57.3674 C   0  0  0  0  0  0  0  0  0  0  0  0
   67.9227   51.5741   56.5395 C   0  0  0  0  0  0  0  0  0  0  0  0
   68.0856   51.4662   55.1624 C   0  0  0  0  0  0  0  0  0  0  0  0
   69.1131   50.7504   54.5828 C   0  0  0  0  0  0  0  0  0  0  0  0
   69.9916   50.1307   55.4733 C   0  0  0  0  0  0  0  0  0  0  0  0
   69.7338   44.9424   57.9976 O   0  0  0  0  0  0  0  0  0  0  0  0
   70.3064   46.0446   58.1803 C   0  0  0  0  0  0  0  0  0  0  0  0
   71.3683   46.2465   58.9751 N   0  0  0  0  0  0  0  0  0  0  0  0
   71.6542   47.5588   58.8784 C   0  0  0  0  0  0  0  0  0  0  0  0
   72.6386   48.3071   59.4730 C   0  0  0  0  0  0  0  0  0  0  0  0
   72.7302   49.6597   59.2101 C   0  0  0  0  0  0  0  0  0  0  0  0
   71.8268   50.2575   58.3451 C   0  0  0  0  0  0  0  0  0  0  0  0
   70.8254   49.5328   57.7314 C   0  0  0  0  0  0  0  0  0  0  0  0
   70.7647   48.1846   58.0172 C   0  0  0  0  0  0  0  0  0  0  0  0
   69.9347   47.2032   57.6004 N   0  0  0  0  0  0  0  0  0  0  0  0
   69.2968   50.6250   53.1814 N   0  0  0  0  0  0  0  0  0  0  0  0
   70.0653   49.2217   52.5523 S   0  0  0  0  0  0  0  0  0  0  0  0
   70.1655   49.2999   51.0361 O   0  0  0  0  0  0  0  0  0  0  0  0
   71.4424   49.1360   53.1401 O   0  0  0  0  0  0  0  0  0  0  0  0
   69.1298   47.7676   52.9273 C   0  0  0  0  0  0  0  0  0  0  0  0
   68.9503   47.4399   54.2727 C   0  0  0  0  0  0  0  0  0  0  0  0
   68.2212   46.3066   54.5729 C   0  0  0  0  0  0  0  0  0  0  0  0
   67.6984   45.5421   53.5642 C   0  0  0  0  0  0  0  0  0  0  0  0
   67.8852   45.8797   52.2335 C   0  0  0  0  0  0  0  0  0  0  0  0
   68.6053   46.9994   51.9231 C   0  0  0  0  0  0  0  0  0  0  0  0
  7  8  2  0
  8  9  1  0
  8 16  1  0
  9 10  1  0
 10 11  2  0
 10 15  1  0
 11 12  1  0
 12 13  2  0
 13 14  1  0
 14  1  1  0
 14 15  2  0
  1  2  2  0
  1  6  1  0
  2  3  1  0
  3  4  2  0
  4  5  1  0
  5 17  1  0
  5  6  2  0
 17 18  1  0
 18 19  2  0
 18 20  2  0
 18 21  1  0
 21 22  2  0
 21 26  1  0
 22 23  1  0
 23 24  2  0
 24 25  1  0
 25 26  2  0
 15 16  1  0
M  CHG  1   9   1
M  END
>  <minimizedAffinity>  (733) 
-8.79869

$$$$
cs_full_output_folder/data/smiles/6927.pdb
     RDKit          3D

 27 30  0  0  0  0  0  0  0  0999 V2000
   70.7018   45.1989   57.8978 C   0  0  0  0  0  0  0  0  0  0  0  0
   71.5083   45.9421   58.7354 C   0  0  0  0  0  0  0  0  0  0  0  0
   71.3606   47.3207   58.8041 C   0  0  0  0  0  0  0  0  0  0  0  0
   70.3859   47.9442   58.0163 C   0  0  0  0  0  0  0  0  0  0  0  0
   69.5691   47.2408   57.1751 C   0  0  0  0  0  0  0  0  0  0  0  0
   69.7614   45.8661   57.1465 C   0  0  0  0  0  0  0  0  0  0  0  0
   69.0960   43.4131   59.2243 O   0  0  0  0  0  0  0  0  0  0  0  0
   69.9881   42.8887   58.5153 C   0  0  0  0  0  0  0  0  0  0  0  0
   70.8400   43.7779   57.8121 N   0  0  0  0  0  0  0  0  0  0  0  0
   70.0989   41.4499   58.4534 C   0  0  0  0  0  0  0  0  0  0  0  0
   71.3695   40.8861   58.5609 C   0  0  0  0  0  0  0  0  0  0  0  0
   71.6007   39.5304   58.5162 C   0  0  0  0  0  0  0  0  0  0  0  0
   70.5180   38.6942   58.3577 C   0  0  0  0  0  0  0  0  0  0  0  0
   69.2446   39.2533   58.2500 C   0  0  0  0  0  0  0  0  0  0  0  0
   69.0286   40.6081   58.2961 C   0  0  0  0  0  0  0  0  0  0  0  0
   68.5309   47.8848   56.3112 C   0  0  0  0  0  0  0  0  0  0  0  0
   68.9723   48.2302   54.9802 C   0  0  0  0  0  0  0  0  0  0  0  0
   69.4296   49.5106   54.7610 N   0  0  0  0  0  0  0  0  0  0  0  0
   69.8108   49.8916   53.5506 N   0  0  0  0  0  0  0  0  0  0  0  0
   69.7782   49.0785   52.4791 C   0  0  0  0  0  0  0  0  0  0  0  0
   70.1408   49.4349   51.3167 O   0  0  0  0  0  0  0  0  0  0  0  0
   69.3294   47.7978   52.6640 C   0  0  0  0  0  0  0  0  0  0  0  0
   68.9238   47.3802   53.9393 C   0  0  0  0  0  0  0  0  0  0  0  0
   68.4961   46.0070   54.0545 C   0  0  0  0  0  0  0  0  0  0  0  0
   67.3776   45.7891   53.0295 C   0  0  0  0  0  0  0  0  0  0  0  0
   67.7744   46.2490   51.6699 C   0  0  0  0  0  0  0  0  0  0  0  0
   69.2149   46.7698   51.5991 C   0  0  0  0  0  0  0  0  0  0  0  0
  7  8  2  0
  8  9  1  0
  8 10  1  0
  9  1  1  0
  1  2  2  0
  1  6  1  0
  2  3  1  0
  3  4  2  0
  4  5  1  0
  5 16  1  0
  5  6  2  0
 16 17  1  0
 17 18  2  0
 17 23  1  0
 18 19  1  0
 19 20  1  0
 20 21  2  0
 20 22  1  0
 22 23  2  0
 22 27  1  0
 23 24  1  0
 24 25  1  0
 25 26  1  0
 26 27  1  0
 10 11  2  0
 10 15  1  0
 11 12  1  0
 12 13  2  0
 13 14  1  0
 14 15  2  0
M  END
>  <minimizedAffinity>  (734) 
-8.79774

$$$$
cs_full_output_folder/data/smiles/6933.pdb
     RDKit          3D

 26 28  0  0  0  0  0  0  0  0999 V2000
   72.9494   42.9440   57.3547 C   0  0  0  0  0  0  0  0  0  0  0  0
   71.5666   42.7108   57.8549 C   0  0  0  0  0  0  0  0  0  0  0  0
   70.5170   43.4767   57.9909 C   0  0  0  0  0  0  0  0  0  0  0  0
   69.7296   42.3669   58.5277 C   0  0  0  0  0  0  0  0  0  0  0  0
   70.9116   41.5659   58.3591 N   0  0  0  0  0  0  0  0  0  0  0  0
   71.3169   40.2189   58.5787 C   0  0  0  0  0  0  0  0  0  0  0  0
   72.5852   39.9547   59.0308 C   0  0  0  0  0  0  0  0  0  0  0  0
   73.0205   38.6498   59.2579 C   0  0  0  0  0  0  0  0  0  0  0  0
   72.1518   37.5903   59.0213 C   0  0  0  0  0  0  0  0  0  0  0  0
   72.5928   36.3118   59.2489 F   0  0  0  0  0  0  0  0  0  0  0  0
   70.8829   37.8489   58.5683 C   0  0  0  0  0  0  0  0  0  0  0  0
   70.4734   39.1565   58.3503 C   0  0  0  0  0  0  0  0  0  0  0  0
   69.1533   39.3915   57.8818 N   0  0  0  0  0  0  0  0  0  0  0  0
   70.1909   44.8971   57.7282 C   0  0  0  0  0  0  0  0  0  0  0  0
   70.6652   45.8276   58.4196 O   0  0  0  0  0  0  0  0  0  0  0  0
   69.3162   45.2498   56.6677 N   0  0  0  0  0  0  0  0  0  0  0  0
   68.9681   46.6256   56.3739 C   0  0  0  0  0  0  0  0  0  0  0  0
   68.8454   46.7649   54.9070 C   0  0  0  0  0  0  0  0  0  0  0  0
   68.0921   45.8248   54.2086 C   0  0  0  0  0  0  0  0  0  0  0  0
   67.9354   45.8920   52.8442 C   0  0  0  0  0  0  0  0  0  0  0  0
   68.5342   46.9095   52.1434 C   0  0  0  0  0  0  0  0  0  0  0  0
   69.2979   47.8732   52.8048 C   0  0  0  0  0  0  0  0  0  0  0  0
   69.4275   47.7656   54.1721 C   0  0  0  0  0  0  0  0  0  0  0  0
   69.9261   48.9459   52.0466 C   0  0  0  0  0  0  0  0  0  0  0  0
   69.8371   50.2882   52.4704 N   0  0  0  0  0  0  0  0  0  0  0  0
   70.5619   48.6916   50.9934 O   0  0  0  0  0  0  0  0  0  0  0  0
  1  2  1  0
  2  3  2  0
  2  5  1  0
  3 14  1  0
  3  4  1  0
 14 15  2  0
 14 16  1  0
 16 17  1  0
 17 18  1  0
 18 19  2  0
 18 23  1  0
 19 20  1  0
 20 21  2  0
 21 22  1  0
 22 24  1  0
 22 23  2  0
 24 25  1  0
 24 26  2  0
  4  5  1  0
  5  6  1  0
  6  7  2  0
  6 12  1  0
  7  8  1  0
  8  9  2  0
  9 10  1  0
  9 11  1  0
 11 12  2  0
 12 13  1  0
M  END
>  <minimizedAffinity>  (735) 
-8.79536

$$$$
cs_full_output_folder/data/smiles/5437.pdb
     RDKit          3D

 26 28  0  0  0  0  0  0  0  0999 V2000
   71.0253   49.1673   58.2135 C   0  0  0  0  0  0  0  0  0  0  0  0
   70.2593   50.2751   58.5821 C   0  0  0  0  0  0  0  0  0  0  0  0
   69.2759   50.7795   57.7511 C   0  0  0  0  0  0  0  0  0  0  0  0
   69.0111   50.2095   56.5254 C   0  0  0  0  0  0  0  0  0  0  0  0
   69.7532   49.1090   56.1293 C   0  0  0  0  0  0  0  0  0  0  0  0
   70.7319   48.6268   56.9828 C   0  0  0  0  0  0  0  0  0  0  0  0
   69.4651   48.5683   54.8152 C   0  0  0  0  0  0  0  0  0  0  0  0
   69.9319   49.1981   53.6734 C   0  0  0  0  0  0  0  0  0  0  0  0
   69.6990   48.6606   52.4299 C   0  0  0  0  0  0  0  0  0  0  0  0
   70.1719   49.3016   51.2846 O   0  0  0  0  0  0  0  0  0  0  0  0
   68.9975   47.4824   52.2586 C   0  0  0  0  0  0  0  0  0  0  0  0
   68.7706   46.9510   50.9975 O   0  0  0  0  0  0  0  0  0  0  0  0
   68.5347   46.8583   53.3870 C   0  0  0  0  0  0  0  0  0  0  0  0
   68.7662   47.4008   54.6738 C   0  0  0  0  0  0  0  0  0  0  0  0
   68.1971   46.6842   55.7584 N   0  0  0  0  0  0  0  0  0  0  0  0
   67.3921   47.3137   56.5195 O   0  0  0  0  0  0  0  0  0  0  0  0
   68.4231   45.3980   56.0745 O   0  0  0  0  0  0  0  0  0  0  0  0
   73.2293   48.9967   58.8675 O   0  0  0  0  0  0  0  0  0  0  0  0
   72.0526   48.6654   59.1168 C   0  0  0  0  0  0  0  0  0  0  0  0
   71.8025   47.8449   60.2298 N   0  0  0  0  0  0  0  0  0  0  0  0
   72.7276   47.3159   61.1528 C   0  0  0  0  0  0  0  0  0  0  0  0
   72.9604   45.9347   61.1917 C   0  0  0  0  0  0  0  0  0  0  0  0
   73.8410   45.3413   62.0564 C   0  0  0  0  0  0  0  0  0  0  0  0
   74.5544   46.1054   62.9503 C   0  0  0  0  0  0  0  0  0  0  0  0
   74.3502   47.4605   62.9381 C   0  0  0  0  0  0  0  0  0  0  0  0
   73.4398   48.0594   62.0423 C   0  0  0  0  0  0  0  0  0  0  0  0
 18 19  2  0
 19 20  1  0
 19  1  1  0
 20 21  1  0
 21 22  2  0
 21 26  1  0
 22 23  1  0
 23 24  2  0
 24 25  1  0
 25 26  2  0
  1  2  2  0
  1  6  1  0
  2  3  1  0
  3  4  2  0
  4  5  1  0
  5  7  1  0
  5  6  2  0
  7  8  2  0
  7 14  1  0
  8  9  1  0
  9 10  1  0
  9 11  2  0
 11 12  1  0
 11 13  1  0
 13 14  2  0
 14 15  1  0
 15 16  2  0
 15 17  1  0
M  CHG  2  15   1  17  -1
M  END
>  <minimizedAffinity>  (736) 
-8.79352

$$$$
cs_full_output_folder/data/smiles/8067.pdb
     RDKit          3D

 28 31  0  0  0  0  0  0  0  0999 V2000
   71.4047   46.8927   58.7742 C   0  0  0  0  0  0  0  0  0  0  0  0
   70.6532   47.7158   57.9705 C   0  0  0  0  0  0  0  0  0  0  0  0
   69.7156   47.2548   57.0466 C   0  0  0  0  0  0  0  0  0  0  0  0
   69.5667   45.8984   56.9676 C   0  0  0  0  0  0  0  0  0  0  0  0
   70.3136   45.0232   57.7682 C   0  0  0  0  0  0  0  0  0  0  0  0
   71.2258   45.5295   58.6631 C   0  0  0  0  0  0  0  0  0  0  0  0
   71.9217   44.6407   59.4153 F   0  0  0  0  0  0  0  0  0  0  0  0
   72.0563   47.7135   60.9162 O   0  0  0  0  0  0  0  0  0  0  0  0
   72.3747   47.4151   59.7301 C   0  0  0  0  0  0  0  0  0  0  0  0
   73.7203   47.6083   59.3579 N   0  0  0  0  0  0  0  0  0  0  0  0
   74.4711   47.3916   58.1188 C   0  0  0  0  0  0  0  0  0  0  0  0
   75.6752   47.0860   58.9921 C   0  0  0  0  0  0  0  0  0  0  0  0
   74.9692   48.0770   59.9296 C   0  0  0  0  0  0  0  0  0  0  0  0
   75.5911   45.7162   59.5733 C   0  0  0  0  0  0  0  0  0  0  0  0
   76.8987   44.9641   59.5665 C   0  0  0  0  0  0  0  0  0  0  0  0
   77.0060   44.0830   58.4990 O   0  0  0  0  0  0  0  0  0  0  0  0
   68.9074   48.1568   56.2308 C   0  0  0  0  0  0  0  0  0  0  0  0
   69.2597   48.2763   54.8260 C   0  0  0  0  0  0  0  0  0  0  0  0
   70.1590   49.2419   54.4784 N   0  0  0  0  0  0  0  0  0  0  0  0
   70.5982   49.4492   53.2735 N   0  0  0  0  0  0  0  0  0  0  0  0
   70.1557   48.6747   52.2763 C   0  0  0  0  0  0  0  0  0  0  0  0
   70.5617   48.8424   51.0781 O   0  0  0  0  0  0  0  0  0  0  0  0
   69.2327   47.6649   52.5559 C   0  0  0  0  0  0  0  0  0  0  0  0
   68.7731   46.8749   51.5081 C   0  0  0  0  0  0  0  0  0  0  0  0
   67.8552   45.8909   51.7873 C   0  0  0  0  0  0  0  0  0  0  0  0
   67.3962   45.6844   53.0731 C   0  0  0  0  0  0  0  0  0  0  0  0
   67.8496   46.4624   54.1080 C   0  0  0  0  0  0  0  0  0  0  0  0
   68.7739   47.4570   53.8442 C   0  0  0  0  0  0  0  0  0  0  0  0
  8  9  2  0
  9  1  1  0
  9 10  1  0
  1  2  2  0
  1  6  1  0
  2  3  1  0
  3 17  1  0
  3  4  2  0
 17 18  1  0
 18 19  2  0
 18 28  1  0
 19 20  1  0
 20 21  1  0
 21 22  2  0
 21 23  1  0
 23 24  1  0
 23 28  2  0
 24 25  2  0
 25 26  1  0
 26 27  2  0
 27 28  1  0
  4  5  1  0
  5  6  2  0
  6  7  1  0
 10 11  1  0
 10 13  1  0
 11 12  1  0
 12 14  1  0
 12 13  1  0
 14 15  1  0
 15 16  1  0
M  END
>  <minimizedAffinity>  (737) 
-8.79287

$$$$
cs_full_output_folder/data/smiles/3420.pdb
     RDKit          3D

 25 27  0  0  0  0  0  0  0  0999 V2000
   70.0137   43.9912   57.3043 C   0  0  0  0  0  0  0  0  0  0  0  0
   68.7903   43.5103   56.5751 C   0  0  0  0  0  0  0  0  0  0  0  0
   68.2078   42.2780   56.8274 C   0  0  0  0  0  0  0  0  0  0  0  0
   67.1282   42.2267   55.9804 C   0  0  0  0  0  0  0  0  0  0  0  0
   67.0937   43.3678   55.2788 N   0  0  0  0  0  0  0  0  0  0  0  0
   68.1137   44.1794   55.6284 N   0  0  0  0  0  0  0  0  0  0  0  0
   68.3639   45.4575   55.0552 C   0  0  0  0  0  0  0  0  0  0  0  0
   68.5572   46.5697   55.8298 C   0  0  0  0  0  0  0  0  0  0  0  0
   68.8341   47.8218   55.2741 C   0  0  0  0  0  0  0  0  0  0  0  0
   68.9101   47.9101   53.9262 C   0  0  0  0  0  0  0  0  0  0  0  0
   68.7245   46.8266   53.1014 C   0  0  0  0  0  0  0  0  0  0  0  0
   68.4489   45.5954   53.6874 C   0  0  0  0  0  0  0  0  0  0  0  0
   68.8671   46.9863   51.6717 C   0  0  0  0  0  0  0  0  0  0  0  0
   67.8578   46.7150   50.9074 O   0  0  0  0  0  0  0  0  0  0  0  0
   70.0205   47.4143   51.0376 O   0  0  0  0  0  0  0  0  0  0  0  0
   68.6886   41.2963   57.7859 C   0  0  0  0  0  0  0  0  0  0  0  0
   69.0576   41.7390   58.9191 O   0  0  0  0  0  0  0  0  0  0  0  0
   68.7758   39.9126   57.5639 N   0  0  0  0  0  0  0  0  0  0  0  0
   69.2299   38.9072   58.4267 C   0  0  0  0  0  0  0  0  0  0  0  0
   68.3368   38.4273   59.3835 C   0  0  0  0  0  0  0  0  0  0  0  0
   68.6767   37.4114   60.2674 C   0  0  0  0  0  0  0  0  0  0  0  0
   69.9190   36.8128   60.2533 C   0  0  0  0  0  0  0  0  0  0  0  0
   70.8030   37.2965   59.2974 C   0  0  0  0  0  0  0  0  0  0  0  0
   72.3927   36.5537   59.2440 Cl  0  0  0  0  0  0  0  0  0  0  0  0
   70.4558   38.3030   58.4291 C   0  0  0  0  0  0  0  0  0  0  0  0
  1  2  1  0
  2  3  2  0
  2  6  1  0
  3 16  1  0
  3  4  1  0
 16 17  2  0
 16 18  1  0
 18 19  1  0
 19 20  2  0
 19 25  1  0
 20 21  1  0
 21 22  2  0
 22 23  1  0
 23 24  1  0
 23 25  2  0
  4  5  2  0
  5  6  1  0
  6  7  1  0
  7  8  2  0
  7 12  1  0
  8  9  1  0
  9 10  2  0
 10 11  1  0
 11 13  1  0
 11 12  2  0
 13 14  2  0
 13 15  1  0
M  END
>  <minimizedAffinity>  (738) 
-8.79199

$$$$
cs_full_output_folder/data/smiles/4570.pdb
     RDKit          3D

 29 32  0  0  0  0  0  0  0  0999 V2000
   71.5460   47.1268   58.7339 C   0  0  0  0  0  0  0  0  0  0  0  0
   70.6065   47.8676   58.0314 C   0  0  0  0  0  0  0  0  0  0  0  0
   69.6725   47.3027   57.2090 C   0  0  0  0  0  0  0  0  0  0  0  0
   69.6931   45.9069   57.0936 C   0  0  0  0  0  0  0  0  0  0  0  0
   70.6124   45.1720   57.7793 C   0  0  0  0  0  0  0  0  0  0  0  0
   71.5360   45.7634   58.5954 C   0  0  0  0  0  0  0  0  0  0  0  0
   72.4211   44.9759   59.2487 F   0  0  0  0  0  0  0  0  0  0  0  0
   75.9760   49.0544   58.8320 C   0  0  1  0  0  0  0  0  0  0  0  0
   74.8907   48.7964   59.8546 C   0  0  0  0  0  0  0  0  0  0  0  0
   73.8190   48.1373   59.1380 N   0  0  0  0  0  0  0  0  0  0  0  0
   72.5296   47.7994   59.6135 C   0  0  0  0  0  0  0  0  0  0  0  0
   72.1620   48.0473   60.7784 O   0  0  0  0  0  0  0  0  0  0  0  0
   74.2921   47.8653   57.7948 C   0  0  0  0  0  0  0  0  0  0  0  0
   75.1441   49.1272   57.5592 C   0  0  1  0  0  0  0  0  0  0  0  0
   74.3105   50.2394   57.6804 O   0  0  0  0  0  0  0  0  0  0  0  0
   77.9464   50.5023   58.4913 C   0  0  0  0  0  0  0  0  0  0  0  0
   76.7930   50.2382   59.0861 C   0  0  0  0  0  0  0  0  0  0  0  0
   68.6330   48.0260   56.4338 C   0  0  0  0  0  0  0  0  0  0  0  0
   69.0637   48.1932   55.0683 C   0  0  0  0  0  0  0  0  0  0  0  0
   69.9698   49.1834   54.7978 N   0  0  0  0  0  0  0  0  0  0  0  0
   70.4681   49.3920   53.5942 N   0  0  0  0  0  0  0  0  0  0  0  0
   70.1304   48.6508   52.5292 C   0  0  0  0  0  0  0  0  0  0  0  0
   70.6225   48.8695   51.3842 O   0  0  0  0  0  0  0  0  0  0  0  0
   69.2127   47.6185   52.7030 C   0  0  0  0  0  0  0  0  0  0  0  0
   68.8254   46.8460   51.6314 C   0  0  0  0  0  0  0  0  0  0  0  0
   67.9030   45.8449   51.8241 C   0  0  0  0  0  0  0  0  0  0  0  0
   67.3925   45.6492   53.1030 C   0  0  0  0  0  0  0  0  0  0  0  0
   67.7936   46.4334   54.1621 C   0  0  0  0  0  0  0  0  0  0  0  0
   68.7132   47.4330   53.9790 C   0  0  0  0  0  0  0  0  0  0  0  0
 16 17  2  0
  8 17  1  1
  8  9  1  0
  8 14  1  0
  9 10  1  0
 10 11  1  0
 10 13  1  0
 11 12  2  0
 11  1  1  0
  1  2  2  0
  1  6  1  0
  2  3  1  0
  3 18  1  0
  3  4  2  0
 18 19  1  0
 19 20  2  0
 19 29  1  0
 20 21  1  0
 21 22  1  0
 22 23  2  0
 22 24  1  0
 24 25  1  0
 24 29  2  0
 25 26  2  0
 26 27  1  0
 27 28  2  0
 28 29  1  0
  4  5  1  0
  5  6  2  0
  6  7  1  0
 13 14  1  0
 14 15  1  1
M  END
>  <minimizedAffinity>  (739) 
-8.79185

$$$$
cs_full_output_folder/data/smiles/7665.pdb
     RDKit          3D

 25 26  0  0  0  0  0  0  0  0999 V2000
   70.0537   49.3152   52.7499 S   0  0  0  0  0  0  0  0  0  0  0  0
   70.2455   49.0803   51.2646 O   0  0  0  0  0  0  0  0  0  0  0  0
   71.3944   49.4889   53.3815 O   0  0  0  0  0  0  0  0  0  0  0  0
   69.3180   47.8892   53.4293 C   0  0  0  0  0  0  0  0  0  0  0  0
   69.3300   47.6019   54.7732 C   0  0  0  0  0  0  0  0  0  0  0  0
   69.9497   48.4564   55.6360 F   0  0  0  0  0  0  0  0  0  0  0  0
   68.7423   46.4756   55.3026 C   0  0  0  0  0  0  0  0  0  0  0  0
   68.1166   45.5978   54.4488 C   0  0  0  0  0  0  0  0  0  0  0  0
   67.5342   44.4783   54.9855 F   0  0  0  0  0  0  0  0  0  0  0  0
   68.0965   45.8696   53.1100 C   0  0  0  0  0  0  0  0  0  0  0  0
   67.4720   44.9860   52.2935 F   0  0  0  0  0  0  0  0  0  0  0  0
   68.6864   46.9991   52.5868 C   0  0  0  0  0  0  0  0  0  0  0  0
   68.6288   47.2089   51.2366 F   0  0  0  0  0  0  0  0  0  0  0  0
   69.0900   50.7190   52.9883 N   0  0  0  0  0  0  0  0  0  0  0  0
   70.1332   52.9788   55.8028 C   0  0  0  0  0  0  0  0  0  0  0  0
   69.1612   52.6843   56.7088 C   0  0  0  0  0  0  0  0  0  0  0  0
   68.1794   51.7651   56.4098 C   0  0  0  0  0  0  0  0  0  0  0  0
   68.1491   51.1199   55.1969 C   0  0  0  0  0  0  0  0  0  0  0  0
   69.1332   51.3957   54.2364 C   0  0  0  0  0  0  0  0  0  0  0  0
   70.0975   52.3182   54.5688 C   0  0  0  0  0  0  0  0  0  0  0  0
   72.4299   52.3069   57.0621 O   0  0  0  0  0  0  0  0  0  0  0  0
   72.3445   53.5092   56.6926 C   0  0  0  0  0  0  0  0  0  0  0  0
   71.1801   53.9138   56.0361 N   0  0  0  0  0  0  0  0  0  0  0  0
   73.5033   54.3818   56.9958 C   0  0  0  0  0  0  0  0  0  0  0  0
   74.6041   54.1331   56.2186 O   0  0  0  0  0  0  0  0  0  0  0  0
 21 22  2  0
 22 24  1  0
 22 23  1  0
 24 25  1  0
 23 15  1  0
 15 16  2  0
 15 20  1  0
 16 17  1  0
 17 18  2  0
 18 19  1  0
 19 14  1  0
 19 20  2  0
 14  1  1  0
  1  2  2  0
  1  3  2  0
  1  4  1  0
  4  5  2  0
  4 12  1  0
  5  6  1  0
  5  7  1  0
  7  8  2  0
  8  9  1  0
  8 10  1  0
 10 11  1  0
 10 12  2  0
 12 13  1  0
M  END
>  <minimizedAffinity>  (740) 
-8.78818

$$$$
cs_full_output_folder/data/smiles/722.pdb
     RDKit          3D

 26 29  0  0  0  0  0  0  0  0999 V2000
   71.0130   52.6463   55.7721 C   0  0  0  0  0  0  0  0  0  0  0  0
   70.9281   51.5707   54.9097 C   0  0  0  0  0  0  0  0  0  0  0  0
   69.7460   51.0240   54.4600 C   0  0  0  0  0  0  0  0  0  0  0  0
   68.5538   51.6111   54.9181 C   0  0  0  0  0  0  0  0  0  0  0  0
   68.5976   52.6833   55.7766 C   0  0  0  0  0  0  0  0  0  0  0  0
   69.8259   53.2001   56.2031 C   0  0  0  0  0  0  0  0  0  0  0  0
   69.7757   54.2487   57.0432 F   0  0  0  0  0  0  0  0  0  0  0  0
   69.6892   49.8751   53.5696 C   0  0  0  0  0  0  0  0  0  0  0  0
   70.1122   50.0368   52.2889 N   0  0  0  0  0  0  0  0  0  0  0  0
   70.0908   49.0467   51.4032 N   0  0  0  0  0  0  0  0  0  0  0  0
   69.6419   47.8291   51.7521 C   0  0  0  0  0  0  0  0  0  0  0  0
   69.6414   46.9206   50.8803 O   0  0  0  0  0  0  0  0  0  0  0  0
   69.1918   47.5728   53.0269 C   0  0  0  0  0  0  0  0  0  0  0  0
   68.7260   46.3208   53.3478 C   0  0  0  0  0  0  0  0  0  0  0  0
   68.2714   46.1144   54.6287 C   0  0  0  0  0  0  0  0  0  0  0  0
   68.2944   47.1447   55.5344 C   0  0  0  0  0  0  0  0  0  0  0  0
   68.7689   48.4095   55.2001 C   0  0  0  0  0  0  0  0  0  0  0  0
   69.2276   48.6336   53.9301 C   0  0  0  0  0  0  0  0  0  0  0  0
   72.7545   54.0923   54.1333 O   0  0  0  0  0  0  0  0  0  0  0  0
   73.1015   53.8832   55.3179 C   0  0  0  0  0  0  0  0  0  0  0  0
   74.4151   54.2998   55.8764 C   0  0  0  0  0  0  0  0  0  0  0  0
   74.1054   55.0622   57.1696 C   0  0  0  0  0  0  0  0  0  0  0  0
   73.5384   54.1564   58.2115 C   0  0  0  0  0  0  0  0  0  0  0  0
   72.6434   53.1466   57.5915 C   0  0  0  0  0  0  0  0  0  0  0  0
   72.2151   52.1645   58.2869 O   0  0  0  0  0  0  0  0  0  0  0  0
   72.2225   53.2075   56.2346 N   0  0  0  0  0  0  0  0  0  0  0  0
 19 20  2  0
 20 21  1  0
 20 26  1  0
 21 22  1  0
 22 23  1  0
 23 24  1  0
 24 25  2  0
 24 26  1  0
 26  1  1  0
  1  2  2  0
  1  6  1  0
  2  3  1  0
  3  8  1  0
  3  4  2  0
  8  9  2  0
  8 18  1  0
  9 10  1  0
 10 11  1  0
 11 12  2  0
 11 13  1  0
 13 14  1  0
 13 18  2  0
 14 15  2  0
 15 16  1  0
 16 17  2  0
 17 18  1  0
  4  5  1  0
  5  6  2  0
  6  7  1  0
M  END
>  <minimizedAffinity>  (741) 
-8.78574

$$$$
cs_full_output_folder/data/smiles/7859.pdb
     RDKit          3D

 26 27  0  0  0  0  0  0  0  0999 V2000
   69.9456   49.3020   52.6708 S   0  0  0  0  0  0  0  0  0  0  0  0
   71.4091   49.1682   52.8716 O   0  0  0  0  0  0  0  0  0  0  0  0
   69.6968   49.4002   51.1892 O   0  0  0  0  0  0  0  0  0  0  0  0
   69.1948   47.8232   53.2446 C   0  0  0  0  0  0  0  0  0  0  0  0
   68.5670   46.9484   52.3860 C   0  0  0  0  0  0  0  0  0  0  0  0
   68.5347   47.2345   51.0699 F   0  0  0  0  0  0  0  0  0  0  0  0
   67.9748   45.7949   52.8292 C   0  0  0  0  0  0  0  0  0  0  0  0
   67.3472   44.9074   52.0225 F   0  0  0  0  0  0  0  0  0  0  0  0
   68.0171   45.5144   54.1865 C   0  0  0  0  0  0  0  0  0  0  0  0
   67.4501   44.3896   54.6916 F   0  0  0  0  0  0  0  0  0  0  0  0
   68.6421   46.3821   55.0563 C   0  0  0  0  0  0  0  0  0  0  0  0
   68.6783   46.0985   56.3805 F   0  0  0  0  0  0  0  0  0  0  0  0
   69.2283   47.5320   54.5899 C   0  0  0  0  0  0  0  0  0  0  0  0
   69.8392   48.3858   55.4553 F   0  0  0  0  0  0  0  0  0  0  0  0
   69.2993   50.7061   53.4052 N   0  0  0  0  0  0  0  0  0  0  0  0
   71.5886   53.3200   55.7882 C   0  0  0  0  0  0  0  0  0  0  0  0
   70.2752   53.1359   55.9737 N   0  0  0  0  0  0  0  0  0  0  0  0
   69.5309   52.3095   55.2266 C   0  0  0  0  0  0  0  0  0  0  0  0
   70.0980   51.5725   54.1816 C   0  0  0  0  0  0  0  0  0  0  0  0
   71.4491   51.7628   53.9935 C   0  0  0  0  0  0  0  0  0  0  0  0
   72.1919   52.6185   54.7754 C   0  0  0  0  0  0  0  0  0  0  0  0
   73.6173   52.7937   54.5442 C   0  0  0  0  0  0  0  0  0  0  0  0
   74.5786   52.3006   55.4455 N   0  0  0  0  0  0  0  0  0  0  0  0
   74.0004   53.4083   53.4990 O   0  0  0  0  0  0  0  0  0  0  0  0
   72.4726   53.8829   57.9668 C   0  0  0  0  0  0  0  0  0  0  0  0
   72.3176   54.1989   56.6013 O   0  0  0  0  0  0  0  0  0  0  0  0
 25 26  1  0
 26 16  1  0
 16 17  2  0
 16 21  1  0
 17 18  1  0
 18 19  2  0
 19 15  1  0
 19 20  1  0
 15  1  1  0
  1  2  2  0
  1  3  2  0
  1  4  1  0
  4  5  2  0
  4 13  1  0
  5  6  1  0
  5  7  1  0
  7  8  1  0
  7  9  2  0
  9 10  1  0
  9 11  1  0
 11 12  1  0
 11 13  2  0
 13 14  1  0
 20 21  2  0
 21 22  1  0
 22 23  1  0
 22 24  2  0
M  END
>  <minimizedAffinity>  (742) 
-8.78552

$$$$
cs_full_output_folder/data/smiles/2932.pdb
     RDKit          3D

 27 30  0  0  0  0  0  0  0  0999 V2000
   71.4688   47.1904   58.7651 C   0  0  0  0  0  0  0  0  0  0  0  0
   71.5598   45.8267   58.6438 C   0  0  0  0  0  0  0  0  0  0  0  0
   70.7035   45.2097   57.7578 C   0  0  0  0  0  0  0  0  0  0  0  0
   69.7887   45.9145   57.0172 C   0  0  0  0  0  0  0  0  0  0  0  0
   69.6794   47.2621   57.1187 C   0  0  0  0  0  0  0  0  0  0  0  0
   70.5510   47.8867   58.0201 C   0  0  0  0  0  0  0  0  0  0  0  0
   77.3734   49.6742   57.7746 C   0  0  0  0  0  0  0  0  0  0  0  0
   76.0007   49.5147   58.3612 C   0  0  0  0  0  0  0  0  0  0  0  0
   75.7879   49.3236   59.6418 C   0  0  0  0  0  0  0  0  0  0  0  0
   74.4013   49.1654   60.2072 C   0  0  0  0  0  0  0  0  0  0  0  0
   73.5465   48.4907   59.2409 N   0  0  0  0  0  0  0  0  0  0  0  0
   72.3622   47.8788   59.6975 C   0  0  0  0  0  0  0  0  0  0  0  0
   72.0247   47.8982   60.9205 O   0  0  0  0  0  0  0  0  0  0  0  0
   73.8839   48.4342   57.8405 C   0  0  0  0  0  0  0  0  0  0  0  0
   74.8040   49.5770   57.4480 C   0  0  0  0  0  0  0  0  0  0  0  0
   68.7397   48.1371   56.3639 C   0  0  0  0  0  0  0  0  0  0  0  0
   69.2350   48.2726   54.9691 C   0  0  0  0  0  0  0  0  0  0  0  0
   70.2069   49.1945   54.6899 N   0  0  0  0  0  0  0  0  0  0  0  0
   70.7387   49.3529   53.5011 N   0  0  0  0  0  0  0  0  0  0  0  0
   70.3290   48.5882   52.4835 C   0  0  0  0  0  0  0  0  0  0  0  0
   70.8050   48.7004   51.3291 O   0  0  0  0  0  0  0  0  0  0  0  0
   69.3451   47.6399   52.7157 C   0  0  0  0  0  0  0  0  0  0  0  0
   68.8770   46.8366   51.7017 C   0  0  0  0  0  0  0  0  0  0  0  0
   67.8913   45.8941   51.8911 C   0  0  0  0  0  0  0  0  0  0  0  0
   67.3449   45.7453   53.1473 C   0  0  0  0  0  0  0  0  0  0  0  0
   67.7834   46.5352   54.2119 C   0  0  0  0  0  0  0  0  0  0  0  0
   68.7712   47.4635   53.9828 C   0  0  0  0  0  0  0  0  0  0  0  0
  7  8  1  0
  8  9  2  0
  8 15  1  0
  9 10  1  0
 10 11  1  0
 11 12  1  0
 11 14  1  0
 12 13  2  0
 12  1  1  0
  1  2  2  0
  1  6  1  0
  2  3  1  0
  3  4  2  0
  4  5  1  0
  5 16  1  0
  5  6  2  0
 16 17  1  0
 17 18  2  0
 17 27  1  0
 18 19  1  0
 19 20  1  0
 20 21  2  0
 20 22  1  0
 22 23  1  0
 22 27  2  0
 23 24  2  0
 24 25  1  0
 25 26  2  0
 26 27  1  0
 14 15  1  0
M  END
>  <minimizedAffinity>  (743) 
-8.78481

$$$$
cs_full_output_folder/data/smiles/4029.pdb
     RDKit          3D

 26 28  0  0  0  0  0  0  0  0999 V2000
   68.4696   44.0745   55.6053 N   0  0  0  0  0  0  0  0  0  0  0  0
   67.9763   42.9091   56.2345 C   0  0  0  0  0  0  0  0  0  0  0  0
   66.7648   42.5848   56.0301 O   0  0  0  0  0  0  0  0  0  0  0  0
   68.8390   42.1015   57.0935 C   0  0  0  0  0  0  0  0  0  0  0  0
   69.8678   42.5701   57.8864 C   0  0  0  0  0  0  0  0  0  0  0  0
   70.4160   41.5083   58.5208 N   0  0  0  0  0  0  0  0  0  0  0  0
   69.8060   40.3811   58.1891 N   0  0  0  0  0  0  0  0  0  0  0  0
   68.8471   40.7437   57.3205 C   0  0  0  0  0  0  0  0  0  0  0  0
   67.9503   39.8350   56.7106 N   0  0  0  0  0  0  0  0  0  0  0  0
   70.1014   39.0582   58.6535 C   0  0  0  0  0  0  0  0  0  0  0  0
   71.2069   38.3841   58.1784 C   0  0  0  0  0  0  0  0  0  0  0  0
   71.5252   37.1000   58.6051 C   0  0  0  0  0  0  0  0  0  0  0  0
   70.7349   36.4505   59.5297 C   0  0  0  0  0  0  0  0  0  0  0  0
   71.1306   34.8225   60.0763 Cl  0  0  0  0  0  0  0  0  0  0  0  0
   69.6274   37.1144   60.0113 C   0  0  0  0  0  0  0  0  0  0  0  0
   69.3272   38.3892   59.5761 C   0  0  0  0  0  0  0  0  0  0  0  0
   67.6795   44.9360   54.7343 C   0  0  0  0  0  0  0  0  0  0  0  0
   69.3627   47.8950   53.1146 C   0  0  0  0  0  0  0  0  0  0  0  0
   69.5326   48.7506   54.1874 C   0  0  0  0  0  0  0  0  0  0  0  0
   69.1025   48.3729   55.4380 C   0  0  0  0  0  0  0  0  0  0  0  0
   68.4990   47.1375   55.6261 C   0  0  0  0  0  0  0  0  0  0  0  0
   68.3194   46.2620   54.5574 C   0  0  0  0  0  0  0  0  0  0  0  0
   68.7622   46.6743   53.3182 C   0  0  0  0  0  0  0  0  0  0  0  0
   69.8087   49.6801   51.4632 N   0  0  0  0  0  0  0  0  0  0  0  0
   69.8194   48.2983   51.7945 C   0  0  0  0  0  0  0  0  0  0  0  0
   70.2150   47.4421   50.9689 O   0  0  0  0  0  0  0  0  0  0  0  0
 24 25  1  0
 25 26  2  0
 25 18  1  0
 18 19  2  0
 18 23  1  0
 19 20  1  0
 20 21  2  0
 21 22  1  0
 22 17  1  0
 22 23  2  0
 17  1  1  0
  1  2  1  0
  2  3  2  0
  2  4  1  0
  4  5  1  0
  4  8  2  0
  5  6  2  0
  6  7  1  0
  7 10  1  0
  7  8  1  0
 10 11  2  0
 10 16  1  0
 11 12  1  0
 12 13  2  0
 13 14  1  0
 13 15  1  0
 15 16  2  0
  8  9  1  0
M  END
>  <minimizedAffinity>  (744) 
-8.78432

$$$$
cs_full_output_folder/data/smiles/2893.pdb
     RDKit          3D

 28 31  0  0  0  0  0  0  0  0999 V2000
   71.5039   47.4250   58.8793 C   0  0  0  0  0  0  0  0  0  0  0  0
   70.5789   48.1188   58.1057 C   0  0  0  0  0  0  0  0  0  0  0  0
   69.7630   47.4787   57.2008 C   0  0  0  0  0  0  0  0  0  0  0  0
   69.9230   46.1010   57.1112 C   0  0  0  0  0  0  0  0  0  0  0  0
   70.8266   45.3890   57.8606 C   0  0  0  0  0  0  0  0  0  0  0  0
   71.6279   46.0678   58.7583 C   0  0  0  0  0  0  0  0  0  0  0  0
   72.5089   45.3505   59.4857 F   0  0  0  0  0  0  0  0  0  0  0  0
   76.6769   48.3013   58.0133 C   0  0  0  0  0  0  0  0  0  0  0  0
   75.6480   49.2010   58.5759 C   0  0  0  0  0  0  0  0  0  0  0  0
   74.7628   49.7096   57.7793 C   0  0  0  0  0  0  0  0  0  0  0  0
   73.5350   49.4622   58.0998 N   0  0  0  0  0  0  0  0  0  0  0  0
   73.2994   49.0979   59.4259 N   0  0  0  0  0  0  0  0  0  0  0  0
   72.3501   48.1407   59.8360 C   0  0  0  0  0  0  0  0  0  0  0  0
   72.2047   47.8730   61.0448 O   0  0  0  0  0  0  0  0  0  0  0  0
   74.1255   49.7878   60.4244 C   0  0  0  0  0  0  0  0  0  0  0  0
   75.5868   49.5435   60.0134 C   0  0  0  0  0  0  0  0  0  0  0  0
   68.7641   48.1803   56.3543 C   0  0  0  0  0  0  0  0  0  0  0  0
   69.2580   48.3039   55.0085 C   0  0  0  0  0  0  0  0  0  0  0  0
   70.2095   49.2065   54.7127 N   0  0  0  0  0  0  0  0  0  0  0  0
   70.7234   49.3576   53.5002 N   0  0  0  0  0  0  0  0  0  0  0  0
   70.3086   48.5883   52.4604 C   0  0  0  0  0  0  0  0  0  0  0  0
   70.7657   48.6973   51.3048 O   0  0  0  0  0  0  0  0  0  0  0  0
   69.3293   47.6303   52.6726 C   0  0  0  0  0  0  0  0  0  0  0  0
   68.8704   46.8306   51.6379 C   0  0  0  0  0  0  0  0  0  0  0  0
   67.8851   45.8975   51.9108 C   0  0  0  0  0  0  0  0  0  0  0  0
   67.3833   45.7858   53.1963 C   0  0  0  0  0  0  0  0  0  0  0  0
   67.8539   46.5907   54.2105 C   0  0  0  0  0  0  0  0  0  0  0  0
   68.8273   47.5122   53.9475 C   0  0  0  0  0  0  0  0  0  0  0  0
  8  9  1  0
  9 10  2  0
  9 16  1  0
 10 11  2  0
 11 12  1  0
 12 13  1  0
 12 15  1  0
 13 14  2  0
 13  1  1  0
  1  2  2  0
  1  6  1  0
  2  3  1  0
  3 17  1  0
  3  4  2  0
 17 18  1  0
 18 19  2  0
 18 28  1  0
 19 20  1  0
 20 21  1  0
 21 22  2  0
 21 23  1  0
 23 24  1  0
 23 28  2  0
 24 25  2  0
 25 26  1  0
 26 27  2  0
 27 28  1  0
  4  5  1  0
  5  6  2  0
  6  7  1  0
 15 16  1  0
M  END
>  <minimizedAffinity>  (745) 
-8.78398

$$$$
cs_full_output_folder/data/smiles/518.pdb
     RDKit          3D

 25 27  0  0  0  0  0  0  0  0999 V2000
   69.3952   45.3525   56.5080 N   0  0  0  0  0  0  0  0  0  0  0  0
   69.9600   45.0040   57.7480 C   0  0  0  0  0  0  0  0  0  0  0  0
   69.7717   45.7629   58.7263 O   0  0  0  0  0  0  0  0  0  0  0  0
   70.7593   43.7996   57.9586 C   0  0  0  0  0  0  0  0  0  0  0  0
   72.1440   43.6981   58.0589 C   0  0  0  0  0  0  0  0  0  0  0  0
   72.4369   42.3997   58.2507 N   0  0  0  0  0  0  0  0  0  0  0  0
   71.3619   41.6583   58.2830 N   0  0  0  0  0  0  0  0  0  0  0  0
   70.3198   42.4992   58.1047 C   0  0  0  0  0  0  0  0  0  0  0  0
   71.3286   40.2410   58.4712 C   0  0  0  0  0  0  0  0  0  0  0  0
   72.4929   39.5084   58.6297 C   0  0  0  0  0  0  0  0  0  0  0  0
   72.4906   38.1422   58.8138 C   0  0  0  0  0  0  0  0  0  0  0  0
   71.3072   37.4347   58.8487 C   0  0  0  0  0  0  0  0  0  0  0  0
   71.2764   35.6963   59.0815 Cl  0  0  0  0  0  0  0  0  0  0  0  0
   70.1374   38.1493   58.6934 C   0  0  0  0  0  0  0  0  0  0  0  0
   70.1524   39.5199   58.5085 C   0  0  0  0  0  0  0  0  0  0  0  0
   68.6054   46.5041   56.2065 C   0  0  0  0  0  0  0  0  0  0  0  0
   69.3482   48.0682   52.8319 C   0  0  0  0  0  0  0  0  0  0  0  0
   68.7390   47.1338   52.0149 C   0  0  0  0  0  0  0  0  0  0  0  0
   68.1038   46.0222   52.5309 C   0  0  0  0  0  0  0  0  0  0  0  0
   68.0977   45.8744   53.8846 C   0  0  0  0  0  0  0  0  0  0  0  0
   68.6918   46.7779   54.7536 C   0  0  0  0  0  0  0  0  0  0  0  0
   69.3135   47.8724   54.2023 C   0  0  0  0  0  0  0  0  0  0  0  0
   70.4923   50.2592   53.0116 N   0  0  0  0  0  0  0  0  0  0  0  0
   69.9935   49.2059   52.2203 C   0  0  0  0  0  0  0  0  0  0  0  0
   70.1088   49.2540   50.9794 O   0  0  0  0  0  0  0  0  0  0  0  0
 23 24  1  0
 24 25  2  0
 24 17  1  0
 17 18  2  0
 17 22  1  0
 18 19  1  0
 19 20  2  0
 20 21  1  0
 21 16  1  0
 21 22  2  0
 16  1  1  0
  1  2  1  0
  2  3  2  0
  2  4  1  0
  4  5  1  0
  4  8  2  0
  5  6  2  0
  6  7  1  0
  7  9  1  0
  7  8  1  0
  9 10  2  0
  9 15  1  0
 10 11  1  0
 11 12  2  0
 12 13  1  0
 12 14  1  0
 14 15  2  0
M  END
>  <minimizedAffinity>  (746) 
-8.78389

$$$$
cs_full_output_folder/data/smiles/1026.pdb
     RDKit          3D

 26 27  0  0  0  0  0  0  0  0999 V2000
   69.1154   50.5747   53.4090 N   0  0  0  0  0  0  0  0  0  0  0  0
   71.5321   53.0369   55.7675 C   0  0  0  0  0  0  0  0  0  0  0  0
   70.1720   53.2433   55.7528 C   0  0  0  0  0  0  0  0  0  0  0  0
   69.4009   52.4189   54.9664 C   0  0  0  0  0  0  0  0  0  0  0  0
   69.9350   51.4077   54.2020 C   0  0  0  0  0  0  0  0  0  0  0  0
   71.3176   51.2416   54.2533 C   0  0  0  0  0  0  0  0  0  0  0  0
   72.1357   52.0352   55.0210 C   0  0  0  0  0  0  0  0  0  0  0  0
   73.5476   51.8401   55.0516 N   0  0  0  0  0  0  0  0  0  0  0  0
   74.0821   50.6305   55.5656 C   0  0  0  0  0  0  0  0  0  0  0  0
   75.5682   50.3892   55.6128 C   0  0  0  0  0  0  0  0  0  0  0  0
   73.2659   49.7713   55.9785 O   0  0  0  0  0  0  0  0  0  0  0  0
   72.4849   53.5591   57.9160 C   0  0  0  0  0  0  0  0  0  0  0  0
   72.3745   53.8249   56.5334 O   0  0  0  0  0  0  0  0  0  0  0  0
   69.7758   49.1939   52.6443 S   0  0  0  0  0  0  0  0  0  0  0  0
   69.5666   49.2431   51.1444 O   0  0  0  0  0  0  0  0  0  0  0  0
   71.2817   49.1084   52.8393 O   0  0  0  0  0  0  0  0  0  0  0  0
   69.0702   47.7023   53.2293 C   0  0  0  0  0  0  0  0  0  0  0  0
   69.1698   47.4363   54.5992 C   0  0  0  0  0  0  0  0  0  0  0  0
   69.7979   48.3243   55.4011 F   0  0  0  0  0  0  0  0  0  0  0  0
   68.6523   46.3030   55.1688 C   0  0  0  0  0  0  0  0  0  0  0  0
   68.0132   45.4105   54.3226 C   0  0  0  0  0  0  0  0  0  0  0  0
   67.4816   44.2664   54.8470 F   0  0  0  0  0  0  0  0  0  0  0  0
   67.9025   45.6522   52.9681 C   0  0  0  0  0  0  0  0  0  0  0  0
   67.2795   44.7758   52.1580 F   0  0  0  0  0  0  0  0  0  0  0  0
   68.4316   46.7996   52.4159 C   0  0  0  0  0  0  0  0  0  0  0  0
   68.3236   47.0433   51.0897 F   0  0  0  0  0  0  0  0  0  0  0  0
 12 13  1  0
 13  2  1  0
  2  3  2  0
  2  7  1  0
  3  4  1  0
  4  5  2  0
  5  1  1  0
  5  6  1  0
  1 14  1  0
 14 15  2  0
 14 16  2  0
 14 17  1  0
 17 18  2  0
 17 25  1  0
 18 19  1  0
 18 20  1  0
 20 21  2  0
 21 22  1  0
 21 23  1  0
 23 24  1  0
 23 25  2  0
 25 26  1  0
  6  7  2  0
  7  8  1  0
  8  9  1  0
  9 10  1  0
  9 11  2  0
M  END
>  <minimizedAffinity>  (747) 
-8.78364

$$$$
cs_full_output_folder/data/smiles/414.pdb
     RDKit          3D

 27 29  0  0  0  0  0  0  0  0999 V2000
   68.3967   45.7995   54.3274 C   0  0  0  0  0  0  0  0  0  0  0  0
   67.8617   45.3982   53.1226 C   0  0  0  0  0  0  0  0  0  0  0  0
   67.9966   46.1964   51.9791 C   0  0  0  0  0  0  0  0  0  0  0  0
   68.6714   47.3967   52.0578 C   0  0  0  0  0  0  0  0  0  0  0  0
   69.2151   47.8201   53.2549 C   0  0  0  0  0  0  0  0  0  0  0  0
   69.0577   47.0090   54.3395 C   0  0  0  0  0  0  0  0  0  0  0  0
   67.7208   43.6962   55.5814 N   0  0  0  0  0  0  0  0  0  0  0  0
   68.2691   44.9887   55.5287 C   0  0  0  0  0  0  0  0  0  0  0  0
   68.6836   45.4865   56.6064 O   0  0  0  0  0  0  0  0  0  0  0  0
   67.6705   41.0177   55.5307 O   0  0  0  0  0  0  0  0  0  0  0  0
   67.5783   41.5088   56.7154 C   0  0  0  0  0  0  0  0  0  0  0  0
   67.6046   42.9226   56.7586 N   0  0  0  0  0  0  0  0  0  0  0  0
   67.4618   40.6381   57.8709 C   0  0  0  0  0  0  0  0  0  0  0  0
   68.1224   39.4348   57.8843 C   0  0  0  0  0  0  0  0  0  0  0  0
   68.0151   38.6026   58.9828 C   0  0  0  0  0  0  0  0  0  0  0  0
   67.2384   39.0173   60.0421 C   0  0  0  0  0  0  0  0  0  0  0  0
   66.6001   40.2005   60.0079 N   0  0  0  0  0  0  0  0  0  0  0  0
   66.6921   41.0269   58.9447 C   0  0  0  0  0  0  0  0  0  0  0  0
   70.0774   49.3379   53.3916 S   0  0  0  0  0  0  0  0  0  0  0  0
   69.3235   50.3379   52.5479 O   0  0  0  0  0  0  0  0  0  0  0  0
   71.4536   49.0955   52.7872 O   0  0  0  0  0  0  0  0  0  0  0  0
   70.2991   49.8256   54.9929 N   0  0  0  0  0  0  0  0  0  0  0  0
   69.1317   50.1403   55.7315 C   0  0  0  0  0  0  0  0  0  0  0  0
   68.5535   51.4884   55.5451 C   0  0  0  0  0  0  0  0  0  0  0  0
   69.3505   52.4870   54.8159 C   0  0  0  0  0  0  0  0  0  0  0  0
   70.7879   52.2019   54.6239 C   0  0  0  0  0  0  0  0  0  0  0  0
   71.2566   50.8735   55.1208 C   0  0  0  0  0  0  0  0  0  0  0  0
 10 11  2  0
 11 12  1  0
 11 13  1  0
 12  7  1  0
  7  8  1  0
  8  9  2  0
  8  1  1  0
  1  2  2  0
  1  6  1  0
  2  3  1  0
  3  4  2  0
  4  5  1  0
  5 19  1  0
  5  6  2  0
 19 20  2  0
 19 21  2  0
 19 22  1  0
 22 23  1  0
 22 27  1  0
 23 24  1  0
 24 25  1  0
 25 26  1  0
 26 27  1  0
 13 14  2  0
 13 18  1  0
 14 15  1  0
 15 16  2  0
 16 17  1  0
 17 18  2  0
M  END
>  <minimizedAffinity>  (748) 
-8.78146

$$$$
cs_full_output_folder/data/smiles/4133.pdb
     RDKit          3D

 29 32  0  0  0  0  0  0  0  0999 V2000
   71.1090   44.6701   58.0171 C   0  0  0  0  0  0  0  0  0  0  0  0
   70.0416   45.3302   57.3790 C   0  0  0  0  0  0  0  0  0  0  0  0
   69.8712   46.6743   57.4391 C   0  0  0  0  0  0  0  0  0  0  0  0
   70.8272   47.3966   58.1837 C   0  0  0  0  0  0  0  0  0  0  0  0
   71.8711   46.7556   58.8095 C   0  0  0  0  0  0  0  0  0  0  0  0
   72.0338   45.3894   58.7403 C   0  0  0  0  0  0  0  0  0  0  0  0
   73.0841   44.7952   59.3775 F   0  0  0  0  0  0  0  0  0  0  0  0
   69.6685   42.9698   59.7619 C   0  0  0  0  0  0  0  0  0  0  0  0
   70.5483   42.3865   58.7772 N   0  0  0  0  0  0  0  0  0  0  0  0
   71.2599   43.2321   57.9060 C   0  0  0  0  0  0  0  0  0  0  0  0
   72.0173   42.7069   57.0439 O   0  0  0  0  0  0  0  0  0  0  0  0
   70.7007   40.9539   58.6726 C   0  0  0  0  0  0  0  0  0  0  0  0
   69.6053   40.2035   58.4752 N   0  0  0  0  0  0  0  0  0  0  0  0
   69.6849   38.8748   58.3730 C   0  0  0  0  0  0  0  0  0  0  0  0
   70.8866   38.2184   58.4643 C   0  0  0  0  0  0  0  0  0  0  0  0
   72.0163   38.9944   58.6685 C   0  0  0  0  0  0  0  0  0  0  0  0
   71.8828   40.3354   58.7648 N   0  0  0  0  0  0  0  0  0  0  0  0
   68.7801   47.4315   56.7760 C   0  0  0  0  0  0  0  0  0  0  0  0
   69.2150   47.8324   55.4092 C   0  0  0  0  0  0  0  0  0  0  0  0
   70.1225   48.8591   55.2809 N   0  0  0  0  0  0  0  0  0  0  0  0
   70.6106   49.2437   54.1205 N   0  0  0  0  0  0  0  0  0  0  0  0
   70.2569   48.6611   52.9696 C   0  0  0  0  0  0  0  0  0  0  0  0
   70.7533   49.0644   51.8724 O   0  0  0  0  0  0  0  0  0  0  0  0
   69.3610   47.6383   53.0177 C   0  0  0  0  0  0  0  0  0  0  0  0
   68.9641   47.0325   51.8369 C   0  0  0  0  0  0  0  0  0  0  0  0
   68.0482   46.0237   51.9215 C   0  0  0  0  0  0  0  0  0  0  0  0
   67.5125   45.5933   53.1123 C   0  0  0  0  0  0  0  0  0  0  0  0
   67.9087   46.2004   54.3054 C   0  0  0  0  0  0  0  0  0  0  0  0
   68.8352   47.2220   54.2459 C   0  0  0  0  0  0  0  0  0  0  0  0
  8  9  1  0
  9 10  1  0
  9 12  1  0
 10 11  2  0
 10  1  1  0
  1  2  2  0
  1  6  1  0
  2  3  1  0
  3 18  1  0
  3  4  2  0
 18 19  1  0
 19 20  2  0
 19 29  1  0
 20 21  1  0
 21 22  1  0
 22 23  2  0
 22 24  1  0
 24 25  1  0
 24 29  2  0
 25 26  2  0
 26 27  1  0
 27 28  2  0
 28 29  1  0
  4  5  1  0
  5  6  2  0
  6  7  1  0
 12 13  2  0
 12 17  1  0
 13 14  1  0
 14 15  2  0
 15 16  1  0
 16 17  2  0
M  END
>  <minimizedAffinity>  (749) 
-8.78065

$$$$
cs_full_output_folder/data/smiles/6070.pdb
     RDKit          3D

 26 28  0  0  0  0  0  0  0  0999 V2000
   69.9290   47.3292   57.0991 C   0  0  0  0  0  0  0  0  0  0  0  0
   70.9901   47.7759   57.8274 C   0  0  0  0  0  0  0  0  0  0  0  0
   71.8129   46.9136   58.5337 C   0  0  0  0  0  0  0  0  0  0  0  0
   71.5932   45.5514   58.5311 C   0  0  0  0  0  0  0  0  0  0  0  0
   70.5128   45.0769   57.7911 C   0  0  0  0  0  0  0  0  0  0  0  0
   69.7069   45.9381   57.0975 C   0  0  0  0  0  0  0  0  0  0  0  0
   70.2903   43.6016   57.8001 C   0  0  0  0  0  0  0  0  0  0  0  0
   69.9113   43.1103   59.0168 F   0  0  0  0  0  0  0  0  0  0  0  0
   71.4145   42.9089   57.3822 F   0  0  0  0  0  0  0  0  0  0  0  0
   69.3035   43.3289   56.8535 F   0  0  0  0  0  0  0  0  0  0  0  0
   69.0042   48.1898   56.3318 C   0  0  0  0  0  0  0  0  0  0  0  0
   70.5002   48.8445   51.1269 O   0  0  0  0  0  0  0  0  0  0  0  0
   70.1330   48.6846   52.3080 C   0  0  0  0  0  0  0  0  0  0  0  0
   70.6107   49.4842   53.2745 N   0  0  0  0  0  0  0  0  0  0  0  0
   70.2253   49.3158   54.5197 N   0  0  0  0  0  0  0  0  0  0  0  0
   69.3446   48.3542   54.9114 C   0  0  0  0  0  0  0  0  0  0  0  0
   68.8506   47.5331   53.9276 C   0  0  0  0  0  0  0  0  0  0  0  0
   67.9325   46.5274   54.1799 C   0  0  0  0  0  0  0  0  0  0  0  0
   67.4352   45.7217   53.1749 C   0  0  0  0  0  0  0  0  0  0  0  0
   67.8357   45.8889   51.8703 C   0  0  0  0  0  0  0  0  0  0  0  0
   68.7502   46.8843   51.5759 C   0  0  0  0  0  0  0  0  0  0  0  0
   69.2325   47.6760   52.5930 C   0  0  0  0  0  0  0  0  0  0  0  0
   72.4293   44.6518   59.2472 N   0  0  0  0  0  0  0  0  0  0  0  0
   72.5219   44.7466   60.9648 S   0  0  0  0  0  0  0  0  0  0  0  0
   71.1113   44.1380   61.6370 O   0  0  0  0  0  0  0  0  0  0  0  0
   72.7549   46.3122   61.4850 O   0  0  0  0  0  0  0  0  0  0  0  0
 12 13  2  0
 13 14  1  0
 13 22  1  0
 14 15  1  0
 15 16  2  0
 16 11  1  0
 16 17  1  0
 11  1  1  0
  1  2  2  0
  1  6  1  0
  2  3  1  0
  3  4  2  0
  4 23  1  0
  4  5  1  0
 23 24  1  0
 24 25  1  1
 24 26  1  0
  5  7  1  0
  5  6  2  0
  7  8  1  0
  7  9  1  0
  7 10  1  0
 17 18  1  0
 17 22  2  0
 18 19  2  0
 19 20  1  0
 20 21  2  0
 21 22  1  0
M  CHG  2  24   1  25  -1
M  END
>  <minimizedAffinity>  (750) 
-8.78036

$$$$
cs_full_output_folder/data/smiles/8080.pdb
     RDKit          3D

 26 28  0  0  0  0  0  0  0  0999 V2000
   68.3311   44.8917   55.3729 N   0  0  0  0  0  0  0  0  0  0  0  0
   68.0413   45.2836   54.0497 C   0  0  0  0  0  0  0  0  0  0  0  0
   67.1693   44.5680   53.4321 O   0  0  0  0  0  0  0  0  0  0  0  0
   68.6138   46.4016   53.3298 C   0  0  0  0  0  0  0  0  0  0  0  0
   68.8928   46.2571   51.9909 N   0  0  0  0  0  0  0  0  0  0  0  0
   69.4245   47.2147   51.2626 N   0  0  0  0  0  0  0  0  0  0  0  0
   69.7382   48.4141   51.7695 C   0  0  0  0  0  0  0  0  0  0  0  0
   70.2484   49.3365   51.0697 O   0  0  0  0  0  0  0  0  0  0  0  0
   69.4846   48.6232   53.1153 C   0  0  0  0  0  0  0  0  0  0  0  0
   69.8354   49.8520   53.6457 C   0  0  0  0  0  0  0  0  0  0  0  0
   69.6170   50.0624   54.9907 C   0  0  0  0  0  0  0  0  0  0  0  0
   69.0647   49.0625   55.7620 C   0  0  0  0  0  0  0  0  0  0  0  0
   68.7072   47.8256   55.2429 C   0  0  0  0  0  0  0  0  0  0  0  0
   68.9184   47.6073   53.9006 C   0  0  0  0  0  0  0  0  0  0  0  0
   69.5667   42.9176   56.8353 O   0  0  0  0  0  0  0  0  0  0  0  0
   68.3397   42.7580   56.6395 C   0  0  0  0  0  0  0  0  0  0  0  0
   67.6676   43.7517   55.8912 N   0  0  0  0  0  0  0  0  0  0  0  0
   67.6745   41.5631   57.1890 C   0  0  0  0  0  0  0  0  0  0  0  0
   68.3768   40.8629   58.2866 C   0  0  0  0  0  0  0  0  0  0  0  0
   68.1877   39.0973   58.4084 S   0  0  0  0  0  0  0  0  0  0  0  0
   66.7622   38.6107   59.3056 C   0  0  0  0  0  0  0  0  0  0  0  0
   66.3806   37.2689   59.2955 C   0  0  0  0  0  0  0  0  0  0  0  0
   65.2996   36.8538   60.0202 C   0  0  0  0  0  0  0  0  0  0  0  0
   64.5398   37.7152   60.7867 C   0  0  0  0  0  0  0  0  0  0  0  0
   64.9074   39.0433   60.8052 C   0  0  0  0  0  0  0  0  0  0  0  0
   65.9966   39.4713   60.0765 C   0  0  0  0  0  0  0  0  0  0  0  0
 15 16  2  0
 16 18  1  0
 16 17  1  0
 18 19  1  0
 19 20  1  0
 20 21  1  0
 21 22  2  0
 21 26  1  0
 22 23  1  0
 23 24  2  0
 24 25  1  0
 25 26  2  0
 17  1  1  0
  1  2  1  0
  2  3  2  0
  2  4  1  0
  4  5  2  0
  4 14  1  0
  5  6  1  0
  6  7  1  0
  7  8  2  0
  7  9  1  0
  9 10  1  0
  9 14  2  0
 10 11  2  0
 11 12  1  0
 12 13  2  0
 13 14  1  0
M  END
>  <minimizedAffinity>  (751) 
-8.77890

$$$$
cs_full_output_folder/data/smiles/844.pdb
     RDKit          3D

 21 23  0  0  0  0  0  0  0  0999 V2000
   70.6176   48.5801   50.8622 O   0  0  0  0  0  0  0  0  0  0  0  0
   70.2997   48.3805   52.0848 C   0  0  0  0  0  0  0  0  0  0  0  0
   70.9247   49.0365   53.0707 N   0  0  0  0  0  0  0  0  0  0  0  0
   70.6284   48.8659   54.3582 N   0  0  0  0  0  0  0  0  0  0  0  0
   69.6545   47.9973   54.7699 C   0  0  0  0  0  0  0  0  0  0  0  0
   69.0029   47.3123   53.7832 C   0  0  0  0  0  0  0  0  0  0  0  0
   68.0251   46.3994   54.1228 C   0  0  0  0  0  0  0  0  0  0  0  0
   67.3773   45.6934   53.1357 C   0  0  0  0  0  0  0  0  0  0  0  0
   67.7055   45.8950   51.7912 C   0  0  0  0  0  0  0  0  0  0  0  0
   68.6793   46.7981   51.4277 C   0  0  0  0  0  0  0  0  0  0  0  0
   69.3101   47.4899   52.4283 C   0  0  0  0  0  0  0  0  0  0  0  0
   69.3563   47.9115   56.2167 C   0  0  0  0  0  0  0  0  0  0  0  0
   68.6011   49.0624   56.7468 C   0  0  0  0  0  0  0  0  0  0  0  0
   67.4044   48.7728   57.4167 C   0  0  0  0  0  0  0  0  0  0  0  0
   66.6162   49.7687   57.9389 C   0  0  0  0  0  0  0  0  0  0  0  0
   66.9583   51.1010   57.8320 C   0  0  0  0  0  0  0  0  0  0  0  0
   68.1311   51.4078   57.1770 C   0  0  0  0  0  0  0  0  0  0  0  0
   68.9276   50.3779   56.6474 C   0  0  0  0  0  0  0  0  0  0  0  0
   68.5100   52.7165   57.0453 O   0  0  0  0  0  0  0  0  0  0  0  0
   69.2894   53.2621   56.0215 C   0  0  0  0  0  0  0  0  0  0  0  0
   71.3406   53.4915   56.5395 I   0  0  0  0  0  0  0  0  0  0  0  0
  1  2  2  0
  2  3  1  0
  2 11  1  0
  3  4  1  0
  4  5  2  0
  5 12  1  0
  5  6  1  0
 12 13  1  0
 13 14  2  0
 13 18  1  0
 14 15  1  0
 15 16  2  0
 16 17  1  0
 17 19  1  0
 17 18  2  0
 19 20  1  0
 20 21  1  0
  6  7  1  0
  6 11  2  0
  7  8  2  0
  8  9  1  0
  9 10  2  0
 10 11  1  0
M  END
>  <minimizedAffinity>  (752) 
-8.77867

$$$$
cs_full_output_folder/data/smiles/6924.pdb
     RDKit          3D

 23 24  0  0  0  0  0  0  0  0999 V2000
   70.9911   46.6958   57.0112 O   0  0  0  0  0  0  0  0  0  0  0  0
   69.5699   46.9789   57.4466 S   0  0  0  0  0  0  0  0  0  0  0  0
   69.4702   46.4650   58.8644 O   0  0  0  0  0  0  0  0  0  0  0  0
   69.2544   48.6949   57.4192 C   0  0  0  0  0  0  0  0  0  0  0  0
   70.2166   49.6624   57.2670 C   0  0  0  0  0  0  0  0  0  0  0  0
   71.5057   49.2901   57.1397 F   0  0  0  0  0  0  0  0  0  0  0  0
   69.9343   51.0099   57.2431 C   0  0  0  0  0  0  0  0  0  0  0  0
   68.6117   51.4274   57.3787 C   0  0  0  0  0  0  0  0  0  0  0  0
   68.3282   52.7600   57.3555 F   0  0  0  0  0  0  0  0  0  0  0  0
   67.6260   50.4925   57.5327 C   0  0  0  0  0  0  0  0  0  0  0  0
   66.3309   50.8635   57.6669 F   0  0  0  0  0  0  0  0  0  0  0  0
   67.9418   49.1529   57.5525 C   0  0  0  0  0  0  0  0  0  0  0  0
   66.9728   48.2192   57.7037 F   0  0  0  0  0  0  0  0  0  0  0  0
   68.4369   46.2042   56.4243 N   0  0  0  0  0  0  0  0  0  0  0  0
   68.4618   46.4260   55.0340 C   0  0  0  0  0  0  0  0  0  0  0  0
   69.1718   47.4599   54.4667 C   0  0  0  0  0  0  0  0  0  0  0  0
   69.2305   47.7094   53.1130 C   0  0  0  0  0  0  0  0  0  0  0  0
   68.5196   46.8516   52.2783 C   0  0  0  0  0  0  0  0  0  0  0  0
   68.5682   47.0884   50.9171 O   0  0  0  0  0  0  0  0  0  0  0  0
   67.7889   45.7972   52.7785 C   0  0  0  0  0  0  0  0  0  0  0  0
   67.7723   45.6041   54.1361 C   0  0  0  0  0  0  0  0  0  0  0  0
   67.0666   44.9301   51.8991 N   0  0  0  0  0  0  0  0  0  0  0  0
   66.6963   45.3566   50.6810 F   0  0  0  0  0  0  0  0  0  0  0  0
  1  2  2  0
  2  3  2  0
  2 14  1  0
  2  4  1  0
 14 15  1  0
 15 16  2  0
 15 21  1  0
 16 17  1  0
 17 18  2  0
 18 19  1  0
 18 20  1  0
 20 22  1  0
 20 21  2  0
 22 23  1  0
  4  5  2  0
  4 12  1  0
  5  6  1  0
  5  7  1  0
  7  8  2  0
  8  9  1  0
  8 10  1  0
 10 11  1  0
 10 12  2  0
 12 13  1  0
M  END
>  <minimizedAffinity>  (753) 
-8.77627

$$$$
cs_full_output_folder/data/smiles/3360.pdb
     RDKit          3D

 26 27  0  0  0  0  0  0  0  0999 V2000
   70.0618   49.2905   52.6215 S   0  0  0  0  0  0  0  0  0  0  0  0
   70.2449   49.1436   51.1277 O   0  0  0  0  0  0  0  0  0  0  0  0
   71.4779   49.3926   53.1758 O   0  0  0  0  0  0  0  0  0  0  0  0
   69.3190   47.9026   53.3258 C   0  0  0  0  0  0  0  0  0  0  0  0
   68.6400   46.9760   52.5542 C   0  0  0  0  0  0  0  0  0  0  0  0
   68.5362   47.1416   51.2016 F   0  0  0  0  0  0  0  0  0  0  0  0
   68.0635   45.8740   53.1522 C   0  0  0  0  0  0  0  0  0  0  0  0
   67.3968   44.9617   52.4059 F   0  0  0  0  0  0  0  0  0  0  0  0
   68.1392   45.6579   54.5147 C   0  0  0  0  0  0  0  0  0  0  0  0
   67.5579   44.5555   55.0918 F   0  0  0  0  0  0  0  0  0  0  0  0
   68.8094   46.5724   55.2808 C   0  0  0  0  0  0  0  0  0  0  0  0
   68.9187   46.4160   56.6303 F   0  0  0  0  0  0  0  0  0  0  0  0
   69.3848   47.6731   54.6795 C   0  0  0  0  0  0  0  0  0  0  0  0
   70.0456   48.5528   55.4643 F   0  0  0  0  0  0  0  0  0  0  0  0
   69.2220   50.7605   52.8868 N   0  0  0  0  0  0  0  0  0  0  0  0
   70.4093   52.6379   55.8734 C   0  0  0  0  0  0  0  0  0  0  0  0
   69.3549   52.5206   56.7558 C   0  0  0  0  0  0  0  0  0  0  0  0
   68.2558   51.8130   56.3342 C   0  0  0  0  0  0  0  0  0  0  0  0
   68.1856   51.2357   55.0864 C   0  0  0  0  0  0  0  0  0  0  0  0
   69.2228   51.3356   54.1810 C   0  0  0  0  0  0  0  0  0  0  0  0
   70.3373   52.0596   54.6247 C   0  0  0  0  0  0  0  0  0  0  0  0
   71.5563   53.3532   56.2606 O   0  0  0  0  0  0  0  0  0  0  0  0
   73.5582   51.1585   58.6471 C   0  0  0  0  0  0  0  0  0  0  0  0
   72.4277   51.8505   58.0172 N   0  0  0  0  0  0  0  0  0  0  0  0
   72.5828   52.6782   56.8922 C   0  0  0  0  0  0  0  0  0  0  0  0
   73.7540   52.8132   56.4264 O   0  0  0  0  0  0  0  0  0  0  0  0
 23 24  1  0
 24 25  1  0
 25 26  2  0
 25 22  1  0
 22 16  1  0
 16 17  2  0
 16 21  1  0
 17 18  1  0
 18 19  2  0
 19 20  1  0
 20 15  1  0
 20 21  2  0
 15  1  1  0
  1  2  2  0
  1  3  2  0
  1  4  1  0
  4  5  2  0
  4 13  1  0
  5  6  1  0
  5  7  1  0
  7  8  1  0
  7  9  2  0
  9 10  1  0
  9 11  1  0
 11 12  1  0
 11 13  2  0
 13 14  1  0
M  END
>  <minimizedAffinity>  (754) 
-8.77602

$$$$
cs_full_output_folder/data/smiles/5491.pdb
     RDKit          3D

 29 32  0  0  0  0  0  0  0  0999 V2000
   69.3587   40.1523   58.3414 C   0  0  0  0  0  0  0  0  0  0  0  0
   68.1695   40.2277   57.6620 C   0  0  0  0  0  0  0  0  0  0  0  0
   67.8589   41.3028   56.8181 C   0  0  0  0  0  0  0  0  0  0  0  0
   68.7442   42.3438   56.6345 C   0  0  0  0  0  0  0  0  0  0  0  0
   69.9414   42.2693   57.3184 C   0  0  0  0  0  0  0  0  0  0  0  0
   70.2488   41.2112   58.1480 C   0  0  0  0  0  0  0  0  0  0  0  0
   68.4568   43.4476   55.7841 N   0  0  0  0  0  0  0  0  0  0  0  0
   68.7594   44.8011   56.1176 C   0  0  0  0  0  0  0  0  0  0  0  0
   69.3096   44.9692   57.2362 O   0  0  0  0  0  0  0  0  0  0  0  0
   68.4778   45.8927   55.2824 N   0  0  0  0  0  0  0  0  0  0  0  0
   68.7733   47.2755   55.5995 C   0  0  0  0  0  0  0  0  0  0  0  0
   69.2050   47.8299   54.2909 C   0  0  0  0  0  0  0  0  0  0  0  0
   69.9870   48.9139   53.9570 C   0  0  0  0  0  0  0  0  0  0  0  0
   70.2617   49.2488   52.6434 C   0  0  0  0  0  0  0  0  0  0  0  0
   69.7122   48.4426   51.6643 C   0  0  0  0  0  0  0  0  0  0  0  0
   68.9261   47.3514   51.9951 C   0  0  0  0  0  0  0  0  0  0  0  0
   68.6595   47.0282   53.3096 C   0  0  0  0  0  0  0  0  0  0  0  0
   67.8601   45.9325   53.9681 C   0  0  0  0  0  0  0  0  0  0  0  0
   70.4246   36.9491   60.8228 O   0  0  0  0  0  0  0  0  0  0  0  0
   70.7359   36.7989   59.5896 C   0  0  0  0  0  0  0  0  0  0  0  0
   70.3734   37.8877   58.7499 N   0  0  0  0  0  0  0  0  0  0  0  0
   69.7172   39.0486   59.2285 C   0  0  0  0  0  0  0  0  0  0  0  0
   69.4594   39.0818   60.4623 O   0  0  0  0  0  0  0  0  0  0  0  0
   71.4036   35.6057   59.1247 C   0  0  0  0  0  0  0  0  0  0  0  0
   71.2568   34.4008   59.7516 C   0  0  0  0  0  0  0  0  0  0  0  0
   71.9108   33.2491   59.2902 C   0  0  0  0  0  0  0  0  0  0  0  0
   72.7182   33.3474   58.1768 C   0  0  0  0  0  0  0  0  0  0  0  0
   72.8753   34.5428   57.5392 C   0  0  0  0  0  0  0  0  0  0  0  0
   72.2139   35.6734   58.0174 C   0  0  0  0  0  0  0  0  0  0  0  0
 19 20  2  0
 20 21  1  0
 20 24  1  0
 21 22  1  0
 22 23  2  0
 22  1  1  0
  1  2  2  0
  1  6  1  0
  2  3  1  0
  3  4  2  0
  4  7  1  0
  4  5  1  0
  7  8  1  0
  8  9  2  0
  8 10  1  0
 10 11  1  0
 10 18  1  0
 11 12  1  0
 12 13  1  0
 12 17  2  0
 13 14  2  0
 14 15  1  0
 15 16  2  0
 16 17  1  0
 17 18  1  0
  5  6  2  0
 24 25  2  0
 24 29  1  0
 25 26  1  0
 26 27  2  0
 27 28  1  0
 28 29  2  0
M  END
>  <minimizedAffinity>  (755) 
-8.77601

$$$$
cs_full_output_folder/data/smiles/4176.pdb
     RDKit          3D

 29 32  0  0  0  0  0  0  0  0999 V2000
   71.3752   47.1482   58.5714 C   0  0  0  0  0  0  0  0  0  0  0  0
   72.3419   46.7746   59.4620 C   0  0  0  0  0  0  0  0  0  0  0  0
   73.4128   47.6185   59.7037 C   0  0  0  0  0  0  0  0  0  0  0  0
   73.4845   48.8152   59.0442 C   0  0  0  0  0  0  0  0  0  0  0  0
   72.5132   49.2402   58.1205 C   0  0  0  0  0  0  0  0  0  0  0  0
   71.4829   48.3794   57.9175 C   0  0  0  0  0  0  0  0  0  0  0  0
   70.2111   46.2654   58.2504 C   0  0  0  0  0  0  0  0  0  0  0  0
   67.9092   47.2856   56.9492 O   0  0  0  0  0  0  0  0  0  0  0  0
   68.8165   46.7739   56.2213 C   0  0  0  0  0  0  0  0  0  0  0  0
   69.9732   46.2631   56.8353 N   0  0  0  0  0  0  0  0  0  0  0  0
   68.6272   46.7336   54.7795 C   0  0  0  0  0  0  0  0  0  0  0  0
   69.1259   47.6532   53.8914 C   0  0  0  0  0  0  0  0  0  0  0  0
   68.9083   47.5653   52.5172 C   0  0  0  0  0  0  0  0  0  0  0  0
   68.1657   46.5232   52.0121 C   0  0  0  0  0  0  0  0  0  0  0  0
   67.9429   46.4187   50.6897 F   0  0  0  0  0  0  0  0  0  0  0  0
   67.6518   45.5849   52.8727 C   0  0  0  0  0  0  0  0  0  0  0  0
   67.8747   45.6819   54.2362 C   0  0  0  0  0  0  0  0  0  0  0  0
   72.6884   50.5742   57.4457 C   0  0  0  0  0  0  0  0  0  0  0  0
   71.9533   50.6983   56.2017 C   0  0  0  0  0  0  0  0  0  0  0  0
   72.4802   50.0843   55.0885 N   0  0  0  0  0  0  0  0  0  0  0  0
   71.8716   50.0741   53.9250 N   0  0  0  0  0  0  0  0  0  0  0  0
   70.6700   50.6808   53.7624 C   0  0  0  0  0  0  0  0  0  0  0  0
   70.0498   50.6950   52.6639 O   0  0  0  0  0  0  0  0  0  0  0  0
   70.1248   51.2989   54.8463 C   0  0  0  0  0  0  0  0  0  0  0  0
   70.7690   51.3156   56.0919 C   0  0  0  0  0  0  0  0  0  0  0  0
   70.1139   52.0498   57.1363 C   0  0  0  0  0  0  0  0  0  0  0  0
   68.6902   51.4940   57.3096 C   0  0  0  0  0  0  0  0  0  0  0  0
   68.0006   51.3629   55.9888 C   0  0  0  0  0  0  0  0  0  0  0  0
   68.7997   51.9966   54.8431 C   0  0  0  0  0  0  0  0  0  0  0  0
  8  9  2  0
  9 10  1  0
  9 11  1  0
 10  7  1  0
  7  1  1  0
  1  2  2  0
  1  6  1  0
  2  3  1  0
  3  4  2  0
  4  5  1  0
  5 18  1  0
  5  6  2  0
 18 19  1  0
 19 20  2  0
 19 25  1  0
 20 21  1  0
 21 22  1  0
 22 23  2  0
 22 24  1  0
 24 25  2  0
 24 29  1  0
 25 26  1  0
 26 27  1  0
 27 28  1  0
 28 29  1  0
 11 12  2  0
 11 17  1  0
 12 13  1  0
 13 14  2  0
 14 15  1  0
 14 16  1  0
 16 17  2  0
M  END
>  <minimizedAffinity>  (756) 
-8.77590

$$$$
cs_full_output_folder/data/smiles/4200.pdb
     RDKit          3D

 29 32  0  0  0  0  0  0  0  0999 V2000
   68.1103   51.0468   57.0170 C   0  0  0  0  0  0  0  0  0  0  0  0
   68.9352   50.0575   56.5370 C   0  0  0  0  0  0  0  0  0  0  0  0
   68.6155   48.7012   56.6472 C   0  0  0  0  0  0  0  0  0  0  0  0
   67.4501   48.3924   57.2513 C   0  0  0  0  0  0  0  0  0  0  0  0
   66.5814   49.3751   57.7548 C   0  0  0  0  0  0  0  0  0  0  0  0
   66.9300   50.6962   57.6278 C   0  0  0  0  0  0  0  0  0  0  0  0
   66.0969   51.6620   58.1124 F   0  0  0  0  0  0  0  0  0  0  0  0
   68.4471   52.4929   56.8770 C   0  0  0  0  0  0  0  0  0  0  0  0
   73.4404   51.0534   54.8359 C   0  0  0  0  0  0  0  0  0  0  0  0
   73.1138   52.3239   55.5977 C   0  0  2  0  0  0  0  0  0  0  0  0
   74.2073   53.1619   55.4737 F   0  0  0  0  0  0  0  0  0  0  0  0
   72.8500   52.0984   57.0456 C   0  0  0  0  0  0  0  0  0  0  0  0
   71.5375   52.7907   57.2991 C   0  0  0  0  0  0  0  0  0  0  0  0
   70.8527   52.7965   56.0475 N   0  0  0  0  0  0  0  0  0  0  0  0
   69.4583   52.6711   55.7759 C   0  0  0  0  0  0  0  0  0  0  0  0
   69.0180   52.7035   54.6013 O   0  0  0  0  0  0  0  0  0  0  0  0
   71.8536   52.9511   55.0079 C   0  0  0  0  0  0  0  0  0  0  0  0
   69.5698   47.7521   56.0866 C   0  0  0  0  0  0  0  0  0  0  0  0
   69.7685   47.9824   54.6656 C   0  0  0  0  0  0  0  0  0  0  0  0
   70.7186   48.8681   54.2660 N   0  0  0  0  0  0  0  0  0  0  0  0
   70.9915   49.0605   52.9851 N   0  0  0  0  0  0  0  0  0  0  0  0
   70.3516   48.4000   52.0094 C   0  0  0  0  0  0  0  0  0  0  0  0
   70.5984   48.5683   50.7845 O   0  0  0  0  0  0  0  0  0  0  0  0
   69.3655   47.4785   52.3389 C   0  0  0  0  0  0  0  0  0  0  0  0
   68.6830   46.8100   51.3546 C   0  0  0  0  0  0  0  0  0  0  0  0
   67.6808   45.9124   51.6902 C   0  0  0  0  0  0  0  0  0  0  0  0
   67.3843   45.7050   53.0211 C   0  0  0  0  0  0  0  0  0  0  0  0
   68.0940   46.3971   53.9779 C   0  0  0  0  0  0  0  0  0  0  0  0
   69.0999   47.2974   53.6887 C   0  0  0  0  0  0  0  0  0  0  0  0
 10  9  1  6
 10 11  1  0
 10 12  1  0
 10 17  1  0
 12 13  1  0
 13 14  1  0
 14 15  1  0
 14 17  1  0
 15 16  2  0
 15  8  1  0
  8  1  1  0
  1  2  2  0
  1  6  1  0
  2  3  1  0
  3 18  1  0
  3  4  2  0
 18 19  1  0
 19 20  2  0
 19 29  1  0
 20 21  1  0
 21 22  1  0
 22 23  2  0
 22 24  1  0
 24 25  1  0
 24 29  2  0
 25 26  2  0
 26 27  1  0
 27 28  2  0
 28 29  1  0
  4  5  1  0
  5  6  2  0
  6  7  1  0
M  END
>  <minimizedAffinity>  (757) 
-8.77570

$$$$
cs_full_output_folder/data/smiles/4515.pdb
     RDKit          3D

 25 27  0  0  0  0  0  0  0  0999 V2000
   70.0836   42.3207   58.3571 C   0  0  0  0  0  0  0  0  0  0  0  0
   68.9492   41.9834   57.4630 C   0  0  0  0  0  0  0  0  0  0  0  0
   68.3737   42.8509   56.5564 C   0  0  0  0  0  0  0  0  0  0  0  0
   67.3673   42.0944   55.9635 C   0  0  0  0  0  0  0  0  0  0  0  0
   67.3939   40.8756   56.5199 N   0  0  0  0  0  0  0  0  0  0  0  0
   68.3450   40.7814   57.4336 N   0  0  0  0  0  0  0  0  0  0  0  0
   68.6918   39.6373   58.2491 C   0  0  0  0  0  0  0  0  0  0  0  0
   67.8027   39.0694   59.1251 C   0  0  0  0  0  0  0  0  0  0  0  0
   68.1872   37.9668   59.8844 C   0  0  0  0  0  0  0  0  0  0  0  0
   69.4536   37.4231   59.7779 C   0  0  0  0  0  0  0  0  0  0  0  0
   69.9688   36.0358   60.7143 Cl  0  0  0  0  0  0  0  0  0  0  0  0
   70.3521   37.9894   58.8992 C   0  0  0  0  0  0  0  0  0  0  0  0
   69.9503   39.0787   58.1591 C   0  0  0  0  0  0  0  0  0  0  0  0
   68.7554   44.2395   56.2962 C   0  0  0  0  0  0  0  0  0  0  0  0
   69.6087   44.7479   57.0474 O   0  0  0  0  0  0  0  0  0  0  0  0
   68.2164   45.0154   55.2585 N   0  0  0  0  0  0  0  0  0  0  0  0
   68.5126   46.3523   54.9255 C   0  0  0  0  0  0  0  0  0  0  0  0
   68.4064   47.4344   55.7418 C   0  0  0  0  0  0  0  0  0  0  0  0
   68.7211   48.7439   55.3402 C   0  0  0  0  0  0  0  0  0  0  0  0
   69.1602   48.9522   54.0524 C   0  0  0  0  0  0  0  0  0  0  0  0
   69.2852   47.8742   53.1782 C   0  0  0  0  0  0  0  0  0  0  0  0
   68.9636   46.6248   53.6292 C   0  0  0  0  0  0  0  0  0  0  0  0
   69.7516   48.1286   51.8244 C   0  0  0  0  0  0  0  0  0  0  0  0
   69.8415   49.4682   51.3868 N   0  0  0  0  0  0  0  0  0  0  0  0
   70.0765   47.2191   51.0291 O   0  0  0  0  0  0  0  0  0  0  0  0
  1  2  1  0
  2  3  2  0
  2  6  1  0
  3 14  1  0
  3  4  1  0
 14 15  2  0
 14 16  1  0
 16 17  1  0
 17 18  2  0
 17 22  1  0
 18 19  1  0
 19 20  2  0
 20 21  1  0
 21 23  1  0
 21 22  2  0
 23 24  1  0
 23 25  2  0
  4  5  2  0
  5  6  1  0
  6  7  1  0
  7  8  2  0
  7 13  1  0
  8  9  1  0
  9 10  2  0
 10 11  1  0
 10 12  1  0
 12 13  2  0
M  END
>  <minimizedAffinity>  (758) 
-8.77522

$$$$
cs_full_output_folder/data/smiles/2082.pdb
     RDKit          3D

 28 31  0  0  0  0  0  0  0  0999 V2000
   71.8426   47.0103   59.2653 C   0  0  0  0  0  0  0  0  0  0  0  0
   70.8901   47.7327   58.5525 C   0  0  0  0  0  0  0  0  0  0  0  0
   70.0828   47.1703   57.6231 C   0  0  0  0  0  0  0  0  0  0  0  0
   70.2463   45.7875   57.3956 C   0  0  0  0  0  0  0  0  0  0  0  0
   71.1854   45.0697   58.0957 C   0  0  0  0  0  0  0  0  0  0  0  0
   71.9975   45.6594   59.0377 C   0  0  0  0  0  0  0  0  0  0  0  0
   72.9231   44.9160   59.7174 F   0  0  0  0  0  0  0  0  0  0  0  0
   73.9360   48.5169   57.5463 C   0  0  0  0  0  0  0  0  0  0  0  0
   74.4909   48.9157   58.8560 C   0  0  1  0  0  0  0  0  0  0  0  0
   74.5834   50.3546   59.0350 N   0  0  1  0  0  0  0  0  0  0  0  0
   73.4723   51.0664   58.4821 C   0  0  0  0  0  0  0  0  0  0  0  0
   74.6921   50.5516   60.4889 C   0  0  0  0  0  0  0  0  0  0  0  0
   74.5667   49.1704   61.1019 C   0  0  0  0  0  0  0  0  0  0  0  0
   73.7785   48.4966   60.0299 N   0  0  0  0  0  0  0  0  0  0  0  0
   72.6505   47.6919   60.2493 C   0  0  0  0  0  0  0  0  0  0  0  0
   72.2663   47.5223   61.4637 O   0  0  0  0  0  0  0  0  0  0  0  0
   69.0352   47.7994   56.8124 C   0  0  0  0  0  0  0  0  0  0  0  0
   69.4304   48.1230   55.4205 C   0  0  0  0  0  0  0  0  0  0  0  0
   70.3434   49.1078   55.1789 N   0  0  0  0  0  0  0  0  0  0  0  0
   70.7832   49.4345   53.9887 N   0  0  0  0  0  0  0  0  0  0  0  0
   70.3237   48.7735   52.9203 C   0  0  0  0  0  0  0  0  0  0  0  0
   70.7034   49.0347   51.7574 O   0  0  0  0  0  0  0  0  0  0  0  0
   69.3882   47.7504   53.0579 C   0  0  0  0  0  0  0  0  0  0  0  0
   68.9255   47.0955   51.9181 C   0  0  0  0  0  0  0  0  0  0  0  0
   67.9945   46.1035   52.1023 C   0  0  0  0  0  0  0  0  0  0  0  0
   67.5467   45.7816   53.3642 C   0  0  0  0  0  0  0  0  0  0  0  0
   68.0131   46.4382   54.4790 C   0  0  0  0  0  0  0  0  0  0  0  0
   68.9499   47.4383   54.3282 C   0  0  0  0  0  0  0  0  0  0  0  0
  9  8  1  6
  9 10  1  0
  9 14  1  0
 10 11  1  1
 10 12  1  0
 12 13  1  0
 13 14  1  0
 14 15  1  0
 15 16  2  0
 15  1  1  0
  1  2  2  0
  1  6  1  0
  2  3  1  0
  3 17  1  0
  3  4  2  0
 17 18  1  0
 18 19  2  0
 18 28  1  0
 19 20  1  0
 20 21  1  0
 21 22  2  0
 21 23  1  0
 23 24  1  0
 23 28  2  0
 24 25  2  0
 25 26  1  0
 26 27  2  0
 27 28  1  0
  4  5  1  0
  5  6  2  0
  6  7  1  0
M  CHG  1  10   1
M  END
>  <minimizedAffinity>  (759) 
-8.77175

$$$$
cs_full_output_folder/data/smiles/498.pdb
     RDKit          3D

 26 27  0  0  0  0  0  0  0  0999 V2000
   69.6384   42.5318   58.1411 C   0  0  0  0  0  0  0  0  0  0  0  0
   68.3804   42.7200   58.0872 O   0  0  0  0  0  0  0  0  0  0  0  0
   70.4572   43.6824   58.0631 N   0  0  0  0  0  0  0  0  0  0  0  0
   71.4549   38.6599   58.5578 C   0  0  0  0  0  0  0  0  0  0  0  0
   70.0968   38.7784   58.3642 C   0  0  0  0  0  0  0  0  0  0  0  0
   69.4931   40.0232   58.2270 C   0  0  0  0  0  0  0  0  0  0  0  0
   70.2011   41.1976   58.2758 C   0  0  0  0  0  0  0  0  0  0  0  0
   71.5787   41.0568   58.4734 C   0  0  0  0  0  0  0  0  0  0  0  0
   72.1869   39.8257   58.6101 C   0  0  0  0  0  0  0  0  0  0  0  0
   73.3594   37.4592   59.4805 C   0  0  0  0  0  0  0  0  0  0  0  0
   72.0512   37.3161   58.6972 C   0  0  0  0  0  0  0  0  0  0  0  0
   71.1747   36.3829   59.5041 C   0  0  0  0  0  0  0  0  0  0  0  0
   72.3762   36.6725   57.3979 C   0  0  0  0  0  0  0  0  0  0  0  0
   69.8681   45.0282   57.9268 C   0  0  0  0  0  0  0  0  0  0  0  0
   69.7890   45.2919   56.5023 N   0  0  0  0  0  0  0  0  0  0  0  0
   68.9011   46.2709   55.9572 C   0  0  0  0  0  0  0  0  0  0  0  0
   68.1940   46.8895   56.7923 O   0  0  0  0  0  0  0  0  0  0  0  0
   68.7917   46.5643   54.5353 C   0  0  0  0  0  0  0  0  0  0  0  0
   68.0305   45.7294   53.7471 C   0  0  0  0  0  0  0  0  0  0  0  0
   67.8612   45.9153   52.3960 C   0  0  0  0  0  0  0  0  0  0  0  0
   68.4795   46.9845   51.8007 C   0  0  0  0  0  0  0  0  0  0  0  0
   69.2491   47.8471   52.5422 C   0  0  0  0  0  0  0  0  0  0  0  0
   69.3994   47.6290   53.9135 C   0  0  0  0  0  0  0  0  0  0  0  0
   69.9028   48.9646   51.9556 N   0  0  0  0  0  0  0  0  0  0  0  0
   70.5373   48.7786   50.8996 O   0  0  0  0  0  0  0  0  0  0  0  0
   69.8395   50.2021   52.5278 O   0  0  0  0  0  0  0  0  0  0  0  0
 10 11  1  0
 11 12  1  0
 11 13  1  0
 11  4  1  0
  4  5  2  0
  4  9  1  0
  5  6  1  0
  6  7  2  0
  7  1  1  0
  7  8  1  0
  1  2  2  0
  1  3  1  0
  3 14  1  0
 14 15  1  0
 15 16  1  0
 16 17  2  0
 16 18  1  0
 18 19  2  0
 18 23  1  0
 19 20  1  0
 20 21  2  0
 21 22  1  0
 22 24  1  0
 22 23  2  0
 24 25  2  0
 24 26  1  0
  8  9  2  0
M  CHG  2  24   1  26  -1
M  END
>  <minimizedAffinity>  (760) 
-8.77076

$$$$
cs_full_output_folder/data/smiles/6963.pdb
     RDKit          3D

 30 34  0  0  0  0  0  0  0  0999 V2000
   71.9406   50.1169   56.4478 C   0  0  0  0  0  0  0  0  0  0  0  0
   72.2517   51.3333   56.9842 C   0  0  0  0  0  0  0  0  0  0  0  0
   72.7111   51.4466   58.2858 C   0  0  0  0  0  0  0  0  0  0  0  0
   72.8702   50.3438   59.0853 C   0  0  0  0  0  0  0  0  0  0  0  0
   72.5555   49.0885   58.5481 C   0  0  0  0  0  0  0  0  0  0  0  0
   72.1081   48.9984   57.2754 C   0  0  0  0  0  0  0  0  0  0  0  0
   72.2852   50.1662   54.1568 O   0  0  0  0  0  0  0  0  0  0  0  0
   71.4552   49.9386   55.0858 C   0  0  0  0  0  0  0  0  0  0  0  0
   70.1292   49.5339   54.7683 N   0  0  0  0  0  0  0  0  0  0  0  0
   69.1530   49.2637   55.7970 C   0  0  0  0  0  0  0  0  0  0  0  0
   68.8530   47.7889   55.8171 C   0  0  0  0  0  0  0  0  0  0  0  0
   68.6745   47.3151   54.4295 C   0  0  0  0  0  0  0  0  0  0  0  0
   68.0876   46.0587   54.2384 C   0  0  0  0  0  0  0  0  0  0  0  0
   67.8924   45.5541   52.9738 C   0  0  0  0  0  0  0  0  0  0  0  0
   68.2613   46.2577   51.8461 C   0  0  0  0  0  0  0  0  0  0  0  0
   68.8451   47.5071   52.0279 C   0  0  0  0  0  0  0  0  0  0  0  0
   69.0410   48.0139   53.3027 C   0  0  0  0  0  0  0  0  0  0  0  0
   69.6814   49.3718   53.3965 C   0  0  0  0  0  0  0  0  0  0  0  0
   72.7612   47.8980   59.4252 C   0  0  0  0  0  0  0  0  0  0  0  0
   71.9620   46.7269   59.0368 C   0  0  0  0  0  0  0  0  0  0  0  0
   70.5960   46.8465   59.1277 N   0  0  0  0  0  0  0  0  0  0  0  0
   69.8467   45.8444   58.7577 N   0  0  0  0  0  0  0  0  0  0  0  0
   70.3049   44.6855   58.2864 C   0  0  0  0  0  0  0  0  0  0  0  0
   69.4913   43.7781   57.9542 O   0  0  0  0  0  0  0  0  0  0  0  0
   71.6638   44.4936   58.1668 C   0  0  0  0  0  0  0  0  0  0  0  0
   72.1352   43.2952   57.6909 C   0  0  0  0  0  0  0  0  0  0  0  0
   73.4993   43.1326   57.5962 C   0  0  0  0  0  0  0  0  0  0  0  0
   74.3299   44.1676   57.9788 C   0  0  0  0  0  0  0  0  0  0  0  0
   73.8330   45.3708   58.4579 C   0  0  0  0  0  0  0  0  0  0  0  0
   72.4792   45.5558   58.5597 C   0  0  0  0  0  0  0  0  0  0  0  0
  7  8  2  0
  8  1  1  0
  8  9  1  0
  1  2  2  0
  1  6  1  0
  2  3  1  0
  3  4  2  0
  4  5  1  0
  5 19  1  0
  5  6  2  0
 19 20  1  0
 20 21  2  0
 20 30  1  0
 21 22  1  0
 22 23  1  0
 23 24  2  0
 23 25  1  0
 25 26  1  0
 25 30  2  0
 26 27  2  0
 27 28  1  0
 28 29  2  0
 29 30  1  0
  9 10  1  0
  9 18  1  0
 10 11  1  0
 11 12  1  0
 12 13  2  0
 12 17  1  0
 13 14  1  0
 14 15  2  0
 15 16  1  0
 16 17  2  0
 17 18  1  0
M  END
>  <minimizedAffinity>  (761) 
-8.76806

$$$$
cs_full_output_folder/data/smiles/1469.pdb
     RDKit          3D

 26 29  0  0  0  0  0  0  0  0999 V2000
   71.6836   47.1440   59.0148 C   0  0  0  0  0  0  0  0  0  0  0  0
   71.7265   45.7783   58.9081 C   0  0  0  0  0  0  0  0  0  0  0  0
   70.8829   45.0591   58.0778 C   0  0  0  0  0  0  0  0  0  0  0  0
   69.9500   45.7488   57.3188 C   0  0  0  0  0  0  0  0  0  0  0  0
   69.8764   47.1180   57.3973 C   0  0  0  0  0  0  0  0  0  0  0  0
   70.7329   47.7843   58.2323 C   0  0  0  0  0  0  0  0  0  0  0  0
   72.2938   47.9345   61.1311 O   0  0  0  0  0  0  0  0  0  0  0  0
   72.5458   47.9122   59.9033 C   0  0  0  0  0  0  0  0  0  0  0  0
   73.6807   48.6533   59.4509 N   0  0  0  0  0  0  0  0  0  0  0  0
   74.5070   49.4077   60.4047 C   0  0  0  0  0  0  0  0  0  0  0  0
   74.7747   50.8049   59.8680 C   0  0  0  0  0  0  0  0  0  0  0  0
   75.1203   50.7837   58.5298 O   0  0  0  0  0  0  0  0  0  0  0  0
   74.1670   50.1915   57.7061 C   0  0  0  0  0  0  0  0  0  0  0  0
   74.0924   48.7230   58.0632 C   0  0  0  0  0  0  0  0  0  0  0  0
   68.8594   47.8872   56.6147 C   0  0  0  0  0  0  0  0  0  0  0  0
   69.3255   48.1213   55.2533 C   0  0  0  0  0  0  0  0  0  0  0  0
   70.2722   49.0578   55.0466 N   0  0  0  0  0  0  0  0  0  0  0  0
   70.7634   49.3425   53.8628 N   0  0  0  0  0  0  0  0  0  0  0  0
   70.3123   48.6791   52.7942 C   0  0  0  0  0  0  0  0  0  0  0  0
   70.7992   48.9678   51.6625 O   0  0  0  0  0  0  0  0  0  0  0  0
   69.3486   47.7036   52.8895 C   0  0  0  0  0  0  0  0  0  0  0  0
   68.8569   47.4353   54.1692 C   0  0  0  0  0  0  0  0  0  0  0  0
   67.8049   46.4162   54.3797 C   0  0  0  0  0  0  0  0  0  0  0  0
   67.8892   45.4235   53.2349 C   0  0  0  0  0  0  0  0  0  0  0  0
   67.7153   46.1843   51.9442 C   0  0  0  0  0  0  0  0  0  0  0  0
   68.9345   47.0300   51.6518 C   0  0  0  0  0  0  0  0  0  0  0  0
  7  8  2  0
  8  1  1  0
  8  9  1  0
  1  2  2  0
  1  6  1  0
  2  3  1  0
  3  4  2  0
  4  5  1  0
  5 15  1  0
  5  6  2  0
 15 16  1  0
 16 17  2  0
 16 22  1  0
 17 18  1  0
 18 19  1  0
 19 20  2  0
 19 21  1  0
 21 22  2  0
 21 26  1  0
 22 23  1  0
 23 24  1  0
 24 25  1  0
 25 26  1  0
  9 10  1  0
  9 14  1  0
 10 11  1  0
 11 12  1  0
 12 13  1  0
 13 14  1  0
M  END
>  <minimizedAffinity>  (762) 
-8.76660

$$$$
cs_full_output_folder/data/smiles/1282.pdb
     RDKit          3D

 25 27  0  0  0  0  0  0  0  0999 V2000
   69.0875   45.6503   56.5995 N   0  0  0  0  0  0  0  0  0  0  0  0
   70.1132   45.7388   57.5644 C   0  0  0  0  0  0  0  0  0  0  0  0
   70.4241   46.8415   58.0466 O   0  0  0  0  0  0  0  0  0  0  0  0
   70.8043   44.4960   57.9852 C   0  0  0  0  0  0  0  0  0  0  0  0
   72.0453   44.3982   58.5762 C   0  0  0  0  0  0  0  0  0  0  0  0
   72.2757   43.1090   58.7834 N   0  0  0  0  0  0  0  0  0  0  0  0
   71.2819   42.3548   58.3742 N   0  0  0  0  0  0  0  0  0  0  0  0
   70.3533   43.1991   57.8726 C   0  0  0  0  0  0  0  0  0  0  0  0
   71.2644   40.9360   58.4753 C   0  0  0  0  0  0  0  0  0  0  0  0
   70.1140   40.1912   58.3148 C   0  0  0  0  0  0  0  0  0  0  0  0
   70.1289   38.8053   58.4183 C   0  0  0  0  0  0  0  0  0  0  0  0
   71.2924   38.1150   58.6852 C   0  0  0  0  0  0  0  0  0  0  0  0
   71.3051   36.3578   58.8145 Cl  0  0  0  0  0  0  0  0  0  0  0  0
   72.4424   38.8581   58.8453 C   0  0  0  0  0  0  0  0  0  0  0  0
   72.4248   40.2342   58.7425 C   0  0  0  0  0  0  0  0  0  0  0  0
   68.3296   46.7490   56.0874 C   0  0  0  0  0  0  0  0  0  0  0  0
   69.4064   47.8363   52.6695 C   0  0  0  0  0  0  0  0  0  0  0  0
   68.7291   46.9265   51.8905 C   0  0  0  0  0  0  0  0  0  0  0  0
   67.9438   45.9781   52.4795 C   0  0  0  0  0  0  0  0  0  0  0  0
   67.8099   45.9088   53.8407 C   0  0  0  0  0  0  0  0  0  0  0  0
   68.4870   46.8186   54.6183 C   0  0  0  0  0  0  0  0  0  0  0  0
   69.2850   47.7837   54.0612 C   0  0  0  0  0  0  0  0  0  0  0  0
   69.8001   49.6512   51.0089 N   0  0  0  0  0  0  0  0  0  0  0  0
   70.2556   48.8636   52.0768 C   0  0  0  0  0  0  0  0  0  0  0  0
   71.4173   49.0323   52.5461 O   0  0  0  0  0  0  0  0  0  0  0  0
 23 24  1  0
 24 25  2  0
 24 17  1  0
 17 18  2  0
 17 22  1  0
 18 19  1  0
 19 20  2  0
 20 21  1  0
 21 16  1  0
 21 22  2  0
 16  1  1  0
  1  2  1  0
  2  3  2  0
  2  4  1  0
  4  5  1  0
  4  8  2  0
  5  6  2  0
  6  7  1  0
  7  9  1  0
  7  8  1  0
  9 10  2  0
  9 15  1  0
 10 11  1  0
 11 12  2  0
 12 13  1  0
 12 14  1  0
 14 15  2  0
M  END
>  <minimizedAffinity>  (763) 
-8.76472

$$$$
cs_full_output_folder/data/smiles/6093.pdb
     RDKit          3D

 29 32  0  0  0  0  0  0  0  0999 V2000
   69.2969   47.5025   54.9293 C   0  0  0  0  0  0  0  0  0  0  0  0
   70.0439   48.6368   54.7990 N   0  0  0  0  0  0  0  0  0  0  0  0
   70.2464   49.2065   53.6187 N   0  0  0  0  0  0  0  0  0  0  0  0
   69.7439   48.7196   52.5046 C   0  0  0  0  0  0  0  0  0  0  0  0
   69.9417   49.2669   51.3921 O   0  0  0  0  0  0  0  0  0  0  0  0
   68.9732   47.5721   52.5413 C   0  0  0  0  0  0  0  0  0  0  0  0
   68.4396   47.0499   51.3838 C   0  0  0  0  0  0  0  0  0  0  0  0
   67.6774   45.9158   51.4181 C   0  0  0  0  0  0  0  0  0  0  0  0
   67.4746   45.3343   52.6438 C   0  0  0  0  0  0  0  0  0  0  0  0
   68.0076   45.8523   53.8171 C   0  0  0  0  0  0  0  0  0  0  0  0
   68.7668   46.9794   53.7936 C   0  0  0  0  0  0  0  0  0  0  0  0
   70.1904   46.1660   56.8357 N   0  0  0  0  0  0  0  0  0  0  0  0
   69.1117   46.9259   56.2495 C   0  0  0  0  0  0  0  0  0  0  0  0
   68.1250   46.9870   56.9857 O   0  0  0  0  0  0  0  0  0  0  0  0
   70.0598   45.5732   58.1239 C   0  0  0  0  0  0  0  0  0  0  0  0
   74.0730   42.6507   57.8896 C   0  0  0  0  0  0  0  0  0  0  0  0
   72.6057   42.8153   57.9818 C   0  0  0  0  0  0  0  0  0  0  0  0
   71.8207   41.6885   58.0289 C   0  0  0  0  0  0  0  0  0  0  0  0
   70.4646   41.8174   58.1141 C   0  0  0  0  0  0  0  0  0  0  0  0
   69.8677   43.0834   58.1537 C   0  0  0  0  0  0  0  0  0  0  0  0
   70.6343   44.2128   58.1068 C   0  0  0  0  0  0  0  0  0  0  0  0
   72.0128   44.0555   58.0213 C   0  0  0  0  0  0  0  0  0  0  0  0
   71.0640   50.4245   53.6199 C   0  0  0  0  0  0  0  0  0  0  0  0
   70.4183   51.3723   54.5580 C   0  0  0  0  0  0  0  0  0  0  0  0
   69.0971   51.7598   54.3909 C   0  0  0  0  0  0  0  0  0  0  0  0
   68.4982   52.6382   55.2677 C   0  0  0  0  0  0  0  0  0  0  0  0
   69.1750   53.1710   56.3437 C   0  0  0  0  0  0  0  0  0  0  0  0
   70.4883   52.7911   56.5175 C   0  0  0  0  0  0  0  0  0  0  0  0
   71.1003   51.8984   55.6288 C   0  0  0  0  0  0  0  0  0  0  0  0
 16 17  1  0
 17 18  2  0
 17 22  1  0
 18 19  1  0
 19 20  2  0
 20 21  1  0
 21 15  1  0
 21 22  2  0
 15 12  1  0
 12 13  1  0
 13 14  2  0
 13  1  1  0
  1  2  2  0
  1 11  1  0
  2  3  1  0
  3 23  1  0
  3  4  1  0
 23 24  1  0
 24 25  2  0
 24 29  1  0
 25 26  1  0
 26 27  2  0
 27 28  1  0
 28 29  2  0
  4  5  2  0
  4  6  1  0
  6  7  1  0
  6 11  2  0
  7  8  2  0
  8  9  1  0
  9 10  2  0
 10 11  1  0
M  END
>  <minimizedAffinity>  (764) 
-8.76405

$$$$
cs_full_output_folder/data/smiles/1641.pdb
     RDKit          3D

 25 27  0  0  0  0  0  0  0  0999 V2000
   69.5108   45.3816   56.5369 N   0  0  0  0  0  0  0  0  0  0  0  0
   70.0770   45.0992   57.7968 C   0  0  0  0  0  0  0  0  0  0  0  0
   69.8873   45.9175   58.7313 O   0  0  0  0  0  0  0  0  0  0  0  0
   70.8732   43.8789   58.0288 C   0  0  0  0  0  0  0  0  0  0  0  0
   72.2365   43.8355   58.1774 C   0  0  0  0  0  0  0  0  0  0  0  0
   72.5677   42.5319   58.3656 N   0  0  0  0  0  0  0  0  0  0  0  0
   71.5024   41.7582   58.3444 N   0  0  0  0  0  0  0  0  0  0  0  0
   70.4478   42.5776   58.1370 C   0  0  0  0  0  0  0  0  0  0  0  0
   71.4986   40.3420   58.5068 C   0  0  0  0  0  0  0  0  0  0  0  0
   72.6688   39.6604   58.7815 C   0  0  0  0  0  0  0  0  0  0  0  0
   72.7104   38.2974   58.9488 C   0  0  0  0  0  0  0  0  0  0  0  0
   71.5432   37.5923   58.8378 C   0  0  0  0  0  0  0  0  0  0  0  0
   71.5253   35.8004   59.0468 S   0  0  0  0  0  0  0  0  0  0  0  0
   70.3354   38.2227   58.5628 C   0  0  0  0  0  0  0  0  0  0  0  0
   70.3422   39.6018   58.4010 C   0  0  0  0  0  0  0  0  0  0  0  0
   68.7233   46.5388   56.1947 C   0  0  0  0  0  0  0  0  0  0  0  0
   69.3167   47.7552   52.6663 C   0  0  0  0  0  0  0  0  0  0  0  0
   68.5636   46.8432   51.9550 C   0  0  0  0  0  0  0  0  0  0  0  0
   67.8802   45.8533   52.6150 C   0  0  0  0  0  0  0  0  0  0  0  0
   67.9477   45.7720   53.9878 C   0  0  0  0  0  0  0  0  0  0  0  0
   68.6925   46.6693   54.7256 C   0  0  0  0  0  0  0  0  0  0  0  0
   69.3728   47.6566   54.0572 C   0  0  0  0  0  0  0  0  0  0  0  0
   70.0967   50.1126   52.4621 N   0  0  0  0  0  0  0  0  0  0  0  0
   70.0385   48.7933   51.9542 C   0  0  0  0  0  0  0  0  0  0  0  0
   70.6242   48.5430   50.8747 O   0  0  0  0  0  0  0  0  0  0  0  0
 23 24  1  0
 24 25  2  0
 24 17  1  0
 17 18  2  0
 17 22  1  0
 18 19  1  0
 19 20  2  0
 20 21  1  0
 21 16  1  0
 21 22  2  0
 16  1  1  0
  1  2  1  0
  2  3  2  0
  2  4  1  0
  4  5  1  0
  4  8  2  0
  5  6  2  0
  6  7  1  0
  7  9  1  0
  7  8  1  0
  9 10  2  0
  9 15  1  0
 10 11  1  0
 11 12  2  0
 12 13  1  0
 12 14  1  0
 14 15  2  0
M  END
>  <minimizedAffinity>  (765) 
-8.76151

$$$$
cs_full_output_folder/data/smiles/1766.pdb
     RDKit          3D

 26 28  0  0  0  0  0  0  0  0999 V2000
   70.8931   44.1274   58.1310 C   0  0  0  0  0  0  0  0  0  0  0  0
   69.8658   43.3396   57.7323 C   0  0  0  0  0  0  0  0  0  0  0  0
   69.9943   41.9398   57.7153 C   0  0  0  0  0  0  0  0  0  0  0  0
   71.1954   41.3841   58.1218 C   0  0  0  0  0  0  0  0  0  0  0  0
   72.2299   42.1641   58.5185 C   0  0  0  0  0  0  0  0  0  0  0  0
   72.1062   43.5381   58.5324 C   0  0  0  0  0  0  0  0  0  0  0  0
   70.7826   45.8975   58.2213 S   0  0  0  0  0  0  0  0  0  0  0  0
   72.0098   46.4307   57.5375 O   0  0  0  0  0  0  0  0  0  0  0  0
   70.9143   46.2390   59.7072 O   0  0  0  0  0  0  0  0  0  0  0  0
   69.3941   46.5368   57.5265 N   0  0  0  0  0  0  0  0  0  0  0  0
   67.6640   45.1359   53.2152 N   0  0  0  0  0  0  0  0  0  0  0  0
   68.2536   46.1564   54.0150 C   0  0  0  0  0  0  0  0  0  0  0  0
   68.5105   47.3959   53.4765 C   0  0  0  0  0  0  0  0  0  0  0  0
   69.0712   48.3784   54.2977 C   0  0  0  0  0  0  0  0  0  0  0  0
   69.3404   48.0616   55.6043 C   0  0  0  0  0  0  0  0  0  0  0  0
   69.1003   46.8459   56.1606 C   0  0  0  0  0  0  0  0  0  0  0  0
   68.5526   45.8808   55.3644 C   0  0  0  0  0  0  0  0  0  0  0  0
   71.3052   39.9085   58.3045 C   0  0  0  0  0  0  0  0  0  0  0  0
   71.4077   38.6901   58.4381 C   0  0  0  0  0  0  0  0  0  0  0  0
   71.5138   37.3071   58.5686 C   0  0  0  0  0  0  0  0  0  0  0  0
   71.0117   36.4533   59.5009 C   0  0  0  0  0  0  0  0  0  0  0  0
   71.2709   35.0850   59.4831 C   0  0  0  0  0  0  0  0  0  0  0  0
   72.0654   34.5491   58.4942 C   0  0  0  0  0  0  0  0  0  0  0  0
   72.3525   33.2267   58.4483 F   0  0  0  0  0  0  0  0  0  0  0  0
   72.5960   35.3597   57.5204 C   0  0  0  0  0  0  0  0  0  0  0  0
   72.3262   36.6868   57.5631 C   0  0  0  0  0  0  0  0  0  0  0  0
 11 12  1  0
 12 13  2  0
 12 17  1  0
 13 14  1  0
 14 15  2  0
 15 16  1  0
 16 10  1  0
 16 17  2  0
 10  7  1  0
  7  8  2  0
  7  9  2  0
  7  1  1  0
  1  2  2  0
  1  6  1  0
  2  3  1  0
  3  4  2  0
  4 18  1  0
  4  5  1  0
 18 19  3  0
 19 20  1  0
 20 21  2  0
 20 26  1  0
 21 22  1  0
 22 23  2  0
 23 24  1  0
 23 25  1  0
 25 26  2  0
  5  6  2  0
M  END
>  <minimizedAffinity>  (766) 
-8.75908

$$$$
cs_full_output_folder/data/smiles/5085.pdb
     RDKit          3D

 21 23  0  0  0  0  0  0  0  0999 V2000
   67.3749   44.8929   52.4839 O   0  0  0  0  0  0  0  0  0  0  0  0
   67.8332   45.5014   53.4744 C   0  0  0  0  0  0  0  0  0  0  0  0
   67.6477   45.1007   54.7396 N   0  0  0  0  0  0  0  0  0  0  0  0
   68.1541   45.7839   55.7393 N   0  0  0  0  0  0  0  0  0  0  0  0
   68.8803   46.9119   55.5869 C   0  0  0  0  0  0  0  0  0  0  0  0
   69.1113   47.3751   54.3269 C   0  0  0  0  0  0  0  0  0  0  0  0
   69.8627   48.4955   54.1068 C   0  0  0  0  0  0  0  0  0  0  0  0
   70.0982   48.9290   52.8251 C   0  0  0  0  0  0  0  0  0  0  0  0
   69.5752   48.2335   51.7515 C   0  0  0  0  0  0  0  0  0  0  0  0
   68.8193   47.1032   51.9760 C   0  0  0  0  0  0  0  0  0  0  0  0
   68.5705   46.6471   53.2567 C   0  0  0  0  0  0  0  0  0  0  0  0
   69.3009   47.6098   56.7976 C   0  0  0  0  0  0  0  0  0  0  0  0
   68.3942   48.7468   57.1308 C   0  0  0  0  0  0  0  0  0  0  0  0
   67.1381   48.6656   57.6610 C   0  0  0  0  0  0  0  0  0  0  0  0
   66.3630   49.7794   57.9320 C   0  0  0  0  0  0  0  0  0  0  0  0
   66.8307   51.0355   57.6728 C   0  0  0  0  0  0  0  0  0  0  0  0
   68.1077   51.1720   57.1290 C   0  0  0  0  0  0  0  0  0  0  0  0
   68.8467   50.0503   56.8751 C   0  0  0  0  0  0  0  0  0  0  0  0
   68.5183   52.4551   56.8898 O   0  0  0  0  0  0  0  0  0  0  0  0
   69.2044   52.9365   55.7765 C   0  0  0  0  0  0  0  0  0  0  0  0
   71.1681   53.5149   56.3633 I   0  0  0  0  0  0  0  0  0  0  0  0
  1  2  2  0
  2  3  1  0
  2 11  1  0
  3  4  1  0
  4  5  2  0
  5 12  1  0
  5  6  1  0
 12 13  1  0
 13 14  2  0
 13 18  1  0
 14 15  1  0
 15 16  2  0
 16 17  1  0
 17 19  1  0
 17 18  2  0
 19 20  1  0
 20 21  1  0
  6  7  1  0
  6 11  2  0
  7  8  2  0
  8  9  1  0
  9 10  2  0
 10 11  1  0
M  END
>  <minimizedAffinity>  (767) 
-8.75496

$$$$
cs_full_output_folder/data/smiles/2579.pdb
     RDKit          3D

 27 29  0  0  0  0  0  0  0  0999 V2000
   69.9783   48.6093   53.3193 C   0  0  0  0  0  0  0  0  0  0  0  0
   69.9528   48.4105   51.9601 C   0  0  0  0  0  0  0  0  0  0  0  0
   69.2862   47.2970   51.4929 C   0  0  0  0  0  0  0  0  0  0  0  0
   68.6709   46.4214   52.3986 C   0  0  0  0  0  0  0  0  0  0  0  0
   68.7027   46.6251   53.7532 C   0  0  0  0  0  0  0  0  0  0  0  0
   69.3706   47.7409   54.2076 C   0  0  0  0  0  0  0  0  0  0  0  0
   70.7984   50.0077   54.0345 S   0  0  0  0  0  0  0  0  0  0  0  0
   72.2481   49.9608   53.6994 O   0  0  0  0  0  0  0  0  0  0  0  0
   70.1626   51.2236   53.4033 O   0  0  0  0  0  0  0  0  0  0  0  0
   67.2248   51.0305   57.3242 C   0  0  0  0  0  0  0  0  0  0  0  0
   68.6343   51.2669   56.8413 C   0  0  1  0  0  0  0  0  0  0  0  0
   69.5868   51.4349   58.0348 C   0  0  0  0  0  0  0  0  0  0  0  0
   70.8816   51.8705   57.4318 C   0  0  0  0  0  0  0  0  0  0  0  0
   71.3818   51.0221   56.3054 C   0  0  0  0  0  0  0  0  0  0  0  0
   70.5054   50.0934   55.7265 N   0  0  0  0  0  0  0  0  0  0  0  0
   69.1411   50.0809   56.0850 C   0  0  0  0  0  0  0  0  0  0  0  0
   68.1031   45.7480   54.7464 C   0  0  0  0  0  0  0  0  0  0  0  0
   68.3256   45.6327   55.9720 N   0  0  0  0  0  0  0  0  0  0  0  0
   69.2141   46.3155   56.7359 N   0  0  0  0  0  0  0  0  0  0  0  0
   69.9088   45.8042   57.8617 C   0  0  0  0  0  0  0  0  0  0  0  0
   69.7016   44.6190   58.1992 O   0  0  0  0  0  0  0  0  0  0  0  0
   70.8495   46.5992   58.6412 C   0  0  0  0  0  0  0  0  0  0  0  0
   71.2326   47.8686   58.2780 C   0  0  0  0  0  0  0  0  0  0  0  0
   72.1299   48.6278   59.0024 C   0  0  0  0  0  0  0  0  0  0  0  0
   72.6812   48.1014   60.1528 C   0  0  0  0  0  0  0  0  0  0  0  0
   72.2863   46.8167   60.5108 C   0  0  0  0  0  0  0  0  0  0  0  0
   71.4105   46.1167   59.7749 N   0  0  0  0  0  0  0  0  0  0  0  0
 11 10  1  1
 11 12  1  0
 11 16  1  0
 12 13  1  0
 13 14  1  0
 14 15  1  0
 15  7  1  0
 15 16  1  0
  7  8  2  0
  7  9  2  0
  7  1  1  0
  1  2  2  0
  1  6  1  0
  2  3  1  0
  3  4  2  0
  4  5  1  0
  5 17  1  0
  5  6  2  0
 17 18  2  0
 18 19  1  0
 19 20  1  0
 20 21  2  0
 20 22  1  0
 22 23  2  0
 22 27  1  0
 23 24  1  0
 24 25  2  0
 25 26  1  0
 26 27  2  0
M  END
>  <minimizedAffinity>  (768) 
-8.75480

$$$$
cs_full_output_folder/data/smiles/2991.pdb
     RDKit          3D

 26 27  0  0  0  0  0  0  0  0999 V2000
   68.1956   43.1663   56.2704 C   0  0  0  0  0  0  0  0  0  0  0  0
   69.5401   43.4217   57.3364 S   0  0  0  0  0  0  0  0  0  0  0  0
   68.2635   44.0406   55.2159 N   0  0  0  0  0  0  0  0  0  0  0  0
   68.2397   45.4194   55.0377 C   0  0  0  0  0  0  0  0  0  0  0  0
   68.0892   46.1431   56.0361 O   0  0  0  0  0  0  0  0  0  0  0  0
   68.3806   46.0783   53.7392 C   0  0  0  0  0  0  0  0  0  0  0  0
   67.6246   45.6155   52.6888 C   0  0  0  0  0  0  0  0  0  0  0  0
   67.6799   46.1651   51.4297 C   0  0  0  0  0  0  0  0  0  0  0  0
   68.5420   47.2238   51.2560 C   0  0  0  0  0  0  0  0  0  0  0  0
   69.3034   47.6997   52.2897 C   0  0  0  0  0  0  0  0  0  0  0  0
   69.2271   47.1199   53.5621 C   0  0  0  0  0  0  0  0  0  0  0  0
   70.1889   48.8015   52.0722 N   0  0  0  0  0  0  0  0  0  0  0  0
   69.9691   49.6006   51.1488 O   0  0  0  0  0  0  0  0  0  0  0  0
   71.2736   48.9895   52.8653 O   0  0  0  0  0  0  0  0  0  0  0  0
   67.4041   42.1113   56.6859 C   0  0  0  0  0  0  0  0  0  0  0  0
   66.2625   42.0111   55.9676 O   0  0  0  0  0  0  0  0  0  0  0  0
   67.2049   38.9485   59.6000 C   0  0  0  0  0  0  0  0  0  0  0  0
   66.5876   40.1670   59.7736 C   0  0  0  0  0  0  0  0  0  0  0  0
   66.6916   41.1873   58.8660 C   0  0  0  0  0  0  0  0  0  0  0  0
   67.4420   41.0615   57.6795 C   0  0  0  0  0  0  0  0  0  0  0  0
   68.0395   39.8325   57.5404 C   0  0  0  0  0  0  0  0  0  0  0  0
   67.9422   38.8005   58.4486 C   0  0  0  0  0  0  0  0  0  0  0  0
   66.0530   36.8495   60.1820 C   0  0  0  0  0  0  0  0  0  0  0  0
   67.0734   37.8623   60.6046 C   0  0  0  0  0  0  0  0  0  0  0  0
   66.6831   38.4554   61.9323 C   0  0  0  0  0  0  0  0  0  0  0  0
   68.3999   37.1141   60.7722 C   0  0  0  0  0  0  0  0  0  0  0  0
 23 24  1  0
 24 25  1  0
 24 26  1  0
 24 17  1  0
 17 18  2  0
 17 22  1  0
 18 19  1  0
 19 20  2  0
 20 15  1  0
 20 21  1  0
 15 16  2  0
 15  1  1  0
  1  2  2  0
  1  3  1  0
  3  4  1  0
  4  5  2  0
  4  6  1  0
  6  7  2  0
  6 11  1  0
  7  8  1  0
  8  9  2  0
  9 10  1  0
 10 12  1  0
 10 11  2  0
 12 13  2  0
 12 14  1  0
 21 22  2  0
M  CHG  2  12   1  14  -1
M  END
>  <minimizedAffinity>  (769) 
-8.75403

$$$$
cs_full_output_folder/data/smiles/6033.pdb
     RDKit          3D

 27 29  0  0  0  0  0  0  0  0999 V2000
   69.2090   49.2410   56.9245 C   0  0  0  0  0  0  0  0  0  0  0  0
   68.5185   50.0145   57.8583 C   0  0  0  0  0  0  0  0  0  0  0  0
   67.8612   51.1873   57.5433 C   0  0  0  0  0  0  0  0  0  0  0  0
   67.8832   51.6215   56.2407 C   0  0  0  0  0  0  0  0  0  0  0  0
   68.5570   50.8780   55.3047 C   0  0  0  0  0  0  0  0  0  0  0  0
   69.2181   49.6946   55.6391 C   0  0  0  0  0  0  0  0  0  0  0  0
   69.0894   46.8057   57.6434 N   0  0  0  0  0  0  0  0  0  0  0  0
   69.8381   47.9886   57.3513 C   0  0  0  0  0  0  0  0  0  0  0  0
   71.0937   47.9535   57.4651 O   0  0  0  0  0  0  0  0  0  0  0  0
   69.7885   44.4558   57.3474 C   0  0  0  0  0  0  0  0  0  0  0  0
   68.9750   44.4557   56.3734 O   0  0  0  0  0  0  0  0  0  0  0  0
   69.8761   45.6887   58.0497 N   0  0  0  0  0  0  0  0  0  0  0  0
   68.4159   42.1102   57.8266 C   0  0  0  0  0  0  0  0  0  0  0  0
   69.9038   42.0931   57.9492 C   0  0  0  0  0  0  0  0  0  0  0  0
   70.5582   40.9195   58.2912 C   0  0  0  0  0  0  0  0  0  0  0  0
   71.9323   40.8966   58.4066 C   0  0  0  0  0  0  0  0  0  0  0  0
   72.6049   42.0990   58.1651 C   0  0  0  0  0  0  0  0  0  0  0  0
   71.9365   43.2606   57.8246 C   0  0  0  0  0  0  0  0  0  0  0  0
   70.5651   43.2864   57.7067 C   0  0  0  0  0  0  0  0  0  0  0  0
   69.9398   49.0127   54.5979 C   0  0  0  0  0  0  0  0  0  0  0  0
   71.1688   49.2304   54.3643 O   0  0  0  0  0  0  0  0  0  0  0  0
   69.2641   47.9981   53.7459 C   0  0  0  0  0  0  0  0  0  0  0  0
   68.3964   47.0915   54.2781 C   0  0  0  0  0  0  0  0  0  0  0  0
   67.7659   46.1275   53.5034 C   0  0  0  0  0  0  0  0  0  0  0  0
   68.0056   46.0521   52.1530 C   0  0  0  0  0  0  0  0  0  0  0  0
   68.8933   46.9807   51.6151 C   0  0  0  0  0  0  0  0  0  0  0  0
   69.5137   47.9374   52.3861 C   0  0  0  0  0  0  0  0  0  0  0  0
 13 14  1  0
 14 15  2  0
 14 19  1  0
 15 16  1  0
 16 17  2  0
 17 18  1  0
 18 19  2  0
 19 10  1  0
 10 11  2  0
 10 12  1  0
 12  7  1  0
  7  8  1  0
  8  9  2  0
  8  1  1  0
  1  2  2  0
  1  6  1  0
  2  3  1  0
  3  4  2  0
  4  5  1  0
  5  6  2  0
  6 20  1  0
 20 21  2  0
 20 22  1  0
 22 23  2  0
 22 27  1  0
 23 24  1  0
 24 25  2  0
 25 26  1  0
 26 27  2  0
M  END
>  <minimizedAffinity>  (770) 
-8.75380

$$$$
cs_full_output_folder/data/smiles/2174.pdb
     RDKit          3D

 25 26  0  0  0  0  0  0  0  0999 V2000
   68.4746   45.9909   54.2983 C   0  0  0  0  0  0  0  0  0  0  0  0
   67.9741   45.5077   53.1127 C   0  0  0  0  0  0  0  0  0  0  0  0
   68.0784   46.1884   51.9215 C   0  0  0  0  0  0  0  0  0  0  0  0
   68.7177   47.4097   51.9319 C   0  0  0  0  0  0  0  0  0  0  0  0
   69.2441   47.9485   53.1049 C   0  0  0  0  0  0  0  0  0  0  0  0
   69.1074   47.2156   54.2769 C   0  0  0  0  0  0  0  0  0  0  0  0
   67.8179   43.8735   55.5257 N   0  0  0  0  0  0  0  0  0  0  0  0
   68.3137   45.1980   55.5013 C   0  0  0  0  0  0  0  0  0  0  0  0
   68.6283   45.6993   56.6076 O   0  0  0  0  0  0  0  0  0  0  0  0
   67.5199   41.6925   56.5924 C   0  0  0  0  0  0  0  0  0  0  0  0
   67.5381   41.2257   55.4283 O   0  0  0  0  0  0  0  0  0  0  0  0
   67.6679   43.1201   56.6939 N   0  0  0  0  0  0  0  0  0  0  0  0
   69.7646   40.9664   58.1189 C   0  0  0  0  0  0  0  0  0  0  0  0
   68.4009   40.5168   58.4856 C   0  0  0  0  0  0  0  0  0  0  0  0
   67.3605   40.8597   57.7678 C   0  0  0  0  0  0  0  0  0  0  0  0
   70.0360   49.4908   53.0480 S   0  0  0  0  0  0  0  0  0  0  0  0
   69.6924   50.1946   51.7694 O   0  0  0  0  0  0  0  0  0  0  0  0
   71.5229   49.2913   53.0892 O   0  0  0  0  0  0  0  0  0  0  0  0
   69.5833   50.5240   54.3461 N   0  0  0  0  0  0  0  0  0  0  0  0
   69.7074   49.8936   55.6268 C   0  0  0  0  0  0  0  0  0  0  0  0
   69.0812   50.7682   56.6693 C   0  0  0  0  0  0  0  0  0  0  0  0
   68.5823   52.0855   56.1184 C   0  0  0  0  0  0  0  0  0  0  0  0
   69.5688   52.7551   55.2102 C   0  0  1  0  0  0  0  0  0  0  0  0
   70.4899   53.6743   55.9716 C   0  0  0  0  0  0  0  0  0  0  0  0
   70.3403   51.7585   54.3663 C   0  0  0  0  0  0  0  0  0  0  0  0
 13 14  1  0
 14 15  2  0
 15 10  1  0
 10 11  2  0
 10 12  1  0
 12  7  1  0
  7  8  1  0
  8  9  2  0
  8  1  1  0
  1  2  2  0
  1  6  1  0
  2  3  1  0
  3  4  2  0
  4  5  1  0
  5 16  1  0
  5  6  2  0
 16 17  2  0
 16 18  2  0
 16 19  1  0
 19 20  1  0
 19 25  1  0
 20 21  1  0
 21 22  1  0
 22 23  1  0
 23 24  1  1
 23 25  1  0
M  END
>  <minimizedAffinity>  (771) 
-8.75153

$$$$
cs_full_output_folder/data/smiles/2406.pdb
     RDKit          3D

 26 29  0  0  0  0  0  0  0  0999 V2000
   71.1967   47.3982   58.5250 C   0  0  0  0  0  0  0  0  0  0  0  0
   71.0361   45.9949   58.4889 C   0  0  0  0  0  0  0  0  0  0  0  0
   70.2379   45.3472   57.6015 C   0  0  0  0  0  0  0  0  0  0  0  0
   69.5541   46.1183   56.6931 C   0  0  0  0  0  0  0  0  0  0  0  0
   69.6638   47.4544   56.6741 N   0  0  0  0  0  0  0  0  0  0  0  0
   70.4763   48.0761   57.5822 C   0  0  0  0  0  0  0  0  0  0  0  0
   70.5575   49.3430   57.5427 O   0  0  0  0  0  0  0  0  0  0  0  0
   74.0164   49.2479   60.2666 C   0  0  0  0  0  0  0  0  0  0  0  0
   73.2091   48.7175   59.1672 N   0  0  0  0  0  0  0  0  0  0  0  0
   72.0753   47.9748   59.5152 C   0  0  0  0  0  0  0  0  0  0  0  0
   71.8009   47.7975   60.7580 O   0  0  0  0  0  0  0  0  0  0  0  0
   70.0646   43.9044   57.5544 C   0  0  0  0  0  0  0  0  0  0  0  0
   71.0554   43.1124   57.6987 O   0  0  0  0  0  0  0  0  0  0  0  0
   68.8161   43.2561   57.3512 N   0  0  0  0  0  0  0  0  0  0  0  0
   68.6526   41.8334   57.3061 C   0  0  0  0  0  0  0  0  0  0  0  0
   67.7182   41.1763   56.3670 C   0  0  0  0  0  0  0  0  0  0  0  0
   67.3138   41.2830   57.8164 C   0  0  0  0  0  0  0  0  0  0  0  0
   68.9724   48.2834   55.7172 C   0  0  0  0  0  0  0  0  0  0  0  0
   68.7708   47.6038   54.4167 C   0  0  0  0  0  0  0  0  0  0  0  0
   67.8803   46.5198   54.3821 C   0  0  0  0  0  0  0  0  0  0  0  0
   67.6762   45.8661   53.2005 C   0  0  0  0  0  0  0  0  0  0  0  0
   68.2982   46.2108   52.0373 C   0  0  0  0  0  0  0  0  0  0  0  0
   69.1803   47.2759   52.0520 C   0  0  0  0  0  0  0  0  0  0  0  0
   69.3870   47.9370   53.2415 C   0  0  0  0  0  0  0  0  0  0  0  0
   70.2852   48.7550   52.4698 C   0  0  0  0  0  0  0  0  0  0  0  0
   70.0746   48.1168   51.3615 N   0  0  0  0  0  0  0  0  0  0  0  0
  8  9  1  0
  9 10  1  0
 10 11  2  0
 10  1  1  0
  1  2  2  0
  1  6  1  0
  2  3  1  0
  3 12  1  0
  3  4  2  0
 12 13  2  0
 12 14  1  0
 14 15  1  0
 15 16  1  0
 15 17  1  0
 16 17  1  0
  4  5  1  0
  5 18  1  0
  5  6  1  0
 18 19  1  0
 19 20  2  0
 19 24  1  0
 20 21  1  0
 21 22  2  0
 22 23  1  0
 23 24  2  0
 23 26  1  0
 24 25  1  0
 25 26  2  0
  6  7  2  0
M  END
>  <minimizedAffinity>  (772) 
-8.74875

$$$$
cs_full_output_folder/data/smiles/403.pdb
     RDKit          3D

 25 28  0  0  0  0  0  0  0  0999 V2000
   73.8855   51.2472   55.6586 C   0  0  0  0  0  0  0  0  0  0  0  0
   73.9517   52.3867   54.8943 C   0  0  0  0  0  0  0  0  0  0  0  0
   72.8210   52.8287   54.2790 C   0  0  0  0  0  0  0  0  0  0  0  0
   71.6183   52.1605   54.4065 C   0  0  0  0  0  0  0  0  0  0  0  0
   71.5319   51.0107   55.1724 C   0  0  0  0  0  0  0  0  0  0  0  0
   72.6735   50.5772   55.7850 C   0  0  0  0  0  0  0  0  0  0  0  0
   75.7288   49.4179   54.5693 O   0  0  0  0  0  0  0  0  0  0  0  0
   75.9636   49.8753   55.7167 C   0  0  0  0  0  0  0  0  0  0  0  0
   75.0687   50.7944   56.3010 N   0  0  0  0  0  0  0  0  0  0  0  0
   77.2063   49.4239   56.4439 C   0  0  2  0  0  0  0  0  0  0  0  0
   77.1019   49.5398   57.7898 N   0  0  0  0  0  0  0  0  0  0  0  0
   78.0003   50.3274   57.9836 C   0  0  0  0  0  0  0  0  0  0  0  0
   78.5548   50.5494   56.3534 S   0  0  0  0  0  0  0  0  0  0  0  0
   70.2279   50.3251   55.3142 C   0  0  0  0  0  0  0  0  0  0  0  0
   70.0235   49.4449   54.1835 C   0  0  0  0  0  0  0  0  0  0  0  0
   70.7173   49.6766   53.0307 N   0  0  0  0  0  0  0  0  0  0  0  0
   70.6318   48.9022   51.9648 N   0  0  0  0  0  0  0  0  0  0  0  0
   69.8303   47.8151   51.9697 C   0  0  0  0  0  0  0  0  0  0  0  0
   69.7279   47.0578   50.9693 O   0  0  0  0  0  0  0  0  0  0  0  0
   69.0948   47.5088   53.0891 C   0  0  0  0  0  0  0  0  0  0  0  0
   69.2192   48.3646   54.1978 C   0  0  0  0  0  0  0  0  0  0  0  0
   68.3881   48.0280   55.3442 C   0  0  0  0  0  0  0  0  0  0  0  0
   68.5905   46.5717   55.7110 C   0  0  0  0  0  0  0  0  0  0  0  0
   68.3164   45.6471   54.5637 C   0  0  0  0  0  0  0  0  0  0  0  0
   68.1899   46.3497   53.2335 C   0  0  0  0  0  0  0  0  0  0  0  0
  7  8  2  0
  8  9  1  0
 10  8  1  6
  9  1  1  0
  1  2  2  0
  1  6  1  0
  2  3  1  0
  3  4  2  0
  4  5  1  0
  5 14  1  0
  5  6  2  0
 14 15  1  0
 15 16  2  0
 15 21  1  0
 16 17  1  0
 17 18  1  0
 18 19  2  0
 18 20  1  0
 20 21  2  0
 20 25  1  0
 21 22  1  0
 22 23  1  0
 23 24  1  0
 24 25  1  0
 10 11  1  0
 10 13  1  0
 11 12  2  0
 12 13  1  0
M  END
>  <minimizedAffinity>  (773) 
-8.74559

$$$$
cs_full_output_folder/data/smiles/6529.pdb
     RDKit          3D

 29 32  0  0  0  0  0  0  0  0999 V2000
   71.5663   47.2010   58.9576 C   0  0  0  0  0  0  0  0  0  0  0  0
   71.7167   45.8456   58.7879 C   0  0  0  0  0  0  0  0  0  0  0  0
   70.8984   45.1095   57.9467 C   0  0  0  0  0  0  0  0  0  0  0  0
   69.9077   45.7659   57.2634 C   0  0  0  0  0  0  0  0  0  0  0  0
   69.6998   47.1534   57.3924 C   0  0  0  0  0  0  0  0  0  0  0  0
   70.5386   47.8133   58.2336 C   0  0  0  0  0  0  0  0  0  0  0  0
   76.1276   48.4222   58.9408 C   0  0  0  0  0  0  0  0  0  0  0  0
   75.7339   49.1279   60.1821 C   0  0  0  0  0  0  0  0  0  0  0  0
   74.3080   49.4649   60.3696 C   0  0  0  0  0  0  0  0  0  0  0  0
   73.4650   48.7472   59.3982 N   0  0  0  0  0  0  0  0  0  0  0  0
   72.4220   47.9253   59.8585 C   0  0  0  0  0  0  0  0  0  0  0  0
   72.2264   47.8166   61.0880 O   0  0  0  0  0  0  0  0  0  0  0  0
   73.8289   48.9921   58.0298 C   0  0  0  0  0  0  0  0  0  0  0  0
   75.2121   48.5105   57.7783 C   0  0  0  0  0  0  0  0  0  0  0  0
   75.7471   46.1356   59.6671 O   0  0  0  0  0  0  0  0  0  0  0  0
   76.5218   46.9909   59.2233 C   0  0  0  0  0  0  0  0  0  0  0  0
   77.8546   46.6764   58.9463 O   0  0  0  0  0  0  0  0  0  0  0  0
   68.5858   47.7723   56.5981 C   0  0  0  0  0  0  0  0  0  0  0  0
   69.1238   48.0945   55.2625 C   0  0  0  0  0  0  0  0  0  0  0  0
   70.0716   49.0550   55.0923 N   0  0  0  0  0  0  0  0  0  0  0  0
   70.6427   49.3244   53.9349 N   0  0  0  0  0  0  0  0  0  0  0  0
   70.3114   48.6446   52.8165 C   0  0  0  0  0  0  0  0  0  0  0  0
   70.8738   48.9164   51.7005 O   0  0  0  0  0  0  0  0  0  0  0  0
   69.3642   47.6592   52.8879 C   0  0  0  0  0  0  0  0  0  0  0  0
   69.0122   46.9864   51.7450 C   0  0  0  0  0  0  0  0  0  0  0  0
   68.0359   46.0035   51.7890 C   0  0  0  0  0  0  0  0  0  0  0  0
   67.4404   45.7255   52.9846 C   0  0  0  0  0  0  0  0  0  0  0  0
   67.8106   46.4138   54.1215 C   0  0  0  0  0  0  0  0  0  0  0  0
   68.7750   47.3968   54.1374 C   0  0  0  0  0  0  0  0  0  0  0  0
 15 16  2  0
 16 17  1  0
 16  7  1  0
  7  8  1  0
  7 14  1  0
  8  9  1  0
  9 10  1  0
 10 11  1  0
 10 13  1  0
 11 12  2  0
 11  1  1  0
  1  2  2  0
  1  6  1  0
  2  3  1  0
  3  4  2  0
  4  5  1  0
  5 18  1  0
  5  6  2  0
 18 19  1  0
 19 20  2  0
 19 29  1  0
 20 21  1  0
 21 22  1  0
 22 23  2  0
 22 24  1  0
 24 25  1  0
 24 29  2  0
 25 26  2  0
 26 27  1  0
 27 28  2  0
 28 29  1  0
 13 14  1  0
M  END
>  <minimizedAffinity>  (774) 
-8.74511

$$$$
cs_full_output_folder/data/smiles/5397.pdb
     RDKit          3D

 27 30  0  0  0  0  0  0  0  0999 V2000
   71.5121   51.9588   56.1440 C   0  0  0  0  0  0  0  0  0  0  0  0
   71.2459   50.9116   55.2893 C   0  0  0  0  0  0  0  0  0  0  0  0
   70.1165   50.8193   54.4905 C   0  0  0  0  0  0  0  0  0  0  0  0
   69.1923   51.8729   54.5728 C   0  0  0  0  0  0  0  0  0  0  0  0
   69.4374   52.9275   55.4195 C   0  0  0  0  0  0  0  0  0  0  0  0
   70.5763   52.9771   56.1950 C   0  0  0  0  0  0  0  0  0  0  0  0
   70.8209   54.0174   57.0321 F   0  0  0  0  0  0  0  0  0  0  0  0
   69.8618   49.7227   53.5811 C   0  0  0  0  0  0  0  0  0  0  0  0
   70.2153   49.8948   52.2972 N   0  0  0  0  0  0  0  0  0  0  0  0
   70.0205   48.9462   51.4217 N   0  0  0  0  0  0  0  0  0  0  0  0
   69.4662   47.7665   51.7372 C   0  0  0  0  0  0  0  0  0  0  0  0
   69.2785   46.8560   50.8932 O   0  0  0  0  0  0  0  0  0  0  0  0
   69.0769   47.5210   53.0485 C   0  0  0  0  0  0  0  0  0  0  0  0
   68.5202   46.3146   53.4035 C   0  0  0  0  0  0  0  0  0  0  0  0
   68.1697   46.1182   54.7087 C   0  0  0  0  0  0  0  0  0  0  0  0
   68.3769   47.1169   55.6432 C   0  0  0  0  0  0  0  0  0  0  0  0
   68.9408   48.3315   55.2706 C   0  0  0  0  0  0  0  0  0  0  0  0
   69.2929   48.5377   53.9670 C   0  0  0  0  0  0  0  0  0  0  0  0
   72.1890   48.0173   59.8031 C   0  0  0  0  0  0  0  0  0  0  0  0
   72.8881   49.0721   58.9805 C   0  0  2  0  0  0  0  0  0  0  0  0
   73.4713   48.5707   57.8460 F   0  0  0  0  0  0  0  0  0  0  0  0
   73.8896   49.8633   59.7931 C   0  0  0  0  0  0  0  0  0  0  0  0
   74.0187   51.1337   58.9818 C   0  0  0  0  0  0  0  0  0  0  0  0
   72.8963   51.1819   58.0972 N   0  0  0  0  0  0  0  0  0  0  0  0
   72.7140   52.0133   56.9643 C   0  0  0  0  0  0  0  0  0  0  0  0
   73.6208   52.8232   56.6596 O   0  0  0  0  0  0  0  0  0  0  0  0
   71.9193   50.1881   58.5698 C   0  0  0  0  0  0  0  0  0  0  0  0
 20 19  1  1
 20 21  1  0
 20 22  1  0
 20 27  1  0
 22 23  1  0
 23 24  1  0
 24 25  1  0
 24 27  1  0
 25 26  2  0
 25  1  1  0
  1  2  2  0
  1  6  1  0
  2  3  1  0
  3  8  1  0
  3  4  2  0
  8  9  2  0
  8 18  1  0
  9 10  1  0
 10 11  1  0
 11 12  2  0
 11 13  1  0
 13 14  1  0
 13 18  2  0
 14 15  2  0
 15 16  1  0
 16 17  2  0
 17 18  1  0
  4  5  1  0
  5  6  2  0
  6  7  1  0
M  END
>  <minimizedAffinity>  (775) 
-8.74351

$$$$
cs_full_output_folder/data/smiles/6720.pdb
     RDKit          3D

 27 30  0  0  0  0  0  0  0  0999 V2000
   71.3496   46.7643   58.9467 C   0  0  0  0  0  0  0  0  0  0  0  0
   70.4183   47.5159   58.2293 C   0  0  0  0  0  0  0  0  0  0  0  0
   69.5945   47.0143   57.2652 C   0  0  0  0  0  0  0  0  0  0  0  0
   69.7273   45.6390   57.0096 C   0  0  0  0  0  0  0  0  0  0  0  0
   70.6290   44.8531   57.6887 C   0  0  0  0  0  0  0  0  0  0  0  0
   71.4297   45.4300   58.6506 C   0  0  0  0  0  0  0  0  0  0  0  0
   72.3416   44.6890   59.3516 F   0  0  0  0  0  0  0  0  0  0  0  0
   74.1518   50.9791   59.1488 C   0  0  0  0  0  0  0  0  0  0  0  0
   74.7540   49.6074   59.1548 C   0  0  0  0  0  0  0  0  0  0  0  0
   76.2157   49.5800   58.8588 C   0  0  0  0  0  0  0  0  0  0  0  0
   74.3199   48.8410   60.3823 C   0  0  0  0  0  0  0  0  0  0  0  0
   73.3275   48.1328   59.6015 N   0  0  0  0  0  0  0  0  0  0  0  0
   72.1925   47.3813   59.9632 C   0  0  0  0  0  0  0  0  0  0  0  0
   71.8954   47.2355   61.1672 O   0  0  0  0  0  0  0  0  0  0  0  0
   74.0141   48.5439   58.3795 C   0  0  0  0  0  0  0  0  0  0  0  0
   68.6026   47.7877   56.4700 C   0  0  0  0  0  0  0  0  0  0  0  0
   69.1870   48.0251   55.1423 C   0  0  0  0  0  0  0  0  0  0  0  0
   70.1483   48.9833   55.0196 N   0  0  0  0  0  0  0  0  0  0  0  0
   70.6765   49.2813   53.8598 N   0  0  0  0  0  0  0  0  0  0  0  0
   70.3047   48.6651   52.7338 C   0  0  0  0  0  0  0  0  0  0  0  0
   70.8106   48.9493   51.6066 O   0  0  0  0  0  0  0  0  0  0  0  0
   69.3453   47.6903   52.7690 C   0  0  0  0  0  0  0  0  0  0  0  0
   68.9573   47.0331   51.6193 C   0  0  0  0  0  0  0  0  0  0  0  0
   68.0007   46.0513   51.7102 C   0  0  0  0  0  0  0  0  0  0  0  0
   67.4474   45.7361   52.9307 C   0  0  0  0  0  0  0  0  0  0  0  0
   67.8191   46.3766   54.0866 C   0  0  0  0  0  0  0  0  0  0  0  0
   68.7773   47.3688   54.0156 C   0  0  0  0  0  0  0  0  0  0  0  0
  8  9  1  0
  9 10  1  0
  9 11  1  0
  9 15  1  0
 11 12  1  0
 12 13  1  0
 12 15  1  0
 13 14  2  0
 13  1  1  0
  1  2  2  0
  1  6  1  0
  2  3  1  0
  3 16  1  0
  3  4  2  0
 16 17  1  0
 17 18  2  0
 17 27  1  0
 18 19  1  0
 19 20  1  0
 20 21  2  0
 20 22  1  0
 22 23  1  0
 22 27  2  0
 23 24  2  0
 24 25  1  0
 25 26  2  0
 26 27  1  0
  4  5  1  0
  5  6  2  0
  6  7  1  0
M  END
>  <minimizedAffinity>  (776) 
-8.73826

$$$$
cs_full_output_folder/data/smiles/3282.pdb
     RDKit          3D

 25 27  0  0  0  0  0  0  0  0999 V2000
   69.7907   43.9895   58.8674 O   0  0  0  0  0  0  0  0  0  0  0  0
   69.3454   43.7731   57.7062 C   0  0  0  0  0  0  0  0  0  0  0  0
   69.3179   44.8210   56.7708 N   0  0  0  0  0  0  0  0  0  0  0  0
   68.8770   42.4310   57.3904 C   0  0  0  0  0  0  0  0  0  0  0  0
   67.9018   42.2021   56.4492 C   0  0  0  0  0  0  0  0  0  0  0  0
   67.5016   40.9301   56.1931 N   0  0  0  0  0  0  0  0  0  0  0  0
   68.0435   39.8907   56.8455 C   0  0  0  0  0  0  0  0  0  0  0  0
   69.0223   40.0816   57.7947 C   0  0  0  0  0  0  0  0  0  0  0  0
   69.4378   41.3400   58.0669 C   0  0  0  0  0  0  0  0  0  0  0  0
   69.6290   38.9584   58.5192 C   0  0  0  0  0  0  0  0  0  0  0  0
   70.9060   38.5479   58.1830 C   0  0  0  0  0  0  0  0  0  0  0  0
   71.5256   37.4952   58.8318 C   0  0  0  0  0  0  0  0  0  0  0  0
   70.8849   36.8157   59.8424 C   0  0  0  0  0  0  0  0  0  0  0  0
   69.6014   37.2238   60.1852 C   0  0  0  0  0  0  0  0  0  0  0  0
   68.9849   38.2795   59.5321 C   0  0  0  0  0  0  0  0  0  0  0  0
   69.7662   46.1143   57.0640 N   0  0  0  0  0  0  0  0  0  0  0  0
   68.8339   47.3170   56.2639 S   0  0  0  0  0  0  0  0  0  0  0  0
   67.5112   47.4471   56.9328 O   0  0  0  0  0  0  0  0  0  0  0  0
   69.6029   48.6232   56.4079 O   0  0  0  0  0  0  0  0  0  0  0  0
   68.6731   47.0127   54.5649 C   0  0  0  0  0  0  0  0  0  0  0  0
   67.9252   45.9527   54.1060 C   0  0  0  0  0  0  0  0  0  0  0  0
   67.7941   45.7057   52.7477 C   0  0  0  0  0  0  0  0  0  0  0  0
   68.4274   46.5374   51.8279 C   0  0  0  0  0  0  0  0  0  0  0  0
   69.1732   47.5926   52.2597 C   0  0  0  0  0  0  0  0  0  0  0  0
   69.2858   47.8166   53.6297 C   0  0  0  0  0  0  0  0  0  0  0  0
  1  2  2  0
  2  3  1  0
  2  4  1  0
  3 16  1  0
 16 17  1  0
 17 18  2  0
 17 19  2  0
 17 20  1  0
 20 21  2  0
 20 25  1  0
 21 22  1  0
 22 23  2  0
 23 24  1  0
 24 25  2  0
  4  5  2  0
  4  9  1  0
  5  6  1  0
  6  7  2  0
  7  8  1  0
  8 10  1  0
  8  9  2  0
 10 11  2  0
 10 15  1  0
 11 12  1  0
 12 13  2  0
 13 14  1  0
 14 15  2  0
M  END
>  <minimizedAffinity>  (777) 
-8.73816

$$$$
cs_full_output_folder/data/smiles/2853.pdb
     RDKit          3D

 26 28  0  0  0  0  0  0  0  0999 V2000
   71.5500   47.0101   58.8862 C   0  0  0  0  0  0  0  0  0  0  0  0
   70.7382   47.8703   58.1351 C   0  0  0  0  0  0  0  0  0  0  0  0
   69.8377   47.4261   57.2059 C   0  0  0  0  0  0  0  0  0  0  0  0
   69.7761   46.0298   57.0487 C   0  0  0  0  0  0  0  0  0  0  0  0
   70.5415   45.1591   57.7523 C   0  0  0  0  0  0  0  0  0  0  0  0
   71.4295   45.6696   58.6742 C   0  0  0  0  0  0  0  0  0  0  0  0
   72.2275   44.8461   59.4127 F   0  0  0  0  0  0  0  0  0  0  0  0
   74.2767   47.7695   58.1009 C   0  0  0  0  0  0  0  0  0  0  0  0
   73.7698   47.9507   59.4249 N   0  0  0  0  0  0  0  0  0  0  0  0
   72.4694   47.6003   59.8463 C   0  0  0  0  0  0  0  0  0  0  0  0
   72.0906   47.7902   61.0398 O   0  0  0  0  0  0  0  0  0  0  0  0
   74.6665   48.5468   60.4184 C   0  0  0  0  0  0  0  0  0  0  0  0
   74.6635   50.0249   60.3041 C   0  0  0  0  0  0  0  0  0  0  0  0
   74.6267   50.6916   61.3105 O   0  0  0  0  0  0  0  0  0  0  0  0
   68.9366   48.2859   56.3861 C   0  0  0  0  0  0  0  0  0  0  0  0
   69.3141   48.3241   54.9753 C   0  0  0  0  0  0  0  0  0  0  0  0
   70.2806   49.2305   54.6079 N   0  0  0  0  0  0  0  0  0  0  0  0
   70.7523   49.3533   53.4100 N   0  0  0  0  0  0  0  0  0  0  0  0
   70.3029   48.5650   52.3986 C   0  0  0  0  0  0  0  0  0  0  0  0
   70.7749   48.6978   51.2322 O   0  0  0  0  0  0  0  0  0  0  0  0
   69.3297   47.6397   52.7180 C   0  0  0  0  0  0  0  0  0  0  0  0
   68.8427   46.8290   51.6923 C   0  0  0  0  0  0  0  0  0  0  0  0
   67.8513   45.8913   51.9553 C   0  0  0  0  0  0  0  0  0  0  0  0
   67.3686   45.7922   53.2619 C   0  0  0  0  0  0  0  0  0  0  0  0
   67.8627   46.6035   54.2671 C   0  0  0  0  0  0  0  0  0  0  0  0
   68.8399   47.5215   53.9975 C   0  0  0  0  0  0  0  0  0  0  0  0
  8  9  1  0
  9 12  1  0
  9 10  1  0
 12 13  1  0
 13 14  2  0
 10 11  2  0
 10  1  1  0
  1  2  2  0
  1  6  1  0
  2  3  1  0
  3 15  1  0
  3  4  2  0
 15 16  1  0
 16 17  2  0
 16 26  1  0
 17 18  1  0
 18 19  1  0
 19 20  2  0
 19 21  1  0
 21 22  1  0
 21 26  2  0
 22 23  2  0
 23 24  1  0
 24 25  2  0
 25 26  1  0
  4  5  1  0
  5  6  2  0
  6  7  1  0
M  END
>  <minimizedAffinity>  (778) 
-8.73798

$$$$
cs_full_output_folder/data/smiles/7867.pdb
     RDKit          3D

 27 31  0  0  0  0  0  0  0  0999 V2000
   70.3172   50.1413   55.4132 N   0  0  0  0  0  0  0  0  0  0  0  0
   69.6216   51.3648   55.7007 C   0  0  0  0  0  0  0  0  0  0  0  0
   68.7469   51.1252   56.8802 C   0  0  0  0  0  0  0  0  0  0  0  0
   69.2200   50.1881   57.9130 C   0  0  0  0  0  0  0  0  0  0  0  0
   70.4720   49.4382   57.7074 C   0  0  1  0  0  0  0  0  0  0  0  0
   71.2412   49.7230   56.4373 C   0  0  0  0  0  0  0  0  0  0  0  0
   69.7478   47.1466   50.9895 O   0  0  0  0  0  0  0  0  0  0  0  0
   69.8655   47.8380   52.0386 C   0  0  0  0  0  0  0  0  0  0  0  0
   70.7179   48.8759   52.0177 N   0  0  0  0  0  0  0  0  0  0  0  0
   70.8411   49.5958   53.1102 N   0  0  0  0  0  0  0  0  0  0  0  0
   70.1597   49.3558   54.2586 C   0  0  0  0  0  0  0  0  0  0  0  0
   69.3000   48.3145   54.2901 C   0  0  0  0  0  0  0  0  0  0  0  0
   69.1344   47.5217   53.1582 C   0  0  0  0  0  0  0  0  0  0  0  0
   68.1828   46.3643   53.1772 C   0  0  0  0  0  0  0  0  0  0  0  0
   68.1698   45.6698   54.4861 C   0  0  0  0  0  0  0  0  0  0  0  0
   68.7619   46.4375   55.6421 C   0  0  0  0  0  0  0  0  0  0  0  0
   68.4701   47.9001   55.4533 C   0  0  0  0  0  0  0  0  0  0  0  0
   71.3053   49.3997   58.8863 N   0  0  0  0  0  0  0  0  0  0  0  0
   71.7677   48.2067   59.5242 C   0  0  0  0  0  0  0  0  0  0  0  0
   71.3828   46.9565   59.1484 C   0  0  0  0  0  0  0  0  0  0  0  0
   71.8824   45.8576   59.8140 C   0  0  0  0  0  0  0  0  0  0  0  0
   72.7697   45.9347   60.8646 C   0  0  0  0  0  0  0  0  0  0  0  0
   73.3914   45.0261   61.6635 N   0  0  0  0  0  0  0  0  0  0  0  0
   74.1563   45.6986   62.5306 N   0  0  0  0  0  0  0  0  0  0  0  0
   74.0272   47.0163   62.2904 C   0  0  0  0  0  0  0  0  0  0  0  0
   73.1503   47.2079   61.2341 C   0  0  0  0  0  0  0  0  0  0  0  0
   72.6656   48.3194   60.5857 C   0  0  0  0  0  0  0  0  0  0  0  0
  7  8  2  0
  8  9  1  0
  8 13  1  0
  9 10  1  0
 10 11  2  0
 11  1  1  0
 11 12  1  0
  1  2  1  0
  1  6  1  0
  2  3  1  0
  3  4  1  0
  4  5  1  0
  5 18  1  1
  5  6  1  0
 18 19  1  0
 19 20  2  0
 19 27  1  0
 20 21  1  0
 21 22  2  0
 22 23  1  0
 22 26  1  0
 23 24  1  0
 24 25  2  0
 25 26  1  0
 26 27  2  0
 12 13  2  0
 12 17  1  0
 13 14  1  0
 14 15  1  0
 15 16  1  0
 16 17  1  0
M  END
>  <minimizedAffinity>  (779) 
-8.73785

$$$$
cs_full_output_folder/data/smiles/8194.pdb
     RDKit          3D

 29 32  0  0  0  0  0  0  0  0999 V2000
   70.4699   49.1391   58.4471 C   0  0  0  0  0  0  0  0  0  0  0  0
   70.0681   48.3269   57.4110 C   0  0  0  0  0  0  0  0  0  0  0  0
   69.0040   48.6137   56.5838 C   0  0  0  0  0  0  0  0  0  0  0  0
   68.2899   49.7709   56.7862 C   0  0  0  0  0  0  0  0  0  0  0  0
   68.6633   50.6100   57.8143 C   0  0  0  0  0  0  0  0  0  0  0  0
   69.7304   50.2895   58.6193 C   0  0  0  0  0  0  0  0  0  0  0  0
   70.1145   51.1103   59.6428 F   0  0  0  0  0  0  0  0  0  0  0  0
   68.6634   47.6371   55.5484 C   0  0  0  0  0  0  0  0  0  0  0  0
   67.9374   46.5268   55.8880 N   0  0  0  0  0  0  0  0  0  0  0  0
   67.6044   45.6119   55.0086 N   0  0  0  0  0  0  0  0  0  0  0  0
   67.9520   45.7012   53.7163 C   0  0  0  0  0  0  0  0  0  0  0  0
   67.6005   44.7828   52.9022 O   0  0  0  0  0  0  0  0  0  0  0  0
   68.6846   46.7842   53.2825 C   0  0  0  0  0  0  0  0  0  0  0  0
   69.0542   46.8682   51.9538 C   0  0  0  0  0  0  0  0  0  0  0  0
   69.8016   47.9572   51.5581 C   0  0  0  0  0  0  0  0  0  0  0  0
   70.1478   48.9099   52.4927 C   0  0  0  0  0  0  0  0  0  0  0  0
   69.7772   48.8296   53.8320 C   0  0  0  0  0  0  0  0  0  0  0  0
   69.0277   47.7400   54.2255 C   0  0  0  0  0  0  0  0  0  0  0  0
   71.4994   48.0258   60.2857 O   0  0  0  0  0  0  0  0  0  0  0  0
   71.5960   48.8346   59.3251 C   0  0  0  0  0  0  0  0  0  0  0  0
   72.8205   49.5009   59.0428 N   0  0  0  0  0  0  0  0  0  0  0  0
   72.9719   50.4373   57.9490 C   0  0  0  0  0  0  0  0  0  0  0  0
   74.4178   50.5757   57.5282 C   0  0  0  0  0  0  0  0  0  0  0  0
   75.0543   49.3010   57.6385 N   0  0  0  0  0  0  0  0  0  0  0  0
   75.1274   48.7539   58.9538 C   0  0  0  0  0  0  0  0  0  0  0  0
   74.0303   49.2880   59.8414 C   0  0  0  0  0  0  0  0  0  0  0  0
   76.2509   49.1503   56.8695 C   0  0  0  0  0  0  0  0  0  0  0  0
   76.1353   50.0630   55.6542 C   0  0  0  0  0  0  0  0  0  0  0  0
   75.5006   49.3932   54.5851 O   0  0  0  0  0  0  0  0  0  0  0  0
 19 20  2  0
 20  1  1  0
 20 21  1  0
  1  2  2  0
  1  6  1  0
  2  3  1  0
  3  8  1  0
  3  4  2  0
  8  9  2  0
  8 18  1  0
  9 10  1  0
 10 11  1  0
 11 12  2  0
 11 13  1  0
 13 14  1  0
 13 18  2  0
 14 15  2  0
 15 16  1  0
 16 17  2  0
 17 18  1  0
  4  5  1  0
  5  6  2  0
  6  7  1  0
 21 22  1  0
 21 26  1  0
 22 23  1  0
 23 24  1  0
 24 27  1  0
 24 25  1  0
 27 28  1  0
 28 29  1  0
 25 26  1  0
M  CHG  1  24   1
M  END
>  <minimizedAffinity>  (780) 
-8.73686

$$$$
cs_full_output_folder/data/smiles/1417.pdb
     RDKit          3D

 27 30  0  0  0  0  0  0  0  0999 V2000
   71.5646   47.2374   58.8701 C   0  0  0  0  0  0  0  0  0  0  0  0
   70.5442   47.7637   58.1089 C   0  0  0  0  0  0  0  0  0  0  0  0
   69.7147   46.9955   57.2969 C   0  0  0  0  0  0  0  0  0  0  0  0
   69.9333   45.6557   57.2632 C   0  0  0  0  0  0  0  0  0  0  0  0
   70.9573   45.0598   58.0156 C   0  0  0  0  0  0  0  0  0  0  0  0
   71.7500   45.8527   58.8011 C   0  0  0  0  0  0  0  0  0  0  0  0
   72.7491   45.3074   59.5390 F   0  0  0  0  0  0  0  0  0  0  0  0
   72.2124   47.9429   60.9896 O   0  0  0  0  0  0  0  0  0  0  0  0
   72.4069   48.0438   59.7253 C   0  0  0  0  0  0  0  0  0  0  0  0
   73.4204   48.9290   59.3114 N   0  0  0  0  0  0  0  0  0  0  0  0
   73.6946   49.0919   57.9204 C   0  0  0  0  0  0  0  0  0  0  0  0
   74.6871   50.1368   57.5600 C   0  0  0  0  0  0  0  0  0  0  0  0
   75.6971   50.4192   58.5234 N   0  0  0  0  0  0  0  0  0  0  0  0
   75.6292   49.6800   59.7427 C   0  0  0  0  0  0  0  0  0  0  0  0
   74.2141   49.6972   60.2589 C   0  0  0  0  0  0  0  0  0  0  0  0
   68.6452   47.6632   56.5473 C   0  0  0  0  0  0  0  0  0  0  0  0
   69.0882   48.0170   55.2332 C   0  0  0  0  0  0  0  0  0  0  0  0
   69.9544   49.0361   55.0978 N   0  0  0  0  0  0  0  0  0  0  0  0
   70.4855   49.4003   53.9570 N   0  0  0  0  0  0  0  0  0  0  0  0
   70.1838   48.7564   52.8199 C   0  0  0  0  0  0  0  0  0  0  0  0
   70.6624   49.0625   51.7082 O   0  0  0  0  0  0  0  0  0  0  0  0
   69.2980   47.6916   52.8520 C   0  0  0  0  0  0  0  0  0  0  0  0
   68.9393   47.0138   51.7095 C   0  0  0  0  0  0  0  0  0  0  0  0
   68.0336   45.9742   51.7826 C   0  0  0  0  0  0  0  0  0  0  0  0
   67.4840   45.6112   52.9915 C   0  0  0  0  0  0  0  0  0  0  0  0
   67.8498   46.2974   54.1400 C   0  0  0  0  0  0  0  0  0  0  0  0
   68.7565   47.3386   54.0919 C   0  0  0  0  0  0  0  0  0  0  0  0
  8  9  2  0
  9  1  1  0
  9 10  1  0
  1  2  2  0
  1  6  1  0
  2  3  1  0
  3 16  1  0
  3  4  2  0
 16 17  1  0
 17 18  2  0
 17 27  1  0
 18 19  1  0
 19 20  1  0
 20 21  2  0
 20 22  1  0
 22 23  1  0
 22 27  2  0
 23 24  2  0
 24 25  1  0
 25 26  2  0
 26 27  1  0
  4  5  1  0
  5  6  2  0
  6  7  1  0
 10 11  1  0
 10 15  1  0
 11 12  1  0
 12 13  1  0
 13 14  1  0
 14 15  1  0
M  CHG  1  13   1
M  END
>  <minimizedAffinity>  (781) 
-8.73536

$$$$
cs_full_output_folder/data/smiles/3311.pdb
     RDKit          3D

 29 32  0  0  0  0  0  0  0  0999 V2000
   71.3102   47.0419   58.7790 C   0  0  0  0  0  0  0  0  0  0  0  0
   70.4773   47.8133   57.9976 C   0  0  0  0  0  0  0  0  0  0  0  0
   69.6112   47.3512   57.0475 C   0  0  0  0  0  0  0  0  0  0  0  0
   69.5841   45.9526   56.8690 C   0  0  0  0  0  0  0  0  0  0  0  0
   70.3866   45.1296   57.6148 C   0  0  0  0  0  0  0  0  0  0  0  0
   71.2381   45.6574   58.5561 C   0  0  0  0  0  0  0  0  0  0  0  0
   72.0494   44.8821   59.3164 F   0  0  0  0  0  0  0  0  0  0  0  0
   74.0963   48.5743   60.9451 C   0  0  0  0  0  0  0  0  0  0  0  0
   73.4101   48.2250   59.6655 N   0  0  0  0  0  0  0  0  0  0  0  0
   72.1972   47.5443   59.8147 C   0  0  0  0  0  0  0  0  0  0  0  0
   71.7636   47.2940   61.0069 O   0  0  0  0  0  0  0  0  0  0  0  0
   74.0513   48.6438   58.4565 C   0  0  0  0  0  0  0  0  0  0  0  0
   73.8954   50.0437   58.0306 C   0  0  2  0  0  0  0  0  0  0  0  0
   72.8028   50.9076   58.5150 C   0  0  0  0  0  0  0  0  0  0  0  0
   71.9675   50.6946   57.2455 C   0  0  1  0  0  0  0  0  0  0  0  0
   71.5440   51.8584   56.6689 F   0  0  0  0  0  0  0  0  0  0  0  0
   73.2472   50.1029   56.6405 C   0  0  0  0  0  0  0  0  0  0  0  0
   68.7212   48.1947   56.2065 C   0  0  0  0  0  0  0  0  0  0  0  0
   69.1089   48.3191   54.8069 C   0  0  0  0  0  0  0  0  0  0  0  0
   69.9966   49.3098   54.4961 N   0  0  0  0  0  0  0  0  0  0  0  0
   70.4866   49.5076   53.2946 N   0  0  0  0  0  0  0  0  0  0  0  0
   70.1397   48.7327   52.2600 C   0  0  0  0  0  0  0  0  0  0  0  0
   70.5993   48.9122   51.1101 O   0  0  0  0  0  0  0  0  0  0  0  0
   69.2403   47.7065   52.4953 C   0  0  0  0  0  0  0  0  0  0  0  0
   68.8262   46.8821   51.4634 C   0  0  0  0  0  0  0  0  0  0  0  0
   67.9154   45.8848   51.7277 C   0  0  0  0  0  0  0  0  0  0  0  0
   67.4041   45.6845   52.9898 C   0  0  0  0  0  0  0  0  0  0  0  0
   67.8059   46.4973   54.0322 C   0  0  0  0  0  0  0  0  0  0  0  0
   68.7175   47.4981   53.7836 C   0  0  0  0  0  0  0  0  0  0  0  0
  8  9  1  0
  9 12  1  0
  9 10  1  0
 13 12  1  1
 13 14  1  0
 13 17  1  0
 14 15  1  0
 15 16  1  6
 15 17  1  0
 10 11  2  0
 10  1  1  0
  1  2  2  0
  1  6  1  0
  2  3  1  0
  3 18  1  0
  3  4  2  0
 18 19  1  0
 19 20  2  0
 19 29  1  0
 20 21  1  0
 21 22  1  0
 22 23  2  0
 22 24  1  0
 24 25  1  0
 24 29  2  0
 25 26  2  0
 26 27  1  0
 27 28  2  0
 28 29  1  0
  4  5  1  0
  5  6  2  0
  6  7  1  0
M  END
>  <minimizedAffinity>  (782) 
-8.73303

$$$$
cs_full_output_folder/data/smiles/2074.pdb
     RDKit          3D

 28 31  0  0  0  0  0  0  0  0999 V2000
   71.6334   46.7829   58.3556 C   0  0  0  0  0  0  0  0  0  0  0  0
   70.6554   47.4511   57.6643 C   0  0  0  0  0  0  0  0  0  0  0  0
   69.6338   46.7980   56.9773 C   0  0  0  0  0  0  0  0  0  0  0  0
   69.5767   45.4342   56.9724 C   0  0  0  0  0  0  0  0  0  0  0  0
   70.5655   44.7300   57.6720 C   0  0  0  0  0  0  0  0  0  0  0  0
   71.5677   45.4059   58.3462 C   0  0  0  0  0  0  0  0  0  0  0  0
   72.5374   44.7235   59.0320 F   0  0  0  0  0  0  0  0  0  0  0  0
   74.8248   50.4657   61.0197 C   0  0  0  0  0  0  0  0  0  0  0  0
   74.0415   49.4789   60.3422 N   0  0  0  0  0  0  0  0  0  0  0  0
   73.8820   48.2447   61.0422 C   0  0  0  0  0  0  0  0  0  0  0  0
   72.6796   47.5656   60.4828 C   0  0  0  0  0  0  0  0  0  0  0  0
   71.7592   47.0968   61.1578 O   0  0  0  0  0  0  0  0  0  0  0  0
   72.6480   47.4811   59.0403 N   0  0  0  0  0  0  0  0  0  0  0  0
   73.7149   48.1531   58.3712 C   0  0  0  0  0  0  0  0  0  0  0  0
   74.1010   47.6522   57.2608 O   0  0  0  0  0  0  0  0  0  0  0  0
   74.3170   49.3565   58.9531 C   0  0  0  0  0  0  0  0  0  0  0  0
   68.6399   47.6029   56.2346 C   0  0  0  0  0  0  0  0  0  0  0  0
   69.0385   47.8700   54.8380 C   0  0  0  0  0  0  0  0  0  0  0  0
   69.8812   48.9061   54.6208 N   0  0  0  0  0  0  0  0  0  0  0  0
   70.3101   49.3155   53.4604 N   0  0  0  0  0  0  0  0  0  0  0  0
   69.8938   48.6641   52.3355 C   0  0  0  0  0  0  0  0  0  0  0  0
   70.3144   49.0708   51.2236 O   0  0  0  0  0  0  0  0  0  0  0  0
   69.0341   47.5970   52.4903 C   0  0  0  0  0  0  0  0  0  0  0  0
   68.6139   46.9194   51.3656 C   0  0  0  0  0  0  0  0  0  0  0  0
   67.7582   45.8321   51.4780 C   0  0  0  0  0  0  0  0  0  0  0  0
   67.3386   45.4452   52.7583 C   0  0  0  0  0  0  0  0  0  0  0  0
   67.7538   46.1150   53.8808 C   0  0  0  0  0  0  0  0  0  0  0  0
   68.5978   47.1870   53.7378 C   0  0  0  0  0  0  0  0  0  0  0  0
  8  9  1  0
  9 10  1  0
  9 16  1  0
 10 11  1  0
 11 12  2  0
 11 13  1  0
 13  1  1  0
 13 14  1  0
  1  2  2  0
  1  6  1  0
  2  3  1  0
  3 17  1  0
  3  4  2  0
 17 18  1  0
 18 19  2  0
 18 28  1  0
 19 20  1  0
 20 21  1  0
 21 22  2  0
 21 23  1  0
 23 24  1  0
 23 28  2  0
 24 25  2  0
 25 26  1  0
 26 27  2  0
 27 28  1  0
  4  5  1  0
  5  6  2  0
  6  7  1  0
 14 15  2  0
 14 16  1  0
M  CHG  1   9   1
M  END
>  <minimizedAffinity>  (783) 
-8.73302

$$$$
cs_full_output_folder/data/smiles/816.pdb
     RDKit          3D

 25 27  0  0  0  0  0  0  0  0999 V2000
   70.9496   41.7850   58.4604 C   0  0  0  0  0  0  0  0  0  0  0  0
   69.6822   41.5178   57.7630 C   0  0  0  0  0  0  0  0  0  0  0  0
   68.9129   42.4042   57.0384 C   0  0  0  0  0  0  0  0  0  0  0  0
   67.8299   41.6591   56.5897 C   0  0  0  0  0  0  0  0  0  0  0  0
   67.9947   40.4020   57.0511 N   0  0  0  0  0  0  0  0  0  0  0  0
   69.1021   40.3067   57.7558 N   0  0  0  0  0  0  0  0  0  0  0  0
   69.5835   39.1324   58.3871 C   0  0  0  0  0  0  0  0  0  0  0  0
   68.8925   38.4884   59.3860 C   0  0  0  0  0  0  0  0  0  0  0  0
   69.3728   37.3474   59.9863 C   0  0  0  0  0  0  0  0  0  0  0  0
   70.5892   36.7850   59.6104 C   0  0  0  0  0  0  0  0  0  0  0  0
   71.2174   35.3355   60.3643 Cl  0  0  0  0  0  0  0  0  0  0  0  0
   71.2988   37.4276   58.6004 C   0  0  0  0  0  0  0  0  0  0  0  0
   70.8071   38.5529   58.0193 C   0  0  0  0  0  0  0  0  0  0  0  0
   69.1782   43.8176   56.7965 C   0  0  0  0  0  0  0  0  0  0  0  0
   70.2388   44.3266   57.2257 O   0  0  0  0  0  0  0  0  0  0  0  0
   68.2726   44.6415   56.0884 N   0  0  0  0  0  0  0  0  0  0  0  0
   68.5180   46.0513   55.8388 C   0  0  0  0  0  0  0  0  0  0  0  0
   68.5028   46.3562   54.3854 C   0  0  0  0  0  0  0  0  0  0  0  0
   67.7672   45.6454   53.4563 C   0  0  0  0  0  0  0  0  0  0  0  0
   67.7740   45.9586   52.1154 C   0  0  0  0  0  0  0  0  0  0  0  0
   68.5278   47.0081   51.6578 C   0  0  0  0  0  0  0  0  0  0  0  0
   69.2606   47.7140   52.5969 C   0  0  0  0  0  0  0  0  0  0  0  0
   69.2425   47.3922   53.9127 N   0  0  0  0  0  0  0  0  0  0  0  0
   70.0780   48.8554   52.1163 C   0  0  0  0  0  0  0  0  0  0  0  0
   71.2567   49.0009   52.8279 O   0  0  0  0  0  0  0  0  0  0  0  0
  1  2  1  0
  2  3  2  0
  2  6  1  0
  3 14  1  0
  3  4  1  0
 14 15  2  0
 14 16  1  0
 16 17  1  0
 17 18  1  0
 18 19  2  0
 18 23  1  0
 19 20  1  0
 20 21  2  0
 21 22  1  0
 22 24  1  0
 22 23  2  0
 24 25  1  0
  4  5  2  0
  5  6  1  0
  6  7  1  0
  7  8  2  0
  7 13  1  0
  8  9  1  0
  9 10  2  0
 10 11  1  0
 10 12  1  0
 12 13  2  0
M  END
>  <minimizedAffinity>  (784) 
-8.73205

$$$$
cs_full_output_folder/data/smiles/5456.pdb
     RDKit          3D

 27 30  0  0  0  0  0  0  0  0999 V2000
   70.3398   43.0144   57.7837 C   0  0  0  0  0  0  0  0  0  0  0  0
   70.9703   44.0791   58.3931 C   0  0  0  0  0  0  0  0  0  0  0  0
   70.6599   45.4055   58.0585 C   0  0  0  0  0  0  0  0  0  0  0  0
   69.7143   45.7074   57.1077 C   0  0  0  0  0  0  0  0  0  0  0  0
   69.0820   44.6531   56.4967 C   0  0  0  0  0  0  0  0  0  0  0  0
   69.3915   43.3257   56.8318 C   0  0  0  0  0  0  0  0  0  0  0  0
   68.5032   40.5863   58.2339 O   0  0  0  0  0  0  0  0  0  0  0  0
   69.7430   40.5805   58.3139 C   0  0  0  0  0  0  0  0  0  0  0  0
   70.4687   39.3366   58.6495 C   0  0  0  0  0  0  0  0  0  0  0  0
   70.0518   38.0472   58.9237 C   0  0  0  0  0  0  0  0  0  0  0  0
   70.9608   37.0566   59.2124 C   0  0  0  0  0  0  0  0  0  0  0  0
   72.3080   37.3544   59.2279 C   0  0  0  0  0  0  0  0  0  0  0  0
   72.7048   38.6464   58.9516 C   0  0  0  0  0  0  0  0  0  0  0  0
   71.8058   39.6495   58.6607 C   0  0  0  0  0  0  0  0  0  0  0  0
   71.9334   41.0853   58.3341 C   0  0  0  0  0  0  0  0  0  0  0  0
   73.0518   41.6369   58.2766 O   0  0  0  0  0  0  0  0  0  0  0  0
   70.6504   41.6556   58.1200 N   0  0  0  0  0  0  0  0  0  0  0  0
   69.3908   47.1304   56.7577 C   0  0  0  0  0  0  0  0  0  0  0  0
   68.3469   47.0972   55.6343 C   0  0  0  0  0  0  0  0  0  0  0  0
   68.8165   47.7887   54.4293 C   0  0  0  0  0  0  0  0  0  0  0  0
   69.1665   49.1349   54.4168 C   0  0  0  0  0  0  0  0  0  0  0  0
   69.6000   49.7205   53.2479 C   0  0  0  0  0  0  0  0  0  0  0  0
   69.7038   49.0143   52.0670 C   0  0  0  0  0  0  0  0  0  0  0  0
   70.1327   49.5768   50.8948 O   0  0  0  0  0  0  0  0  0  0  0  0
   69.3560   47.6764   52.0822 C   0  0  0  0  0  0  0  0  0  0  0  0
   69.4404   46.9148   50.9216 O   0  0  0  0  0  0  0  0  0  0  0  0
   68.9200   47.0823   53.2493 C   0  0  0  0  0  0  0  0  0  0  0  0
  7  8  2  0
  8  9  1  0
  8 17  1  0
  9 10  2  0
  9 14  1  0
 10 11  1  0
 11 12  2  0
 12 13  1  0
 13 14  2  0
 14 15  1  0
 15 16  2  0
 15 17  1  0
 17  1  1  0
  1  2  2  0
  1  6  1  0
  2  3  1  0
  3  4  2  0
  4 18  1  0
  4  5  1  0
 18 19  1  0
 19 20  1  0
 20 21  2  0
 20 27  1  0
 21 22  1  0
 22 23  2  0
 23 24  1  0
 23 25  1  0
 25 26  1  0
 25 27  2  0
  5  6  2  0
M  END
>  <minimizedAffinity>  (785) 
-8.73204

$$$$
cs_full_output_folder/data/smiles/8386.pdb
     RDKit          3D

 27 29  0  0  0  0  0  0  0  0999 V2000
   69.2459   43.3378   57.9529 N   0  0  0  0  0  0  0  0  0  0  0  0
   68.5881   42.1985   57.4832 C   0  0  0  0  0  0  0  0  0  0  0  0
   68.1284   42.2805   56.2835 O   0  0  0  0  0  0  0  0  0  0  0  0
   68.3439   40.9424   58.1578 C   0  0  0  0  0  0  0  0  0  0  0  0
   67.0549   40.6053   58.5069 N   0  0  0  0  0  0  0  0  0  0  0  0
   66.7796   39.4734   59.1065 N   0  0  0  0  0  0  0  0  0  0  0  0
   67.7040   38.5590   59.4278 C   0  0  0  0  0  0  0  0  0  0  0  0
   67.3415   37.4868   60.0131 O   0  0  0  0  0  0  0  0  0  0  0  0
   69.0200   38.8034   59.1174 C   0  0  0  0  0  0  0  0  0  0  0  0
   69.9762   37.8626   59.4130 C   0  0  0  0  0  0  0  0  0  0  0  0
   71.2838   38.1054   59.0667 C   0  0  0  0  0  0  0  0  0  0  0  0
   71.6194   39.2767   58.4307 C   0  0  0  0  0  0  0  0  0  0  0  0
   70.6313   40.2147   58.1430 C   0  0  0  0  0  0  0  0  0  0  0  0
   69.3061   40.0155   58.4751 C   0  0  0  0  0  0  0  0  0  0  0  0
   69.9481   45.7360   59.0045 O   0  0  0  0  0  0  0  0  0  0  0  0
   69.7894   45.7356   57.7582 C   0  0  0  0  0  0  0  0  0  0  0  0
   69.4192   44.5017   57.1513 N   0  0  0  0  0  0  0  0  0  0  0  0
   69.9886   46.9815   57.0052 C   0  0  0  0  0  0  0  0  0  0  0  0
   68.6558   47.4688   56.4876 C   0  0  0  0  0  0  0  0  0  0  0  0
   68.6172   47.2485   55.0151 C   0  0  0  0  0  0  0  0  0  0  0  0
   69.2726   48.1441   54.1988 C   0  0  0  0  0  0  0  0  0  0  0  0
   69.2624   47.9790   52.8266 C   0  0  0  0  0  0  0  0  0  0  0  0
   68.6009   46.9240   52.2765 C   0  0  0  0  0  0  0  0  0  0  0  0
   68.5633   46.7220   50.9390 F   0  0  0  0  0  0  0  0  0  0  0  0
   67.9425   46.0274   53.1139 C   0  0  0  0  0  0  0  0  0  0  0  0
   67.2888   44.9817   52.5445 F   0  0  0  0  0  0  0  0  0  0  0  0
   67.9314   46.1603   54.4725 C   0  0  0  0  0  0  0  0  0  0  0  0
 15 16  2  0
 16 18  1  0
 16 17  1  0
 18 19  1  0
 19 20  1  0
 20 21  2  0
 20 27  1  0
 21 22  1  0
 22 23  2  0
 23 24  1  0
 23 25  1  0
 25 26  1  0
 25 27  2  0
 17  1  1  0
  1  2  1  0
  2  3  2  0
  2  4  1  0
  4  5  2  0
  4 14  1  0
  5  6  1  0
  6  7  1  0
  7  8  2  0
  7  9  1  0
  9 10  1  0
  9 14  2  0
 10 11  2  0
 11 12  1  0
 12 13  2  0
 13 14  1  0
M  END
>  <minimizedAffinity>  (786) 
-8.73177

$$$$
cs_full_output_folder/data/smiles/3081.pdb
     RDKit          3D

 25 27  0  0  0  0  0  0  0  0999 V2000
   71.2141   41.7471   58.4012 C   0  0  0  0  0  0  0  0  0  0  0  0
   69.8771   41.4993   57.8183 C   0  0  0  0  0  0  0  0  0  0  0  0
   69.0943   42.4419   57.1931 C   0  0  0  0  0  0  0  0  0  0  0  0
   67.9689   41.7329   56.8219 C   0  0  0  0  0  0  0  0  0  0  0  0
   68.1143   40.4570   57.2198 N   0  0  0  0  0  0  0  0  0  0  0  0
   69.2871   40.2885   57.8397 N   0  0  0  0  0  0  0  0  0  0  0  0
   69.7867   39.0766   58.4141 C   0  0  0  0  0  0  0  0  0  0  0  0
   70.9472   38.4855   57.9925 C   0  0  0  0  0  0  0  0  0  0  0  0
   71.4207   37.3002   58.5717 C   0  0  0  0  0  0  0  0  0  0  0  0
   70.7257   36.6902   59.5921 C   0  0  0  0  0  0  0  0  0  0  0  0
   71.2983   35.1986   60.3482 Cl  0  0  0  0  0  0  0  0  0  0  0  0
   69.5573   37.2863   60.0163 C   0  0  0  0  0  0  0  0  0  0  0  0
   69.0957   38.4542   59.4407 C   0  0  0  0  0  0  0  0  0  0  0  0
   69.3315   43.8706   56.9557 C   0  0  0  0  0  0  0  0  0  0  0  0
   70.2984   44.4644   57.5251 O   0  0  0  0  0  0  0  0  0  0  0  0
   68.4684   44.5856   56.0814 N   0  0  0  0  0  0  0  0  0  0  0  0
   68.6139   45.9773   55.7781 C   0  0  0  0  0  0  0  0  0  0  0  0
   68.5334   46.2704   54.3453 C   0  0  0  0  0  0  0  0  0  0  0  0
   67.7389   45.5366   53.4777 C   0  0  0  0  0  0  0  0  0  0  0  0
   67.6476   45.7872   52.1248 C   0  0  0  0  0  0  0  0  0  0  0  0
   68.3930   46.8325   51.6000 C   0  0  0  0  0  0  0  0  0  0  0  0
   69.1995   47.5961   52.4085 C   0  0  0  0  0  0  0  0  0  0  0  0
   69.2493   47.2977   53.7538 C   0  0  0  0  0  0  0  0  0  0  0  0
   69.9717   48.6979   51.7836 C   0  0  0  0  0  0  0  0  0  0  0  0
   70.7752   49.3805   52.6729 O   0  0  0  0  0  0  0  0  0  0  0  0
  1  2  1  0
  2  3  2  0
  2  6  1  0
  3 14  1  0
  3  4  1  0
 14 15  2  0
 14 16  1  0
 16 17  1  0
 17 18  1  0
 18 19  2  0
 18 23  1  0
 19 20  1  0
 20 21  2  0
 21 22  1  0
 22 24  1  0
 22 23  2  0
 24 25  1  0
  4  5  2  0
  5  6  1  0
  6  7  1  0
  7  8  2  0
  7 13  1  0
  8  9  1  0
  9 10  2  0
 10 11  1  0
 10 12  1  0
 12 13  2  0
M  END
>  <minimizedAffinity>  (787) 
-8.73166

$$$$
cs_full_output_folder/data/smiles/8126.pdb
     RDKit          3D

 26 29  0  0  0  0  0  0  0  0999 V2000
   71.4494   47.3468   58.8177 C   0  0  0  0  0  0  0  0  0  0  0  0
   70.4562   47.9363   58.0657 C   0  0  0  0  0  0  0  0  0  0  0  0
   69.6194   47.2452   57.2155 C   0  0  0  0  0  0  0  0  0  0  0  0
   69.7896   45.8839   57.1151 C   0  0  0  0  0  0  0  0  0  0  0  0
   70.7827   45.2465   57.8590 C   0  0  0  0  0  0  0  0  0  0  0  0
   71.5937   45.9823   58.6951 C   0  0  0  0  0  0  0  0  0  0  0  0
   72.5555   45.3708   59.4159 F   0  0  0  0  0  0  0  0  0  0  0  0
   75.9962   50.5565   58.0910 N   0  0  0  0  0  0  0  0  0  0  0  0
   75.1842   49.4911   58.5842 C   0  0  0  0  0  0  0  0  0  0  0  0
   73.8405   49.3466   57.8952 C   0  0  0  0  0  0  0  0  0  0  0  0
   73.3126   48.9568   59.2165 N   0  0  0  0  0  0  0  0  0  0  0  0
   72.3146   48.1231   59.7250 C   0  0  0  0  0  0  0  0  0  0  0  0
   72.1401   48.0219   60.9509 O   0  0  0  0  0  0  0  0  0  0  0  0
   74.3064   49.8493   59.7774 C   0  0  0  0  0  0  0  0  0  0  0  0
   68.5349   47.9311   56.4424 C   0  0  0  0  0  0  0  0  0  0  0  0
   69.0830   48.1461   55.0514 C   0  0  0  0  0  0  0  0  0  0  0  0
   69.9769   49.1269   54.8360 N   0  0  0  0  0  0  0  0  0  0  0  0
   70.4781   49.3653   53.6156 N   0  0  0  0  0  0  0  0  0  0  0  0
   70.1290   48.6559   52.5365 C   0  0  0  0  0  0  0  0  0  0  0  0
   70.6206   48.9039   51.3837 O   0  0  0  0  0  0  0  0  0  0  0  0
   69.2137   47.6349   52.7006 C   0  0  0  0  0  0  0  0  0  0  0  0
   68.8136   46.8636   51.6321 C   0  0  0  0  0  0  0  0  0  0  0  0
   67.9035   45.8570   51.8366 C   0  0  0  0  0  0  0  0  0  0  0  0
   67.3884   45.6148   53.1078 C   0  0  0  0  0  0  0  0  0  0  0  0
   67.7843   46.3835   54.1796 C   0  0  0  0  0  0  0  0  0  0  0  0
   68.6944   47.3908   53.9781 C   0  0  0  0  0  0  0  0  0  0  0  0
  8  9  1  0
  9 10  1  0
  9 14  1  0
 10 11  1  0
 11 12  1  0
 11 14  1  0
 12 13  2  0
 12  1  1  0
  1  2  2  0
  1  6  1  0
  2  3  1  0
  3 15  1  0
  3  4  2  0
 15 16  1  0
 16 17  2  0
 16 26  1  0
 17 18  1  0
 18 19  1  0
 19 20  2  0
 19 21  1  0
 21 22  1  0
 21 26  2  0
 22 23  2  0
 23 24  1  0
 24 25  2  0
 25 26  1  0
  4  5  1  0
  5  6  2  0
  6  7  1  0
M  CHG  1   8   1
M  END
>  <minimizedAffinity>  (788) 
-8.73146

$$$$
cs_full_output_folder/data/smiles/2102.pdb
     RDKit          3D

 27 30  0  0  0  0  0  0  0  0999 V2000
   69.7213   47.4438   57.0518 C   0  0  0  0  0  0  0  0  0  0  0  0
   69.6996   46.0782   57.0878 C   0  0  0  0  0  0  0  0  0  0  0  0
   70.5745   45.4011   57.9423 C   0  0  0  0  0  0  0  0  0  0  0  0
   71.4441   46.0970   58.7361 C   0  0  0  0  0  0  0  0  0  0  0  0
   72.2913   45.4505   59.5653 F   0  0  0  0  0  0  0  0  0  0  0  0
   71.4706   47.4847   58.7036 C   0  0  0  0  0  0  0  0  0  0  0  0
   70.6184   48.1463   57.8715 C   0  0  0  0  0  0  0  0  0  0  0  0
   68.8451   48.3045   56.2111 C   0  0  0  0  0  0  0  0  0  0  0  0
   70.5734   48.7674   51.0418 O   0  0  0  0  0  0  0  0  0  0  0  0
   70.1894   48.6586   52.2350 C   0  0  0  0  0  0  0  0  0  0  0  0
   70.6454   49.4476   53.2187 N   0  0  0  0  0  0  0  0  0  0  0  0
   70.2282   49.3175   54.4674 N   0  0  0  0  0  0  0  0  0  0  0  0
   69.3088   48.3696   54.8209 C   0  0  0  0  0  0  0  0  0  0  0  0
   68.8289   47.5520   53.8378 C   0  0  0  0  0  0  0  0  0  0  0  0
   67.9112   46.5546   54.0995 C   0  0  0  0  0  0  0  0  0  0  0  0
   67.4070   45.6948   53.1351 C   0  0  0  0  0  0  0  0  0  0  0  0
   67.8576   45.8572   51.8460 C   0  0  0  0  0  0  0  0  0  0  0  0
   68.7793   46.8463   51.5500 C   0  0  0  0  0  0  0  0  0  0  0  0
   69.2642   47.6832   52.5145 C   0  0  0  0  0  0  0  0  0  0  0  0
   72.4244   48.2435   59.5745 C   0  0  0  0  0  0  0  0  0  0  0  0
   73.3142   48.9671   58.7384 N   0  0  2  0  0  0  0  0  0  0  0  0
   74.4631   48.2188   58.3056 C   0  0  0  0  0  0  0  0  0  0  0  0
   75.4796   49.0478   57.5865 C   0  0  0  0  0  0  0  0  0  0  0  0
   76.3340   49.8446   58.5331 C   0  0  0  0  0  0  0  0  0  0  0  0
   75.9220   50.3265   59.6516 N   0  0  0  0  0  0  0  0  0  0  0  0
   74.6256   50.2444   60.2663 C   0  0  0  0  0  0  0  0  0  0  0  0
   73.5968   50.2953   59.1533 C   0  0  0  0  0  0  0  0  0  0  0  0
  9 10  2  0
 10 11  1  0
 10 19  1  0
 11 12  1  0
 12 13  2  0
 13  8  1  0
 13 14  1  0
  8  1  1  0
  1  2  2  0
  1  7  1  0
  2  3  1  0
  3  4  2  0
  4  5  1  0
  4  6  1  0
  6 20  1  0
  6  7  2  0
 21 20  1  1
 21 22  1  0
 21 27  1  0
 22 23  1  0
 23 24  1  0
 24 25  2  0
 25 26  1  0
 26 27  1  0
 14 15  1  0
 14 19  2  0
 15 16  2  0
 16 17  1  0
 17 18  2  0
 18 19  1  0
M  CHG  1  21   1
M  END
>  <minimizedAffinity>  (789) 
-8.73061

$$$$
cs_full_output_folder/data/smiles/2840.pdb
     RDKit          3D

 28 31  0  0  0  0  0  0  0  0999 V2000
   71.3731   47.1682   58.8614 C   0  0  0  0  0  0  0  0  0  0  0  0
   70.5509   47.9380   58.0326 C   0  0  0  0  0  0  0  0  0  0  0  0
   69.6935   47.4142   57.1071 C   0  0  0  0  0  0  0  0  0  0  0  0
   69.6801   46.0042   57.0310 C   0  0  0  0  0  0  0  0  0  0  0  0
   70.4718   45.2224   57.8324 C   0  0  0  0  0  0  0  0  0  0  0  0
   71.3259   45.8082   58.7570 C   0  0  0  0  0  0  0  0  0  0  0  0
   72.0976   45.0371   59.5754 F   0  0  0  0  0  0  0  0  0  0  0  0
   72.3234   47.8869   59.7861 C   0  0  0  0  0  0  0  0  0  0  0  0
   74.3475   50.4299   56.5471 C   0  0  0  0  0  0  0  0  0  0  0  0
   75.1593   50.3674   57.7146 N   0  0  2  0  0  0  0  0  0  0  0  0
   75.9719   49.2007   57.8472 C   0  0  0  0  0  0  0  0  0  0  0  0
   75.2144   47.9682   58.2320 C   0  0  0  0  0  0  0  0  0  0  0  0
   73.8519   48.0934   58.0622 O   0  0  0  0  0  0  0  0  0  0  0  0
   73.2049   48.7543   59.0401 N   0  0  0  0  0  0  0  0  0  0  0  0
   74.0243   49.6339   59.7880 C   0  0  0  0  0  0  0  0  0  0  0  0
   74.5459   50.7959   58.9253 C   0  0  0  0  0  0  0  0  0  0  0  0
   68.7904   48.1973   56.2097 C   0  0  0  0  0  0  0  0  0  0  0  0
   69.2676   48.2575   54.8140 C   0  0  0  0  0  0  0  0  0  0  0  0
   70.1944   49.2000   54.4652 N   0  0  0  0  0  0  0  0  0  0  0  0
   70.6147   49.3764   53.2209 N   0  0  0  0  0  0  0  0  0  0  0  0
   70.1283   48.6064   52.2268 C   0  0  0  0  0  0  0  0  0  0  0  0
   70.5529   48.8060   51.0669 O   0  0  0  0  0  0  0  0  0  0  0  0
   69.1944   47.6304   52.4760 C   0  0  0  0  0  0  0  0  0  0  0  0
   68.6895   46.8096   51.4810 C   0  0  0  0  0  0  0  0  0  0  0  0
   67.7664   45.8127   51.7396 C   0  0  0  0  0  0  0  0  0  0  0  0
   67.3647   45.6733   53.0594 C   0  0  0  0  0  0  0  0  0  0  0  0
   67.8664   46.4911   54.0561 C   0  0  0  0  0  0  0  0  0  0  0  0
   68.7826   47.4800   53.7840 C   0  0  0  0  0  0  0  0  0  0  0  0
 10  9  1  6
 10 11  1  0
 10 16  1  0
 11 12  1  0
 12 13  1  0
 13 14  1  0
 14  8  1  0
 14 15  1  0
  8  1  1  0
  1  2  2  0
  1  6  1  0
  2  3  1  0
  3 17  1  0
  3  4  2  0
 17 18  1  0
 18 19  2  0
 18 28  1  0
 19 20  1  0
 20 21  1  0
 21 22  2  0
 21 23  1  0
 23 24  1  0
 23 28  2  0
 24 25  2  0
 25 26  1  0
 26 27  2  0
 27 28  1  0
  4  5  1  0
  5  6  2  0
  6  7  1  0
 15 16  1  0
M  CHG  1  10   1
M  END
>  <minimizedAffinity>  (790) 
-8.72953

$$$$
cs_full_output_folder/data/smiles/162.pdb
     RDKit          3D

 26 28  0  0  0  0  0  0  0  0999 V2000
   69.1639   41.8863   57.6355 C   0  0  0  0  0  0  0  0  0  0  0  0
   70.4369   42.4620   58.0869 C   0  0  0  0  0  0  0  0  0  0  0  0
   70.8058   43.7832   58.1764 C   0  0  0  0  0  0  0  0  0  0  0  0
   72.1180   43.7402   58.6677 C   0  0  0  0  0  0  0  0  0  0  0  0
   72.4555   42.4623   58.8406 N   0  0  0  0  0  0  0  0  0  0  0  0
   71.4653   41.6580   58.5006 N   0  0  0  0  0  0  0  0  0  0  0  0
   71.4809   40.2604   58.5544 C   0  0  0  0  0  0  0  0  0  0  0  0
   72.6563   39.5226   58.6851 C   0  0  0  0  0  0  0  0  0  0  0  0
   72.6782   38.1482   58.7382 C   0  0  0  0  0  0  0  0  0  0  0  0
   71.4966   37.4096   58.6616 C   0  0  0  0  0  0  0  0  0  0  0  0
   71.5255   35.6589   58.7277 Cl  0  0  0  0  0  0  0  0  0  0  0  0
   70.3313   38.1345   58.5322 C   0  0  0  0  0  0  0  0  0  0  0  0
   70.3037   39.5055   58.4794 C   0  0  0  0  0  0  0  0  0  0  0  0
   70.0553   44.9817   57.8606 C   0  0  0  0  0  0  0  0  0  0  0  0
   69.8743   45.7960   58.8227 O   0  0  0  0  0  0  0  0  0  0  0  0
   69.5125   45.3395   56.6225 N   0  0  0  0  0  0  0  0  0  0  0  0
   68.7538   46.5617   56.3536 C   0  0  0  0  0  0  0  0  0  0  0  0
   68.6708   46.6602   54.8608 C   0  0  0  0  0  0  0  0  0  0  0  0
   68.0769   45.6952   54.0803 C   0  0  0  0  0  0  0  0  0  0  0  0
   68.0717   45.8374   52.6890 C   0  0  0  0  0  0  0  0  0  0  0  0
   68.6408   46.9109   52.0510 C   0  0  0  0  0  0  0  0  0  0  0  0
   69.2329   47.8719   52.8471 C   0  0  0  0  0  0  0  0  0  0  0  0
   69.2378   47.7336   54.2200 C   0  0  0  0  0  0  0  0  0  0  0  0
   69.8441   49.0082   52.1518 C   0  0  0  0  0  0  0  0  0  0  0  0
   70.3149   48.9219   51.0013 O   0  0  0  0  0  0  0  0  0  0  0  0
   69.9148   50.5772   52.9883 S   0  0  0  0  0  0  0  0  0  0  0  0
  1  2  1  0
  2  3  2  0
  2  6  1  0
  3 14  1  0
  3  4  1  0
 14 15  2  0
 14 16  1  0
 16 17  1  0
 17 18  1  0
 18 19  2  0
 18 23  1  0
 19 20  1  0
 20 21  2  0
 21 22  1  0
 22 24  1  0
 22 23  2  0
 24 25  2  0
 24 26  1  0
  4  5  2  0
  5  6  1  0
  6  7  1  0
  7  8  2  0
  7 13  1  0
  8  9  1  0
  9 10  2  0
 10 11  1  0
 10 12  1  0
 12 13  2  0
M  END
>  <minimizedAffinity>  (791) 
-8.72935

$$$$
cs_full_output_folder/data/smiles/6005.pdb
     RDKit          3D

 26 27  0  0  0  0  0  0  0  0999 V2000
   68.2138   42.8962   56.4885 C   0  0  0  0  0  0  0  0  0  0  0  0
   66.7145   41.9671   56.4342 S   0  0  0  0  0  0  0  0  0  0  0  0
   68.2567   43.7201   55.3757 N   0  0  0  0  0  0  0  0  0  0  0  0
   68.2826   45.0907   55.2037 C   0  0  0  0  0  0  0  0  0  0  0  0
   68.3049   45.8352   56.1897 O   0  0  0  0  0  0  0  0  0  0  0  0
   68.2859   45.7722   53.8827 C   0  0  0  0  0  0  0  0  0  0  0  0
   67.5349   45.2428   52.8513 C   0  0  0  0  0  0  0  0  0  0  0  0
   67.5095   45.8506   51.6128 C   0  0  0  0  0  0  0  0  0  0  0  0
   68.2355   46.9899   51.4037 C   0  0  0  0  0  0  0  0  0  0  0  0
   68.9783   47.5117   52.4241 C   0  0  0  0  0  0  0  0  0  0  0  0
   69.0042   46.8935   53.6851 C   0  0  0  0  0  0  0  0  0  0  0  0
   69.7468   48.7008   52.2525 N   0  0  0  0  0  0  0  0  0  0  0  0
   69.6537   49.7300   53.1815 N   0  0  0  0  0  0  0  0  0  0  0  0
   70.4826   48.7928   51.2753 O   0  0  0  0  0  0  0  0  0  0  0  0
   68.9971   42.5237   57.5862 C   0  0  0  0  0  0  0  0  0  0  0  0
   69.2234   43.5376   58.4326 O   0  0  0  0  0  0  0  0  0  0  0  0
   71.0411   38.9307   58.5999 C   0  0  0  0  0  0  0  0  0  0  0  0
   71.7110   40.1272   58.4838 C   0  0  0  0  0  0  0  0  0  0  0  0
   71.0265   41.2722   58.2079 C   0  0  0  0  0  0  0  0  0  0  0  0
   69.6214   41.3153   58.0256 C   0  0  0  0  0  0  0  0  0  0  0  0
   69.0259   40.0756   58.1553 C   0  0  0  0  0  0  0  0  0  0  0  0
   69.6632   38.8987   58.4324 C   0  0  0  0  0  0  0  0  0  0  0  0
   72.1824   37.0298   57.6141 C   0  0  0  0  0  0  0  0  0  0  0  0
   71.7599   37.6951   58.9021 C   0  0  0  0  0  0  0  0  0  0  0  0
   73.0460   38.0259   59.6630 C   0  0  0  0  0  0  0  0  0  0  0  0
   70.9311   36.6873   59.6628 C   0  0  0  0  0  0  0  0  0  0  0  0
 23 24  1  0
 24 25  1  0
 24 26  1  0
 24 17  1  0
 17 18  2  0
 17 22  1  0
 18 19  1  0
 19 20  2  0
 20 15  1  0
 20 21  1  0
 15 16  2  0
 15  1  1  0
  1  2  2  0
  1  3  1  0
  3  4  1  0
  4  5  2  0
  4  6  1  0
  6  7  2  0
  6 11  1  0
  7  8  1  0
  8  9  2  0
  9 10  1  0
 10 12  1  0
 10 11  2  0
 12 13  1  0
 12 14  2  0
 21 22  2  0
M  CHG  1  12   1
M  END
>  <minimizedAffinity>  (792) 
-8.72900

$$$$
cs_full_output_folder/data/smiles/3992.pdb
     RDKit          3D

 29 32  0  0  0  0  0  0  0  0999 V2000
   71.1875   44.7109   57.9663 C   0  0  0  0  0  0  0  0  0  0  0  0
   70.1038   45.3415   57.3473 C   0  0  0  0  0  0  0  0  0  0  0  0
   69.8912   46.6850   57.4725 C   0  0  0  0  0  0  0  0  0  0  0  0
   70.7645   47.4520   58.2305 C   0  0  0  0  0  0  0  0  0  0  0  0
   71.8257   46.8311   58.8371 C   0  0  0  0  0  0  0  0  0  0  0  0
   72.0401   45.4749   58.7095 C   0  0  0  0  0  0  0  0  0  0  0  0
   73.1057   44.8531   59.3184 F   0  0  0  0  0  0  0  0  0  0  0  0
   69.6928   43.0558   59.5868 C   0  0  0  0  0  0  0  0  0  0  0  0
   70.5913   42.4079   58.6175 N   0  0  0  0  0  0  0  0  0  0  0  0
   71.3565   43.2475   57.7893 C   0  0  0  0  0  0  0  0  0  0  0  0
   72.1721   42.8497   56.9107 O   0  0  0  0  0  0  0  0  0  0  0  0
   70.6190   40.9762   58.5931 C   0  0  0  0  0  0  0  0  0  0  0  0
   71.7463   40.2136   58.6250 C   0  0  0  0  0  0  0  0  0  0  0  0
   71.6793   38.8257   58.5949 C   0  0  0  0  0  0  0  0  0  0  0  0
   70.4782   38.1593   58.5328 C   0  0  0  0  0  0  0  0  0  0  0  0
   69.3522   38.9437   58.5012 C   0  0  0  0  0  0  0  0  0  0  0  0
   69.3964   40.3157   58.5306 C   0  0  0  0  0  0  0  0  0  0  0  0
   68.7286   47.3417   56.7858 C   0  0  0  0  0  0  0  0  0  0  0  0
   69.1705   47.7425   55.4523 C   0  0  0  0  0  0  0  0  0  0  0  0
   70.0682   48.7794   55.3818 N   0  0  0  0  0  0  0  0  0  0  0  0
   70.5858   49.2107   54.2556 N   0  0  0  0  0  0  0  0  0  0  0  0
   70.2912   48.6834   53.0610 C   0  0  0  0  0  0  0  0  0  0  0  0
   70.7784   49.0846   51.9828 O   0  0  0  0  0  0  0  0  0  0  0  0
   69.3829   47.6283   53.0757 C   0  0  0  0  0  0  0  0  0  0  0  0
   68.9926   47.0168   51.9069 C   0  0  0  0  0  0  0  0  0  0  0  0
   68.0861   45.9815   51.8868 C   0  0  0  0  0  0  0  0  0  0  0  0
   67.5580   45.5523   53.0855 C   0  0  0  0  0  0  0  0  0  0  0  0
   67.9172   46.1325   54.2857 C   0  0  0  0  0  0  0  0  0  0  0  0
   68.8275   47.1650   54.2713 C   0  0  0  0  0  0  0  0  0  0  0  0
  8  9  1  0
  9 10  1  0
  9 12  1  0
 10 11  2  0
 10  1  1  0
  1  2  2  0
  1  6  1  0
  2  3  1  0
  3 18  1  0
  3  4  2  0
 18 19  1  0
 19 20  2  0
 19 29  1  0
 20 21  1  0
 21 22  1  0
 22 23  2  0
 22 24  1  0
 24 25  1  0
 24 29  2  0
 25 26  2  0
 26 27  1  0
 27 28  2  0
 28 29  1  0
  4  5  1  0
  5  6  2  0
  6  7  1  0
 12 13  2  0
 12 17  1  0
 13 14  1  0
 14 15  2  0
 15 16  1  0
 16 17  2  0
M  END
>  <minimizedAffinity>  (793) 
-8.72692

$$$$
cs_full_output_folder/data/smiles/9536.pdb
     RDKit          3D

 28 31  0  0  0  0  0  0  0  0999 V2000
   71.8950   47.3591   59.0136 C   0  0  0  0  0  0  0  0  0  0  0  0
   70.8764   48.0743   58.3617 C   0  0  0  0  0  0  0  0  0  0  0  0
   69.9618   47.4429   57.5734 C   0  0  0  0  0  0  0  0  0  0  0  0
   70.1089   46.0494   57.4603 C   0  0  0  0  0  0  0  0  0  0  0  0
   71.1007   45.3440   58.0940 C   0  0  0  0  0  0  0  0  0  0  0  0
   72.0031   46.0037   58.8788 C   0  0  0  0  0  0  0  0  0  0  0  0
   72.9916   45.3179   59.5139 F   0  0  0  0  0  0  0  0  0  0  0  0
   74.7537   51.3093   59.1377 N   0  0  0  0  0  0  0  0  0  0  0  0
   75.7166   50.3049   59.4802 C   0  0  2  0  0  0  0  0  0  0  0  0
   76.4034   49.7728   58.2614 C   0  0  0  0  0  0  0  0  0  0  0  0
   75.6004   48.8921   57.3844 C   0  0  0  0  0  0  0  0  0  0  0  0
   74.3945   48.2513   57.9489 C   0  0  0  0  0  0  0  0  0  0  0  0
   74.1073   48.4884   59.3261 N   0  0  0  0  0  0  0  0  0  0  0  0
   72.8738   48.0484   59.8643 C   0  0  0  0  0  0  0  0  0  0  0  0
   72.6150   48.2436   61.0642 O   0  0  0  0  0  0  0  0  0  0  0  0
   75.0321   49.1745   60.2248 C   0  0  0  0  0  0  0  0  0  0  0  0
   68.8416   48.0739   56.8450 C   0  0  0  0  0  0  0  0  0  0  0  0
   68.5328   47.3005   55.6516 C   0  0  0  0  0  0  0  0  0  0  0  0
   68.0657   46.0149   55.8349 N   0  0  0  0  0  0  0  0  0  0  0  0
   67.8285   45.2030   54.8224 N   0  0  0  0  0  0  0  0  0  0  0  0
   68.0346   45.6045   53.5566 C   0  0  0  0  0  0  0  0  0  0  0  0
   67.8149   44.8437   52.5615 O   0  0  0  0  0  0  0  0  0  0  0  0
   68.5024   46.8918   53.3305 C   0  0  0  0  0  0  0  0  0  0  0  0
   68.7530   47.7534   54.4095 C   0  0  0  0  0  0  0  0  0  0  0  0
   69.1823   49.1127   54.0920 C   0  0  0  0  0  0  0  0  0  0  0  0
   70.4137   48.9449   53.1896 C   0  0  0  0  0  0  0  0  0  0  0  0
   70.0846   48.1344   51.9699 C   0  0  0  0  0  0  0  0  0  0  0  0
   68.7683   47.4440   51.9861 C   0  0  0  0  0  0  0  0  0  0  0  0
  9  8  1  6
  9 10  1  0
  9 16  1  0
 10 11  1  0
 11 12  1  0
 12 13  1  0
 13 14  1  0
 13 16  1  0
 14 15  2  0
 14  1  1  0
  1  2  2  0
  1  6  1  0
  2  3  1  0
  3 17  1  0
  3  4  2  0
 17 18  1  0
 18 19  2  0
 18 24  1  0
 19 20  1  0
 20 21  1  0
 21 22  2  0
 21 23  1  0
 23 24  2  0
 23 28  1  0
 24 25  1  0
 25 26  1  0
 26 27  1  0
 27 28  1  0
  4  5  1  0
  5  6  2  0
  6  7  1  0
M  CHG  1   8   1
M  END
>  <minimizedAffinity>  (794) 
-8.72657

$$$$
cs_full_output_folder/data/smiles/3671.pdb
     RDKit          3D

 28 30  0  0  0  0  0  0  0  0999 V2000
   71.0664   43.6109   57.7663 C   0  0  0  0  0  0  0  0  0  0  0  0
   71.6068   44.7777   58.2335 C   0  0  0  0  0  0  0  0  0  0  0  0
   71.0169   46.0268   57.9959 C   0  0  0  0  0  0  0  0  0  0  0  0
   69.8532   46.1400   57.2716 C   0  0  0  0  0  0  0  0  0  0  0  0
   69.3003   44.9693   56.7960 C   0  0  0  0  0  0  0  0  0  0  0  0
   69.8783   43.7424   57.0292 C   0  0  0  0  0  0  0  0  0  0  0  0
   70.7807   41.1618   58.2009 N   0  0  0  0  0  0  0  0  0  0  0  0
   71.6186   42.2799   57.9708 C   0  0  0  0  0  0  0  0  0  0  0  0
   72.8661   42.0701   57.9489 O   0  0  0  0  0  0  0  0  0  0  0  0
   69.3085   38.8186   58.2444 O   0  0  0  0  0  0  0  0  0  0  0  0
   70.5440   38.6890   58.4178 C   0  0  0  0  0  0  0  0  0  0  0  0
   71.3144   39.8679   58.3994 N   0  0  0  0  0  0  0  0  0  0  0  0
   71.1008   37.3611   58.6226 C   0  0  0  0  0  0  0  0  0  0  0  0
   70.7274   36.5314   59.6457 C   0  0  0  0  0  0  0  0  0  0  0  0
   71.3049   35.2740   59.7784 C   0  0  0  0  0  0  0  0  0  0  0  0
   72.2628   34.8294   58.8907 C   0  0  0  0  0  0  0  0  0  0  0  0
   72.6480   35.6565   57.8546 C   0  0  0  0  0  0  0  0  0  0  0  0
   72.0579   36.9058   57.7440 C   0  0  0  0  0  0  0  0  0  0  0  0
   69.0943   47.6956   56.9606 S   0  0  0  0  0  0  0  0  0  0  0  0
   69.4746   48.7134   57.9889 O   0  0  0  0  0  0  0  0  0  0  0  0
   67.6092   47.4944   57.0464 O   0  0  0  0  0  0  0  0  0  0  0  0
   69.4501   48.2443   55.3595 N   0  0  0  0  0  0  0  0  0  0  0  0
   68.9948   47.5450   54.2023 C   0  0  0  0  0  0  0  0  0  0  0  0
   69.5270   47.8117   52.9576 C   0  0  0  0  0  0  0  0  0  0  0  0
   69.1158   47.1607   51.8167 C   0  0  0  0  0  0  0  0  0  0  0  0
   68.1315   46.1981   51.9019 C   0  0  0  0  0  0  0  0  0  0  0  0
   67.5889   45.9182   53.1343 C   0  0  0  0  0  0  0  0  0  0  0  0
   68.0106   46.5799   54.2711 C   0  0  0  0  0  0  0  0  0  0  0  0
 10 11  2  0
 11 12  1  0
 11 13  1  0
 12  7  1  0
  7  8  1  0
  8  9  2  0
  8  1  1  0
  1  2  2  0
  1  6  1  0
  2  3  1  0
  3  4  2  0
  4 19  1  0
  4  5  1  0
 19 20  2  0
 19 21  2  0
 19 22  1  0
 22 23  1  0
 23 24  2  0
 23 28  1  0
 24 25  1  0
 25 26  2  0
 26 27  1  0
 27 28  2  0
  5  6  2  0
 13 14  2  0
 13 18  1  0
 14 15  1  0
 15 16  2  0
 16 17  1  0
 17 18  2  0
M  END
>  <minimizedAffinity>  (795) 
-8.72588

$$$$
cs_full_output_folder/data/smiles/5804.pdb
     RDKit          3D

 25 26  0  0  0  0  0  0  0  0999 V2000
   69.5133   45.2721   56.9114 O   0  0  0  0  0  0  0  0  0  0  0  0
   69.3083   46.6974   56.4894 S   0  0  0  0  0  0  0  0  0  0  0  0
   70.5708   47.4893   56.7260 O   0  0  0  0  0  0  0  0  0  0  0  0
   68.9078   46.7185   54.7753 C   0  0  0  0  0  0  0  0  0  0  0  0
   69.3454   47.7134   53.9333 C   0  0  0  0  0  0  0  0  0  0  0  0
   70.0953   48.7308   54.3880 F   0  0  0  0  0  0  0  0  0  0  0  0
   69.0116   47.6874   52.5821 C   0  0  0  0  0  0  0  0  0  0  0  0
   69.4366   48.6630   51.7407 F   0  0  0  0  0  0  0  0  0  0  0  0
   68.2367   46.6579   52.0909 C   0  0  0  0  0  0  0  0  0  0  0  0
   67.9106   46.6324   50.7723 F   0  0  0  0  0  0  0  0  0  0  0  0
   67.7915   45.6621   52.9049 C   0  0  0  0  0  0  0  0  0  0  0  0
   67.0357   44.6528   52.4334 F   0  0  0  0  0  0  0  0  0  0  0  0
   68.1340   45.7072   54.2370 C   0  0  0  0  0  0  0  0  0  0  0  0
   67.7116   44.7352   55.0809 F   0  0  0  0  0  0  0  0  0  0  0  0
   67.9815   47.3597   57.3470 N   0  0  0  0  0  0  0  0  0  0  0  0
   67.7221   48.7476   57.3151 C   0  0  0  0  0  0  0  0  0  0  0  0
   66.5650   49.2729   57.9135 C   0  0  0  0  0  0  0  0  0  0  0  0
   66.3152   50.6109   57.8891 C   0  0  0  0  0  0  0  0  0  0  0  0
   67.2106   51.4848   57.2668 C   0  0  0  0  0  0  0  0  0  0  0  0
   68.3455   51.0081   56.6752 C   0  0  0  0  0  0  0  0  0  0  0  0
   68.5754   49.6366   56.7150 C   0  0  0  0  0  0  0  0  0  0  0  0
   69.3021   51.8209   56.0256 N   0  0  0  0  0  0  0  0  0  0  0  0
   69.2530   52.1001   54.6018 C   0  0  0  0  0  0  0  0  0  0  0  0
   68.5408   51.1034   53.9470 O   0  0  0  0  0  0  0  0  0  0  0  0
   68.5189   53.2909   54.4611 O   0  0  0  0  0  0  0  0  0  0  0  0
  1  2  2  0
  2  3  2  0
  2 15  1  0
  2  4  1  0
 15 16  1  0
 16 17  2  0
 16 21  1  0
 17 18  1  0
 18 19  2  0
 19 20  1  0
 20 22  1  0
 20 21  2  0
 22 23  1  0
 23 24  1  0
 23 25  1  0
  4  5  2  0
  4 13  1  0
  5  6  1  0
  5  7  1  0
  7  8  1  0
  7  9  2  0
  9 10  1  0
  9 11  1  0
 11 12  1  0
 11 13  2  0
 13 14  1  0
M  END
>  <minimizedAffinity>  (796) 
-8.72432

$$$$
cs_full_output_folder/data/smiles/1809.pdb
     RDKit          3D

 25 27  0  0  0  0  0  0  0  0999 V2000
   69.0153   45.2005   56.6100 N   0  0  0  0  0  0  0  0  0  0  0  0
   70.0528   44.5834   57.3191 C   0  0  0  0  0  0  0  0  0  0  0  0
   71.0280   45.2796   57.6830 O   0  0  0  0  0  0  0  0  0  0  0  0
   69.9825   43.1558   57.6199 C   0  0  0  0  0  0  0  0  0  0  0  0
   68.8788   42.3330   57.6802 C   0  0  0  0  0  0  0  0  0  0  0  0
   69.3113   41.0960   57.9908 N   0  0  0  0  0  0  0  0  0  0  0  0
   70.6273   41.0591   58.1372 N   0  0  0  0  0  0  0  0  0  0  0  0
   71.0458   42.3287   57.9089 C   0  0  0  0  0  0  0  0  0  0  0  0
   71.4426   39.9332   58.4623 C   0  0  0  0  0  0  0  0  0  0  0  0
   71.0811   38.6588   58.0868 C   0  0  0  0  0  0  0  0  0  0  0  0
   71.8547   37.5457   58.3937 C   0  0  0  0  0  0  0  0  0  0  0  0
   73.0363   37.6949   59.1022 C   0  0  0  0  0  0  0  0  0  0  0  0
   74.0101   36.2966   59.4878 Cl  0  0  0  0  0  0  0  0  0  0  0  0
   73.4192   38.9805   59.4917 C   0  0  0  0  0  0  0  0  0  0  0  0
   72.6205   40.0552   59.1650 C   0  0  0  0  0  0  0  0  0  0  0  0
   68.9079   46.5737   56.2294 C   0  0  0  0  0  0  0  0  0  0  0  0
   69.2897   47.7410   52.6599 C   0  0  0  0  0  0  0  0  0  0  0  0
   68.5083   46.8324   51.9803 C   0  0  0  0  0  0  0  0  0  0  0  0
   67.8567   45.8503   52.6584 C   0  0  0  0  0  0  0  0  0  0  0  0
   67.9830   45.7670   54.0500 C   0  0  0  0  0  0  0  0  0  0  0  0
   68.7632   46.6696   54.7618 C   0  0  0  0  0  0  0  0  0  0  0  0
   69.4072   47.6474   54.0432 C   0  0  0  0  0  0  0  0  0  0  0  0
   69.9898   50.1473   52.3736 N   0  0  0  0  0  0  0  0  0  0  0  0
   69.9962   48.7977   51.9403 C   0  0  0  0  0  0  0  0  0  0  0  0
   70.6361   48.5163   50.8987 O   0  0  0  0  0  0  0  0  0  0  0  0
 23 24  1  0
 24 25  2  0
 24 17  1  0
 17 18  2  0
 17 22  1  0
 18 19  1  0
 19 20  2  0
 20 21  1  0
 21 16  1  0
 21 22  2  0
 16  1  1  0
  1  2  1  0
  2  3  2  0
  2  4  1  0
  4  5  1  0
  4  8  2  0
  5  6  2  0
  6  7  1  0
  7  9  1  0
  7  8  1  0
  9 10  2  0
  9 15  1  0
 10 11  1  0
 11 12  2  0
 12 13  1  0
 12 14  1  0
 14 15  2  0
M  END
>  <minimizedAffinity>  (797) 
-8.72272

$$$$
cs_full_output_folder/data/smiles/7909.pdb
     RDKit          3D

 27 30  0  0  0  0  0  0  0  0999 V2000
   70.3587   45.4828   57.6605 C   0  0  0  0  0  0  0  0  0  0  0  0
   71.0849   46.3214   58.2171 O   0  0  0  0  0  0  0  0  0  0  0  0
   69.3035   45.9278   56.8693 N   0  0  0  0  0  0  0  0  0  0  0  0
   71.4732   41.3939   58.3712 C   0  0  0  0  0  0  0  0  0  0  0  0
   70.1741   41.7151   58.0779 C   0  0  0  0  0  0  0  0  0  0  0  0
   69.7831   43.0433   57.8420 C   0  0  0  0  0  0  0  0  0  0  0  0
   70.6930   44.0670   57.8995 C   0  0  0  0  0  0  0  0  0  0  0  0
   72.0055   43.7267   58.1979 C   0  0  0  0  0  0  0  0  0  0  0  0
   72.3895   42.4185   58.4295 C   0  0  0  0  0  0  0  0  0  0  0  0
   72.9517   36.3025   59.7200 O   0  0  0  0  0  0  0  0  0  0  0  0
   72.7889   37.3806   59.1291 C   0  0  0  0  0  0  0  0  0  0  0  0
   71.7050   37.6056   58.1369 C   0  0  0  0  0  0  0  0  0  0  0  0
   70.9529   38.8767   58.3734 C   0  0  0  0  0  0  0  0  0  0  0  0
   71.8829   39.9869   58.6188 C   0  0  0  0  0  0  0  0  0  0  0  0
   73.0559   39.7498   59.0500 N   0  0  0  0  0  0  0  0  0  0  0  0
   73.6367   38.5296   59.3447 N   0  0  0  0  0  0  0  0  0  0  0  0
   68.8183   47.1930   56.5086 C   0  0  0  0  0  0  0  0  0  0  0  0
   69.1193   47.7537   55.1951 C   0  0  0  0  0  0  0  0  0  0  0  0
   69.8796   48.9277   55.0865 C   0  0  0  0  0  0  0  0  0  0  0  0
   70.2520   49.4757   53.8916 C   0  0  0  0  0  0  0  0  0  0  0  0
   69.8563   48.8343   52.7449 C   0  0  0  0  0  0  0  0  0  0  0  0
   69.1083   47.6808   52.7989 C   0  0  0  0  0  0  0  0  0  0  0  0
   68.6968   47.0781   51.6073 C   0  0  0  0  0  0  0  0  0  0  0  0
   67.9269   45.9547   51.6588 C   0  0  0  0  0  0  0  0  0  0  0  0
   67.5317   45.3806   52.8516 C   0  0  0  0  0  0  0  0  0  0  0  0
   67.9444   45.9835   54.0164 C   0  0  0  0  0  0  0  0  0  0  0  0
   68.7367   47.1379   54.0366 C   0  0  0  0  0  0  0  0  0  0  0  0
 10 11  2  0
 11 12  1  0
 11 16  1  0
 12 13  1  0
 13 14  1  0
 14  4  1  0
 14 15  2  0
  4  5  2  0
  4  9  1  0
  5  6  1  0
  6  7  2  0
  7  1  1  0
  7  8  1  0
  1  2  2  0
  1  3  1  0
  3 17  1  0
 17 18  1  0
 18 19  2  0
 18 27  1  0
 19 20  1  0
 20 21  2  0
 21 22  1  0
 22 23  1  0
 22 27  2  0
 23 24  2  0
 24 25  1  0
 25 26  2  0
 26 27  1  0
  8  9  2  0
 15 16  1  0
M  END
>  <minimizedAffinity>  (798) 
-8.72257

$$$$
cs_full_output_folder/data/smiles/5301.pdb
     RDKit          3D

 28 31  0  0  0  0  0  0  0  0999 V2000
   69.1476   50.4276   57.5889 C   0  0  0  0  0  0  0  0  0  0  0  0
   67.8173   50.6593   57.8110 C   0  0  0  0  0  0  0  0  0  0  0  0
   66.9428   49.5864   57.6526 C   0  0  0  0  0  0  0  0  0  0  0  0
   67.4278   48.3461   57.2844 C   0  0  0  0  0  0  0  0  0  0  0  0
   68.7509   48.1029   57.0587 C   0  0  0  0  0  0  0  0  0  0  0  0
   69.6243   49.1571   57.2127 C   0  0  0  0  0  0  0  0  0  0  0  0
   72.9739   54.4676   55.2329 C   0  0  0  0  0  0  0  0  0  0  0  0
   72.5271   53.1517   55.8266 C   0  0  2  0  0  0  0  0  0  0  0  0
   73.6064   52.6930   56.6017 F   0  0  0  0  0  0  0  0  0  0  0  0
   72.2411   52.0915   54.8313 C   0  0  0  0  0  0  0  0  0  0  0  0
   70.8364   51.9615   54.3457 C   0  0  0  0  0  0  0  0  0  0  0  0
   69.7858   52.2672   55.3693 C   0  0  0  0  0  0  0  0  0  0  0  0
   70.3917   52.3548   56.6807 N   0  0  0  0  0  0  0  0  0  0  0  0
   70.1070   51.5237   57.7499 C   0  0  0  0  0  0  0  0  0  0  0  0
   70.6590   51.6882   58.8609 O   0  0  0  0  0  0  0  0  0  0  0  0
   71.4049   53.3901   56.8132 C   0  0  0  0  0  0  0  0  0  0  0  0
   69.3456   46.7864   56.6739 C   0  0  0  0  0  0  0  0  0  0  0  0
   68.7483   46.2991   55.4065 C   0  0  0  0  0  0  0  0  0  0  0  0
   67.9327   45.2118   55.3996 N   0  0  0  0  0  0  0  0  0  0  0  0
   67.3789   44.7934   54.2729 N   0  0  0  0  0  0  0  0  0  0  0  0
   67.5912   45.4093   53.0980 C   0  0  0  0  0  0  0  0  0  0  0  0
   67.0276   44.9521   52.0427 O   0  0  0  0  0  0  0  0  0  0  0  0
   68.4038   46.5144   53.0281 C   0  0  0  0  0  0  0  0  0  0  0  0
   68.6298   47.1473   51.8258 C   0  0  0  0  0  0  0  0  0  0  0  0
   69.4632   48.2520   51.8146 C   0  0  0  0  0  0  0  0  0  0  0  0
   70.0582   48.7143   52.9750 C   0  0  0  0  0  0  0  0  0  0  0  0
   69.8139   48.0611   54.1528 C   0  0  0  0  0  0  0  0  0  0  0  0
   68.9825   46.9445   54.2293 C   0  0  0  0  0  0  0  0  0  0  0  0
  8  7  1  6
  8  9  1  0
  8 10  1  0
  8 16  1  0
 10 11  1  0
 11 12  1  0
 12 13  1  0
 13 14  1  0
 13 16  1  0
 14 15  2  0
 14  1  1  0
  1  2  2  0
  1  6  1  0
  2  3  1  0
  3  4  2  0
  4  5  1  0
  5 17  1  0
  5  6  2  0
 17 18  1  0
 18 19  2  0
 18 28  1  0
 19 20  1  0
 20 21  1  0
 21 22  2  0
 21 23  1  0
 23 24  1  0
 23 28  2  0
 24 25  2  0
 25 26  1  0
 26 27  2  0
 27 28  1  0
M  END
>  <minimizedAffinity>  (799) 
-8.72204

$$$$
cs_full_output_folder/data/smiles/1831.pdb
     RDKit          3D

 28 32  0  0  0  0  0  0  0  0999 V2000
   71.5271   47.6514   59.1770 C   0  0  0  0  0  0  0  0  0  0  0  0
   70.8121   48.7614   58.7043 C   0  0  0  0  0  0  0  0  0  0  0  0
   69.7512   48.6005   57.8491 C   0  0  0  0  0  0  0  0  0  0  0  0
   69.3240   47.3704   57.4040 C   0  0  0  0  0  0  0  0  0  0  0  0
   70.0143   46.2744   57.8573 C   0  0  0  0  0  0  0  0  0  0  0  0
   71.1010   46.4249   58.7338 C   0  0  0  0  0  0  0  0  0  0  0  0
   71.7048   45.2776   59.0933 F   0  0  0  0  0  0  0  0  0  0  0  0
   72.6568   47.8541   60.1112 C   0  0  0  0  0  0  0  0  0  0  0  0
   74.4031   46.8125   57.7999 O   0  0  0  0  0  0  0  0  0  0  0  0
   74.6038   47.8958   58.4144 C   0  0  0  0  0  0  0  0  0  0  0  0
   75.7353   48.7718   58.0900 C   0  0  0  0  0  0  0  0  0  0  0  0
   76.7846   48.7213   57.1899 C   0  0  0  0  0  0  0  0  0  0  0  0
   77.7339   49.7248   57.1343 C   0  0  0  0  0  0  0  0  0  0  0  0
   77.5942   50.7797   58.0098 C   0  0  0  0  0  0  0  0  0  0  0  0
   76.5736   50.8178   58.8757 N   0  0  0  0  0  0  0  0  0  0  0  0
   75.6174   49.8329   58.9499 C   0  0  0  0  0  0  0  0  0  0  0  0
   74.4300   49.7199   59.8148 C   0  0  0  0  0  0  0  0  0  0  0  0
   73.8368   48.4475   59.4628 N   0  0  0  0  0  0  0  0  0  0  0  0
   68.2440   47.2319   56.5061 N   0  0  0  0  0  0  0  0  0  0  0  0
   68.4906   47.1005   55.1230 C   0  0  0  0  0  0  0  0  0  0  0  0
   67.9957   46.0944   54.3407 C   0  0  0  0  0  0  0  0  0  0  0  0
   68.2599   45.9660   52.9855 C   0  0  0  0  0  0  0  0  0  0  0  0
   69.0700   46.9068   52.3810 C   0  0  0  0  0  0  0  0  0  0  0  0
   69.5151   47.0736   51.1210 N   0  0  0  0  0  0  0  0  0  0  0  0
   70.2747   48.1514   51.0781 N   0  0  0  0  0  0  0  0  0  0  0  0
   70.3574   48.7246   52.2846 C   0  0  0  0  0  0  0  0  0  0  0  0
   69.5913   47.9408   53.1381 C   0  0  0  0  0  0  0  0  0  0  0  0
   69.3048   48.0342   54.4859 C   0  0  0  0  0  0  0  0  0  0  0  0
  9 10  2  0
 10 11  1  0
 10 18  1  0
 11 12  2  0
 11 16  1  0
 12 13  1  0
 13 14  2  0
 14 15  1  0
 15 16  2  0
 16 17  1  0
 17 18  1  0
 18  8  1  0
  8  1  1  0
  1  2  2  0
  1  6  1  0
  2  3  1  0
  3  4  2  0
  4 19  1  0
  4  5  1  0
 19 20  1  0
 20 21  2  0
 20 28  1  0
 21 22  1  0
 22 23  2  0
 23 24  1  0
 23 27  1  0
 24 25  1  0
 25 26  2  0
 26 27  1  0
 27 28  2  0
  5  6  2  0
  6  7  1  0
M  END
>  <minimizedAffinity>  (800) 
-8.72093

$$$$
cs_full_output_folder/data/smiles/4725.pdb
     RDKit          3D

 26 29  0  0  0  0  0  0  0  0999 V2000
   68.6827   50.6330   56.4866 C   0  0  0  0  0  0  0  0  0  0  0  0
   67.7236   51.5647   56.8136 C   0  0  0  0  0  0  0  0  0  0  0  0
   66.6341   51.2381   57.6022 C   0  0  0  0  0  0  0  0  0  0  0  0
   66.5762   49.9354   58.0313 C   0  0  0  0  0  0  0  0  0  0  0  0
   67.5417   48.9805   57.7086 C   0  0  0  0  0  0  0  0  0  0  0  0
   68.6134   49.3237   56.9278 C   0  0  0  0  0  0  0  0  0  0  0  0
   70.7721   52.1200   57.3517 O   0  0  0  0  0  0  0  0  0  0  0  0
   70.8071   51.7850   56.1144 C   0  0  0  0  0  0  0  0  0  0  0  0
   69.7584   51.0134   55.5967 N   0  0  0  0  0  0  0  0  0  0  0  0
   71.9200   52.2049   55.2714 C   0  0  0  0  0  0  0  0  0  0  0  0
   72.5838   51.6439   54.2378 C   0  0  0  0  0  0  0  0  0  0  0  0
   73.5594   52.3386   53.7196 N   0  0  0  0  0  0  0  0  0  0  0  0
   73.9527   53.3986   54.0261 C   0  0  0  0  0  0  0  0  0  0  0  0
   72.7515   53.7474   55.4592 S   0  0  0  0  0  0  0  0  0  0  0  0
   69.7045   48.3825   56.5543 C   0  0  0  0  0  0  0  0  0  0  0  0
   69.1648   47.1860   55.9400 C   0  0  0  0  0  0  0  0  0  0  0  0
   69.0205   46.0622   56.6784 N   0  0  0  0  0  0  0  0  0  0  0  0
   68.4886   44.9501   56.2201 N   0  0  0  0  0  0  0  0  0  0  0  0
   68.0428   44.8550   54.9572 C   0  0  0  0  0  0  0  0  0  0  0  0
   67.5241   43.8066   54.4791 O   0  0  0  0  0  0  0  0  0  0  0  0
   68.1590   45.9455   54.1630 C   0  0  0  0  0  0  0  0  0  0  0  0
   68.7172   47.1107   54.6410 C   0  0  0  0  0  0  0  0  0  0  0  0
   68.8829   48.2195   53.7152 C   0  0  0  0  0  0  0  0  0  0  0  0
   69.5796   47.6637   52.4688 C   0  0  0  0  0  0  0  0  0  0  0  0
   68.8453   46.5295   51.8711 C   0  0  0  0  0  0  0  0  0  0  0  0
   67.7048   46.0070   52.7219 C   0  0  0  0  0  0  0  0  0  0  0  0
  7  8  2  0
  8  9  1  0
  8 10  1  0
  9  1  1  0
  1  2  2  0
  1  6  1  0
  2  3  1  0
  3  4  2  0
  4  5  1  0
  5  6  2  0
  6 15  1  0
 15 16  1  0
 16 17  2  0
 16 22  1  0
 17 18  1  0
 18 19  1  0
 19 20  2  0
 19 21  1  0
 21 22  2  0
 21 26  1  0
 22 23  1  0
 23 24  1  0
 24 25  1  0
 25 26  1  0
 10 11  2  0
 10 14  1  0
 11 12  1  0
 12 13  2  0
 13 14  1  0
M  END
>  <minimizedAffinity>  (801) 
-8.72067

$$$$
cs_full_output_folder/data/smiles/2843.pdb
     RDKit          3D

 27 30  0  0  0  0  0  0  0  0999 V2000
   71.4382   46.9108   58.7646 C   0  0  0  0  0  0  0  0  0  0  0  0
   70.6455   47.8319   58.0607 C   0  0  0  0  0  0  0  0  0  0  0  0
   69.7268   47.4215   57.1421 C   0  0  0  0  0  0  0  0  0  0  0  0
   69.6243   46.0351   56.9449 C   0  0  0  0  0  0  0  0  0  0  0  0
   70.3998   45.1351   57.6335 C   0  0  0  0  0  0  0  0  0  0  0  0
   71.3244   45.5620   58.5598 C   0  0  0  0  0  0  0  0  0  0  0  0
   72.0566   44.6203   59.2022 F   0  0  0  0  0  0  0  0  0  0  0  0
   77.2679   47.6025   60.8307 C   0  0  0  0  0  0  0  0  0  0  0  0
   75.9741   47.3783   60.1072 C   0  0  0  0  0  0  0  0  0  0  0  0
   74.7904   47.8813   60.4222 C   0  0  0  0  0  0  0  0  0  0  0  0
   73.8105   47.4256   59.4802 N   0  0  0  0  0  0  0  0  0  0  0  0
   72.4194   47.3847   59.7323 C   0  0  0  0  0  0  0  0  0  0  0  0
   71.9545   47.7685   60.8432 O   0  0  0  0  0  0  0  0  0  0  0  0
   74.5562   47.0611   58.2976 C   0  0  0  0  0  0  0  0  0  0  0  0
   75.8618   46.5267   58.8993 C   0  0  0  0  0  0  0  0  0  0  0  0
   68.8328   48.2422   56.3245 C   0  0  0  0  0  0  0  0  0  0  0  0
   69.2615   48.3088   54.9371 C   0  0  0  0  0  0  0  0  0  0  0  0
   70.2357   49.2143   54.6025 N   0  0  0  0  0  0  0  0  0  0  0  0
   70.7236   49.3313   53.3979 N   0  0  0  0  0  0  0  0  0  0  0  0
   70.2927   48.5549   52.3827 C   0  0  0  0  0  0  0  0  0  0  0  0
   70.7749   48.6826   51.2291 O   0  0  0  0  0  0  0  0  0  0  0  0
   69.3047   47.6000   52.6034 C   0  0  0  0  0  0  0  0  0  0  0  0
   68.8435   46.8132   51.5814 C   0  0  0  0  0  0  0  0  0  0  0  0
   67.8564   45.8929   51.8217 C   0  0  0  0  0  0  0  0  0  0  0  0
   67.3667   45.8081   53.1233 C   0  0  0  0  0  0  0  0  0  0  0  0
   67.8373   46.6014   54.1425 C   0  0  0  0  0  0  0  0  0  0  0  0
   68.8193   47.5187   53.9097 C   0  0  0  0  0  0  0  0  0  0  0  0
  8  9  1  0
  9 10  2  0
  9 15  1  0
 10 11  1  0
 11 12  1  0
 11 14  1  0
 12 13  2  0
 12  1  1  0
  1  2  2  0
  1  6  1  0
  2  3  1  0
  3 16  1  0
  3  4  2  0
 16 17  1  0
 17 18  2  0
 17 27  1  0
 18 19  1  0
 19 20  1  0
 20 21  2  0
 20 22  1  0
 22 23  1  0
 22 27  2  0
 23 24  2  0
 24 25  1  0
 25 26  2  0
 26 27  1  0
  4  5  1  0
  5  6  2  0
  6  7  1  0
 14 15  1  0
M  END
>  <minimizedAffinity>  (802) 
-8.71999

$$$$
cs_full_output_folder/data/smiles/8968.pdb
     RDKit          3D

 27 30  0  0  0  0  0  0  0  0999 V2000
   70.0094   44.8408   57.6361 C   0  0  0  0  0  0  0  0  0  0  0  0
   70.8469   45.5600   58.5121 C   0  0  0  0  0  0  0  0  0  0  0  0
   70.9239   46.9246   58.5478 C   0  0  0  0  0  0  0  0  0  0  0  0
   70.1333   47.6098   57.6722 C   0  0  0  0  0  0  0  0  0  0  0  0
   69.2892   46.9821   56.7877 N   0  0  0  0  0  0  0  0  0  0  0  0
   69.2451   45.6450   56.7849 C   0  0  0  0  0  0  0  0  0  0  0  0
   68.4948   45.0301   55.9890 O   0  0  0  0  0  0  0  0  0  0  0  0
   69.0052   41.1325   58.0490 C   0  0  0  0  0  0  0  0  0  0  0  0
   68.9234   42.6023   58.0337 N   0  0  0  0  0  0  0  0  0  0  0  0
   70.0023   43.4062   57.6777 C   0  0  0  0  0  0  0  0  0  0  0  0
   71.0808   42.7984   57.3612 O   0  0  0  0  0  0  0  0  0  0  0  0
   71.8286   47.5613   59.4999 C   0  0  0  0  0  0  0  0  0  0  0  0
   71.7058   47.3374   60.7306 O   0  0  0  0  0  0  0  0  0  0  0  0
   72.8706   48.4441   59.1184 N   0  0  0  0  0  0  0  0  0  0  0  0
   73.7814   49.0865   60.0683 C   0  0  0  0  0  0  0  0  0  0  0  0
   74.3205   50.4458   59.7609 C   0  0  0  0  0  0  0  0  0  0  0  0
   75.2219   49.1845   59.7411 C   0  0  0  0  0  0  0  0  0  0  0  0
   68.4575   47.7870   55.9253 C   0  0  0  0  0  0  0  0  0  0  0  0
   69.0358   47.9748   54.5766 C   0  0  0  0  0  0  0  0  0  0  0  0
   70.0084   48.9806   54.4545 C   0  0  0  0  0  0  0  0  0  0  0  0
   70.5490   49.2910   53.2425 C   0  0  0  0  0  0  0  0  0  0  0  0
   70.1398   48.6113   52.1279 C   0  0  0  0  0  0  0  0  0  0  0  0
   69.1879   47.6124   52.1902 C   0  0  0  0  0  0  0  0  0  0  0  0
   68.6492   46.7968   51.2621 N   0  0  0  0  0  0  0  0  0  0  0  0
   67.7842   45.9768   51.8643 C   0  0  0  0  0  0  0  0  0  0  0  0
   67.7849   46.2956   53.2154 C   0  0  0  0  0  0  0  0  0  0  0  0
   68.6530   47.3181   53.4464 C   0  0  0  0  0  0  0  0  0  0  0  0
  8  9  1  0
  9 10  1  0
 10 11  2  0
 10  1  1  0
  1  2  2  0
  1  6  1  0
  2  3  1  0
  3 12  1  0
  3  4  2  0
 12 13  2  0
 12 14  1  0
 14 15  1  0
 15 16  1  0
 15 17  1  0
 16 17  1  0
  4  5  1  0
  5 18  1  0
  5  6  1  0
 18 19  1  0
 19 20  2  0
 19 27  1  0
 20 21  1  0
 21 22  2  0
 22 23  1  0
 23 24  1  0
 23 27  2  0
 24 25  1  0
 25 26  2  0
 26 27  1  0
  6  7  2  0
M  END
>  <minimizedAffinity>  (803) 
-8.71616

$$$$
cs_full_output_folder/data/smiles/6104.pdb
     RDKit          3D

 27 30  0  0  0  0  0  0  0  0999 V2000
   71.1522   49.0664   57.7147 C   0  0  0  0  0  0  0  0  0  0  0  0
   71.9452   48.6892   58.8000 N   0  0  0  0  0  0  0  0  0  0  0  0
   71.8609   47.4755   59.3460 C   0  0  0  0  0  0  0  0  0  0  0  0
   72.6711   47.1878   60.4051 F   0  0  0  0  0  0  0  0  0  0  0  0
   70.9696   46.5514   58.8391 C   0  0  0  0  0  0  0  0  0  0  0  0
   70.1767   46.8779   57.7808 C   0  0  0  0  0  0  0  0  0  0  0  0
   70.2795   48.1868   57.2053 C   0  0  0  0  0  0  0  0  0  0  0  0
   73.3394   49.7296   56.2144 N   0  0  0  0  0  0  0  0  0  0  0  0
   72.4835   50.6741   56.4369 C   0  0  0  0  0  0  0  0  0  0  0  0
   72.7876   52.0031   55.8666 C   0  0  0  0  0  0  0  0  0  0  0  0
   71.6825   52.9889   55.8905 C   0  0  0  0  0  0  0  0  0  0  0  0
   70.6260   52.8075   56.9073 C   0  0  0  0  0  0  0  0  0  0  0  0
   70.4899   51.4828   57.5151 C   0  0  0  0  0  0  0  0  0  0  0  0
   69.5677   51.3168   58.3526 O   0  0  0  0  0  0  0  0  0  0  0  0
   71.3220   50.3748   57.2271 N   0  0  0  0  0  0  0  0  0  0  0  0
   69.3488   48.3920   56.1266 C   0  0  0  0  0  0  0  0  0  0  0  0
   69.6478   48.3402   54.7369 C   0  0  0  0  0  0  0  0  0  0  0  0
   70.5918   49.1760   54.2191 N   0  0  0  0  0  0  0  0  0  0  0  0
   70.9035   49.2069   52.9581 N   0  0  0  0  0  0  0  0  0  0  0  0
   70.3256   48.4188   52.0498 C   0  0  0  0  0  0  0  0  0  0  0  0
   70.6924   48.5123   50.8288 O   0  0  0  0  0  0  0  0  0  0  0  0
   69.3635   47.5433   52.4711 C   0  0  0  0  0  0  0  0  0  0  0  0
   68.7348   46.7255   51.5582 C   0  0  0  0  0  0  0  0  0  0  0  0
   67.7501   45.8499   51.9562 C   0  0  0  0  0  0  0  0  0  0  0  0
   67.4266   45.8299   53.3006 C   0  0  0  0  0  0  0  0  0  0  0  0
   68.0477   46.6349   54.2029 C   0  0  0  0  0  0  0  0  0  0  0  0
   69.0298   47.5117   53.8210 C   0  0  0  0  0  0  0  0  0  0  0  0
  8  9  2  0
  9 10  1  0
  9 15  1  0
 10 11  1  0
 11 12  1  0
 12 13  1  0
 13 14  2  0
 13 15  1  0
 15  1  1  0
  1  2  2  0
  1  7  1  0
  2  3  1  0
  3  4  1  0
  3  5  2  0
  5  6  1  0
  6  7  2  0
  7 16  1  0
 16 17  1  0
 17 18  2  0
 17 27  1  0
 18 19  1  0
 19 20  1  0
 20 21  2  0
 20 22  1  0
 22 23  1  0
 22 27  2  0
 23 24  2  0
 24 25  1  0
 25 26  2  0
 26 27  1  0
M  CHG  1   8   1
M  END
>  <minimizedAffinity>  (804) 
-8.71582

$$$$
cs_full_output_folder/data/smiles/2362.pdb
     RDKit          3D

 25 26  0  0  0  0  0  0  0  0999 V2000
   69.2554   46.6690   56.6948 S   0  0  0  0  0  0  0  0  0  0  0  0
   69.3565   45.2326   57.1199 O   0  0  0  0  0  0  0  0  0  0  0  0
   70.6351   47.2574   56.8414 O   0  0  0  0  0  0  0  0  0  0  0  0
   68.8835   46.6980   54.9800 C   0  0  0  0  0  0  0  0  0  0  0  0
   69.3058   47.7377   54.1795 C   0  0  0  0  0  0  0  0  0  0  0  0
   70.0195   48.7504   54.7314 F   0  0  0  0  0  0  0  0  0  0  0  0
   68.9955   47.7383   52.8150 C   0  0  0  0  0  0  0  0  0  0  0  0
   69.4123   48.7568   52.0425 F   0  0  0  0  0  0  0  0  0  0  0  0
   68.2738   46.7193   52.2433 C   0  0  0  0  0  0  0  0  0  0  0  0
   67.9599   46.6981   50.9128 F   0  0  0  0  0  0  0  0  0  0  0  0
   67.8533   45.6812   53.0436 C   0  0  0  0  0  0  0  0  0  0  0  0
   67.1418   44.6816   52.4679 F   0  0  0  0  0  0  0  0  0  0  0  0
   68.1621   45.6845   54.3955 C   0  0  0  0  0  0  0  0  0  0  0  0
   67.7479   44.6655   55.1755 F   0  0  0  0  0  0  0  0  0  0  0  0
   68.0946   47.5282   57.6210 N   0  0  0  0  0  0  0  0  0  0  0  0
   68.8606   51.1693   57.3141 C   0  0  0  0  0  0  0  0  0  0  0  0
   67.5472   51.6685   57.4023 C   0  0  0  0  0  0  0  0  0  0  0  0
   66.4674   50.8316   57.5564 C   0  0  0  0  0  0  0  0  0  0  0  0
   66.6220   49.4663   57.6303 C   0  0  0  0  0  0  0  0  0  0  0  0
   67.9011   48.9331   57.5479 C   0  0  0  0  0  0  0  0  0  0  0  0
   68.9607   49.8138   57.3936 C   0  0  0  0  0  0  0  0  0  0  0  0
   71.3020   53.9074   56.0234 C   0  0  0  0  0  0  0  0  0  0  0  0
   70.1308   52.9439   56.0712 C   0  0  0  0  0  0  0  0  0  0  0  0
   69.3559   52.9236   55.0928 O   0  0  0  0  0  0  0  0  0  0  0  0
   69.9098   52.1017   57.1577 N   0  0  0  0  0  0  0  0  0  0  0  0
 22 23  1  0
 23 24  2  0
 23 25  1  0
 25 16  1  0
 16 17  2  0
 16 21  1  0
 17 18  1  0
 18 19  2  0
 19 20  1  0
 20 15  1  0
 20 21  2  0
 15  1  1  0
  1  2  2  0
  1  3  2  0
  1  4  1  0
  4  5  2  0
  4 13  1  0
  5  6  1  0
  5  7  1  0
  7  8  1  0
  7  9  2  0
  9 10  1  0
  9 11  1  0
 11 12  1  0
 11 13  2  0
 13 14  1  0
M  END
>  <minimizedAffinity>  (805) 
-8.71331

$$$$
cs_full_output_folder/data/smiles/8765.pdb
     RDKit          3D

 27 30  0  0  0  0  0  0  0  0999 V2000
   70.6185   46.0997   58.1275 C   0  0  0  0  0  0  0  0  0  0  0  0
   69.8509   46.9568   57.3457 C   0  0  0  0  0  0  0  0  0  0  0  0
   70.1471   48.2642   57.0748 C   0  0  0  0  0  0  0  0  0  0  0  0
   71.3107   48.7794   57.6258 C   0  0  0  0  0  0  0  0  0  0  0  0
   72.1167   47.9707   58.4145 C   0  0  0  0  0  0  0  0  0  0  0  0
   71.7560   46.6340   58.6552 C   0  0  0  0  0  0  0  0  0  0  0  0
   72.6214   45.9485   59.4255 F   0  0  0  0  0  0  0  0  0  0  0  0
   70.2837   43.6955   57.4343 N   0  0  0  0  0  0  0  0  0  0  0  0
   70.2086   44.7351   58.3637 C   0  0  0  0  0  0  0  0  0  0  0  0
   69.7317   44.4161   59.5181 O   0  0  0  0  0  0  0  0  0  0  0  0
   69.8198   42.3354   57.8188 C   0  0  0  0  0  0  0  0  0  0  0  0
   68.3488   39.5093   57.6556 C   0  0  0  0  0  0  0  0  0  0  0  0
   68.0108   40.7562   56.9093 C   0  0  0  0  0  0  0  0  0  0  0  0
   67.0198   40.9441   56.0171 N   0  0  0  0  0  0  0  0  0  0  0  0
   67.0564   42.1873   55.5836 O   0  0  0  0  0  0  0  0  0  0  0  0
   68.0192   42.8468   56.1350 C   0  0  0  0  0  0  0  0  0  0  0  0
   68.6633   41.9656   56.9980 C   0  0  0  0  0  0  0  0  0  0  0  0
   69.2869   49.1360   56.2325 C   0  0  0  0  0  0  0  0  0  0  0  0
   69.4843   48.8486   54.7777 C   0  0  0  0  0  0  0  0  0  0  0  0
   70.2082   49.5132   53.9439 N   0  0  0  0  0  0  0  0  0  0  0  0
   70.1650   48.9466   52.6120 C   0  0  0  0  0  0  0  0  0  0  0  0
   69.2705   47.7820   52.7427 C   0  0  0  0  0  0  0  0  0  0  0  0
   68.8583   46.8633   51.7991 C   0  0  0  0  0  0  0  0  0  0  0  0
   68.0090   45.8548   52.1774 C   0  0  0  0  0  0  0  0  0  0  0  0
   67.5900   45.7917   53.5037 C   0  0  0  0  0  0  0  0  0  0  0  0
   68.0034   46.7118   54.4435 C   0  0  0  0  0  0  0  0  0  0  0  0
   68.8687   47.7400   54.0577 C   0  0  0  0  0  0  0  0  0  0  0  0
 12 13  1  0
 13 14  2  0
 13 17  1  0
 14 15  1  0
 15 16  1  0
 16 17  2  0
 17 11  1  0
 11  8  1  0
  8  9  1  0
  9 10  2  0
  9  1  1  0
  1  2  2  0
  1  6  1  0
  2  3  1  0
  3 18  1  0
  3  4  2  0
 18 19  1  0
 19 20  2  0
 19 27  1  0
 20 21  1  0
 21 22  1  0
 22 23  1  0
 22 27  2  0
 23 24  2  0
 24 25  1  0
 25 26  2  0
 26 27  1  0
  4  5  1  0
  5  6  2  0
  6  7  1  0
M  END
>  <minimizedAffinity>  (806) 
-8.71247

$$$$
cs_full_output_folder/data/smiles/8541.pdb
     RDKit          3D

 26 29  0  0  0  0  0  0  0  0999 V2000
   71.2107   45.5361   58.7945 C   0  0  0  0  0  0  0  0  0  0  0  0
   72.1300   46.4191   59.3174 C   0  0  0  0  0  0  0  0  0  0  0  0
   72.0915   47.7724   59.1543 C   0  0  0  0  0  0  0  0  0  0  0  0
   71.0595   48.3135   58.4106 C   0  0  0  0  0  0  0  0  0  0  0  0
   70.1009   47.5001   57.8534 C   0  0  0  0  0  0  0  0  0  0  0  0
   70.1877   46.1327   58.0503 C   0  0  0  0  0  0  0  0  0  0  0  0
   71.2503   44.0637   58.9817 C   0  0  0  0  0  0  0  0  0  0  0  0
   72.3573   42.4235   57.6127 C   0  0  1  0  0  0  0  0  0  0  0  0
   72.1618   41.3732   58.6543 C   0  0  0  0  0  0  0  0  0  0  0  0
   70.6295   41.3286   58.7550 C   0  0  0  0  0  0  0  0  0  0  0  0
   70.1603   42.3929   57.7583 C   0  0  0  0  0  0  0  0  0  0  0  0
   71.2594   43.3349   57.7708 N   0  0  1  0  0  0  0  0  0  0  0  0
   74.7790   42.4794   58.3631 C   0  0  0  0  0  0  0  0  0  0  0  0
   73.7079   42.9797   57.4715 C   0  0  0  0  0  0  0  0  0  0  0  0
   68.9565   48.0434   57.0445 C   0  0  0  0  0  0  0  0  0  0  0  0
   68.6976   47.2939   55.8173 C   0  0  0  0  0  0  0  0  0  0  0  0
   68.0937   46.0806   55.9239 N   0  0  0  0  0  0  0  0  0  0  0  0
   67.7933   45.3182   54.9129 N   0  0  0  0  0  0  0  0  0  0  0  0
   68.0868   45.7323   53.6685 C   0  0  0  0  0  0  0  0  0  0  0  0
   67.7815   44.9699   52.7166 O   0  0  0  0  0  0  0  0  0  0  0  0
   68.7101   46.9680   53.4582 C   0  0  0  0  0  0  0  0  0  0  0  0
   69.0106   47.7434   54.5559 C   0  0  0  0  0  0  0  0  0  0  0  0
   69.6756   49.0332   54.3549 C   0  0  0  0  0  0  0  0  0  0  0  0
   70.4996   49.0338   53.0919 C   0  0  0  0  0  0  0  0  0  0  0  0
   69.7272   48.5985   51.8808 C   0  0  0  0  0  0  0  0  0  0  0  0
   68.9780   47.3176   52.0681 C   0  0  0  0  0  0  0  0  0  0  0  0
 13 14  1  0
  8 14  1  1
  8  9  1  0
  8 12  1  0
  9 10  1  0
 10 11  1  0
 11 12  1  0
 12  7  1  1
  7  1  1  0
  1  2  2  0
  1  6  1  0
  2  3  1  0
  3  4  2  0
  4  5  1  0
  5 15  1  0
  5  6  2  0
 15 16  1  0
 16 17  2  0
 16 22  1  0
 17 18  1  0
 18 19  1  0
 19 20  2  0
 19 21  1  0
 21 22  2  0
 21 26  1  0
 22 23  1  0
 23 24  1  0
 24 25  1  0
 25 26  1  0
M  CHG  1  12   1
M  END
>  <minimizedAffinity>  (807) 
-8.71133

$$$$
cs_full_output_folder/data/smiles/6428.pdb
     RDKit          3D

 26 29  0  0  0  0  0  0  0  0999 V2000
   71.0750   45.9806   58.5411 C   0  0  0  0  0  0  0  0  0  0  0  0
   70.1323   46.6006   57.7848 C   0  0  0  0  0  0  0  0  0  0  0  0
   69.9243   47.9773   57.7573 C   0  0  0  0  0  0  0  0  0  0  0  0
   70.7283   48.7503   58.5495 C   0  0  0  0  0  0  0  0  0  0  0  0
   71.7099   48.1578   59.3428 C   0  0  0  0  0  0  0  0  0  0  0  0
   71.8848   46.7875   59.3419 C   0  0  0  0  0  0  0  0  0  0  0  0
   72.8403   46.1765   60.1110 F   0  0  0  0  0  0  0  0  0  0  0  0
   69.3374   43.7888   59.7852 O   0  0  0  0  0  0  0  0  0  0  0  0
   70.3538   43.6047   59.0640 C   0  0  0  0  0  0  0  0  0  0  0  0
   70.7886   42.2377   58.6578 C   0  0  0  0  0  0  0  0  0  0  0  0
   72.0560   42.4305   57.8750 C   0  0  0  0  0  0  0  0  0  0  0  0
   72.3468   43.9071   57.9431 C   0  0  0  0  0  0  0  0  0  0  0  0
   73.4359   44.3764   57.5214 O   0  0  0  0  0  0  0  0  0  0  0  0
   71.2371   44.5719   58.5240 N   0  0  0  0  0  0  0  0  0  0  0  0
   68.8856   48.5585   56.8823 C   0  0  0  0  0  0  0  0  0  0  0  0
   68.6394   47.6505   55.7348 C   0  0  0  0  0  0  0  0  0  0  0  0
   67.9895   46.4790   55.9598 N   0  0  0  0  0  0  0  0  0  0  0  0
   67.7004   45.5941   55.0331 N   0  0  0  0  0  0  0  0  0  0  0  0
   68.0634   45.8464   53.7651 C   0  0  0  0  0  0  0  0  0  0  0  0
   67.8012   45.0160   52.8412 O   0  0  0  0  0  0  0  0  0  0  0  0
   68.7297   47.0038   53.4068 C   0  0  0  0  0  0  0  0  0  0  0  0
   69.0085   47.9041   54.4372 C   0  0  0  0  0  0  0  0  0  0  0  0
   69.7342   49.1766   54.1512 C   0  0  0  0  0  0  0  0  0  0  0  0
   70.5858   48.9507   52.9115 C   0  0  0  0  0  0  0  0  0  0  0  0
   69.6068   48.6210   51.8008 C   0  0  0  0  0  0  0  0  0  0  0  0
   69.1023   47.2213   51.9918 C   0  0  0  0  0  0  0  0  0  0  0  0
  8  9  2  0
  9 10  1  0
  9 14  1  0
 10 11  1  0
 11 12  1  0
 12 13  2  0
 12 14  1  0
 14  1  1  0
  1  2  2  0
  1  6  1  0
  2  3  1  0
  3 15  1  0
  3  4  2  0
 15 16  1  0
 16 17  2  0
 16 22  1  0
 17 18  1  0
 18 19  1  0
 19 20  2  0
 19 21  1  0
 21 22  2  0
 21 26  1  0
 22 23  1  0
 23 24  1  0
 24 25  1  0
 25 26  1  0
  4  5  1  0
  5  6  2  0
  6  7  1  0
M  END
>  <minimizedAffinity>  (808) 
-8.71017

$$$$
cs_full_output_folder/data/smiles/6322.pdb
     RDKit          3D

 27 30  0  0  0  0  0  0  0  0999 V2000
   72.9982   46.1710   59.7131 C   0  0  0  0  0  0  0  0  0  0  0  0
   71.9759   46.7881   58.8238 C   0  0  0  0  0  0  0  0  0  0  0  0
   70.7818   46.1393   58.5859 C   0  0  0  0  0  0  0  0  0  0  0  0
   69.7905   46.6771   57.7524 C   0  0  0  0  0  0  0  0  0  0  0  0
   69.9646   47.8832   57.1298 C   0  0  0  0  0  0  0  0  0  0  0  0
   71.1854   48.5297   57.3828 C   0  0  0  0  0  0  0  0  0  0  0  0
   72.1513   47.9945   58.2016 C   0  0  0  0  0  0  0  0  0  0  0  0
   73.3775   48.7522   58.3967 C   0  0  0  0  0  0  0  0  0  0  0  0
   74.4389   48.4952   57.5524 C   0  0  0  0  0  0  0  0  0  0  0  0
   75.6246   49.1652   57.6815 C   0  0  0  0  0  0  0  0  0  0  0  0
   75.7964   50.1184   58.6586 C   0  0  0  0  0  0  0  0  0  0  0  0
   77.0304   50.8112   58.7876 N   0  0  0  0  0  0  0  0  0  0  0  0
   74.7218   50.3713   59.5043 C   0  0  0  0  0  0  0  0  0  0  0  0
   74.8996   51.3586   60.5203 N   0  0  0  0  0  0  0  0  0  0  0  0
   73.5310   49.6939   59.3697 C   0  0  0  0  0  0  0  0  0  0  0  0
   68.9890   48.5477   56.2295 C   0  0  0  0  0  0  0  0  0  0  0  0
   69.3409   48.5308   54.8114 C   0  0  0  0  0  0  0  0  0  0  0  0
   70.2022   49.4954   54.3538 N   0  0  0  0  0  0  0  0  0  0  0  0
   70.5597   49.5898   53.0923 N   0  0  0  0  0  0  0  0  0  0  0  0
   70.1145   48.7511   52.1487 C   0  0  0  0  0  0  0  0  0  0  0  0
   70.4614   48.8429   50.9311 O   0  0  0  0  0  0  0  0  0  0  0  0
   69.2423   47.7463   52.5191 C   0  0  0  0  0  0  0  0  0  0  0  0
   68.7848   46.8683   51.5691 C   0  0  0  0  0  0  0  0  0  0  0  0
   67.9194   45.8617   51.9893 C   0  0  0  0  0  0  0  0  0  0  0  0
   67.5520   45.7673   53.2995 C   0  0  0  0  0  0  0  0  0  0  0  0
   68.0323   46.6693   54.2249 C   0  0  0  0  0  0  0  0  0  0  0  0
   68.8858   47.6733   53.8459 C   0  0  0  0  0  0  0  0  0  0  0  0
  1  2  1  0
  2  3  2  0
  2  7  1  0
  3  4  1  0
  4  5  2  0
  5 16  1  0
  5  6  1  0
 16 17  1  0
 17 18  2  0
 17 27  1  0
 18 19  1  0
 19 20  1  0
 20 21  2  0
 20 22  1  0
 22 23  1  0
 22 27  2  0
 23 24  2  0
 24 25  1  0
 25 26  2  0
 26 27  1  0
  6  7  2  0
  7  8  1  0
  8  9  2  0
  8 15  1  0
  9 10  1  0
 10 11  2  0
 11 12  1  0
 11 13  1  0
 13 14  1  0
 13 15  2  0
M  END
>  <minimizedAffinity>  (809) 
-8.70997

$$$$
cs_full_output_folder/data/smiles/1735.pdb
     RDKit          3D

 26 28  0  0  0  0  0  0  0  0999 V2000
   70.1145   52.3380   55.2265 C   0  0  0  0  0  0  0  0  0  0  0  0
   69.1356   53.3382   54.9652 O   0  0  0  0  0  0  0  0  0  0  0  0
   71.2699   52.9559   55.8779 C   0  0  0  0  0  0  0  0  0  0  0  0
   71.2133   53.3867   57.2060 C   0  0  0  0  0  0  0  0  0  0  0  0
   72.2924   53.9933   57.8042 C   0  0  0  0  0  0  0  0  0  0  0  0
   73.4377   54.1671   57.0577 C   0  0  0  0  0  0  0  0  0  0  0  0
   73.5230   53.7539   55.7524 C   0  0  0  0  0  0  0  0  0  0  0  0
   72.4536   53.1525   55.1582 C   0  0  0  0  0  0  0  0  0  0  0  0
   69.3958   51.4521   56.2245 C   0  0  0  0  0  0  0  0  0  0  0  0
   68.0816   51.7674   56.4784 C   0  0  0  0  0  0  0  0  0  0  0  0
   67.3164   51.0351   57.3705 C   0  0  0  0  0  0  0  0  0  0  0  0
   67.8900   49.9700   58.0122 C   0  0  0  0  0  0  0  0  0  0  0  0
   69.2233   49.6459   57.7582 C   0  0  0  0  0  0  0  0  0  0  0  0
   69.9673   50.4001   56.8578 C   0  0  0  0  0  0  0  0  0  0  0  0
   70.3327   51.6250   53.9582 C   0  0  0  0  0  0  0  0  0  0  0  0
   71.3339   49.0909   52.9401 O   0  0  0  0  0  0  0  0  0  0  0  0
   70.1344   49.1848   53.2275 C   0  0  0  0  0  0  0  0  0  0  0  0
   69.6383   50.3906   53.7228 N   0  0  0  0  0  0  0  0  0  0  0  0
   69.3153   47.9632   53.0093 C   0  0  0  0  0  0  0  0  0  0  0  0
   68.9146   47.5658   51.7528 C   0  0  0  0  0  0  0  0  0  0  0  0
   68.1498   46.4276   51.5317 C   0  0  0  0  0  0  0  0  0  0  0  0
   67.8059   45.7028   52.6468 C   0  0  0  0  0  0  0  0  0  0  0  0
   67.0518   44.5692   52.4982 F   0  0  0  0  0  0  0  0  0  0  0  0
   68.1896   46.0745   53.9141 C   0  0  0  0  0  0  0  0  0  0  0  0
   67.8096   45.3001   54.9969 F   0  0  0  0  0  0  0  0  0  0  0  0
   68.9427   47.2005   54.0948 C   0  0  0  0  0  0  0  0  0  0  0  0
 16 17  2  0
 17 18  1  0
 17 19  1  0
 18 15  1  0
 15  1  1  0
  1  2  1  0
  1  3  1  0
  1  9  1  0
  3  4  2  0
  3  8  1  0
  4  5  1  0
  5  6  2  0
  6  7  1  0
  7  8  2  0
  9 10  2  0
  9 14  1  0
 10 11  1  0
 11 12  2  0
 12 13  1  0
 13 14  2  0
 19 20  2  0
 19 26  1  0
 20 21  1  0
 21 22  2  0
 22 23  1  0
 22 24  1  0
 24 25  1  0
 24 26  2  0
M  END
>  <minimizedAffinity>  (810) 
-8.70860

$$$$
cs_full_output_folder/data/smiles/799.pdb
     RDKit          3D

 25 27  0  0  0  0  0  0  0  0999 V2000
   70.4996   42.4733   58.2230 C   0  0  0  0  0  0  0  0  0  0  0  0
   69.3071   42.0187   57.5342 C   0  0  0  0  0  0  0  0  0  0  0  0
   68.5597   42.8540   56.6909 C   0  0  0  0  0  0  0  0  0  0  0  0
   67.4999   42.1325   56.1887 C   0  0  0  0  0  0  0  0  0  0  0  0
   67.6104   40.9293   56.7078 N   0  0  0  0  0  0  0  0  0  0  0  0
   68.6928   40.8377   57.5228 N   0  0  0  0  0  0  0  0  0  0  0  0
   69.0672   39.6735   58.2341 C   0  0  0  0  0  0  0  0  0  0  0  0
   70.2718   39.0306   58.1611 C   0  0  0  0  0  0  0  0  0  0  0  0
   70.5721   37.9095   58.8928 C   0  0  0  0  0  0  0  0  0  0  0  0
   69.6422   37.3591   59.7674 C   0  0  0  0  0  0  0  0  0  0  0  0
   70.0503   35.7897   60.8061 Br  0  0  0  0  0  0  0  0  0  0  0  0
   68.4231   37.9844   59.8595 C   0  0  0  0  0  0  0  0  0  0  0  0
   68.1417   39.1116   59.1141 C   0  0  0  0  0  0  0  0  0  0  0  0
   68.8731   44.2561   56.4209 C   0  0  0  0  0  0  0  0  0  0  0  0
   69.6609   44.8313   57.1947 O   0  0  0  0  0  0  0  0  0  0  0  0
   68.3319   44.9725   55.3396 N   0  0  0  0  0  0  0  0  0  0  0  0
   68.5517   46.3121   54.9742 C   0  0  0  0  0  0  0  0  0  0  0  0
   68.3934   47.4090   55.7753 C   0  0  0  0  0  0  0  0  0  0  0  0
   68.6429   48.7148   55.3255 C   0  0  0  0  0  0  0  0  0  0  0  0
   69.0644   48.9558   54.0393 C   0  0  0  0  0  0  0  0  0  0  0  0
   69.2309   47.8626   53.2128 C   0  0  0  0  0  0  0  0  0  0  0  0
   68.9813   46.5901   53.6735 C   0  0  0  0  0  0  0  0  0  0  0  0
   69.6741   48.0678   51.8393 C   0  0  0  0  0  0  0  0  0  0  0  0
   69.9279   49.3463   51.3175 N   0  0  0  0  0  0  0  0  0  0  0  0
   69.8315   47.0679   51.1022 O   0  0  0  0  0  0  0  0  0  0  0  0
  1  2  1  0
  2  3  2  0
  2  6  1  0
  3 14  1  0
  3  4  1  0
 14 15  2  0
 14 16  1  0
 16 17  1  0
 17 18  2  0
 17 22  1  0
 18 19  1  0
 19 20  2  0
 20 21  1  0
 21 23  1  0
 21 22  2  0
 23 24  1  0
 23 25  2  0
  4  5  2  0
  5  6  1  0
  6  7  1  0
  7  8  2  0
  7 13  1  0
  8  9  1  0
  9 10  2  0
 10 11  1  0
 10 12  1  0
 12 13  2  0
M  END
>  <minimizedAffinity>  (811) 
-8.70817

$$$$
cs_full_output_folder/data/smiles/5154.pdb
     RDKit          3D

 26 28  0  0  0  0  0  0  0  0999 V2000
   72.3430   42.7301   57.8791 C   0  0  0  0  0  0  0  0  0  0  0  0
   70.9386   42.2989   57.8505 C   0  0  0  0  0  0  0  0  0  0  0  0
   69.8861   43.0937   57.5126 C   0  0  0  0  0  0  0  0  0  0  0  0
   68.7798   42.2303   57.6230 C   0  0  0  0  0  0  0  0  0  0  0  0
   69.2173   41.0212   58.0066 N   0  0  0  0  0  0  0  0  0  0  0  0
   70.5233   41.0206   58.1574 N   0  0  0  0  0  0  0  0  0  0  0  0
   71.3606   39.9654   58.5931 C   0  0  0  0  0  0  0  0  0  0  0  0
   72.6770   40.0955   59.5065 S   0  0  0  0  0  0  0  0  0  0  0  0
   73.5056   38.5162   59.8719 C   0  0  0  0  0  0  0  0  0  0  0  0
   72.9127   37.4658   59.3376 C   0  0  0  0  0  0  0  0  0  0  0  0
   73.6615   35.8936   59.6518 Cl  0  0  0  0  0  0  0  0  0  0  0  0
   71.7074   37.5236   58.5234 C   0  0  0  0  0  0  0  0  0  0  0  0
   71.0375   38.5775   58.1993 C   0  0  0  0  0  0  0  0  0  0  0  0
   69.7735   44.4933   57.1389 C   0  0  0  0  0  0  0  0  0  0  0  0
   70.6840   45.3063   57.5204 O   0  0  0  0  0  0  0  0  0  0  0  0
   68.7538   45.0885   56.3878 N   0  0  0  0  0  0  0  0  0  0  0  0
   68.5894   46.4458   56.0000 C   0  0  0  0  0  0  0  0  0  0  0  0
   68.5368   46.5505   54.5275 C   0  0  0  0  0  0  0  0  0  0  0  0
   67.8300   45.6565   53.7517 C   0  0  0  0  0  0  0  0  0  0  0  0
   67.8473   45.8301   52.3625 C   0  0  0  0  0  0  0  0  0  0  0  0
   68.5479   46.8612   51.7835 C   0  0  0  0  0  0  0  0  0  0  0  0
   69.2628   47.7673   52.5357 C   0  0  0  0  0  0  0  0  0  0  0  0
   69.2297   47.5764   53.8951 C   0  0  0  0  0  0  0  0  0  0  0  0
   70.0136   48.8297   51.8726 C   0  0  0  0  0  0  0  0  0  0  0  0
   69.9959   50.1683   52.3310 N   0  0  0  0  0  0  0  0  0  0  0  0
   70.6878   48.5372   50.8624 O   0  0  0  0  0  0  0  0  0  0  0  0
  1  2  1  0
  2  3  2  0
  2  6  1  0
  3 14  1  0
  3  4  1  0
 14 15  2  0
 14 16  1  0
 16 17  1  0
 17 18  1  0
 18 19  2  0
 18 23  1  0
 19 20  1  0
 20 21  2  0
 21 22  1  0
 22 24  1  0
 22 23  2  0
 24 25  1  0
 24 26  2  0
  4  5  2  0
  5  6  1  0
  6  7  1  0
  7  8  2  0
  7 13  1  0
  8  9  1  0
  9 10  2  0
 10 11  1  0
 10 12  1  0
 12 13  2  0
M  END
>  <minimizedAffinity>  (812) 
-8.70745

$$$$
cs_full_output_folder/data/smiles/7287.pdb
     RDKit          3D

 24 25  0  0  0  0  0  0  0  0999 V2000
   70.0085   49.2368   52.5610 S   0  0  0  0  0  0  0  0  0  0  0  0
   71.4811   49.1910   52.9442 O   0  0  0  0  0  0  0  0  0  0  0  0
   69.9060   49.2646   51.0507 O   0  0  0  0  0  0  0  0  0  0  0  0
   69.2202   47.8077   53.1902 C   0  0  0  0  0  0  0  0  0  0  0  0
   69.2299   47.5370   54.5658 C   0  0  0  0  0  0  0  0  0  0  0  0
   69.8567   48.4442   55.3598 F   0  0  0  0  0  0  0  0  0  0  0  0
   68.6409   46.4162   55.1044 C   0  0  0  0  0  0  0  0  0  0  0  0
   68.0063   45.5017   54.2949 C   0  0  0  0  0  0  0  0  0  0  0  0
   67.4315   44.4030   54.8480 F   0  0  0  0  0  0  0  0  0  0  0  0
   67.9793   45.7369   52.9391 C   0  0  0  0  0  0  0  0  0  0  0  0
   67.3650   44.8589   52.1077 F   0  0  0  0  0  0  0  0  0  0  0  0
   68.5822   46.8801   52.3989 C   0  0  0  0  0  0  0  0  0  0  0  0
   68.5606   47.0809   51.0517 F   0  0  0  0  0  0  0  0  0  0  0  0
   69.3339   50.6757   53.1989 N   0  0  0  0  0  0  0  0  0  0  0  0
   71.3345   53.3039   55.7473 C   0  0  0  0  0  0  0  0  0  0  0  0
   69.9942   53.0492   55.9238 C   0  0  0  0  0  0  0  0  0  0  0  0
   69.3595   52.1845   55.0767 C   0  0  0  0  0  0  0  0  0  0  0  0
   70.0498   51.5526   54.0313 C   0  0  0  0  0  0  0  0  0  0  0  0
   71.3398   51.8413   53.9149 N   0  0  0  0  0  0  0  0  0  0  0  0
   71.9961   52.6820   54.7254 C   0  0  0  0  0  0  0  0  0  0  0  0
   72.4740   53.7518   57.8483 C   0  0  0  0  0  0  0  0  0  0  0  0
   71.9745   54.1830   56.6104 O   0  0  0  0  0  0  0  0  0  0  0  0
   73.3672   52.9132   54.5080 N   0  0  0  0  0  0  0  0  0  0  0  0
   73.7988   53.5410   53.4060 F   0  0  0  0  0  0  0  0  0  0  0  0
 21 22  1  0
 22 15  1  0
 15 16  2  0
 15 20  1  0
 16 17  1  0
 17 18  2  0
 18 14  1  0
 18 19  1  0
 14  1  1  0
  1  2  2  0
  1  3  2  0
  1  4  1  0
  4  5  2  0
  4 12  1  0
  5  6  1  0
  5  7  1  0
  7  8  2  0
  8  9  1  0
  8 10  1  0
 10 11  1  0
 10 12  2  0
 12 13  1  0
 19 20  2  0
 20 23  1  0
 23 24  1  0
M  END
>  <minimizedAffinity>  (813) 
-8.70512

$$$$
cs_full_output_folder/data/smiles/1955.pdb
     RDKit          3D

 27 30  0  0  0  0  0  0  0  0999 V2000
   68.2564   45.2993   55.3564 C   0  0  0  0  0  0  0  0  0  0  0  0
   68.0231   45.4016   54.0101 C   0  0  0  0  0  0  0  0  0  0  0  0
   68.4971   46.5100   53.3301 C   0  0  0  0  0  0  0  0  0  0  0  0
   68.2615   46.5911   51.9900 C   0  0  0  0  0  0  0  0  0  0  0  0
   67.5274   45.5166   51.3080 C   0  0  0  0  0  0  0  0  0  0  0  0
   68.7221   47.6525   51.3248 N   0  0  0  0  0  0  0  0  0  0  0  0
   69.4002   48.6406   51.8982 C   0  0  0  0  0  0  0  0  0  0  0  0
   69.7966   49.5833   51.1686 O   0  0  0  0  0  0  0  0  0  0  0  0
   69.6945   48.6590   53.2716 C   0  0  0  0  0  0  0  0  0  0  0  0
   69.2098   47.5388   53.9588 C   0  0  0  0  0  0  0  0  0  0  0  0
   69.4295   47.4032   55.3106 C   0  0  0  0  0  0  0  0  0  0  0  0
   68.9668   46.3162   55.9940 C   0  0  0  0  0  0  0  0  0  0  0  0
   68.5556   43.0586   56.3660 C   0  0  0  0  0  0  0  0  0  0  0  0
   67.8245   44.2379   56.1171 O   0  0  0  0  0  0  0  0  0  0  0  0
   69.1935   46.1996   57.3421 O   0  0  0  0  0  0  0  0  0  0  0  0
   70.3791   46.6585   57.9313 C   0  0  0  0  0  0  0  0  0  0  0  0
   70.3572   49.7712   53.9217 C   0  0  0  0  0  0  0  0  0  0  0  0
   69.9380   50.4545   55.1269 C   0  0  0  0  0  0  0  0  0  0  0  0
   68.6850   51.1221   55.1254 C   0  0  0  0  0  0  0  0  0  0  0  0
   68.2216   51.7590   56.2161 C   0  0  0  0  0  0  0  0  0  0  0  0
   68.8895   51.8112   57.3667 N   0  0  0  0  0  0  0  0  0  0  0  0
   70.0949   51.1914   57.4416 C   0  0  0  0  0  0  0  0  0  0  0  0
   70.7802   51.2276   58.6233 C   0  0  0  0  0  0  0  0  0  0  0  0
   71.9946   50.6054   58.7523 C   0  0  0  0  0  0  0  0  0  0  0  0
   72.5161   49.9393   57.6708 C   0  0  0  0  0  0  0  0  0  0  0  0
   71.8284   49.9008   56.4760 C   0  0  0  0  0  0  0  0  0  0  0  0
   70.6042   50.5182   56.3192 C   0  0  0  0  0  0  0  0  0  0  0  0
 13 14  1  0
 14  1  1  0
  1  2  2  0
  1 12  1  0
  2  3  1  0
  3  4  2  0
  3 10  1  0
  4  5  1  0
  4  6  1  0
  6  7  1  0
  7  8  2  0
  7  9  1  0
  9 17  1  0
  9 10  2  0
 17 18  1  0
 18 19  2  0
 18 27  1  0
 19 20  1  0
 20 21  2  0
 21 22  1  0
 22 23  1  0
 22 27  2  0
 23 24  2  0
 24 25  1  0
 25 26  2  0
 26 27  1  0
 10 11  1  0
 11 12  2  0
 12 15  1  0
 15 16  1  0
M  END
>  <minimizedAffinity>  (814) 
-8.70303

$$$$
cs_full_output_folder/data/smiles/2682.pdb
     RDKit          3D

 27 30  0  0  0  0  0  0  0  0999 V2000
   70.6033   49.2123   58.4051 C   0  0  0  0  0  0  0  0  0  0  0  0
   70.2472   48.3071   57.4256 C   0  0  0  0  0  0  0  0  0  0  0  0
   69.1456   48.4124   56.6202 C   0  0  0  0  0  0  0  0  0  0  0  0
   68.3352   49.5353   56.8284 C   0  0  0  0  0  0  0  0  0  0  0  0
   68.6423   50.4724   57.7924 C   0  0  0  0  0  0  0  0  0  0  0  0
   69.7639   50.3198   58.5766 C   0  0  0  0  0  0  0  0  0  0  0  0
   70.1200   51.2066   59.5413 F   0  0  0  0  0  0  0  0  0  0  0  0
   68.7547   47.4948   55.5674 C   0  0  0  0  0  0  0  0  0  0  0  0
   68.0266   46.3820   55.8873 N   0  0  0  0  0  0  0  0  0  0  0  0
   67.6471   45.5312   54.9743 N   0  0  0  0  0  0  0  0  0  0  0  0
   67.9351   45.6768   53.6708 C   0  0  0  0  0  0  0  0  0  0  0  0
   67.5326   44.8093   52.8402 O   0  0  0  0  0  0  0  0  0  0  0  0
   68.6613   46.7679   53.2586 C   0  0  0  0  0  0  0  0  0  0  0  0
   68.9373   46.9113   51.9202 C   0  0  0  0  0  0  0  0  0  0  0  0
   69.6557   48.0284   51.5510 C   0  0  0  0  0  0  0  0  0  0  0  0
   70.0655   48.9436   52.4971 C   0  0  0  0  0  0  0  0  0  0  0  0
   69.7710   48.7679   53.8373 C   0  0  0  0  0  0  0  0  0  0  0  0
   69.0663   47.6769   54.2383 C   0  0  0  0  0  0  0  0  0  0  0  0
   71.7404   48.2643   60.2127 O   0  0  0  0  0  0  0  0  0  0  0  0
   71.7922   49.0414   59.2298 C   0  0  0  0  0  0  0  0  0  0  0  0
   73.0191   49.7109   58.9808 N   0  0  0  0  0  0  0  0  0  0  0  0
   74.1296   49.4676   59.8594 C   0  0  0  0  0  0  0  0  0  0  0  0
   75.1706   48.6334   59.1841 C   0  0  0  0  0  0  0  0  0  0  0  0
   74.7711   48.0867   57.8849 C   0  0  0  0  0  0  0  0  0  0  0  0
   74.2530   48.7021   56.8998 N   0  0  0  0  0  0  0  0  0  0  0  0
   73.8952   50.0746   56.7192 C   0  0  0  0  0  0  0  0  0  0  0  0
   73.0181   50.5939   57.8331 C   0  0  0  0  0  0  0  0  0  0  0  0
 19 20  2  0
 20  1  1  0
 20 21  1  0
  1  2  2  0
  1  6  1  0
  2  3  1  0
  3  8  1  0
  3  4  2  0
  8  9  2  0
  8 18  1  0
  9 10  1  0
 10 11  1  0
 11 12  2  0
 11 13  1  0
 13 14  1  0
 13 18  2  0
 14 15  2  0
 15 16  1  0
 16 17  2  0
 17 18  1  0
  4  5  1  0
  5  6  2  0
  6  7  1  0
 21 22  1  0
 21 27  1  0
 22 23  1  0
 23 24  1  0
 24 25  2  0
 25 26  1  0
 26 27  1  0
M  END
>  <minimizedAffinity>  (815) 
-8.70258

$$$$
cs_full_output_folder/data/smiles/5859.pdb
     RDKit          3D

 27 30  0  0  0  0  0  0  0  0999 V2000
   71.6552   46.9037   58.8921 C   0  0  0  0  0  0  0  0  0  0  0  0
   71.4067   45.5298   58.7028 C   0  0  0  0  0  0  0  0  0  0  0  0
   70.4395   45.0977   57.8379 C   0  0  0  0  0  0  0  0  0  0  0  0
   69.6645   45.9787   57.1120 C   0  0  0  0  0  0  0  0  0  0  0  0
   69.8951   47.2844   57.2870 N   0  0  0  0  0  0  0  0  0  0  0  0
   70.8585   47.7329   58.1487 C   0  0  0  0  0  0  0  0  0  0  0  0
   71.0248   48.9914   58.2658 O   0  0  0  0  0  0  0  0  0  0  0  0
   73.5905   48.0086   62.0599 C   0  0  0  0  0  0  0  0  0  0  0  0
   72.5047   47.6066   61.1743 N   0  0  0  0  0  0  0  0  0  0  0  0
   72.6898   47.3066   59.8204 C   0  0  0  0  0  0  0  0  0  0  0  0
   73.8975   47.4106   59.3967 O   0  0  0  0  0  0  0  0  0  0  0  0
   70.1891   43.6641   57.6490 C   0  0  0  0  0  0  0  0  0  0  0  0
   71.1319   42.8266   57.6332 O   0  0  0  0  0  0  0  0  0  0  0  0
   68.8873   43.1375   57.4761 N   0  0  0  0  0  0  0  0  0  0  0  0
   68.6502   41.7146   57.2900 C   0  0  0  0  0  0  0  0  0  0  0  0
   67.3507   41.1658   57.7378 C   0  0  0  0  0  0  0  0  0  0  0  0
   67.5885   41.2996   56.2683 C   0  0  0  0  0  0  0  0  0  0  0  0
   69.1026   48.2491   56.5496 C   0  0  0  0  0  0  0  0  0  0  0  0
   69.0038   47.9388   55.1008 C   0  0  0  0  0  0  0  0  0  0  0  0
   69.7765   48.5830   54.1633 C   0  0  0  0  0  0  0  0  0  0  0  0
   69.6801   48.2946   52.8178 C   0  0  0  0  0  0  0  0  0  0  0  0
   68.7954   47.3412   52.3827 C   0  0  0  0  0  0  0  0  0  0  0  0
   68.4587   46.8285   51.1747 N   0  0  0  0  0  0  0  0  0  0  0  0
   67.5139   45.8958   51.3105 C   0  0  0  0  0  0  0  0  0  0  0  0
   67.2490   45.8161   52.6233 N   0  0  0  0  0  0  0  0  0  0  0  0
   68.0244   46.6979   53.3271 C   0  0  0  0  0  0  0  0  0  0  0  0
   68.1210   46.9862   54.6694 C   0  0  0  0  0  0  0  0  0  0  0  0
  8  9  1  0
  9 10  1  0
 10 11  2  0
 10  1  1  0
  1  2  2  0
  1  6  1  0
  2  3  1  0
  3 12  1  0
  3  4  2  0
 12 13  2  0
 12 14  1  0
 14 15  1  0
 15 16  1  0
 15 17  1  0
 16 17  1  0
  4  5  1  0
  5 18  1  0
  5  6  1  0
 18 19  1  0
 19 20  2  0
 19 27  1  0
 20 21  1  0
 21 22  2  0
 22 23  1  0
 22 26  1  0
 23 24  2  0
 24 25  1  0
 25 26  1  0
 26 27  2  0
  6  7  2  0
M  CHG  1  23   1
M  END
>  <minimizedAffinity>  (816) 
-8.70223

$$$$
cs_full_output_folder/data/smiles/4023.pdb
     RDKit          3D

 27 29  0  0  0  0  0  0  0  0999 V2000
   67.9134   42.0762   56.9537 C   0  0  0  0  0  0  0  0  0  0  0  0
   67.9595   41.3532   55.9108 O   0  0  0  0  0  0  0  0  0  0  0  0
   67.9811   43.4556   56.7272 N   0  0  0  0  0  0  0  0  0  0  0  0
   68.2203   41.9373   59.4436 C   0  0  0  0  0  0  0  0  0  0  0  0
   68.0699   41.2217   60.6387 C   0  0  0  0  0  0  0  0  0  0  0  0
   67.4984   39.9696   60.6613 C   0  0  0  0  0  0  0  0  0  0  0  0
   67.3423   39.2480   61.8357 C   0  0  0  0  0  0  0  0  0  0  0  0
   66.7699   37.9917   61.8598 C   0  0  0  0  0  0  0  0  0  0  0  0
   66.3458   37.4571   60.6620 C   0  0  0  0  0  0  0  0  0  0  0  0
   66.4948   38.1625   59.4889 C   0  0  0  0  0  0  0  0  0  0  0  0
   67.0753   39.4362   59.4621 C   0  0  0  0  0  0  0  0  0  0  0  0
   67.2258   40.1376   58.3099 C   0  0  0  0  0  0  0  0  0  0  0  0
   67.7980   41.4034   58.2507 C   0  0  0  0  0  0  0  0  0  0  0  0
   70.1408   43.4323   59.7706 C   0  0  0  0  0  0  0  0  0  0  0  0
   68.7958   43.1720   59.5012 O   0  0  0  0  0  0  0  0  0  0  0  0
   68.0920   44.0077   55.4349 N   0  0  0  0  0  0  0  0  0  0  0  0
   68.2407   45.4026   55.2136 C   0  0  0  0  0  0  0  0  0  0  0  0
   68.2671   46.1261   56.2395 O   0  0  0  0  0  0  0  0  0  0  0  0
   68.3599   46.0161   53.9009 C   0  0  0  0  0  0  0  0  0  0  0  0
   67.5733   45.5461   52.8715 C   0  0  0  0  0  0  0  0  0  0  0  0
   67.6295   46.0760   51.5983 C   0  0  0  0  0  0  0  0  0  0  0  0
   68.4881   47.1117   51.3036 C   0  0  0  0  0  0  0  0  0  0  0  0
   69.2813   47.5907   52.3246 C   0  0  0  0  0  0  0  0  0  0  0  0
   69.2104   47.0429   53.6009 C   0  0  0  0  0  0  0  0  0  0  0  0
   70.1746   48.6578   52.0469 N   0  0  0  0  0  0  0  0  0  0  0  0
   69.9800   49.3594   51.0530 O   0  0  0  0  0  0  0  0  0  0  0  0
   71.2417   48.9136   52.8675 O   0  0  0  0  0  0  0  0  0  0  0  0
 14 15  1  0
 15  4  1  0
  4  5  2  0
  4 13  1  0
  5  6  1  0
  6  7  2  0
  6 11  1  0
  7  8  1  0
  8  9  2  0
  9 10  1  0
 10 11  2  0
 11 12  1  0
 12 13  2  0
 13  1  1  0
  1  2  2  0
  1  3  1  0
  3 16  1  0
 16 17  1  0
 17 18  2  0
 17 19  1  0
 19 20  2  0
 19 24  1  0
 20 21  1  0
 21 22  2  0
 22 23  1  0
 23 25  1  0
 23 24  2  0
 25 26  2  0
 25 27  1  0
M  CHG  2  25   1  27  -1
M  END
>  <minimizedAffinity>  (817) 
-8.70204

$$$$
cs_full_output_folder/data/smiles/1197.pdb
     RDKit          3D

 27 30  0  0  0  0  0  0  0  0999 V2000
   70.0178   50.7696   53.5311 C   0  0  0  0  0  0  0  0  0  0  0  0
   69.0774   51.3279   54.3589 C   0  0  0  0  0  0  0  0  0  0  0  0
   69.4255   51.8767   55.5740 C   0  0  0  0  0  0  0  0  0  0  0  0
   70.7541   51.8880   56.0139 C   0  0  0  0  0  0  0  0  0  0  0  0
   71.6613   51.3218   55.1562 C   0  0  0  0  0  0  0  0  0  0  0  0
   71.2870   50.7948   53.9789 N   0  0  0  0  0  0  0  0  0  0  0  0
   69.7694   50.1830   52.2834 N   0  0  0  0  0  0  0  0  0  0  0  0
   70.6663   48.5140   50.9764 N   0  0  0  0  0  0  0  0  0  0  0  0
   69.8881   48.8122   51.9708 C   0  0  0  0  0  0  0  0  0  0  0  0
   69.1924   47.7606   52.6982 C   0  0  0  0  0  0  0  0  0  0  0  0
   68.5274   46.7623   52.0183 C   0  0  0  0  0  0  0  0  0  0  0  0
   67.8543   45.7471   52.7093 C   0  0  0  0  0  0  0  0  0  0  0  0
   67.8384   45.7210   54.0913 C   0  0  0  0  0  0  0  0  0  0  0  0
   68.5061   46.7244   54.7557 C   0  0  0  0  0  0  0  0  0  0  0  0
   69.1747   47.7321   54.0745 C   0  0  0  0  0  0  0  0  0  0  0  0
   71.1200   52.4976   57.3143 C   0  0  0  0  0  0  0  0  0  0  0  0
   72.2232   51.8345   58.0099 C   0  0  0  0  0  0  0  0  0  0  0  0
   73.3988   52.5131   58.1501 N   0  0  0  0  0  0  0  0  0  0  0  0
   74.4309   51.9772   58.7787 N   0  0  0  0  0  0  0  0  0  0  0  0
   74.3663   50.7421   59.3084 C   0  0  0  0  0  0  0  0  0  0  0  0
   75.3720   50.2717   59.8984 O   0  0  0  0  0  0  0  0  0  0  0  0
   73.1874   50.0013   59.1945 C   0  0  0  0  0  0  0  0  0  0  0  0
   72.1186   50.5799   58.5318 C   0  0  0  0  0  0  0  0  0  0  0  0
   70.8781   49.8133   58.3915 C   0  0  0  0  0  0  0  0  0  0  0  0
   71.1664   48.3031   58.4577 C   0  0  0  0  0  0  0  0  0  0  0  0
   71.8618   47.9714   59.7620 C   0  0  0  0  0  0  0  0  0  0  0  0
   73.1814   48.6588   59.7941 C   0  0  0  0  0  0  0  0  0  0  0  0
  8  9  2  0
  9  7  1  0
  9 10  1  0
  7  1  1  0
  1  2  2  0
  1  6  1  0
  2  3  1  0
  3  4  2  0
  4 16  1  0
  4  5  1  0
 16 17  1  0
 17 18  2  0
 17 23  1  0
 18 19  1  0
 19 20  1  0
 20 21  2  0
 20 22  1  0
 22 23  2  0
 22 27  1  0
 23 24  1  0
 24 25  1  0
 25 26  1  0
 26 27  1  0
  5  6  2  0
 10 11  2  0
 10 15  1  0
 11 12  1  0
 12 13  2  0
 13 14  1  0
 14 15  2  0
M  CHG  1   8   1
M  END
>  <minimizedAffinity>  (818) 
-8.70031

$$$$
cs_full_output_folder/data/smiles/2716.pdb
     RDKit          3D

 25 28  0  0  0  0  0  0  0  0999 V2000
   70.4908   49.0958   57.2936 C   0  0  0  0  0  0  0  0  0  0  0  0
   70.6258   48.7391   58.5987 C   0  0  0  0  0  0  0  0  0  0  0  0
   71.8812   48.6932   59.2171 C   0  0  0  0  0  0  0  0  0  0  0  0
   72.9474   49.0254   58.4376 C   0  0  0  0  0  0  0  0  0  0  0  0
   72.8447   49.3988   57.0875 C   0  0  0  0  0  0  0  0  0  0  0  0
   71.5993   49.4298   56.5263 C   0  0  0  0  0  0  0  0  0  0  0  0
   69.1599   49.1350   56.6246 C   0  0  0  0  0  0  0  0  0  0  0  0
   67.8055   44.6015   53.8784 O   0  0  0  0  0  0  0  0  0  0  0  0
   68.1338   45.6523   54.5273 C   0  0  0  0  0  0  0  0  0  0  0  0
   68.1513   45.6673   55.8694 N   0  0  0  0  0  0  0  0  0  0  0  0
   68.4924   46.7639   56.5021 N   0  0  0  0  0  0  0  0  0  0  0  0
   68.8411   47.9265   55.8544 C   0  0  0  0  0  0  0  0  0  0  0  0
   68.8347   47.9417   54.4973 C   0  0  0  0  0  0  0  0  0  0  0  0
   68.4773   46.7973   53.8261 C   0  0  0  0  0  0  0  0  0  0  0  0
   68.4561   46.8313   52.3504 C   0  0  0  0  0  0  0  0  0  0  0  0
   69.7852   47.3992   51.9150 C   0  0  0  0  0  0  0  0  0  0  0  0
   70.1218   48.6839   52.5650 C   0  0  0  0  0  0  0  0  0  0  0  0
   69.2345   49.1350   53.6821 C   0  0  0  0  0  0  0  0  0  0  0  0
   74.0240   49.7142   56.3636 N   0  0  0  0  0  0  0  0  0  0  0  0
   74.2334   50.8370   55.1312 S   0  0  0  0  0  0  0  0  0  0  0  0
   75.6490   51.4031   55.2046 O   0  0  0  0  0  0  0  0  0  0  0  0
   74.1648   50.1496   53.7693 O   0  0  0  0  0  0  0  0  0  0  0  0
   73.1328   52.2013   55.1196 C   0  0  1  0  0  0  0  0  0  0  0  0
   73.4532   53.3619   54.2380 C   0  0  0  0  0  0  0  0  0  0  0  0
   72.6149   52.3786   53.7387 O   0  0  0  0  0  0  0  0  0  0  0  0
  8  9  2  0
  9 10  1  0
  9 14  1  0
 10 11  1  0
 11 12  2  0
 12  7  1  0
 12 13  1  0
  7  1  1  0
  1  2  2  0
  1  6  1  0
  2  3  1  0
  3  4  2  0
  4  5  1  0
  5 19  1  0
  5  6  2  0
 19 20  1  0
 20 21  2  0
 20 22  2  0
 23 20  1  6
 23 24  1  0
 23 25  1  0
 24 25  1  0
 13 14  2  0
 13 18  1  0
 14 15  1  0
 15 16  1  0
 16 17  1  0
 17 18  1  0
M  END
>  <minimizedAffinity>  (819) 
-8.69969

$$$$
cs_full_output_folder/data/smiles/7704.pdb
     RDKit          3D

 26 28  0  0  0  0  0  0  0  0999 V2000
   68.1693   44.0336   56.1045 N   0  0  0  0  0  0  0  0  0  0  0  0
   68.9414   43.0984   56.8315 C   0  0  0  0  0  0  0  0  0  0  0  0
   70.0400   43.4698   57.3089 O   0  0  0  0  0  0  0  0  0  0  0  0
   68.5360   41.7182   57.0623 C   0  0  0  0  0  0  0  0  0  0  0  0
   68.6216   40.9946   58.2379 C   0  0  0  0  0  0  0  0  0  0  0  0
   68.1243   39.7050   58.0513 C   0  0  0  0  0  0  0  0  0  0  0  0
   67.7533   39.6964   56.7576 N   0  0  0  0  0  0  0  0  0  0  0  0
   67.9914   40.8634   56.1808 N   0  0  0  0  0  0  0  0  0  0  0  0
   68.0288   38.6281   59.0291 C   0  0  0  0  0  0  0  0  0  0  0  0
   66.8035   38.1171   59.4056 C   0  0  0  0  0  0  0  0  0  0  0  0
   66.6860   37.1002   60.3328 C   0  0  0  0  0  0  0  0  0  0  0  0
   67.8140   36.5800   60.8974 C   0  0  0  0  0  0  0  0  0  0  0  0
   69.0576   37.0575   60.5526 C   0  0  0  0  0  0  0  0  0  0  0  0
   69.1461   38.0820   59.6169 C   0  0  0  0  0  0  0  0  0  0  0  0
   68.2961   45.9794   54.7782 C   0  0  0  0  0  0  0  0  0  0  0  0
   68.5434   45.3559   55.8736 N   0  0  0  0  0  0  0  0  0  0  0  0
   68.9844   46.7764   52.0878 C   0  0  0  0  0  0  0  0  0  0  0  0
   69.0073   47.7568   53.2377 C   0  0  0  0  0  0  0  0  0  0  0  0
   69.3589   49.0596   53.0256 C   0  0  0  0  0  0  0  0  0  0  0  0
   69.4035   50.0156   54.0150 C   0  0  0  0  0  0  0  0  0  0  0  0
   69.7676   51.3430   53.7592 O   0  0  0  0  0  0  0  0  0  0  0  0
   69.0681   49.6041   55.2859 C   0  0  0  0  0  0  0  0  0  0  0  0
   69.0990   50.5966   56.3962 C   0  0  0  0  0  0  0  0  0  0  0  0
   68.7099   48.2888   55.5221 C   0  0  0  0  0  0  0  0  0  0  0  0
   68.3796   47.9392   56.8495 O   0  0  0  0  0  0  0  0  0  0  0  0
   68.6739   47.3560   54.5118 C   0  0  0  0  0  0  0  0  0  0  0  0
 17 18  1  0
 18 19  2  0
 18 26  1  0
 19 20  1  0
 20 21  1  0
 20 22  2  0
 22 23  1  0
 22 24  1  0
 24 25  1  0
 24 26  2  0
 26 15  1  0
 15 16  2  0
 16  1  1  0
  1  2  1  0
  2  3  2  0
  2  4  1  0
  4  5  2  0
  4  8  1  0
  5  6  1  0
  6  9  1  0
  6  7  2  0
  9 10  2  0
  9 14  1  0
 10 11  1  0
 11 12  2  0
 12 13  1  0
 13 14  2  0
  7  8  1  0
M  END
>  <minimizedAffinity>  (820) 
-8.69871

$$$$
cs_full_output_folder/data/smiles/129.pdb
     RDKit          3D

 26 29  0  0  0  0  0  0  0  0999 V2000
   70.3562   45.4492   57.8359 C   0  0  0  0  0  0  0  0  0  0  0  0
   71.4911   45.9016   58.4890 C   0  0  0  0  0  0  0  0  0  0  0  0
   71.9194   47.1874   58.4560 C   0  0  0  0  0  0  0  0  0  0  0  0
   71.1988   48.1012   57.7387 C   0  0  0  0  0  0  0  0  0  0  0  0
   70.0563   47.6881   57.0698 C   0  0  0  0  0  0  0  0  0  0  0  0
   69.6437   46.3599   57.1252 C   0  0  0  0  0  0  0  0  0  0  0  0
   68.4935   43.9692   56.2108 O   0  0  0  0  0  0  0  0  0  0  0  0
   69.0996   43.3859   57.1328 C   0  0  0  0  0  0  0  0  0  0  0  0
   70.0103   44.0656   57.9442 N   0  0  0  0  0  0  0  0  0  0  0  0
   68.8638   41.9209   57.3983 C   0  0  0  0  0  0  0  0  0  0  0  0
   68.0984   41.1605   56.7124 C   0  0  0  0  0  0  0  0  0  0  0  0
   67.8483   39.8400   56.9026 N   0  0  0  0  0  0  0  0  0  0  0  0
   68.6607   39.0970   58.2363 S   0  0  0  0  0  0  0  0  0  0  0  0
   69.6771   41.1024   58.7543 S   0  0  0  0  0  0  0  0  0  0  0  0
   69.3111   48.7190   56.2830 C   0  0  0  0  0  0  0  0  0  0  0  0
   69.6530   48.5916   54.8336 C   0  0  0  0  0  0  0  0  0  0  0  0
   70.7331   49.2747   54.3383 N   0  0  0  0  0  0  0  0  0  0  0  0
   71.0941   49.2372   53.0746 N   0  0  0  0  0  0  0  0  0  0  0  0
   70.4029   48.5087   52.1844 C   0  0  0  0  0  0  0  0  0  0  0  0
   70.7105   48.4422   50.9616 O   0  0  0  0  0  0  0  0  0  0  0  0
   69.3119   47.7966   52.5984 C   0  0  0  0  0  0  0  0  0  0  0  0
   68.9464   47.8443   53.9236 C   0  0  0  0  0  0  0  0  0  0  0  0
   67.7766   47.0621   54.3741 C   0  0  0  0  0  0  0  0  0  0  0  0
   67.5701   45.7677   53.6446 C   0  0  0  0  0  0  0  0  0  0  0  0
   68.3085   45.6358   52.3603 C   0  0  0  0  0  0  0  0  0  0  0  0
   68.4942   46.9733   51.6632 C   0  0  0  0  0  0  0  0  0  0  0  0
  7  8  2  0
  8  9  1  0
  8 10  1  0
  9  1  1  0
  1  2  2  0
  1  6  1  0
  2  3  1  0
  3  4  2  0
  4  5  1  0
  5 15  1  0
  5  6  2  0
 15 16  1  0
 16 17  2  0
 16 22  1  0
 17 18  1  0
 18 19  1  0
 19 20  2  0
 19 21  1  0
 21 22  2  0
 21 26  1  0
 22 23  1  0
 23 24  1  0
 24 25  1  0
 25 26  1  0
 10 11  2  0
 10 14  1  0
 11 12  1  0
 12 13  2  0
 13 14  1  0
M  END
>  <minimizedAffinity>  (821) 
-8.69863

$$$$
cs_full_output_folder/data/smiles/4790.pdb
     RDKit          3D

 24 26  0  0  0  0  0  0  0  0999 V2000
   68.9035   45.0752   56.4475 N   0  0  0  0  0  0  0  0  0  0  0  0
   69.9176   44.5746   57.2896 C   0  0  0  0  0  0  0  0  0  0  0  0
   70.7559   45.3869   57.7526 O   0  0  0  0  0  0  0  0  0  0  0  0
   70.0129   43.1366   57.6339 C   0  0  0  0  0  0  0  0  0  0  0  0
   70.8978   42.4296   58.2304 C   0  0  0  0  0  0  0  0  0  0  0  0
   70.1568   41.2723   58.0929 N   0  0  0  0  0  0  0  0  0  0  0  0
   69.1526   41.9970   57.4219 C   0  0  0  0  0  0  0  0  0  0  0  0
   70.3643   39.9130   58.4837 C   0  0  0  0  0  0  0  0  0  0  0  0
   71.5536   39.2557   58.2402 C   0  0  0  0  0  0  0  0  0  0  0  0
   71.7891   37.9604   58.6008 C   0  0  0  0  0  0  0  0  0  0  0  0
   70.7910   37.2493   59.2474 C   0  0  0  0  0  0  0  0  0  0  0  0
   71.0959   35.4446   59.7606 Br  0  0  0  0  0  0  0  0  0  0  0  0
   69.6041   37.9018   59.4916 C   0  0  0  0  0  0  0  0  0  0  0  0
   69.3675   39.2066   59.1278 C   0  0  0  0  0  0  0  0  0  0  0  0
   68.7146   46.4468   56.0520 C   0  0  0  0  0  0  0  0  0  0  0  0
   69.2316   47.6817   52.5127 C   0  0  0  0  0  0  0  0  0  0  0  0
   68.4591   46.7952   51.8026 C   0  0  0  0  0  0  0  0  0  0  0  0
   67.7703   45.8049   52.4531 C   0  0  0  0  0  0  0  0  0  0  0  0
   67.8400   45.6761   53.8453 C   0  0  0  0  0  0  0  0  0  0  0  0
   68.6030   46.5446   54.5788 C   0  0  0  0  0  0  0  0  0  0  0  0
   69.3025   47.5539   53.9003 C   0  0  0  0  0  0  0  0  0  0  0  0
   69.9305   50.0674   52.3668 N   0  0  0  0  0  0  0  0  0  0  0  0
   69.9774   48.7479   51.8585 C   0  0  0  0  0  0  0  0  0  0  0  0
   70.6686   48.5361   50.8471 O   0  0  0  0  0  0  0  0  0  0  0  0
 22 23  1  0
 23 24  2  0
 23 16  1  0
 16 17  2  0
 16 21  1  0
 17 18  1  0
 18 19  2  0
 19 20  1  0
 20 15  1  0
 20 21  2  0
 15  1  1  0
  1  2  1  0
  2  3  2  0
  2  4  1  0
  4  5  2  0
  4  7  1  0
  5  6  1  0
  6  8  1  0
  6  7  1  0
  8  9  2  0
  8 14  1  0
  9 10  1  0
 10 11  2  0
 11 12  1  0
 11 13  1  0
 13 14  2  0
M  END
>  <minimizedAffinity>  (822) 
-8.69612

$$$$
cs_full_output_folder/data/smiles/4963.pdb
     RDKit          3D

 27 30  0  0  0  0  0  0  0  0999 V2000
   71.7111   48.6120   58.5570 C   0  0  0  0  0  0  0  0  0  0  0  0
   71.0500   47.7715   57.7828 C   0  0  0  0  0  0  0  0  0  0  0  0
   70.1333   48.8432   57.3288 C   0  0  0  0  0  0  0  0  0  0  0  0
   70.8043   49.6502   58.1022 C   0  0  0  0  0  0  0  0  0  0  0  0
   71.6009   47.1746   60.8243 O   0  0  0  0  0  0  0  0  0  0  0  0
   72.7439   47.7146   60.6250 C   0  0  0  0  0  0  0  0  0  0  0  0
   72.8352   48.4813   59.4428 N   0  0  0  0  0  0  0  0  0  0  0  0
   73.7683   47.4831   61.6022 C   0  0  0  0  0  0  0  0  0  0  0  0
   73.9040   46.2191   62.1908 C   0  0  0  0  0  0  0  0  0  0  0  0
   74.8634   45.9440   63.1384 C   0  0  0  0  0  0  0  0  0  0  0  0
   75.7493   46.9087   63.5592 C   0  0  0  0  0  0  0  0  0  0  0  0
   76.7017   46.6367   64.4978 F   0  0  0  0  0  0  0  0  0  0  0  0
   75.6411   48.1602   62.9985 C   0  0  0  0  0  0  0  0  0  0  0  0
   74.6569   48.4340   62.0310 C   0  0  0  0  0  0  0  0  0  0  0  0
   74.6298   49.6828   61.5337 F   0  0  0  0  0  0  0  0  0  0  0  0
   68.9860   48.8013   56.3843 C   0  0  0  0  0  0  0  0  0  0  0  0
   69.3684   48.8014   54.9642 C   0  0  0  0  0  0  0  0  0  0  0  0
   70.0450   49.8421   54.4522 N   0  0  0  0  0  0  0  0  0  0  0  0
   70.3790   49.8544   53.1558 N   0  0  0  0  0  0  0  0  0  0  0  0
   70.0546   48.8464   52.3409 C   0  0  0  0  0  0  0  0  0  0  0  0
   70.4121   48.9409   51.1184 O   0  0  0  0  0  0  0  0  0  0  0  0
   69.3640   47.7522   52.7922 C   0  0  0  0  0  0  0  0  0  0  0  0
   69.0179   47.7451   54.1517 C   0  0  0  0  0  0  0  0  0  0  0  0
   68.2972   46.6221   54.7681 C   0  0  0  0  0  0  0  0  0  0  0  0
   67.9516   45.5624   53.7599 C   0  0  0  0  0  0  0  0  0  0  0  0
   67.6690   46.1245   52.4087 C   0  0  0  0  0  0  0  0  0  0  0  0
   69.0153   46.6421   51.8758 C   0  0  0  0  0  0  0  0  0  0  0  0
  5  6  2  0
  6  7  1  0
  6  8  1  0
  7  1  1  0
  1  2  2  0
  1  4  1  0
  2  3  1  0
  3 16  1  0
  3  4  2  0
 16 17  1  0
 17 18  2  0
 17 23  1  0
 18 19  1  0
 19 20  1  0
 20 21  2  0
 20 22  1  0
 22 23  2  0
 22 27  1  0
 23 24  1  0
 24 25  1  0
 25 26  1  0
 26 27  1  0
  8  9  2  0
  8 14  1  0
  9 10  1  0
 10 11  2  0
 11 12  1  0
 11 13  1  0
 13 14  2  0
 14 15  1  0
M  END
>  <minimizedAffinity>  (823) 
-8.69512

$$$$
cs_full_output_folder/data/smiles/739.pdb
     RDKit          3D

 24 25  0  0  0  0  0  0  0  0999 V2000
   69.4570   47.1576   57.2339 S   0  0  0  0  0  0  0  0  0  0  0  0
   69.2623   46.6540   58.6392 O   0  0  0  0  0  0  0  0  0  0  0  0
   70.8881   46.8685   56.8321 O   0  0  0  0  0  0  0  0  0  0  0  0
   69.1793   48.8803   57.2532 C   0  0  0  0  0  0  0  0  0  0  0  0
   70.1686   49.8066   57.0761 C   0  0  0  0  0  0  0  0  0  0  0  0
   71.4335   49.3578   56.8928 F   0  0  0  0  0  0  0  0  0  0  0  0
   69.9096   51.1832   57.0876 C   0  0  0  0  0  0  0  0  0  0  0  0
   70.9328   52.0520   56.9059 F   0  0  0  0  0  0  0  0  0  0  0  0
   68.6245   51.6409   57.2828 C   0  0  0  0  0  0  0  0  0  0  0  0
   68.3594   52.9814   57.2966 F   0  0  0  0  0  0  0  0  0  0  0  0
   67.6255   50.7085   57.4625 C   0  0  0  0  0  0  0  0  0  0  0  0
   66.3439   51.1414   57.6579 F   0  0  0  0  0  0  0  0  0  0  0  0
   67.8795   49.3526   57.4509 C   0  0  0  0  0  0  0  0  0  0  0  0
   66.8999   48.4294   57.6270 F   0  0  0  0  0  0  0  0  0  0  0  0
   68.3282   46.4098   56.1760 N   0  0  0  0  0  0  0  0  0  0  0  0
   69.2810   47.7966   52.8919 C   0  0  0  0  0  0  0  0  0  0  0  0
   68.6634   46.9148   52.0406 C   0  0  0  0  0  0  0  0  0  0  0  0
   67.9390   45.8657   52.5465 C   0  0  0  0  0  0  0  0  0  0  0  0
   67.8379   45.7054   53.9038 C   0  0  0  0  0  0  0  0  0  0  0  0
   68.4503   46.5792   54.7680 C   0  0  0  0  0  0  0  0  0  0  0  0
   69.1864   47.6466   54.2421 C   0  0  0  0  0  0  0  0  0  0  0  0
   70.3936   48.7379   51.0762 O   0  0  0  0  0  0  0  0  0  0  0  0
   70.0330   48.8883   52.2653 C   0  0  0  0  0  0  0  0  0  0  0  0
   70.3605   50.0635   52.9111 O   0  0  0  0  0  0  0  0  0  0  0  0
 22 23  2  0
 23 24  1  0
 23 16  1  0
 16 17  2  0
 16 21  1  0
 17 18  1  0
 18 19  2  0
 19 20  1  0
 20 15  1  0
 20 21  2  0
 15  1  1  0
  1  2  2  0
  1  3  2  0
  1  4  1  0
  4  5  2  0
  4 13  1  0
  5  6  1  0
  5  7  1  0
  7  8  1  0
  7  9  2  0
  9 10  1  0
  9 11  1  0
 11 12  1  0
 11 13  2  0
 13 14  1  0
M  END
>  <minimizedAffinity>  (824) 
-8.69483

$$$$
cs_full_output_folder/data/smiles/4203.pdb
     RDKit          3D

 21 23  0  0  0  0  0  0  0  0999 V2000
   69.5661   47.0873   56.8421 C   0  0  0  0  0  0  0  0  0  0  0  0
   68.8550   46.2920   55.8119 C   0  0  0  0  0  0  0  0  0  0  0  0
   68.1980   45.1258   55.9542 N   0  0  0  0  0  0  0  0  0  0  0  0
   67.7038   44.7250   54.8004 N   0  0  0  0  0  0  0  0  0  0  0  0
   68.0069   45.6131   53.8123 C   0  0  0  0  0  0  0  0  0  0  0  0
   67.7302   45.6649   52.4641 C   0  0  0  0  0  0  0  0  0  0  0  0
   67.0012   44.6687   51.8287 O   0  0  0  0  0  0  0  0  0  0  0  0
   68.1725   46.7172   51.6969 C   0  0  0  0  0  0  0  0  0  0  0  0
   68.9009   47.7075   52.3408 C   0  0  0  0  0  0  0  0  0  0  0  0
   69.1799   47.6603   53.6873 C   0  0  0  0  0  0  0  0  0  0  0  0
   68.7372   46.6005   54.4668 C   0  0  0  0  0  0  0  0  0  0  0  0
   68.9371   50.7680   57.4510 C   0  0  0  0  0  0  0  0  0  0  0  0
   67.5832   50.7654   57.7459 C   0  0  0  0  0  0  0  0  0  0  0  0
   66.8769   49.5939   57.7509 C   0  0  0  0  0  0  0  0  0  0  0  0
   67.5239   48.4137   57.4588 C   0  0  0  0  0  0  0  0  0  0  0  0
   68.8709   48.3613   57.1589 C   0  0  0  0  0  0  0  0  0  0  0  0
   69.5375   49.5685   57.1670 C   0  0  0  0  0  0  0  0  0  0  0  0
   69.6172   51.9746   57.4572 O   0  0  0  0  0  0  0  0  0  0  0  0
   70.6134   53.8180   56.3796 C   0  0  0  0  0  0  0  0  0  0  0  0
   70.2229   52.4442   56.2942 N   0  0  0  0  0  0  0  0  0  0  0  0
   69.0013   52.1814   54.6351 I   0  0  0  0  0  0  0  0  0  0  0  0
 19 20  1  0
 20 21  1  0
 20 18  1  0
 18 12  1  0
 12 13  2  0
 12 17  1  0
 13 14  1  0
 14 15  2  0
 15 16  1  0
 16  1  1  0
 16 17  2  0
  1  2  1  0
  2  3  2  0
  2 11  1  0
  3  4  1  0
  4  5  1  0
  5  6  1  0
  5 11  2  0
  6  7  1  0
  6  8  2  0
  8  9  1  0
  9 10  2  0
 10 11  1  0
M  END
>  <minimizedAffinity>  (825) 
-8.69482

$$$$
cs_full_output_folder/data/smiles/6641.pdb
     RDKit          3D

 27 30  0  0  0  0  0  0  0  0999 V2000
   70.5539   44.7642   58.2719 C   0  0  0  0  0  0  0  0  0  0  0  0
   69.6789   44.3956   57.2439 C   0  0  0  0  0  0  0  0  0  0  0  0
   69.0331   45.2954   56.4830 N   0  0  0  0  0  0  0  0  0  0  0  0
   69.1722   46.6237   56.6433 C   0  0  0  0  0  0  0  0  0  0  0  0
   70.0264   47.0333   57.6452 C   0  0  0  0  0  0  0  0  0  0  0  0
   70.2076   48.3742   57.8539 O   0  0  0  0  0  0  0  0  0  0  0  0
   70.7141   46.1191   58.4558 C   0  0  0  0  0  0  0  0  0  0  0  0
   71.2313   43.7214   59.0822 C   0  0  0  0  0  0  0  0  0  0  0  0
   71.2386   40.8166   64.0423 C   0  0  0  0  0  0  0  0  0  0  0  0
   71.2094   42.3396   63.8957 C   0  0  1  0  0  0  0  0  0  0  0  0
   72.5737   42.9305   64.0157 C   0  0  0  0  0  0  0  0  0  0  0  0
   73.2206   43.3535   62.7432 C   0  0  0  0  0  0  0  0  0  0  0  0
   72.5485   42.9384   61.5685 O   0  0  0  0  0  0  0  0  0  0  0  0
   71.1706   43.0360   61.4899 C   0  0  0  0  0  0  0  0  0  0  0  0
   70.5151   43.4047   60.3393 C   0  0  0  0  0  0  0  0  0  0  0  0
   69.1537   43.4603   60.4043 N   0  0  0  0  0  0  0  0  0  0  0  0
   68.4983   43.1756   61.5189 N   0  0  0  0  0  0  0  0  0  0  0  0
   69.1314   42.8085   62.6702 C   0  0  0  0  0  0  0  0  0  0  0  0
   68.4710   42.5442   63.7118 O   0  0  0  0  0  0  0  0  0  0  0  0
   70.4920   42.7332   62.6710 C   0  0  0  0  0  0  0  0  0  0  0  0
   68.4307   47.5760   55.7699 C   0  0  0  0  0  0  0  0  0  0  0  0
   68.5786   47.3050   54.3516 C   0  0  0  0  0  0  0  0  0  0  0  0
   67.8782   46.2969   53.7303 C   0  0  0  0  0  0  0  0  0  0  0  0
   68.0298   46.0501   52.3675 C   0  0  0  0  0  0  0  0  0  0  0  0
   68.8874   46.8178   51.6258 C   0  0  0  0  0  0  0  0  0  0  0  0
   69.5893   47.8188   52.2185 C   0  0  0  0  0  0  0  0  0  0  0  0
   69.4312   48.0570   53.5771 C   0  0  0  0  0  0  0  0  0  0  0  0
 10  9  1  6
 10 11  1  0
 10 20  1  0
 11 12  1  0
 12 13  1  0
 13 14  1  0
 14 15  1  0
 14 20  2  0
 15  8  1  0
 15 16  2  0
  8  1  1  0
  1  2  2  0
  1  7  1  0
  2  3  1  0
  3  4  2  0
  4 21  1  0
  4  5  1  0
 21 22  1  0
 22 23  2  0
 22 27  1  0
 23 24  1  0
 24 25  2  0
 25 26  1  0
 26 27  2  0
  5  6  1  0
  5  7  2  0
 16 17  1  0
 17 18  1  0
 18 19  2  0
 18 20  1  0
M  END
>  <minimizedAffinity>  (826) 
-8.69437

$$$$
cs_full_output_folder/data/smiles/1329.pdb
     RDKit          3D

 29 32  0  0  0  0  0  0  0  0999 V2000
   71.1720   46.8211   58.7040 C   0  0  0  0  0  0  0  0  0  0  0  0
   70.3000   47.5673   57.9392 C   0  0  0  0  0  0  0  0  0  0  0  0
   69.4888   46.9791   56.9738 C   0  0  0  0  0  0  0  0  0  0  0  0
   69.5721   45.6150   56.7932 C   0  0  0  0  0  0  0  0  0  0  0  0
   70.4418   44.8351   57.5498 C   0  0  0  0  0  0  0  0  0  0  0  0
   70.4990   43.4937   57.3445 F   0  0  0  0  0  0  0  0  0  0  0  0
   71.2379   45.4679   58.5077 C   0  0  0  0  0  0  0  0  0  0  0  0
   72.0887   44.7439   59.2544 F   0  0  0  0  0  0  0  0  0  0  0  0
   71.6168   47.3861   60.9053 O   0  0  0  0  0  0  0  0  0  0  0  0
   72.0034   47.5028   59.7112 C   0  0  0  0  0  0  0  0  0  0  0  0
   73.1536   48.2305   59.3344 N   0  0  0  0  0  0  0  0  0  0  0  0
   73.9513   48.8853   60.3088 C   0  0  0  0  0  0  0  0  0  0  0  0
   75.0906   49.6773   59.7702 C   0  0  0  0  0  0  0  0  0  0  0  0
   75.6136   49.2067   58.5222 N   0  0  0  0  0  0  0  0  0  0  0  0
   75.0273   48.0507   57.8961 C   0  0  0  0  0  0  0  0  0  0  0  0
   73.5124   48.3007   57.9407 C   0  0  0  0  0  0  0  0  0  0  0  0
   76.6982   49.8816   57.9179 C   0  0  0  0  0  0  0  0  0  0  0  0
   77.8370   50.2259   58.6226 C   0  0  0  0  0  0  0  0  0  0  0  0
   78.9070   50.8839   58.0487 C   0  0  0  0  0  0  0  0  0  0  0  0
   78.8683   51.2252   56.7273 C   0  0  0  0  0  0  0  0  0  0  0  0
   77.7178   50.8758   56.0167 C   0  0  0  0  0  0  0  0  0  0  0  0
   76.6904   50.2343   56.6019 N   0  0  0  0  0  0  0  0  0  0  0  0
   68.5461   47.7755   56.1461 C   0  0  0  0  0  0  0  0  0  0  0  0
   68.6888   47.4795   54.7041 C   0  0  0  0  0  0  0  0  0  0  0  0
   67.9951   46.4369   54.1433 C   0  0  0  0  0  0  0  0  0  0  0  0
   68.1203   46.1422   52.7809 C   0  0  0  0  0  0  0  0  0  0  0  0
   68.9462   46.9023   51.9860 C   0  0  0  0  0  0  0  0  0  0  0  0
   69.6420   47.9475   52.5466 C   0  0  0  0  0  0  0  0  0  0  0  0
   69.5120   48.2333   53.9034 C   0  0  0  0  0  0  0  0  0  0  0  0
  9 10  2  0
 10  1  1  0
 10 11  1  0
  1  2  2  0
  1  7  1  0
  2  3  1  0
  3 23  1  0
  3  4  2  0
 23 24  1  0
 24 25  2  0
 24 29  1  0
 25 26  1  0
 26 27  2  0
 27 28  1  0
 28 29  2  0
  4  5  1  0
  5  6  1  0
  5  7  2  0
  7  8  1  0
 11 12  1  0
 11 16  1  0
 12 13  1  0
 13 14  1  0
 14 17  1  0
 14 15  1  0
 17 18  2  0
 17 22  1  0
 18 19  1  0
 19 20  2  0
 20 21  1  0
 21 22  2  0
 15 16  1  0
M  END
>  <minimizedAffinity>  (827) 
-8.69164

$$$$
cs_full_output_folder/data/smiles/8824.pdb
     RDKit          3D

 29 33  0  0  0  0  0  0  0  0999 V2000
   70.7616   45.8738   58.3052 C   0  0  0  0  0  0  0  0  0  0  0  0
   69.8404   46.5075   57.4615 C   0  0  0  0  0  0  0  0  0  0  0  0
   69.9633   47.8127   57.1017 C   0  0  0  0  0  0  0  0  0  0  0  0
   71.0651   48.5150   57.6126 C   0  0  0  0  0  0  0  0  0  0  0  0
   71.9820   47.9206   58.4396 C   0  0  0  0  0  0  0  0  0  0  0  0
   71.8172   46.5997   58.7780 C   0  0  0  0  0  0  0  0  0  0  0  0
   72.7370   46.0423   59.5944 F   0  0  0  0  0  0  0  0  0  0  0  0
   69.6006   44.1587   59.3776 O   0  0  0  0  0  0  0  0  0  0  0  0
   70.5879   44.4578   58.6658 C   0  0  0  0  0  0  0  0  0  0  0  0
   71.4904   43.4589   58.2363 N   0  0  0  0  0  0  0  0  0  0  0  0
   71.5611   42.0292   58.4381 C   0  0  0  0  0  0  0  0  0  0  0  0
   73.0885   42.1802   58.3576 C   0  0  0  0  0  0  0  0  0  0  0  0
   72.7056   43.3281   57.4446 C   0  0  0  0  0  0  0  0  0  0  0  0
   73.5681   42.6374   59.6207 N   0  0  0  0  0  0  0  0  0  0  0  0
   74.8649   43.2284   59.7004 C   0  0  0  0  0  0  0  0  0  0  0  0
   75.0154   42.5187   61.0556 C   0  0  0  0  0  0  0  0  0  0  0  0
   73.8099   41.6607   60.6432 C   0  0  0  0  0  0  0  0  0  0  0  0
   69.0597   48.5827   56.2414 C   0  0  0  0  0  0  0  0  0  0  0  0
   69.4416   48.5555   54.8389 C   0  0  0  0  0  0  0  0  0  0  0  0
   70.3257   49.4637   54.3477 N   0  0  0  0  0  0  0  0  0  0  0  0
   70.6837   49.5218   53.0914 N   0  0  0  0  0  0  0  0  0  0  0  0
   70.1919   48.6727   52.1943 C   0  0  0  0  0  0  0  0  0  0  0  0
   70.5280   48.7143   50.9673 O   0  0  0  0  0  0  0  0  0  0  0  0
   69.2850   47.7080   52.5891 C   0  0  0  0  0  0  0  0  0  0  0  0
   68.7640   46.8081   51.7028 C   0  0  0  0  0  0  0  0  0  0  0  0
   67.8772   45.8436   52.0894 C   0  0  0  0  0  0  0  0  0  0  0  0
   67.5089   45.7883   53.4056 C   0  0  0  0  0  0  0  0  0  0  0  0
   68.0300   46.6889   54.2959 C   0  0  0  0  0  0  0  0  0  0  0  0
   68.9201   47.6699   53.9418 C   0  0  0  0  0  0  0  0  0  0  0  0
  8  9  2  0
  9  1  1  0
  9 10  1  0
  1  2  2  0
  1  6  1  0
  2  3  1  0
  3 18  1  0
  3  4  2  0
 18 19  1  0
 19 20  2  0
 19 29  1  0
 20 21  1  0
 21 22  1  0
 22 23  2  0
 22 24  1  0
 24 25  1  0
 24 29  2  0
 25 26  2  0
 26 27  1  0
 27 28  2  0
 28 29  1  0
  4  5  1  0
  5  6  2  0
  6  7  1  0
 10 11  1  0
 10 13  1  0
 11 12  1  0
 12 14  1  0
 12 13  1  0
 14 15  1  0
 14 17  1  0
 15 16  1  0
 16 17  1  0
M  CHG  1  14   1
M  END
>  <minimizedAffinity>  (828) 
-8.69089

$$$$
cs_full_output_folder/data/smiles/225.pdb
     RDKit          3D

 23 25  0  0  0  0  0  0  0  0999 V2000
   69.4174   51.0408   54.7837 C   0  0  0  0  0  0  0  0  0  0  0  0
   68.1698   50.9381   55.3847 C   0  0  0  0  0  0  0  0  0  0  0  0
   68.0187   51.1666   56.7369 C   0  0  0  0  0  0  0  0  0  0  0  0
   66.4246   51.0278   57.4596 Cl  0  0  0  0  0  0  0  0  0  0  0  0
   69.1209   51.5014   57.5112 C   0  0  0  0  0  0  0  0  0  0  0  0
   70.3563   51.6040   56.9251 C   0  0  0  0  0  0  0  0  0  0  0  0
   70.5128   51.3725   55.5434 C   0  0  0  0  0  0  0  0  0  0  0  0
   71.7920   51.5122   54.9592 N   0  0  0  0  0  0  0  0  0  0  0  0
   72.9433   50.9182   55.3703 C   0  0  0  0  0  0  0  0  0  0  0  0
   73.9850   51.3164   54.5216 C   0  0  0  0  0  0  0  0  0  0  0  0
   73.4010   52.1353   53.6370 N   0  0  0  0  0  0  0  0  0  0  0  0
   72.1217   52.2284   53.9195 N   0  0  0  0  0  0  0  0  0  0  0  0
   69.4841   50.7628   53.4109 N   0  0  0  0  0  0  0  0  0  0  0  0
   71.6248   49.2240   53.0439 O   0  0  0  0  0  0  0  0  0  0  0  0
   70.1850   49.3506   52.7277 S   0  0  0  0  0  0  0  0  0  0  0  0
   70.0001   49.3850   51.2353 O   0  0  0  0  0  0  0  0  0  0  0  0
   69.2732   47.9783   53.3145 C   0  0  0  0  0  0  0  0  0  0  0  0
   69.1779   47.7492   54.6697 C   0  0  0  0  0  0  0  0  0  0  0  0
   68.4668   46.6757   55.1588 C   0  0  0  0  0  0  0  0  0  0  0  0
   67.8487   45.8299   54.2690 C   0  0  0  0  0  0  0  0  0  0  0  0
   67.9315   46.0411   52.9164 C   0  0  0  0  0  0  0  0  0  0  0  0
   67.3115   45.1926   52.0403 F   0  0  0  0  0  0  0  0  0  0  0  0
   68.6454   47.1173   52.4500 C   0  0  0  0  0  0  0  0  0  0  0  0
 14 15  2  0
 15 16  2  0
 15 13  1  0
 15 17  1  0
 13  1  1  0
  1  2  2  0
  1  7  1  0
  2  3  1  0
  3  4  1  0
  3  5  2  0
  5  6  1  0
  6  7  2  0
  7  8  1  0
  8  9  1  0
  8 12  1  0
  9 10  2  0
 10 11  1  0
 11 12  2  0
 17 18  2  0
 17 23  1  0
 18 19  1  0
 19 20  2  0
 20 21  1  0
 21 22  1  0
 21 23  2  0
M  END
>  <minimizedAffinity>  (829) 
-8.69066

$$$$
cs_full_output_folder/data/smiles/5578.pdb
     RDKit          3D

 25 27  0  0  0  0  0  0  0  0999 V2000
   68.1829   43.5419   55.9018 C   0  0  0  0  0  0  0  0  0  0  0  0
   69.1659   43.4942   56.5622 N   0  0  0  0  0  0  0  0  0  0  0  0
   69.5994   42.5626   57.3848 C   0  0  0  0  0  0  0  0  0  0  0  0
   68.7664   41.4679   57.4883 C   0  0  0  0  0  0  0  0  0  0  0  0
   67.3783   41.8938   56.3452 S   0  0  0  0  0  0  0  0  0  0  0  0
   70.8700   42.6264   58.1541 C   0  0  0  0  0  0  0  0  0  0  0  0
   72.0832   42.4188   57.4744 C   0  0  0  0  0  0  0  0  0  0  0  0
   73.2994   42.4771   58.1089 C   0  0  0  0  0  0  0  0  0  0  0  0
   74.4763   42.2742   57.4660 F   0  0  0  0  0  0  0  0  0  0  0  0
   73.3666   42.7494   59.4722 C   0  0  0  0  0  0  0  0  0  0  0  0
   74.5680   42.8175   60.1189 F   0  0  0  0  0  0  0  0  0  0  0  0
   72.1905   42.9506   60.1364 C   0  0  0  0  0  0  0  0  0  0  0  0
   70.9431   42.8902   59.4830 C   0  0  0  0  0  0  0  0  0  0  0  0
   69.8143   43.1070   60.2005 F   0  0  0  0  0  0  0  0  0  0  0  0
   67.5062   44.3912   54.9858 N   0  0  0  0  0  0  0  0  0  0  0  0
   69.2509   47.9743   53.5283 C   0  0  0  0  0  0  0  0  0  0  0  0
   68.7444   47.0033   52.6615 C   0  0  0  0  0  0  0  0  0  0  0  0
   68.1627   45.8393   53.1333 C   0  0  0  0  0  0  0  0  0  0  0  0
   68.0601   45.5947   54.4807 C   0  0  0  0  0  0  0  0  0  0  0  0
   68.5619   46.5582   55.3537 C   0  0  0  0  0  0  0  0  0  0  0  0
   69.1459   47.7257   54.8710 C   0  0  0  0  0  0  0  0  0  0  0  0
   69.9487   49.3418   51.1226 N   0  0  0  0  0  0  0  0  0  0  0  0
   69.9850   49.4171   52.8684 S   0  0  0  0  0  0  0  0  0  0  0  0
   69.3164   50.6757   53.3301 O   0  0  0  0  0  0  0  0  0  0  0  0
   71.4520   49.4156   53.2308 O   0  0  0  0  0  0  0  0  0  0  0  0
 22 23  1  0
 23 24  2  0
 23 25  2  0
 23 16  1  0
 16 17  2  0
 16 21  1  0
 17 18  1  0
 18 19  2  0
 19 15  1  0
 19 20  1  0
 15  1  1  0
  1  2  2  0
  1  5  1  0
  2  3  1  0
  3  6  1  0
  3  4  2  0
  6  7  2  0
  6 13  1  0
  7  8  1  0
  8  9  1  0
  8 10  2  0
 10 11  1  0
 10 12  1  0
 12 13  2  0
 13 14  1  0
  4  5  1  0
 20 21  2  0
M  END
>  <minimizedAffinity>  (830) 
-8.69005

$$$$
cs_full_output_folder/data/smiles/529.pdb
     RDKit          3D

 27 30  0  0  0  0  0  0  0  0999 V2000
   71.4919   47.4968   59.0429 C   0  0  0  0  0  0  0  0  0  0  0  0
   71.2920   46.1184   58.8678 C   0  0  0  0  0  0  0  0  0  0  0  0
   70.4150   45.6067   57.9339 C   0  0  0  0  0  0  0  0  0  0  0  0
   69.7384   46.5222   57.1754 C   0  0  0  0  0  0  0  0  0  0  0  0
   69.8844   47.8818   57.2931 N   0  0  0  0  0  0  0  0  0  0  0  0
   70.7478   48.3070   58.2139 C   0  0  0  0  0  0  0  0  0  0  0  0
   70.9002   49.5421   58.3358 O   0  0  0  0  0  0  0  0  0  0  0  0
   74.4607   49.1089   60.9432 C   0  0  0  0  0  0  0  0  0  0  0  0
   73.5586   48.7232   59.8363 N   0  0  0  0  0  0  0  0  0  0  0  0
   72.4290   47.9268   60.0490 C   0  0  0  0  0  0  0  0  0  0  0  0
   72.2183   47.5511   61.2509 O   0  0  0  0  0  0  0  0  0  0  0  0
   70.2540   44.1621   57.7815 C   0  0  0  0  0  0  0  0  0  0  0  0
   71.2448   43.4332   58.0234 O   0  0  0  0  0  0  0  0  0  0  0  0
   69.0381   43.5757   57.3774 N   0  0  0  0  0  0  0  0  0  0  0  0
   68.8880   42.1248   57.2243 C   0  0  0  0  0  0  0  0  0  0  0  0
   67.6282   41.5587   57.8544 C   0  0  0  0  0  0  0  0  0  0  0  0
   67.7045   41.6261   56.3855 C   0  0  0  0  0  0  0  0  0  0  0  0
   69.1021   48.7451   56.4273 C   0  0  0  0  0  0  0  0  0  0  0  0
   69.3606   48.5988   54.9941 C   0  0  0  0  0  0  0  0  0  0  0  0
   70.2594   49.3923   54.2823 C   0  0  0  0  0  0  0  0  0  0  0  0
   70.2887   48.9608   53.0198 N   0  0  0  0  0  0  0  0  0  0  0  0
   69.4520   47.9100   52.8367 C   0  0  0  0  0  0  0  0  0  0  0  0
   69.1299   47.1472   51.7336 C   0  0  0  0  0  0  0  0  0  0  0  0
   68.2141   46.1319   51.8226 C   0  0  0  0  0  0  0  0  0  0  0  0
   67.6273   45.9013   53.0480 C   0  0  0  0  0  0  0  0  0  0  0  0
   67.9556   46.6667   54.1396 C   0  0  0  0  0  0  0  0  0  0  0  0
   68.8746   47.6959   54.0920 C   0  0  0  0  0  0  0  0  0  0  0  0
  8  9  1  0
  9 10  1  0
 10 11  2  0
 10  1  1  0
  1  2  2  0
  1  6  1  0
  2  3  1  0
  3 12  1  0
  3  4  2  0
 12 13  2  0
 12 14  1  0
 14 15  1  0
 15 16  1  0
 15 17  1  0
 16 17  1  0
  4  5  1  0
  5 18  1  0
  5  6  1  0
 18 19  1  0
 19 20  2  0
 19 27  1  0
 20 21  1  0
 21 22  1  0
 22 23  1  0
 22 27  2  0
 23 24  2  0
 24 25  1  0
 25 26  2  0
 26 27  1  0
  6  7  2  0
M  END
>  <minimizedAffinity>  (831) 
-8.68705

$$$$
cs_full_output_folder/data/smiles/2958.pdb
     RDKit          3D

 25 27  0  0  0  0  0  0  0  0999 V2000
   70.3847   44.8438   57.5747 C   0  0  0  0  0  0  0  0  0  0  0  0
   71.0513   45.6939   58.4310 C   0  0  0  0  0  0  0  0  0  0  0  0
   70.8034   47.0527   58.3878 C   0  0  0  0  0  0  0  0  0  0  0  0
   69.9043   47.6029   57.5095 C   0  0  0  0  0  0  0  0  0  0  0  0
   69.2386   46.7149   56.6489 C   0  0  0  0  0  0  0  0  0  0  0  0
   69.5171   45.4088   56.7342 N   0  0  0  0  0  0  0  0  0  0  0  0
   68.7654   43.0500   58.8563 O   0  0  0  0  0  0  0  0  0  0  0  0
   69.7729   42.5310   58.2828 C   0  0  0  0  0  0  0  0  0  0  0  0
   70.6351   43.4273   57.6090 N   0  0  0  0  0  0  0  0  0  0  0  0
   69.9688   41.0898   58.3542 C   0  0  0  0  0  0  0  0  0  0  0  0
   68.9255   40.2044   58.3482 C   0  0  0  0  0  0  0  0  0  0  0  0
   69.1599   38.8314   58.4189 C   0  0  0  0  0  0  0  0  0  0  0  0
   70.4459   38.3183   58.4953 C   0  0  0  0  0  0  0  0  0  0  0  0
   71.4935   39.2149   58.5013 C   0  0  0  0  0  0  0  0  0  0  0  0
   71.2428   40.5719   58.4306 C   0  0  0  0  0  0  0  0  0  0  0  0
   68.2477   47.3026   55.7176 C   0  0  0  0  0  0  0  0  0  0  0  0
   68.8011   47.5923   54.3889 C   0  0  0  0  0  0  0  0  0  0  0  0
   69.6100   48.6946   54.2899 N   0  0  0  0  0  0  0  0  0  0  0  0
   70.1887   49.0529   53.1600 N   0  0  0  0  0  0  0  0  0  0  0  0
   70.0321   48.3671   52.0174 C   0  0  0  0  0  0  0  0  0  0  0  0
   70.6101   48.7568   50.9673 O   0  0  0  0  0  0  0  0  0  0  0  0
   69.2342   47.2486   52.0361 C   0  0  0  0  0  0  0  0  0  0  0  0
   68.6209   46.8724   53.2396 C   0  0  0  0  0  0  0  0  0  0  0  0
   67.7516   45.6956   53.2350 C   0  0  0  0  0  0  0  0  0  0  0  0
   67.1854   45.3398   51.4027 Br  0  0  0  0  0  0  0  0  0  0  0  0
  7  8  2  0
  8  9  1  0
  8 10  1  0
  9  1  1  0
  1  2  2  0
  1  6  1  0
  2  3  1  0
  3  4  2  0
  4  5  1  0
  5 16  1  0
  5  6  2  0
 16 17  1  0
 17 18  2  0
 17 23  1  0
 18 19  1  0
 19 20  1  0
 20 21  2  0
 20 22  1  0
 22 23  2  0
 23 24  1  0
 24 25  1  0
 10 11  2  0
 10 15  1  0
 11 12  1  0
 12 13  2  0
 13 14  1  0
 14 15  2  0
M  END
>  <minimizedAffinity>  (832) 
-8.68444

$$$$
cs_full_output_folder/data/smiles/2755.pdb
     RDKit          3D

 27 29  0  0  0  0  0  0  0  0999 V2000
   69.2816   47.8585   53.0795 C   0  0  0  0  0  0  0  0  0  0  0  0
   68.7443   47.4757   51.8728 C   0  0  0  0  0  0  0  0  0  0  0  0
   68.0364   46.2879   51.8735 C   0  0  0  0  0  0  0  0  0  0  0  0
   67.8566   45.5072   52.9849 C   0  0  0  0  0  0  0  0  0  0  0  0
   68.4101   45.9180   54.1875 C   0  0  0  0  0  0  0  0  0  0  0  0
   69.1149   47.0928   54.2070 C   0  0  0  0  0  0  0  0  0  0  0  0
   70.2105   49.3418   53.2510 S   0  0  0  0  0  0  0  0  0  0  0  0
   69.6332   50.3560   52.3250 O   0  0  0  0  0  0  0  0  0  0  0  0
   71.6173   49.0299   52.8218 O   0  0  0  0  0  0  0  0  0  0  0  0
   68.8366   52.7588   54.9103 C   0  0  0  0  0  0  0  0  0  0  0  0
   68.8644   51.6520   55.9406 C   0  0  2  0  0  0  0  0  0  0  0  0
   70.0201   51.8130   56.9030 C   0  0  0  0  0  0  0  0  0  0  0  0
   71.3002   51.5932   56.1346 C   0  0  0  0  0  0  0  0  0  0  0  0
   71.3080   50.2274   55.4904 C   0  0  0  0  0  0  0  0  0  0  0  0
   70.1397   49.8681   54.8342 N   0  0  0  0  0  0  0  0  0  0  0  0
   68.8949   50.2849   55.3422 C   0  0  0  0  0  0  0  0  0  0  0  0
   68.2313   45.1042   55.3843 C   0  0  0  0  0  0  0  0  0  0  0  0
   68.5542   45.6019   56.4890 O   0  0  0  0  0  0  0  0  0  0  0  0
   67.7148   43.7880   55.3698 N   0  0  0  0  0  0  0  0  0  0  0  0
   67.5727   43.0640   56.5857 N   0  0  0  0  0  0  0  0  0  0  0  0
   67.4915   41.6465   56.5818 C   0  0  0  0  0  0  0  0  0  0  0  0
   67.5488   41.0702   55.4812 O   0  0  0  0  0  0  0  0  0  0  0  0
   67.3445   40.8656   57.8168 C   0  0  0  0  0  0  0  0  0  0  0  0
   68.0117   39.7130   58.1645 C   0  0  0  0  0  0  0  0  0  0  0  0
   67.5737   39.3025   59.4146 C   0  0  0  0  0  0  0  0  0  0  0  0
   66.6321   40.2641   59.7664 C   0  0  0  0  0  0  0  0  0  0  0  0
   66.5343   41.1524   58.8046 O   0  0  0  0  0  0  0  0  0  0  0  0
 11 10  1  6
 11 12  1  0
 11 16  1  0
 12 13  1  0
 13 14  1  0
 14 15  1  0
 15  7  1  0
 15 16  1  0
  7  8  2  0
  7  9  2  0
  7  1  1  0
  1  2  2  0
  1  6  1  0
  2  3  1  0
  3  4  2  0
  4  5  1  0
  5 17  1  0
  5  6  2  0
 17 18  2  0
 17 19  1  0
 19 20  1  0
 20 21  1  0
 21 22  2  0
 21 23  1  0
 23 24  2  0
 23 27  1  0
 24 25  1  0
 25 26  2  0
 26 27  1  0
M  END
>  <minimizedAffinity>  (833) 
-8.68337

$$$$
cs_full_output_folder/data/smiles/382.pdb
     RDKit          3D

 26 27  0  0  0  0  0  0  0  0999 V2000
   70.8452   42.5683   59.0343 C   0  0  0  0  0  0  0  0  0  0  0  0
   69.9561   42.8743   59.8803 O   0  0  0  0  0  0  0  0  0  0  0  0
   71.3482   43.6202   58.2433 N   0  0  0  0  0  0  0  0  0  0  0  0
   72.0440   38.4520   58.7212 C   0  0  0  0  0  0  0  0  0  0  0  0
   70.7784   38.8783   58.3759 C   0  0  0  0  0  0  0  0  0  0  0  0
   70.3898   40.1969   58.4742 C   0  0  0  0  0  0  0  0  0  0  0  0
   71.2807   41.1707   58.9374 C   0  0  0  0  0  0  0  0  0  0  0  0
   72.5400   40.7410   59.2810 C   0  0  0  0  0  0  0  0  0  0  0  0
   72.9139   39.4197   59.1765 C   0  0  0  0  0  0  0  0  0  0  0  0
   72.4199   36.6198   57.1544 C   0  0  0  0  0  0  0  0  0  0  0  0
   72.3903   37.0335   58.5920 C   0  0  0  0  0  0  0  0  0  0  0  0
   73.7458   36.7077   59.1958 C   0  0  0  0  0  0  0  0  0  0  0  0
   71.3727   36.2009   59.3772 C   0  0  0  0  0  0  0  0  0  0  0  0
   70.9167   44.9624   58.3491 C   0  0  0  0  0  0  0  0  0  0  0  0
   71.8240   46.0340   59.1564 S   0  0  0  0  0  0  0  0  0  0  0  0
   69.7087   45.3578   57.7540 N   0  0  0  0  0  0  0  0  0  0  0  0
   69.5816   45.4700   56.3530 N   0  0  0  0  0  0  0  0  0  0  0  0
   68.6691   46.3409   55.7451 C   0  0  0  0  0  0  0  0  0  0  0  0
   67.9341   47.0495   56.4731 O   0  0  0  0  0  0  0  0  0  0  0  0
   68.5322   46.4615   54.3011 C   0  0  0  0  0  0  0  0  0  0  0  0
   69.1910   47.4373   53.5744 C   0  0  0  0  0  0  0  0  0  0  0  0
   69.0630   47.5542   52.2058 C   0  0  0  0  0  0  0  0  0  0  0  0
   68.2574   46.6856   51.5001 C   0  0  0  0  0  0  0  0  0  0  0  0
   67.5884   45.7025   52.2008 C   0  0  0  0  0  0  0  0  0  0  0  0
   66.7635   44.8065   51.5106 O   0  0  0  0  0  0  0  0  0  0  0  0
   67.7317   45.6049   53.5649 C   0  0  0  0  0  0  0  0  0  0  0  0
 10 11  1  0
 11 12  1  0
 11 13  1  0
 11  4  1  0
  4  5  2  0
  4  9  1  0
  5  6  1  0
  6  7  2  0
  7  1  1  0
  7  8  1  0
  1  2  2  0
  1  3  1  0
  3 14  1  0
 14 15  2  0
 14 16  1  0
 16 17  1  0
 17 18  1  0
 18 19  2  0
 18 20  1  0
 20 21  2  0
 20 26  1  0
 21 22  1  0
 22 23  2  0
 23 24  1  0
 24 25  1  0
 24 26  2  0
  8  9  2  0
M  END
>  <minimizedAffinity>  (834) 
-8.68302

$$$$
cs_full_output_folder/data/smiles/1455.pdb
     RDKit          3D

 24 25  0  0  0  0  0  0  0  0999 V2000
   68.1828   47.8351   56.7566 S   0  0  0  0  0  0  0  0  0  0  0  0
   67.0226   47.9676   57.7032 O   0  0  0  0  0  0  0  0  0  0  0  0
   68.3702   49.1056   55.9954 O   0  0  0  0  0  0  0  0  0  0  0  0
   71.9874   47.1161   59.1995 C   0  0  0  0  0  0  0  0  0  0  0  0
   71.4734   48.3832   59.0255 C   0  0  0  0  0  0  0  0  0  0  0  0
   70.3250   48.5659   58.2830 C   0  0  0  0  0  0  0  0  0  0  0  0
   69.6418   47.5256   57.6879 C   0  0  0  0  0  0  0  0  0  0  0  0
   70.1559   46.2575   57.8618 C   0  0  0  0  0  0  0  0  0  0  0  0
   71.3012   46.0702   58.6012 C   0  0  0  0  0  0  0  0  0  0  0  0
   73.5371   48.0773   60.7822 C   0  0  0  0  0  0  0  0  0  0  0  0
   73.2223   46.8542   59.9876 C   0  0  0  0  0  0  0  0  0  0  0  0
   74.3234   46.4123   59.0854 C   0  0  0  0  0  0  0  0  0  0  0  0
   72.9746   45.7202   60.9875 C   0  0  0  0  0  0  0  0  0  0  0  0
   67.9592   46.5153   55.6666 N   0  0  0  0  0  0  0  0  0  0  0  0
   68.2159   46.6603   54.2720 C   0  0  0  0  0  0  0  0  0  0  0  0
   67.5140   45.9060   53.3583 C   0  0  0  0  0  0  0  0  0  0  0  0
   67.7745   46.0582   52.0125 C   0  0  0  0  0  0  0  0  0  0  0  0
   67.0870   45.3186   51.1035 F   0  0  0  0  0  0  0  0  0  0  0  0
   68.7232   46.9502   51.5705 C   0  0  0  0  0  0  0  0  0  0  0  0
   69.4414   47.7179   52.4599 C   0  0  0  0  0  0  0  0  0  0  0  0
   69.1629   47.5474   53.7947 C   0  0  0  0  0  0  0  0  0  0  0  0
   70.4288   48.6456   51.9971 N   0  0  0  0  0  0  0  0  0  0  0  0
   70.4473   49.0978   50.8570 O   0  0  0  0  0  0  0  0  0  0  0  0
   71.4071   49.0529   52.8677 O   0  0  0  0  0  0  0  0  0  0  0  0
 10 11  1  0
 11 12  1  0
 11 13  1  0
 11  4  1  0
  4  5  2  0
  4  9  1  0
  5  6  1  0
  6  7  2  0
  7  1  1  0
  7  8  1  0
  1  2  2  0
  1  3  2  0
  1 14  1  0
 14 15  1  0
 15 16  2  0
 15 21  1  0
 16 17  1  0
 17 18  1  0
 17 19  2  0
 19 20  1  0
 20 22  1  0
 20 21  2  0
 22 23  2  0
 22 24  1  0
  8  9  2  0
M  CHG  2  22   1  24  -1
M  END
>  <minimizedAffinity>  (835) 
-8.68180

$$$$
cs_full_output_folder/data/smiles/7816.pdb
     RDKit          3D

 29 32  0  0  0  0  0  0  0  0999 V2000
   71.2237   45.5899   58.7958 C   0  0  0  0  0  0  0  0  0  0  0  0
   72.3735   46.3339   58.8935 C   0  0  0  0  0  0  0  0  0  0  0  0
   72.4484   47.6345   58.3783 C   0  0  0  0  0  0  0  0  0  0  0  0
   71.3694   48.2161   57.7531 C   0  0  0  0  0  0  0  0  0  0  0  0
   70.2056   47.4816   57.6456 C   0  0  0  0  0  0  0  0  0  0  0  0
   70.1494   46.2150   58.1549 C   0  0  0  0  0  0  0  0  0  0  0  0
   71.0853   44.2436   59.3054 C   0  0  0  0  0  0  0  0  0  0  0  0
   71.1832   44.0901   60.5771 O   0  0  0  0  0  0  0  0  0  0  0  0
   70.8533   43.0648   58.5803 N   0  0  0  0  0  0  0  0  0  0  0  0
   71.7452   43.0274   57.4395 C   0  0  0  0  0  0  0  0  0  0  0  0
   73.1736   42.7585   57.7431 C   0  0  0  0  0  0  0  0  0  0  0  0
   73.4241   41.7777   58.8433 C   0  0  0  0  0  0  0  0  0  0  0  0
   72.1201   41.0116   59.0844 C   0  0  0  0  0  0  0  0  0  0  0  0
   71.0480   41.9602   59.5018 C   0  0  0  0  0  0  0  0  0  0  0  0
   68.5899   42.7288   58.8142 O   0  0  0  0  0  0  0  0  0  0  0  0
   69.5392   42.9569   58.0357 C   0  0  0  0  0  0  0  0  0  0  0  0
   69.2793   43.0939   56.6888 O   0  0  0  0  0  0  0  0  0  0  0  0
   69.0554   48.1352   56.9550 C   0  0  0  0  0  0  0  0  0  0  0  0
   68.7140   47.3233   55.7685 C   0  0  0  0  0  0  0  0  0  0  0  0
   68.0480   46.1524   55.8687 N   0  0  0  0  0  0  0  0  0  0  0  0
   67.7273   45.3943   54.8422 N   0  0  0  0  0  0  0  0  0  0  0  0
   68.0524   45.7491   53.6067 C   0  0  0  0  0  0  0  0  0  0  0  0
   67.7617   45.0461   52.5864 O   0  0  0  0  0  0  0  0  0  0  0  0
   68.7354   46.9288   53.3874 C   0  0  0  0  0  0  0  0  0  0  0  0
   69.0905   47.3304   52.1038 C   0  0  0  0  0  0  0  0  0  0  0  0
   69.7702   48.5214   51.9788 C   0  0  0  0  0  0  0  0  0  0  0  0
   70.0949   49.3027   53.0708 C   0  0  0  0  0  0  0  0  0  0  0  0
   69.7404   48.9003   54.3452 C   0  0  0  0  0  0  0  0  0  0  0  0
   69.0641   47.7180   54.4975 C   0  0  0  0  0  0  0  0  0  0  0  0
 15 16  2  0
 16 17  1  0
 16  9  1  0
  9  7  1  0
  9 10  1  0
  9 14  1  0
  7  8  2  0
  7  1  1  0
  1  2  2  0
  1  6  1  0
  2  3  1  0
  3  4  2  0
  4  5  1  0
  5 18  1  0
  5  6  2  0
 18 19  1  0
 19 20  2  0
 19 29  1  0
 20 21  1  0
 21 22  1  0
 22 23  2  0
 22 24  1  0
 24 25  1  0
 24 29  2  0
 25 26  2  0
 26 27  1  0
 27 28  2  0
 28 29  1  0
 10 11  1  0
 11 12  1  0
 12 13  1  0
 13 14  1  0
M  CHG  1   9   1
M  END
>  <minimizedAffinity>  (836) 
-8.68118

$$$$
cs_full_output_folder/data/smiles/5655.pdb
     RDKit          3D

 28 31  0  0  0  0  0  0  0  0999 V2000
   68.4861   41.3633   57.4249 C   0  0  0  0  0  0  0  0  0  0  0  0
   67.6735   40.1879   58.0497 C   0  0  0  0  0  0  0  0  0  0  0  0
   68.7151   39.1582   58.4336 C   0  0  0  0  0  0  0  0  0  0  0  0
   69.6949   39.8695   59.2245 N   0  0  0  0  0  0  0  0  0  0  0  0
   70.9637   39.3149   59.5123 C   0  0  0  0  0  0  0  0  0  0  0  0
   71.8146   39.9430   60.2339 O   0  0  0  0  0  0  0  0  0  0  0  0
   69.3451   41.1868   59.7038 C   0  0  0  0  0  0  0  0  0  0  0  0
   69.0846   42.1302   58.5184 C   0  0  0  0  0  0  0  0  0  0  0  0
   71.3649   38.0159   59.0018 C   0  0  0  0  0  0  0  0  0  0  0  0
   72.1103   37.8185   57.8688 C   0  0  0  0  0  0  0  0  0  0  0  0
   72.4734   36.5467   57.4119 C   0  0  0  0  0  0  0  0  0  0  0  0
   72.0818   35.4321   58.1047 C   0  0  0  0  0  0  0  0  0  0  0  0
   72.4043   34.1775   57.7114 F   0  0  0  0  0  0  0  0  0  0  0  0
   71.3315   35.6032   59.2490 C   0  0  0  0  0  0  0  0  0  0  0  0
   70.9796   36.8559   59.6913 C   0  0  0  0  0  0  0  0  0  0  0  0
   69.2811   43.6972   56.2978 O   0  0  0  0  0  0  0  0  0  0  0  0
   68.1025   43.3112   55.9961 C   0  0  0  0  0  0  0  0  0  0  0  0
   67.3687   44.1253   55.1196 N   0  0  0  0  0  0  0  0  0  0  0  0
   67.5793   42.0837   56.5457 N   0  0  0  0  0  0  0  0  0  0  0  0
   68.0041   45.3258   54.5787 C   0  0  0  0  0  0  0  0  0  0  0  0
   68.4301   46.2939   55.4546 C   0  0  0  0  0  0  0  0  0  0  0  0
   69.0248   47.4397   55.0159 C   0  0  0  0  0  0  0  0  0  0  0  0
   69.1975   47.6254   53.6628 C   0  0  0  0  0  0  0  0  0  0  0  0
   69.7461   48.6580   52.9821 N   0  0  0  0  0  0  0  0  0  0  0  0
   69.6662   48.3442   51.6955 N   0  0  0  0  0  0  0  0  0  0  0  0
   69.0837   47.1443   51.5286 C   0  0  0  0  0  0  0  0  0  0  0  0
   68.7674   46.6477   52.7674 C   0  0  0  0  0  0  0  0  0  0  0  0
   68.1709   45.4992   53.2338 C   0  0  0  0  0  0  0  0  0  0  0  0
 16 17  2  0
 17 18  1  0
 17 19  1  0
 18 20  1  0
 20 21  2  0
 20 28  1  0
 21 22  1  0
 22 23  2  0
 23 24  1  0
 23 27  1  0
 24 25  1  0
 25 26  2  0
 26 27  1  0
 27 28  2  0
 19  1  1  0
  1  2  1  0
  1  8  1  0
  2  3  1  0
  3  4  1  0
  4  5  1  0
  4  7  1  0
  5  6  2  0
  5  9  1  0
  9 10  2  0
  9 15  1  0
 10 11  1  0
 11 12  2  0
 12 13  1  0
 12 14  1  0
 14 15  2  0
  7  8  1  0
M  END
>  <minimizedAffinity>  (837) 
-8.67912

$$$$
cs_full_output_folder/data/smiles/393.pdb
     RDKit          3D

 28 31  0  0  0  0  0  0  0  0999 V2000
   71.9550   47.1637   58.7417 C   0  0  0  0  0  0  0  0  0  0  0  0
   70.8805   46.4001   58.3632 C   0  0  0  0  0  0  0  0  0  0  0  0
   69.8658   46.8748   57.5592 C   0  0  0  0  0  0  0  0  0  0  0  0
   69.9085   48.1909   57.0949 C   0  0  0  0  0  0  0  0  0  0  0  0
   70.9966   48.9288   57.4927 C   0  0  0  0  0  0  0  0  0  0  0  0
   71.9796   48.4291   58.2857 N   0  0  0  0  0  0  0  0  0  0  0  0
   73.0293   46.6770   59.5751 N   0  0  0  0  0  0  0  0  0  0  0  0
   75.4854   47.8754   57.4957 O   0  0  0  0  0  0  0  0  0  0  0  0
   75.4756   47.2471   58.9446 S   0  0  0  0  0  0  0  0  0  0  0  0
   74.2157   46.2088   59.0421 C   0  0  0  0  0  0  0  0  0  0  0  0
   74.3798   44.8811   58.5451 C   0  0  0  0  0  0  0  0  0  0  0  0
   73.5027   44.1563   57.7873 C   0  0  0  0  0  0  0  0  0  0  0  0
   73.7681   42.8757   57.3500 C   0  0  0  0  0  0  0  0  0  0  0  0
   74.9411   42.2891   57.6732 N   0  0  0  0  0  0  0  0  0  0  0  0
   75.8366   42.9549   58.4157 C   0  0  0  0  0  0  0  0  0  0  0  0
   75.5859   44.2379   58.8599 C   0  0  0  0  0  0  0  0  0  0  0  0
   68.8304   48.6714   56.1991 C   0  0  0  0  0  0  0  0  0  0  0  0
   69.1969   48.7361   54.7800 C   0  0  0  0  0  0  0  0  0  0  0  0
   69.7421   49.8819   54.2551 N   0  0  0  0  0  0  0  0  0  0  0  0
   70.0944   50.0205   53.0159 N   0  0  0  0  0  0  0  0  0  0  0  0
   69.9199   48.9683   52.1558 C   0  0  0  0  0  0  0  0  0  0  0  0
   70.2840   49.1849   50.9803 O   0  0  0  0  0  0  0  0  0  0  0  0
   69.3828   47.8191   52.6340 C   0  0  0  0  0  0  0  0  0  0  0  0
   69.0029   47.6637   53.9623 C   0  0  0  0  0  0  0  0  0  0  0  0
   68.4511   46.3810   54.3770 C   0  0  0  0  0  0  0  0  0  0  0  0
   67.5492   45.7560   53.3638 C   0  0  0  0  0  0  0  0  0  0  0  0
   67.7554   46.1464   51.9387 C   0  0  0  0  0  0  0  0  0  0  0  0
   69.1695   46.6781   51.6888 C   0  0  0  0  0  0  0  0  0  0  0  0
  8  9  2  0
  9 10  2  0
 10  7  1  0
 10 11  1  0
  7  1  1  0
  1  2  2  0
  1  6  1  0
  2  3  1  0
  3  4  2  0
  4 17  1  0
  4  5  1  0
 17 18  1  0
 18 19  2  0
 18 24  1  0
 19 20  1  0
 20 21  1  0
 21 22  2  0
 21 23  1  0
 23 24  2  0
 23 28  1  0
 24 25  1  0
 25 26  1  0
 26 27  1  0
 27 28  1  0
  5  6  2  0
 11 12  2  0
 11 16  1  0
 12 13  1  0
 13 14  2  0
 14 15  1  0
 15 16  2  0
M  END
>  <minimizedAffinity>  (838) 
-8.67819

$$$$
cs_full_output_folder/data/smiles/7346.pdb
     RDKit          3D

 28 31  0  0  0  0  0  0  0  0999 V2000
   71.5176   47.1988   58.7930 C   0  0  0  0  0  0  0  0  0  0  0  0
   71.7940   45.8511   58.7527 C   0  0  0  0  0  0  0  0  0  0  0  0
   71.0236   45.0350   57.9716 C   0  0  0  0  0  0  0  0  0  0  0  0
   69.9884   45.5508   57.2377 C   0  0  0  0  0  0  0  0  0  0  0  0
   69.7008   46.9237   57.2745 C   0  0  0  0  0  0  0  0  0  0  0  0
   70.4759   47.7127   58.0517 C   0  0  0  0  0  0  0  0  0  0  0  0
   73.1496   52.9930   57.4228 C   0  0  0  0  0  0  0  0  0  0  0  0
   72.9612   51.3899   58.2262 P   0  0  0  0  0  0  0  0  0  0  0  0
   71.7166   51.4010   59.0605 O   0  0  0  0  0  0  0  0  0  0  0  0
   74.4138   51.0459   59.2877 C   0  0  0  0  0  0  0  0  0  0  0  0
   74.1482   49.7303   59.9846 C   0  0  0  0  0  0  0  0  0  0  0  0
   73.3668   48.8758   59.0822 N   0  0  0  0  0  0  0  0  0  0  0  0
   72.3438   48.0730   59.6375 C   0  0  0  0  0  0  0  0  0  0  0  0
   72.1015   48.0788   60.8673 O   0  0  0  0  0  0  0  0  0  0  0  0
   73.6647   48.8811   57.6687 C   0  0  0  0  0  0  0  0  0  0  0  0
   72.9181   50.0467   56.9981 C   0  0  0  0  0  0  0  0  0  0  0  0
   68.5058   47.3761   56.4660 C   0  0  0  0  0  0  0  0  0  0  0  0
   69.0103   47.8152   55.1304 C   0  0  0  0  0  0  0  0  0  0  0  0
   69.9360   48.8012   55.1283 N   0  0  0  0  0  0  0  0  0  0  0  0
   70.5386   49.2045   54.0146 N   0  0  0  0  0  0  0  0  0  0  0  0
   70.2426   48.6402   52.8452 C   0  0  0  0  0  0  0  0  0  0  0  0
   70.7935   49.0024   51.7723 O   0  0  0  0  0  0  0  0  0  0  0  0
   69.2970   47.6186   52.7639 C   0  0  0  0  0  0  0  0  0  0  0  0
   68.9804   47.0492   51.5511 C   0  0  0  0  0  0  0  0  0  0  0  0
   68.0251   46.0587   51.5181 C   0  0  0  0  0  0  0  0  0  0  0  0
   67.4222   45.6780   52.7076 C   0  0  0  0  0  0  0  0  0  0  0  0
   67.7483   46.2535   53.9105 C   0  0  0  0  0  0  0  0  0  0  0  0
   68.6951   47.2305   53.9469 C   0  0  0  0  0  0  0  0  0  0  0  0
  7  8  1  0
  8  9  2  0
  8 10  1  0
  8 16  1  0
 10 11  1  0
 11 12  1  0
 12 13  1  0
 12 15  1  0
 13 14  2  0
 13  1  1  0
  1  2  2  0
  1  6  1  0
  2  3  1  0
  3  4  2  0
  4  5  1  0
  5 17  1  0
  5  6  2  0
 17 18  1  0
 18 19  2  0
 18 28  1  0
 19 20  1  0
 20 21  1  0
 21 22  2  0
 21 23  1  0
 23 24  1  0
 23 28  2  0
 24 25  2  0
 25 26  1  0
 26 27  2  0
 27 28  1  0
 15 16  1  0
M  END
>  <minimizedAffinity>  (839) 
-8.67579

$$$$
cs_full_output_folder/data/smiles/5593.pdb
     RDKit          3D

 26 29  0  0  0  0  0  0  0  0999 V2000
   69.7878   52.2226   56.9526 N   0  0  0  0  0  0  0  0  0  0  0  0
   70.5454   51.6445   57.9652 C   0  0  0  0  0  0  0  0  0  0  0  0
   70.0920   50.3083   58.4711 C   0  0  0  0  0  0  0  0  0  0  0  0
   69.2069   49.6243   57.5798 N   0  0  0  0  0  0  0  0  0  0  0  0
   68.0821   50.4877   57.3080 C   0  0  0  0  0  0  0  0  0  0  0  0
   68.4864   51.7632   56.6721 C   0  0  0  0  0  0  0  0  0  0  0  0
   70.3080   53.2584   56.1847 C   0  0  0  0  0  0  0  0  0  0  0  0
   73.4987   51.7710   54.8724 C   0  0  0  0  0  0  0  0  0  0  0  0
   74.3464   52.8715   54.7647 C   0  0  0  0  0  0  0  0  0  0  0  0
   73.8097   54.0756   55.1373 C   0  0  0  0  0  0  0  0  0  0  0  0
   72.5157   54.2065   55.5924 C   0  0  0  0  0  0  0  0  0  0  0  0
   71.6965   53.0898   55.6887 C   0  0  0  0  0  0  0  0  0  0  0  0
   72.2196   51.8810   55.3194 C   0  0  0  0  0  0  0  0  0  0  0  0
   73.9503   50.0969   53.3259 O   0  0  0  0  0  0  0  0  0  0  0  0
   74.0332   50.4949   54.4901 N   0  0  0  0  0  0  0  0  0  0  0  0
   74.6460   49.6979   55.4182 O   0  0  0  0  0  0  0  0  0  0  0  0
   69.8293   49.2500   56.3283 C   0  0  0  0  0  0  0  0  0  0  0  0
   69.1406   48.1139   55.6788 C   0  0  0  0  0  0  0  0  0  0  0  0
   68.4046   47.1346   56.3044 C   0  0  0  0  0  0  0  0  0  0  0  0
   67.9458   46.2946   55.3628 N   0  0  0  0  0  0  0  0  0  0  0  0
   68.3715   46.7154   54.1598 C   0  0  0  0  0  0  0  0  0  0  0  0
   68.1944   46.2348   52.8801 C   0  0  0  0  0  0  0  0  0  0  0  0
   68.7370   46.8465   51.7707 C   0  0  0  0  0  0  0  0  0  0  0  0
   69.4840   47.9849   51.9708 C   0  0  0  0  0  0  0  0  0  0  0  0
   69.6925   48.5073   53.2278 C   0  0  0  0  0  0  0  0  0  0  0  0
   69.1362   47.8735   54.3248 C   0  0  0  0  0  0  0  0  0  0  0  0
 14 15  2  0
 15 16  1  0
 15  8  1  0
  8  9  2  0
  8 13  1  0
  9 10  1  0
 10 11  2  0
 11 12  1  0
 12  7  1  0
 12 13  2  0
  7  1  1  0
  1  2  1  0
  1  6  1  0
  2  3  1  0
  3  4  1  0
  4 17  1  0
  4  5  1  0
 17 18  1  0
 18 19  2  0
 18 26  1  0
 19 20  1  0
 20 21  1  0
 21 22  1  0
 21 26  2  0
 22 23  2  0
 23 24  1  0
 24 25  2  0
 25 26  1  0
  5  6  1  0
M  CHG  4   1   1   4   1  15   1  16  -1
M  END
>  <minimizedAffinity>  (840) 
-8.67370

$$$$
cs_full_output_folder/data/smiles/958.pdb
     RDKit          3D

 28 31  0  0  0  0  0  0  0  0999 V2000
   69.9654   46.8143   57.4662 C   0  0  0  0  0  0  0  0  0  0  0  0
   70.1220   45.4663   57.4743 C   0  0  0  0  0  0  0  0  0  0  0  0
   71.2583   44.8677   58.0369 C   0  0  0  0  0  0  0  0  0  0  0  0
   72.2348   45.6618   58.5943 C   0  0  0  0  0  0  0  0  0  0  0  0
   73.3551   45.1139   59.1526 F   0  0  0  0  0  0  0  0  0  0  0  0
   72.1136   47.0449   58.6071 C   0  0  0  0  0  0  0  0  0  0  0  0
   70.9840   47.5847   58.0430 C   0  0  0  0  0  0  0  0  0  0  0  0
   73.1331   47.8553   59.1977 N   0  0  0  0  0  0  0  0  0  0  0  0
   74.1610   48.4135   58.3894 C   0  0  0  0  0  0  0  0  0  0  0  0
   74.1219   48.1912   57.1471 O   0  0  0  0  0  0  0  0  0  0  0  0
   75.2775   49.2427   58.9107 C   0  0  0  0  0  0  0  0  0  0  0  0
   74.8036   49.9950   60.1349 C   0  0  0  0  0  0  0  0  0  0  0  0
   74.2572   49.0221   61.1573 C   0  0  0  0  0  0  0  0  0  0  0  0
   73.1921   48.1489   60.5855 C   0  0  0  0  0  0  0  0  0  0  0  0
   72.3430   47.6763   61.3623 O   0  0  0  0  0  0  0  0  0  0  0  0
   68.8222   47.5779   56.8991 C   0  0  0  0  0  0  0  0  0  0  0  0
   71.1334   50.9274   54.3127 C   0  0  0  0  0  0  0  0  0  0  0  0
   70.3297   49.6971   54.3579 N   0  0  0  0  0  0  0  0  0  0  0  0
   69.9005   49.1788   55.4748 N   0  0  0  0  0  0  0  0  0  0  0  0
   69.1537   48.0305   55.5531 C   0  0  0  0  0  0  0  0  0  0  0  0
   68.8369   47.3903   54.3917 C   0  0  0  0  0  0  0  0  0  0  0  0
   68.0821   46.2554   54.4199 C   0  0  0  0  0  0  0  0  0  0  0  0
   67.7224   45.5755   53.2793 C   0  0  0  0  0  0  0  0  0  0  0  0
   68.1616   46.0927   52.0556 C   0  0  0  0  0  0  0  0  0  0  0  0
   68.9226   47.2412   52.0404 C   0  0  0  0  0  0  0  0  0  0  0  0
   69.2866   47.9290   53.1939 C   0  0  0  0  0  0  0  0  0  0  0  0
   70.0317   49.0828   53.1929 C   0  0  0  0  0  0  0  0  0  0  0  0
   70.4240   49.5478   52.1135 O   0  0  0  0  0  0  0  0  0  0  0  0
 17 18  1  0
 18 19  1  0
 18 27  1  0
 19 20  2  0
 20 16  1  0
 20 21  1  0
 16  1  1  0
  1  2  2  0
  1  7  1  0
  2  3  1  0
  3  4  2  0
  4  5  1  0
  4  6  1  0
  6  8  1  0
  6  7  2  0
  8  9  1  0
  8 14  1  0
  9 10  2  0
  9 11  1  0
 11 12  1  0
 12 13  1  0
 13 14  1  0
 14 15  2  0
 21 22  1  0
 21 26  2  0
 22 23  2  0
 23 24  1  0
 24 25  2  0
 25 26  1  0
 26 27  1  0
 27 28  2  0
M  END
>  <minimizedAffinity>  (841) 
-8.66987

$$$$
cs_full_output_folder/data/smiles/2373.pdb
     RDKit          3D

 28 31  0  0  0  0  0  0  0  0999 V2000
   71.5378   47.3291   58.8268 C   0  0  0  0  0  0  0  0  0  0  0  0
   70.4997   47.8726   58.0961 C   0  0  0  0  0  0  0  0  0  0  0  0
   69.6804   47.0831   57.2971 C   0  0  0  0  0  0  0  0  0  0  0  0
   69.9029   45.7242   57.2269 C   0  0  0  0  0  0  0  0  0  0  0  0
   70.9572   45.1984   57.9734 C   0  0  0  0  0  0  0  0  0  0  0  0
   71.7790   45.9721   58.7713 C   0  0  0  0  0  0  0  0  0  0  0  0
   72.7854   45.3832   59.4682 F   0  0  0  0  0  0  0  0  0  0  0  0
   73.4617   52.9199   57.9733 C   0  0  0  0  0  0  0  0  0  0  0  0
   73.9989   51.5583   58.1497 N   0  0  0  0  0  0  0  0  0  0  0  0
   74.2095   51.3209   59.5389 C   0  0  0  0  0  0  0  0  0  0  0  0
   74.2206   49.8842   59.9548 C   0  0  0  0  0  0  0  0  0  0  0  0
   73.3470   49.0568   59.1485 N   0  0  0  0  0  0  0  0  0  0  0  0
   72.4068   48.1448   59.6585 C   0  0  0  0  0  0  0  0  0  0  0  0
   72.3013   48.0171   60.8963 O   0  0  0  0  0  0  0  0  0  0  0  0
   73.5467   49.2597   57.7044 C   0  0  0  0  0  0  0  0  0  0  0  0
   73.1117   50.6861   57.4634 C   0  0  0  0  0  0  0  0  0  0  0  0
   68.5549   47.6612   56.5178 C   0  0  0  0  0  0  0  0  0  0  0  0
   69.0032   47.9688   55.1253 C   0  0  0  0  0  0  0  0  0  0  0  0
   69.8278   49.0343   54.8968 N   0  0  0  0  0  0  0  0  0  0  0  0
   70.2345   49.3295   53.6887 N   0  0  0  0  0  0  0  0  0  0  0  0
   69.8953   48.6383   52.5907 C   0  0  0  0  0  0  0  0  0  0  0  0
   70.3843   49.0272   51.2898 N   0  0  0  0  0  0  0  0  0  0  0  0
   69.0658   47.5501   52.7440 C   0  0  0  0  0  0  0  0  0  0  0  0
   68.6918   46.8085   51.6450 C   0  0  0  0  0  0  0  0  0  0  0  0
   67.8630   45.7271   51.8513 C   0  0  0  0  0  0  0  0  0  0  0  0
   67.4265   45.4064   53.1219 C   0  0  0  0  0  0  0  0  0  0  0  0
   67.7980   46.1447   54.2229 C   0  0  0  0  0  0  0  0  0  0  0  0
   68.6355   47.2387   54.0223 C   0  0  0  0  0  0  0  0  0  0  0  0
  8  9  1  0
  9 10  1  0
  9 16  1  0
 10 11  1  0
 11 12  1  0
 12 13  1  0
 12 15  1  0
 13 14  2  0
 13  1  1  0
  1  2  2  0
  1  6  1  0
  2  3  1  0
  3 17  1  0
  3  4  2  0
 17 18  1  0
 18 19  2  0
 18 28  1  0
 19 20  1  0
 20 21  2  0
 21 22  1  0
 21 23  1  0
 23 24  1  0
 23 28  2  0
 24 25  2  0
 25 26  1  0
 26 27  2  0
 27 28  1  0
  4  5  1  0
  5  6  2  0
  6  7  1  0
 15 16  1  0
M  CHG  1   9   1
M  END
>  <minimizedAffinity>  (842) 
-8.66980

$$$$
cs_full_output_folder/data/smiles/1563.pdb
     RDKit          3D

 27 30  0  0  0  0  0  0  0  0999 V2000
   71.3437   48.2872   57.8706 N   0  0  1  0  0  0  0  0  0  0  0  0
   71.9091   47.2599   58.6630 C   0  0  0  0  0  0  0  0  0  0  0  0
   71.0617   46.0231   58.8332 C   0  0  0  0  0  0  0  0  0  0  0  0
   70.2315   45.8926   57.5452 C   0  0  0  0  0  0  0  0  0  0  0  0
   69.2636   47.0281   57.5754 C   0  0  1  0  0  0  0  0  0  0  0  0
   69.9305   48.3630   57.7875 C   0  0  0  0  0  0  0  0  0  0  0  0
   71.9623   49.5545   57.9887 C   0  0  0  0  0  0  0  0  0  0  0  0
   74.9173   50.2489   55.8269 C   0  0  0  0  0  0  0  0  0  0  0  0
   74.3333   50.8307   54.7270 C   0  0  0  0  0  0  0  0  0  0  0  0
   72.9733   51.0155   54.6550 C   0  0  0  0  0  0  0  0  0  0  0  0
   72.2390   50.5857   55.7404 C   0  0  0  0  0  0  0  0  0  0  0  0
   72.7854   49.9980   56.8596 C   0  0  0  0  0  0  0  0  0  0  0  0
   74.1527   49.8307   56.8961 C   0  0  0  0  0  0  0  0  0  0  0  0
   77.0632   49.1143   57.2788 N   0  0  0  0  0  0  0  0  0  0  0  0
   76.6720   50.0260   55.8888 S   0  0  0  0  0  0  0  0  0  0  0  0
   77.0541   49.2696   54.6424 O   0  0  0  0  0  0  0  0  0  0  0  0
   77.3313   51.3801   55.8913 O   0  0  0  0  0  0  0  0  0  0  0  0
   68.2773   47.0389   56.5343 N   0  0  0  0  0  0  0  0  0  0  0  0
   68.5461   46.9945   55.1382 C   0  0  0  0  0  0  0  0  0  0  0  0
   67.9690   45.9941   54.3427 C   0  0  0  0  0  0  0  0  0  0  0  0
   68.2005   45.9377   52.9911 C   0  0  0  0  0  0  0  0  0  0  0  0
   69.0038   46.8539   52.3546 C   0  0  0  0  0  0  0  0  0  0  0  0
   69.4051   47.0465   51.0702 N   0  0  0  0  0  0  0  0  0  0  0  0
   70.2060   48.1223   51.0243 N   0  0  0  0  0  0  0  0  0  0  0  0
   70.3340   48.6326   52.2497 C   0  0  0  0  0  0  0  0  0  0  0  0
   69.5901   47.8576   53.1082 C   0  0  0  0  0  0  0  0  0  0  0  0
   69.3416   47.8953   54.4756 C   0  0  0  0  0  0  0  0  0  0  0  0
 14 15  1  0
 15 16  2  0
 15 17  2  0
 15  8  1  0
  8  9  2  0
  8 13  1  0
  9 10  1  0
 10 11  2  0
 11 12  1  0
 12  7  1  0
 12 13  2  0
  1  7  1  1
  1  2  1  0
  1  6  1  0
  2  3  1  0
  3  4  1  0
  4  5  1  0
  5 18  1  6
  5  6  1  0
 18 19  1  0
 19 20  2  0
 19 27  1  0
 20 21  1  0
 21 22  2  0
 22 23  1  0
 22 26  1  0
 23 24  1  0
 24 25  2  0
 25 26  1  0
 26 27  2  0
M  CHG  1   1   1
M  END
>  <minimizedAffinity>  (843) 
-8.66937

$$$$
cs_full_output_folder/data/smiles/1246.pdb
     RDKit          3D

 25 26  0  0  0  0  0  0  0  0999 V2000
   69.9967   49.2237   52.6594 S   0  0  0  0  0  0  0  0  0  0  0  0
   71.4645   49.2618   53.0039 O   0  0  0  0  0  0  0  0  0  0  0  0
   69.9272   49.0860   51.1514 O   0  0  0  0  0  0  0  0  0  0  0  0
   69.2417   47.7803   53.3013 C   0  0  0  0  0  0  0  0  0  0  0  0
   68.6030   46.8964   52.4661 C   0  0  0  0  0  0  0  0  0  0  0  0
   68.5147   47.0804   51.0607 N   0  0  0  0  0  0  0  0  0  0  0  0
   68.0076   45.7590   52.9873 C   0  0  0  0  0  0  0  0  0  0  0  0
   67.3700   44.8785   52.1445 F   0  0  0  0  0  0  0  0  0  0  0  0
   68.0285   45.4731   54.3210 C   0  0  0  0  0  0  0  0  0  0  0  0
   67.4335   44.3557   54.7655 F   0  0  0  0  0  0  0  0  0  0  0  0
   68.6750   46.3653   55.1786 C   0  0  0  0  0  0  0  0  0  0  0  0
   68.6810   46.0611   56.4819 F   0  0  0  0  0  0  0  0  0  0  0  0
   69.2736   47.5085   54.6542 C   0  0  0  0  0  0  0  0  0  0  0  0
   69.8838   48.3314   55.5438 F   0  0  0  0  0  0  0  0  0  0  0  0
   69.2513   50.6488   53.2055 N   0  0  0  0  0  0  0  0  0  0  0  0
   70.8571   53.3319   56.0933 C   0  0  0  0  0  0  0  0  0  0  0  0
   69.5708   52.8439   56.1859 C   0  0  0  0  0  0  0  0  0  0  0  0
   69.0552   51.9749   55.2485 C   0  0  0  0  0  0  0  0  0  0  0  0
   69.7983   51.5474   54.1671 C   0  0  0  0  0  0  0  0  0  0  0  0
   71.0830   52.0363   54.0772 C   0  0  0  0  0  0  0  0  0  0  0  0
   71.6013   52.9062   55.0144 C   0  0  0  0  0  0  0  0  0  0  0  0
   72.2371   53.7643   58.0751 C   0  0  0  0  0  0  0  0  0  0  0  0
   71.3768   54.2124   57.0466 O   0  0  0  0  0  0  0  0  0  0  0  0
   72.9496   53.4027   54.8976 N   0  0  0  0  0  0  0  0  0  0  0  0
   73.2005   54.6988   54.6837 F   0  0  0  0  0  0  0  0  0  0  0  0
 22 23  1  0
 23 16  1  0
 16 17  2  0
 16 21  1  0
 17 18  1  0
 18 19  2  0
 19 15  1  0
 19 20  1  0
 15  1  1  0
  1  2  2  0
  1  3  2  0
  1  4  1  0
  4  5  2  0
  4 13  1  0
  5  6  1  0
  5  7  1  0
  7  8  1  0
  7  9  2  0
  9 10  1  0
  9 11  1  0
 11 12  1  0
 11 13  2  0
 13 14  1  0
 20 21  2  0
 21 24  1  0
 24 25  1  0
M  END
>  <minimizedAffinity>  (844) 
-8.66864

$$$$
cs_full_output_folder/data/smiles/5554.pdb
     RDKit          3D

 29 32  0  0  0  0  0  0  0  0999 V2000
   73.7337   35.2962   55.8332 C   0  0  0  0  0  0  0  0  0  0  0  0
   72.5552   35.6425   55.1666 C   0  0  0  0  0  0  0  0  0  0  0  0
   72.4787   35.5897   53.7887 C   0  0  0  0  0  0  0  0  0  0  0  0
   73.6002   35.1834   53.0689 C   0  0  0  0  0  0  0  0  0  0  0  0
   74.7732   34.8369   53.7055 C   0  0  0  0  0  0  0  0  0  0  0  0
   74.8213   34.9000   55.0930 C   0  0  0  0  0  0  0  0  0  0  0  0
   75.8848   34.4367   52.9235 N   0  0  0  0  0  0  0  0  0  0  0  0
   76.8168   35.3066   52.3208 C   0  0  0  0  0  0  0  0  0  0  0  0
   76.6540   36.5396   52.4877 O   0  0  0  0  0  0  0  0  0  0  0  0
   77.9728   34.8187   51.5046 C   0  0  0  0  0  0  0  0  0  0  0  0
   77.6117   34.7737   50.0672 C   0  0  0  0  0  0  0  0  0  0  0  0
   76.5682   33.9943   49.6200 C   0  0  0  0  0  0  0  0  0  0  0  0
   76.2203   33.9436   48.2803 C   0  0  0  0  0  0  0  0  0  0  0  0
   76.9192   34.6828   47.3447 C   0  0  0  0  0  0  0  0  0  0  0  0
   77.9554   35.4575   47.7804 C   0  0  0  0  0  0  0  0  0  0  0  0
   78.3062   35.5085   49.1331 C   0  0  0  0  0  0  0  0  0  0  0  0
   73.8007   35.3609   57.2876 C   0  0  0  0  0  0  0  0  0  0  0  0
   69.0588   36.0984   61.1949 C   0  0  0  0  0  0  0  0  0  0  0  0
   70.1951   35.6476   60.3895 C   0  0  0  0  0  0  0  0  0  0  0  0
   70.8474   36.4197   59.4406 C   0  0  0  0  0  0  0  0  0  0  0  0
   70.6974   37.6949   58.9755 C   0  0  0  0  0  0  0  0  0  0  0  0
   69.7785   38.3995   59.4653 O   0  0  0  0  0  0  0  0  0  0  0  0
   71.5301   38.1538   58.0170 N   0  0  0  0  0  0  0  0  0  0  0  0
   72.4909   37.3979   57.5137 N   0  0  0  0  0  0  0  0  0  0  0  0
   72.7029   36.1328   57.9173 C   0  0  0  0  0  0  0  0  0  0  0  0
   71.8677   35.6390   58.8940 C   0  0  0  0  0  0  0  0  0  0  0  0
   71.8164   34.4599   59.4972 N   0  0  0  0  0  0  0  0  0  0  0  0
   70.8264   34.4512   60.3879 N   0  0  0  0  0  0  0  0  0  0  0  0
   70.4003   33.3851   61.2770 C   0  0  0  0  0  0  0  0  0  0  0  0
 18 19  1  0
 19 20  2  0
 19 28  1  0
 20 21  1  0
 20 26  1  0
 21 22  2  0
 21 23  1  0
 23 24  1  0
 24 25  2  0
 25 17  1  0
 25 26  1  0
 17  1  1  0
  1  2  2  0
  1  6  1  0
  2  3  1  0
  3  4  2  0
  4  5  1  0
  5  7  1  0
  5  6  2  0
  7  8  1  0
  8  9  2  0
  8 10  1  0
 10 11  1  0
 11 12  2  0
 11 16  1  0
 12 13  1  0
 13 14  2  0
 14 15  1  0
 15 16  2  0
 26 27  2  0
 27 28  1  0
 28 29  1  0
M  END
>  <minimizedAffinity>  (845) 
-8.66770

$$$$
cs_full_output_folder/data/smiles/6611.pdb
     RDKit          3D

 25 27  0  0  0  0  0  0  0  0999 V2000
   72.5245   50.9717   54.9976 C   0  0  0  0  0  0  0  0  0  0  0  0
   73.1839   50.8624   56.3553 C   0  0  2  0  0  0  0  0  0  0  0  0
   72.6635   52.2638   57.4702 P   0  0  0  0  0  0  0  0  0  0  0  0
   74.9142   48.6932   56.5817 O   0  0  0  0  0  0  0  0  0  0  0  0
   75.4794   49.7955   56.3785 C   0  0  0  0  0  0  0  0  0  0  0  0
   74.6271   50.9181   56.2588 N   0  0  0  0  0  0  0  0  0  0  0  0
   76.9288   49.8627   56.2791 C   0  0  0  0  0  0  0  0  0  0  0  0
   77.7284   50.5849   57.1224 C   0  0  0  0  0  0  0  0  0  0  0  0
   79.1094   50.5907   56.9529 C   0  0  0  0  0  0  0  0  0  0  0  0
   79.7230   49.8794   55.9429 C   0  0  0  0  0  0  0  0  0  0  0  0
   81.0792   49.8977   55.7922 F   0  0  0  0  0  0  0  0  0  0  0  0
   78.9185   49.1529   55.0948 C   0  0  0  0  0  0  0  0  0  0  0  0
   77.5447   49.1538   55.2730 C   0  0  0  0  0  0  0  0  0  0  0  0
   71.0233   51.0342   55.1463 C   0  0  0  0  0  0  0  0  0  0  0  0
   70.4509   49.9285   54.3141 C   0  0  0  0  0  0  0  0  0  0  0  0
   69.6845   48.9669   54.8596 N   0  0  0  0  0  0  0  0  0  0  0  0
   69.1554   47.9565   54.1306 C   0  0  0  0  0  0  0  0  0  0  0  0
   68.3695   46.9712   54.6926 C   0  0  0  0  0  0  0  0  0  0  0  0
   67.8291   45.9404   53.9446 C   0  0  0  0  0  0  0  0  0  0  0  0
   68.0664   45.8650   52.5857 C   0  0  0  0  0  0  0  0  0  0  0  0
   68.8521   46.8505   52.0287 C   0  0  0  0  0  0  0  0  0  0  0  0
   69.3913   47.8802   52.7734 C   0  0  0  0  0  0  0  0  0  0  0  0
   70.1814   48.8734   52.2179 C   0  0  0  0  0  0  0  0  0  0  0  0
   70.3927   48.8004   50.9844 O   0  0  0  0  0  0  0  0  0  0  0  0
   70.6814   49.8543   52.9903 N   0  0  0  0  0  0  0  0  0  0  0  0
  4  5  2  0
  5  6  1  0
  5  7  1  0
  6  2  1  0
  2  3  1  1
  2  1  1  0
  1 14  1  0
 14 15  1  0
 15 16  2  0
 15 25  1  0
 16 17  1  0
 17 18  2  0
 17 22  1  0
 18 19  1  0
 19 20  2  0
 20 21  1  0
 21 22  2  0
 22 23  1  0
 23 24  2  0
 23 25  1  0
  7  8  2  0
  7 13  1  0
  8  9  1  0
  9 10  2  0
 10 11  1  0
 10 12  1  0
 12 13  2  0
M  END
>  <minimizedAffinity>  (846) 
-8.66728

$$$$
cs_full_output_folder/data/smiles/1624.pdb
     RDKit          3D

 28 31  0  0  0  0  0  0  0  0999 V2000
   71.1732   46.7840   58.3366 C   0  0  0  0  0  0  0  0  0  0  0  0
   70.2146   47.1323   57.3975 C   0  0  0  0  0  0  0  0  0  0  0  0
   69.6978   48.3990   57.2608 C   0  0  0  0  0  0  0  0  0  0  0  0
   70.1650   49.4071   58.1219 C   0  0  0  0  0  0  0  0  0  0  0  0
   71.1182   49.0923   59.0659 C   0  0  0  0  0  0  0  0  0  0  0  0
   71.6166   47.7868   59.1704 C   0  0  0  0  0  0  0  0  0  0  0  0
   72.5542   47.4569   60.0911 F   0  0  0  0  0  0  0  0  0  0  0  0
   69.7078   44.6928   59.3304 O   0  0  0  0  0  0  0  0  0  0  0  0
   70.8618   44.3713   58.9100 C   0  0  0  0  0  0  0  0  0  0  0  0
   71.6396   45.4390   58.3903 N   0  0  0  0  0  0  0  0  0  0  0  0
   71.3281   42.9681   58.9750 C   0  0  2  0  0  0  0  0  0  0  0  0
   70.8520   42.1551   57.8171 C   0  0  0  0  0  0  0  0  0  0  0  0
   69.7388   41.2048   58.1312 C   0  0  0  0  0  0  0  0  0  0  0  0
   69.9022   40.4382   59.4003 C   0  0  0  0  0  0  0  0  0  0  0  0
   70.9955   40.9274   60.2173 N   0  0  0  0  0  0  0  0  0  0  0  0
   70.8480   42.3635   60.2914 C   0  0  0  0  0  0  0  0  0  0  0  0
   68.6817   48.7716   56.2589 C   0  0  0  0  0  0  0  0  0  0  0  0
   69.1443   48.7554   54.8617 C   0  0  0  0  0  0  0  0  0  0  0  0
   69.8160   49.8379   54.3563 N   0  0  0  0  0  0  0  0  0  0  0  0
   70.2564   49.8814   53.1236 N   0  0  0  0  0  0  0  0  0  0  0  0
   70.0837   48.8777   52.2645 C   0  0  0  0  0  0  0  0  0  0  0  0
   70.5189   48.9423   51.0758 O   0  0  0  0  0  0  0  0  0  0  0  0
   69.4268   47.7665   52.6832 C   0  0  0  0  0  0  0  0  0  0  0  0
   68.9506   47.7032   54.0010 C   0  0  0  0  0  0  0  0  0  0  0  0
   68.2480   46.4959   54.4755 C   0  0  0  0  0  0  0  0  0  0  0  0
   67.6698   45.6121   53.4477 C   0  0  0  0  0  0  0  0  0  0  0  0
   67.7062   46.2126   52.0757 C   0  0  0  0  0  0  0  0  0  0  0  0
   69.1656   46.6113   51.7648 C   0  0  0  0  0  0  0  0  0  0  0  0
  8  9  2  0
  9 10  1  0
 11  9  1  6
 10  1  1  0
  1  2  2  0
  1  6  1  0
  2  3  1  0
  3 17  1  0
  3  4  2  0
 17 18  1  0
 18 19  2  0
 18 24  1  0
 19 20  1  0
 20 21  1  0
 21 22  2  0
 21 23  1  0
 23 24  2  0
 23 28  1  0
 24 25  1  0
 25 26  1  0
 26 27  1  0
 27 28  1  0
  4  5  1  0
  5  6  2  0
  6  7  1  0
 11 12  1  0
 11 16  1  0
 12 13  1  0
 13 14  1  0
 14 15  1  0
 15 16  1  0
M  CHG  1  15   1
M  END
>  <minimizedAffinity>  (847) 
-8.66627

$$$$
cs_full_output_folder/data/smiles/67.pdb
     RDKit          3D

 27 29  0  0  0  0  0  0  0  0999 V2000
   69.2323   49.0673   56.9411 C   0  0  0  0  0  0  0  0  0  0  0  0
   68.4341   49.7562   57.8756 C   0  0  0  0  0  0  0  0  0  0  0  0
   67.8786   50.9892   57.6232 C   0  0  0  0  0  0  0  0  0  0  0  0
   68.0938   51.6057   56.4066 C   0  0  0  0  0  0  0  0  0  0  0  0
   68.8650   50.9792   55.4568 C   0  0  0  0  0  0  0  0  0  0  0  0
   69.4122   49.7231   55.7560 C   0  0  0  0  0  0  0  0  0  0  0  0
   69.1496   46.5313   57.2813 N   0  0  0  0  0  0  0  0  0  0  0  0
   69.7535   47.7960   57.3158 C   0  0  0  0  0  0  0  0  0  0  0  0
   70.9693   47.7530   57.7625 O   0  0  0  0  0  0  0  0  0  0  0  0
   68.6232   43.9474   56.3513 O   0  0  0  0  0  0  0  0  0  0  0  0
   69.5333   44.0597   57.2118 C   0  0  0  0  0  0  0  0  0  0  0  0
   69.8152   45.3505   57.6936 N   0  0  0  0  0  0  0  0  0  0  0  0
   70.2270   42.8530   57.6459 C   0  0  0  0  0  0  0  0  0  0  0  0
   69.5296   41.6970   57.9295 C   0  0  0  0  0  0  0  0  0  0  0  0
   70.1563   40.5365   58.3431 C   0  0  0  0  0  0  0  0  0  0  0  0
   71.4900   40.5022   58.4821 N   0  0  0  0  0  0  0  0  0  0  0  0
   72.2112   41.6043   58.2176 C   0  0  0  0  0  0  0  0  0  0  0  0
   71.5972   42.7912   57.7971 C   0  0  0  0  0  0  0  0  0  0  0  0
   70.1929   49.0821   54.8039 O   0  0  0  0  0  0  0  0  0  0  0  0
   69.8662   49.1304   53.4295 C   0  0  0  0  0  0  0  0  0  0  0  0
   69.1106   47.9339   53.0402 C   0  0  0  0  0  0  0  0  0  0  0  0
   68.9191   47.5596   51.7203 C   0  0  0  0  0  0  0  0  0  0  0  0
   68.2004   46.4244   51.4084 C   0  0  0  0  0  0  0  0  0  0  0  0
   67.6586   45.6408   52.4040 C   0  0  0  0  0  0  0  0  0  0  0  0
   66.9612   44.5374   52.0853 F   0  0  0  0  0  0  0  0  0  0  0  0
   67.8448   46.0037   53.7148 C   0  0  0  0  0  0  0  0  0  0  0  0
   68.5656   47.1424   54.0297 C   0  0  0  0  0  0  0  0  0  0  0  0
 10 11  2  0
 11 12  1  0
 11 13  1  0
 12  7  1  0
  7  8  1  0
  8  9  2  0
  8  1  1  0
  1  2  2  0
  1  6  1  0
  2  3  1  0
  3  4  2  0
  4  5  1  0
  5  6  2  0
  6 19  1  0
 19 20  1  0
 20 21  1  0
 21 22  2  0
 21 27  1  0
 22 23  1  0
 23 24  2  0
 24 25  1  0
 24 26  1  0
 26 27  2  0
 13 14  2  0
 13 18  1  0
 14 15  1  0
 15 16  2  0
 16 17  1  0
 17 18  2  0
M  END
>  <minimizedAffinity>  (848) 
-8.66624

$$$$
cs_full_output_folder/data/smiles/936.pdb
     RDKit          3D

 27 28  0  0  0  0  0  0  0  0999 V2000
   69.6433   49.0811   57.2309 C   0  0  0  0  0  0  0  0  0  0  0  0
   68.8526   50.1375   57.6792 C   0  0  0  0  0  0  0  0  0  0  0  0
   68.4041   51.1330   56.9537 C   0  0  0  0  0  0  0  0  0  0  0  0
   68.6700   51.2780   55.6011 C   0  0  0  0  0  0  0  0  0  0  0  0
   69.4199   50.3518   54.9810 C   0  0  0  0  0  0  0  0  0  0  0  0
   69.8981   49.3096   55.6941 C   0  0  0  0  0  0  0  0  0  0  0  0
   70.2760   46.5611   58.0076 C   0  0  0  0  0  0  0  0  0  0  0  0
   69.9126   48.0191   57.5648 C   0  0  0  0  0  0  0  0  0  0  0  0
   70.7285   44.5536   58.6294 C   0  0  0  0  0  0  0  0  0  0  0  0
   70.4714   45.7219   58.2711 C   0  0  0  0  0  0  0  0  0  0  0  0
   70.1475   42.2651   58.4460 C   0  0  0  0  0  0  0  0  0  0  0  0
   71.0651   43.0081   59.0878 C   0  0  0  0  0  0  0  0  0  0  0  0
   69.0875   40.0547   57.8293 O   0  0  0  0  0  0  0  0  0  0  0  0
   69.6343   41.0945   58.1691 C   0  0  0  0  0  0  0  0  0  0  0  0
   68.5035   41.8150   56.6519 N   0  0  0  0  0  0  0  0  0  0  0  0
   67.8373   40.6808   56.5242 O   0  0  0  0  0  0  0  0  0  0  0  0
   69.5151   50.3106   53.5592 N   0  0  0  0  0  0  0  0  0  0  0  0
   70.1027   49.1172   52.5363 S   0  0  0  0  0  0  0  0  0  0  0  0
   69.7539   49.5858   51.1075 O   0  0  0  0  0  0  0  0  0  0  0  0
   71.5253   48.8803   52.5565 O   0  0  0  0  0  0  0  0  0  0  0  0
   69.0735   47.7086   52.7459 C   0  0  0  0  0  0  0  0  0  0  0  0
   68.5232   47.2462   51.5188 C   0  0  0  0  0  0  0  0  0  0  0  0
   67.7865   46.1095   51.4450 C   0  0  0  0  0  0  0  0  0  0  0  0
   67.5675   45.3748   52.6320 C   0  0  0  0  0  0  0  0  0  0  0  0
   68.1116   45.8285   53.8097 C   0  0  0  0  0  0  0  0  0  0  0  0
   67.9451   45.0758   54.9324 F   0  0  0  0  0  0  0  0  0  0  0  0
   68.8657   46.9972   53.8642 C   0  0  0  0  0  0  0  0  0  0  0  0
 13 14  2  0
 14 11  1  0
 14 15  1  0
 11 12  2  0
 12  9  1  0
  9 10  3  0
 10  7  1  0
  7  8  3  0
  8  1  1  0
  1  2  2  0
  1  6  1  0
  2  3  1  0
  3  4  2  0
  4  5  1  0
  5 17  1  0
  5  6  2  0
 17 18  1  0
 18 19  2  0
 18 20  2  0
 18 21  1  0
 21 22  2  0
 21 27  1  0
 22 23  1  0
 23 24  2  0
 24 25  1  0
 25 26  1  0
 25 27  2  0
 15 16  1  0
M  END
>  <minimizedAffinity>  (849) 
-8.66349

$$$$
cs_full_output_folder/data/smiles/8926.pdb
     RDKit          3D

 26 27  0  0  0  0  0  0  0  0999 V2000
   70.0631   49.3335   52.7214 S   0  0  0  0  0  0  0  0  0  0  0  0
   71.4637   49.4294   53.2657 O   0  0  0  0  0  0  0  0  0  0  0  0
   70.1542   49.2545   51.2064 O   0  0  0  0  0  0  0  0  0  0  0  0
   67.1875   45.0465   52.2291 N   0  0  0  0  0  0  0  0  0  0  0  0
   67.9378   45.9166   53.0563 C   0  0  0  0  0  0  0  0  0  0  0  0
   68.0595   45.6301   54.4109 C   0  0  0  0  0  0  0  0  0  0  0  0
   67.4783   44.5391   54.9638 F   0  0  0  0  0  0  0  0  0  0  0  0
   68.7859   46.4798   55.1933 C   0  0  0  0  0  0  0  0  0  0  0  0
   68.9024   46.1950   56.5169 F   0  0  0  0  0  0  0  0  0  0  0  0
   69.3779   47.5905   54.6328 C   0  0  0  0  0  0  0  0  0  0  0  0
   70.0922   48.4001   55.4747 F   0  0  0  0  0  0  0  0  0  0  0  0
   69.2654   47.8899   53.2817 C   0  0  0  0  0  0  0  0  0  0  0  0
   68.5376   47.0424   52.4934 C   0  0  0  0  0  0  0  0  0  0  0  0
   68.4113   47.3204   51.1766 F   0  0  0  0  0  0  0  0  0  0  0  0
   69.1125   50.6922   53.1691 N   0  0  0  0  0  0  0  0  0  0  0  0
   69.0895   51.1323   54.5147 C   0  0  0  0  0  0  0  0  0  0  0  0
   67.9287   51.0717   55.2531 C   0  0  0  0  0  0  0  0  0  0  0  0
   67.9103   51.5019   56.5645 C   0  0  0  0  0  0  0  0  0  0  0  0
   69.0532   51.9921   57.1382 C   0  0  0  0  0  0  0  0  0  0  0  0
   70.2698   52.0802   56.4382 C   0  0  0  0  0  0  0  0  0  0  0  0
   70.2201   51.6391   55.1460 C   0  0  0  0  0  0  0  0  0  0  0  0
   71.3975   52.6007   57.1173 N   0  0  0  0  0  0  0  0  0  0  0  0
   72.1687   53.7194   56.7872 C   0  0  0  0  0  0  0  0  0  0  0  0
   71.8611   54.3757   55.7687 O   0  0  0  0  0  0  0  0  0  0  0  0
   73.3479   54.1558   57.6111 C   0  0  0  0  0  0  0  0  0  0  0  0
   73.9587   53.0006   58.0839 O   0  0  0  0  0  0  0  0  0  0  0  0
  4  5  1  0
  5  6  2  0
  5 13  1  0
  6  7  1  0
  6  8  1  0
  8  9  1  0
  8 10  2  0
 10 11  1  0
 10 12  1  0
 12  1  1  0
 12 13  2  0
  1  2  2  0
  1  3  2  0
  1 15  1  0
 15 16  1  0
 16 17  2  0
 16 21  1  0
 17 18  1  0
 18 19  2  0
 19 20  1  0
 20 22  1  0
 20 21  2  0
 22 23  1  0
 23 24  2  0
 23 25  1  0
 25 26  1  0
 13 14  1  0
M  END
>  <minimizedAffinity>  (850) 
-8.66344

$$$$
cs_full_output_folder/data/smiles/972.pdb
     RDKit          3D

 27 30  0  0  0  0  0  0  0  0999 V2000
   70.3290   46.1005   57.8422 C   0  0  0  0  0  0  0  0  0  0  0  0
   71.3714   46.9257   58.3376 C   0  0  0  0  0  0  0  0  0  0  0  0
   72.5750   46.3995   58.7219 C   0  0  0  0  0  0  0  0  0  0  0  0
   72.7814   45.0502   58.6279 C   0  0  0  0  0  0  0  0  0  0  0  0
   71.8024   44.1801   58.1487 C   0  0  0  0  0  0  0  0  0  0  0  0
   70.5885   44.7533   57.7660 C   0  0  0  0  0  0  0  0  0  0  0  0
   71.8096   42.7357   57.9449 C   0  0  0  0  0  0  0  0  0  0  0  0
   73.0721   42.0132   58.2098 C   0  0  0  0  0  0  0  0  0  0  0  0
   74.3231   42.6310   57.6132 C   0  0  0  0  0  0  0  0  0  0  0  0
   74.7812   43.6246   58.6527 C   0  0  0  0  0  0  0  0  0  0  0  0
   75.9206   43.6266   59.3315 N   0  0  0  0  0  0  0  0  0  0  0  0
   75.9043   44.6660   60.1702 N   0  0  0  0  0  0  0  0  0  0  0  0
   74.7519   45.3402   60.0375 C   0  0  0  0  0  0  0  0  0  0  0  0
   74.4448   46.3501   60.6854 O   0  0  0  0  0  0  0  0  0  0  0  0
   74.0688   44.6867   59.0952 N   0  0  0  0  0  0  0  0  0  0  0  0
   69.1726   46.6688   57.4801 O   0  0  0  0  0  0  0  0  0  0  0  0
   68.7891   47.6428   56.6374 C   0  0  0  0  0  0  0  0  0  0  0  0
   69.2532   47.8450   52.9053 C   0  0  0  0  0  0  0  0  0  0  0  0
   69.3118   48.1303   54.2401 C   0  0  0  0  0  0  0  0  0  0  0  0
   68.6652   47.3291   55.1871 C   0  0  0  0  0  0  0  0  0  0  0  0
   67.9728   46.2494   54.7297 C   0  0  0  0  0  0  0  0  0  0  0  0
   67.8996   45.9417   53.3941 C   0  0  0  0  0  0  0  0  0  0  0  0
   68.5416   46.7457   52.5063 C   0  0  0  0  0  0  0  0  0  0  0  0
   68.4849   46.4647   51.1924 F   0  0  0  0  0  0  0  0  0  0  0  0
   69.8875   50.0849   52.0615 N   0  0  0  0  0  0  0  0  0  0  0  0
   69.9268   48.6783   51.9125 C   0  0  0  0  0  0  0  0  0  0  0  0
   70.5268   48.1734   50.9510 O   0  0  0  0  0  0  0  0  0  0  0  0
 25 26  1  0
 26 27  2  0
 26 18  1  0
 18 19  2  0
 18 23  1  0
 19 20  1  0
 20 17  1  0
 20 21  2  0
 17 16  1  0
 16  1  1  0
  1  2  2  0
  1  6  1  0
  2  3  1  0
  3  4  2  0
  4  5  1  0
  4 15  1  0
  5  6  2  0
  5  7  1  0
  7  8  1  0
  8  9  1  0
  9 10  1  0
 10 11  2  0
 10 15  1  0
 11 12  1  0
 12 13  1  0
 13 14  2  0
 13 15  1  0
 21 22  1  0
 22 23  2  0
 23 24  1  0
M  END
>  <minimizedAffinity>  (851) 
-8.66270

$$$$
cs_full_output_folder/data/smiles/634.pdb
     RDKit          3D

 26 28  0  0  0  0  0  0  0  0999 V2000
   69.8356   45.7731   58.6919 N   0  0  0  0  0  0  0  0  0  0  0  0
   70.9653   46.5197   58.2808 C   0  0  0  0  0  0  0  0  0  0  0  0
   72.0200   45.8679   58.0318 O   0  0  0  0  0  0  0  0  0  0  0  0
   69.4078   43.4974   57.8182 C   0  0  0  0  0  0  0  0  0  0  0  0
   68.9826   43.9723   56.7470 O   0  0  0  0  0  0  0  0  0  0  0  0
   69.8486   44.3795   58.8268 N   0  0  0  0  0  0  0  0  0  0  0  0
   70.7680   38.6068   58.8903 C   0  0  0  0  0  0  0  0  0  0  0  0
   69.9925   39.8118   58.4350 C   0  0  0  0  0  0  0  0  0  0  0  0
   68.7904   39.8489   57.9108 C   0  0  0  0  0  0  0  0  0  0  0  0
   68.4371   41.2300   57.6209 C   0  0  0  0  0  0  0  0  0  0  0  0
   69.4274   42.0259   57.9712 C   0  0  0  0  0  0  0  0  0  0  0  0
   70.4979   41.1907   58.5181 C   0  0  2  0  0  0  0  0  0  0  0  0
   71.6132   41.3228   57.6813 F   0  0  0  0  0  0  0  0  0  0  0  0
   70.9966   47.9762   58.1279 C   0  0  0  0  0  0  0  0  0  0  0  0
   69.6909   48.5331   57.6092 C   0  0  0  0  0  0  0  0  0  0  0  0
   69.5761   48.3125   56.1268 C   0  0  0  0  0  0  0  0  0  0  0  0
   68.8064   47.2758   55.7072 N   0  0  0  0  0  0  0  0  0  0  0  0
   68.6798   47.0487   54.3956 C   0  0  0  0  0  0  0  0  0  0  0  0
   67.9100   46.0076   53.8920 C   0  0  0  0  0  0  0  0  0  0  0  0
   67.7942   45.7923   52.5456 C   0  0  0  0  0  0  0  0  0  0  0  0
   68.4519   46.6195   51.6531 C   0  0  0  0  0  0  0  0  0  0  0  0
   69.2134   47.6482   52.1311 C   0  0  0  0  0  0  0  0  0  0  0  0
   69.3221   47.8542   53.4931 C   0  0  0  0  0  0  0  0  0  0  0  0
   70.0925   48.8938   53.9571 C   0  0  0  0  0  0  0  0  0  0  0  0
   70.6776   49.6274   53.1057 O   0  0  0  0  0  0  0  0  0  0  0  0
   70.2226   49.1277   55.2723 N   0  0  0  0  0  0  0  0  0  0  0  0
  7  8  1  0
  8  9  2  0
  8 12  1  0
  9 10  1  0
 10 11  2  0
 11  4  1  0
 11 12  1  0
  4  5  2  0
  4  6  1  0
  6  1  1  0
  1  2  1  0
  2  3  2  0
  2 14  1  0
 14 15  1  0
 15 16  1  0
 16 17  2  0
 16 26  1  0
 17 18  1  0
 18 19  2  0
 18 23  1  0
 19 20  1  0
 20 21  2  0
 21 22  1  0
 22 23  2  0
 23 24  1  0
 24 25  2  0
 24 26  1  0
 12 13  1  6
M  END
>  <minimizedAffinity>  (852) 
-8.66190

$$$$
cs_full_output_folder/data/smiles/511.pdb
     RDKit          3D

 28 31  0  0  0  0  0  0  0  0999 V2000
   73.6303   34.9962   56.1462 C   0  0  0  0  0  0  0  0  0  0  0  0
   72.8940   35.2322   55.0047 C   0  0  0  0  0  0  0  0  0  0  0  0
   73.5460   35.4199   53.7798 C   0  0  0  0  0  0  0  0  0  0  0  0
   74.9192   35.3807   53.6569 C   0  0  0  0  0  0  0  0  0  0  0  0
   75.6092   35.1497   54.7882 N   0  0  0  0  0  0  0  0  0  0  0  0
   75.0170   34.9647   55.9808 C   0  0  0  0  0  0  0  0  0  0  0  0
   75.5404   35.5772   52.3898 N   0  0  0  0  0  0  0  0  0  0  0  0
   75.8661   34.5335   51.4924 C   0  0  0  0  0  0  0  0  0  0  0  0
   75.5805   33.3662   51.8559 O   0  0  0  0  0  0  0  0  0  0  0  0
   76.5015   34.7378   50.1964 C   0  0  0  0  0  0  0  0  0  0  0  0
   77.5574   35.6169   50.0763 C   0  0  0  0  0  0  0  0  0  0  0  0
   78.2079   35.8705   48.9040 C   0  0  0  0  0  0  0  0  0  0  0  0
   77.8175   35.2270   47.7470 C   0  0  0  0  0  0  0  0  0  0  0  0
   76.7607   34.3385   47.8382 C   0  0  0  0  0  0  0  0  0  0  0  0
   76.1049   34.0912   49.0454 C   0  0  0  0  0  0  0  0  0  0  0  0
   72.9934   34.7863   57.4507 C   0  0  0  0  0  0  0  0  0  0  0  0
   70.1317   37.7065   61.7944 C   0  0  0  0  0  0  0  0  0  0  0  0
   69.6911   36.8322   60.6394 C   0  0  2  0  0  0  0  0  0  0  0  0
   69.5491   35.4306   61.1425 C   0  0  0  0  0  0  0  0  0  0  0  0
   70.7671   34.5796   60.9925 C   0  0  0  0  0  0  0  0  0  0  0  0
   71.2136   34.6223   59.6300 O   0  0  0  0  0  0  0  0  0  0  0  0
   71.3357   35.8448   59.0376 C   0  0  0  0  0  0  0  0  0  0  0  0
   72.2126   35.9319   57.9591 C   0  0  0  0  0  0  0  0  0  0  0  0
   72.3113   37.1660   57.3903 N   0  0  0  0  0  0  0  0  0  0  0  0
   71.6271   38.2043   57.8266 N   0  0  0  0  0  0  0  0  0  0  0  0
   70.7783   38.1226   58.8698 C   0  0  0  0  0  0  0  0  0  0  0  0
   70.1414   39.1508   59.2541 O   0  0  0  0  0  0  0  0  0  0  0  0
   70.6237   36.9064   59.4997 C   0  0  0  0  0  0  0  0  0  0  0  0
 18 17  1  1
 18 19  1  0
 18 28  1  0
 19 20  1  0
 20 21  1  0
 21 22  1  0
 22 23  1  0
 22 28  2  0
 23 16  1  0
 23 24  2  0
 16  1  1  0
  1  2  2  0
  1  6  1  0
  2  3  1  0
  3  4  2  0
  4  7  1  0
  4  5  1  0
  7  8  1  0
  8  9  2  0
  8 10  1  0
 10 11  2  0
 10 15  1  0
 11 12  1  0
 12 13  2  0
 13 14  1  0
 14 15  2  0
  5  6  2  0
 24 25  1  0
 25 26  1  0
 26 27  2  0
 26 28  1  0
M  END
>  <minimizedAffinity>  (853) 
-8.65982

$$$$
cs_full_output_folder/data/smiles/1482.pdb
     RDKit          3D

 24 25  0  0  0  0  0  0  0  0999 V2000
   70.0205   49.2304   52.6313 S   0  0  0  0  0  0  0  0  0  0  0  0
   70.3041   49.0002   51.1662 O   0  0  0  0  0  0  0  0  0  0  0  0
   71.3940   49.3910   53.2702 O   0  0  0  0  0  0  0  0  0  0  0  0
   69.2820   47.8339   53.3477 C   0  0  0  0  0  0  0  0  0  0  0  0
   69.3805   47.6219   54.7021 C   0  0  0  0  0  0  0  0  0  0  0  0
   70.0311   48.4629   55.5497 F   0  0  0  0  0  0  0  0  0  0  0  0
   68.7783   46.4899   55.2351 C   0  0  0  0  0  0  0  0  0  0  0  0
   68.1071   45.6180   54.4062 C   0  0  0  0  0  0  0  0  0  0  0  0
   67.5194   44.5068   54.9431 F   0  0  0  0  0  0  0  0  0  0  0  0
   68.0085   45.8299   53.0477 C   0  0  0  0  0  0  0  0  0  0  0  0
   67.3322   44.9311   52.2946 F   0  0  0  0  0  0  0  0  0  0  0  0
   68.6003   46.9419   52.5329 C   0  0  0  0  0  0  0  0  0  0  0  0
   68.4997   47.1475   51.1858 F   0  0  0  0  0  0  0  0  0  0  0  0
   69.1380   50.6796   52.8928 N   0  0  0  0  0  0  0  0  0  0  0  0
   68.1232   51.5074   56.3672 C   0  0  0  0  0  0  0  0  0  0  0  0
   69.0643   52.5239   56.6319 C   0  0  0  0  0  0  0  0  0  0  0  0
   69.9933   52.9209   55.7029 C   0  0  0  0  0  0  0  0  0  0  0  0
   70.0441   52.3318   54.4585 C   0  0  0  0  0  0  0  0  0  0  0  0
   69.1440   51.3320   54.1537 C   0  0  0  0  0  0  0  0  0  0  0  0
   68.2197   50.9564   55.1120 C   0  0  0  0  0  0  0  0  0  0  0  0
   66.1102   49.5923   58.8879 N   0  0  0  0  0  0  0  0  0  0  0  0
   67.0785   49.8457   57.8866 C   0  0  0  0  0  0  0  0  0  0  0  0
   67.7722   48.8718   57.5350 O   0  0  0  0  0  0  0  0  0  0  0  0
   67.1938   51.1468   57.3653 N   0  0  0  0  0  0  0  0  0  0  0  0
 21 22  1  0
 22 23  2  0
 22 24  1  0
 24 15  1  0
 15 16  2  0
 15 20  1  0
 16 17  1  0
 17 18  2  0
 18 19  1  0
 19 14  1  0
 19 20  2  0
 14  1  1  0
  1  2  2  0
  1  3  2  0
  1  4  1  0
  4  5  2  0
  4 12  1  0
  5  6  1  0
  5  7  1  0
  7  8  2  0
  8  9  1  0
  8 10  1  0
 10 11  1  0
 10 12  2  0
 12 13  1  0
M  END
>  <minimizedAffinity>  (854) 
-8.65980

$$$$
cs_full_output_folder/data/smiles/1149.pdb
     RDKit          3D

 25 26  0  0  0  0  0  0  0  0999 V2000
   69.9370   49.2708   52.6359 S   0  0  0  0  0  0  0  0  0  0  0  0
   69.7862   49.2130   51.1260 O   0  0  0  0  0  0  0  0  0  0  0  0
   71.4149   49.1629   52.8892 O   0  0  0  0  0  0  0  0  0  0  0  0
   69.1960   47.8091   53.2419 C   0  0  0  0  0  0  0  0  0  0  0  0
   69.2229   47.4796   54.5824 C   0  0  0  0  0  0  0  0  0  0  0  0
   69.8513   48.3376   55.4334 F   0  0  0  0  0  0  0  0  0  0  0  0
   68.6358   46.3264   55.0440 C   0  0  0  0  0  0  0  0  0  0  0  0
   68.6626   46.0025   56.3672 F   0  0  0  0  0  0  0  0  0  0  0  0
   67.9879   45.4318   54.2136 C   0  0  0  0  0  0  0  0  0  0  0  0
   67.4122   44.2976   54.6792 F   0  0  0  0  0  0  0  0  0  0  0  0
   67.9678   45.7702   52.8757 C   0  0  0  0  0  0  0  0  0  0  0  0
   67.3261   44.8837   52.0499 F   0  0  0  0  0  0  0  0  0  0  0  0
   68.5499   46.9194   52.3999 C   0  0  0  0  0  0  0  0  0  0  0  0
   68.5038   47.2056   51.0916 F   0  0  0  0  0  0  0  0  0  0  0  0
   69.2704   50.7193   53.2068 N   0  0  0  0  0  0  0  0  0  0  0  0
   71.6630   52.8749   55.0532 C   0  0  0  0  0  0  0  0  0  0  0  0
   71.1298   52.0236   54.1326 C   0  0  0  0  0  0  0  0  0  0  0  0
   69.8003   51.6105   54.1589 C   0  0  0  0  0  0  0  0  0  0  0  0
   69.0263   52.1028   55.1678 C   0  0  0  0  0  0  0  0  0  0  0  0
   69.5170   52.9727   56.1331 C   0  0  0  0  0  0  0  0  0  0  0  0
   70.8422   53.3554   56.0688 C   0  0  0  0  0  0  0  0  0  0  0  0
   73.8047   53.0294   54.0566 C   0  0  0  0  0  0  0  0  0  0  0  0
   73.0174   53.3052   55.0392 N   0  0  0  0  0  0  0  0  0  0  0  0
   71.3760   54.2228   57.0116 O   0  0  0  0  0  0  0  0  0  0  0  0
   72.2276   53.7051   58.0198 C   0  0  0  0  0  0  0  0  0  0  0  0
 22 23  2  0
 23 16  1  0
 16 17  2  0
 16 21  1  0
 17 18  1  0
 18 15  1  0
 18 19  2  0
 15  1  1  0
  1  2  2  0
  1  3  2  0
  1  4  1  0
  4  5  2  0
  4 13  1  0
  5  6  1  0
  5  7  1  0
  7  8  1  0
  7  9  2  0
  9 10  1  0
  9 11  1  0
 11 12  1  0
 11 13  2  0
 13 14  1  0
 19 20  1  0
 20 21  2  0
 21 24  1  0
 24 25  1  0
M  END
>  <minimizedAffinity>  (855) 
-8.65848

$$$$
cs_full_output_folder/data/smiles/7536.pdb
     RDKit          3D

 25 27  0  0  0  0  0  0  0  0999 V2000
   70.0522   45.0217   57.8117 C   0  0  0  0  0  0  0  0  0  0  0  0
   69.8681   45.8109   58.7465 O   0  0  0  0  0  0  0  0  0  0  0  0
   69.5706   45.2866   56.5125 N   0  0  0  0  0  0  0  0  0  0  0  0
   68.7861   42.1842   58.2576 C   0  0  0  0  0  0  0  0  0  0  0  0
   70.2314   42.4989   58.2014 C   0  0  0  0  0  0  0  0  0  0  0  0
   70.7890   43.7508   57.9998 C   0  0  0  0  0  0  0  0  0  0  0  0
   72.1483   43.5488   58.0268 C   0  0  0  0  0  0  0  0  0  0  0  0
   72.3382   42.2261   58.2357 N   0  0  0  0  0  0  0  0  0  0  0  0
   71.2150   41.5777   58.3441 N   0  0  0  0  0  0  0  0  0  0  0  0
   71.0681   40.1758   58.5691 C   0  0  0  0  0  0  0  0  0  0  0  0
   71.9777   39.2329   58.3884 C   0  0  0  0  0  0  0  0  0  0  0  0
   71.4758   38.0224   58.3362 C   0  0  0  0  0  0  0  0  0  0  0  0
   72.2862   36.6073   57.7052 Cl  0  0  0  0  0  0  0  0  0  0  0  0
   70.1387   38.1476   58.9050 C   0  0  0  0  0  0  0  0  0  0  0  0
   69.8953   39.4543   59.0438 C   0  0  0  0  0  0  0  0  0  0  0  0
   68.8243   46.4696   56.1543 C   0  0  0  0  0  0  0  0  0  0  0  0
   68.6899   46.6127   54.6803 C   0  0  0  0  0  0  0  0  0  0  0  0
   67.9652   45.6996   53.9592 C   0  0  0  0  0  0  0  0  0  0  0  0
   67.8541   45.8306   52.5686 C   0  0  0  0  0  0  0  0  0  0  0  0
   68.4847   46.8941   51.9221 C   0  0  0  0  0  0  0  0  0  0  0  0
   69.2109   47.8078   52.6550 C   0  0  0  0  0  0  0  0  0  0  0  0
   69.2938   47.6429   54.0126 C   0  0  0  0  0  0  0  0  0  0  0  0
   69.8714   48.9231   51.9768 C   0  0  0  0  0  0  0  0  0  0  0  0
   69.8043   50.2500   52.4377 N   0  0  0  0  0  0  0  0  0  0  0  0
   70.5361   48.7010   50.9293 O   0  0  0  0  0  0  0  0  0  0  0  0
  4  5  1  0
  5  6  2  0
  5  9  1  0
  6  1  1  0
  6  7  1  0
  1  2  2  0
  1  3  1  0
  3 16  1  0
 16 17  1  0
 17 18  2  0
 17 22  1  0
 18 19  1  0
 19 20  2  0
 20 21  1  0
 21 23  1  0
 21 22  2  0
 23 24  1  0
 23 25  2  0
  7  8  2  0
  8  9  1  0
  9 10  1  0
 10 11  2  0
 10 15  1  0
 11 12  2  0
 12 13  1  0
 12 14  1  0
 14 15  2  0
M  END
>  <minimizedAffinity>  (856) 
-8.65837

$$$$
cs_full_output_folder/data/smiles/1023.pdb
     RDKit          3D

 26 28  0  0  0  0  0  0  0  0999 V2000
   69.1431   46.6842   56.0184 C   0  0  0  0  0  0  0  0  0  0  0  0
   69.3313   47.8531   55.3310 C   0  0  0  0  0  0  0  0  0  0  0  0
   68.9617   48.0576   54.0060 C   0  0  0  0  0  0  0  0  0  0  0  0
   68.3635   47.0236   53.3190 C   0  0  0  0  0  0  0  0  0  0  0  0
   68.1531   45.8295   53.9669 C   0  0  0  0  0  0  0  0  0  0  0  0
   68.5298   45.6594   55.2786 C   0  0  0  0  0  0  0  0  0  0  0  0
   68.3218   44.4853   55.9127 F   0  0  0  0  0  0  0  0  0  0  0  0
   70.8723   46.6508   59.4273 N   0  0  0  0  0  0  0  0  0  0  0  0
   70.6115   46.9805   58.0506 C   0  0  0  0  0  0  0  0  0  0  0  0
   71.4094   47.7623   57.5006 O   0  0  0  0  0  0  0  0  0  0  0  0
   69.5101   46.4454   57.3592 N   0  0  0  0  0  0  0  0  0  0  0  0
   71.9969   47.1936   60.1368 C   0  0  0  0  0  0  0  0  0  0  0  0
   72.3285   44.8238   60.8655 C   0  0  0  0  0  0  0  0  0  0  0  0
   73.0047   46.1295   60.5149 C   0  0  0  0  0  0  0  0  0  0  0  0
   69.1983   49.3789   53.3604 C   0  0  0  0  0  0  0  0  0  0  0  0
   70.3491   50.1115   53.8803 C   0  0  0  0  0  0  0  0  0  0  0  0
   71.5889   49.6493   53.5312 N   0  0  0  0  0  0  0  0  0  0  0  0
   72.6752   50.2723   53.9412 N   0  0  0  0  0  0  0  0  0  0  0  0
   72.5840   51.3636   54.7055 C   0  0  0  0  0  0  0  0  0  0  0  0
   73.6144   51.9619   55.1006 O   0  0  0  0  0  0  0  0  0  0  0  0
   71.3185   51.8764   55.0924 C   0  0  0  0  0  0  0  0  0  0  0  0
   70.1756   51.2421   54.6745 C   0  0  0  0  0  0  0  0  0  0  0  0
   68.8305   51.7108   55.0500 C   0  0  0  0  0  0  0  0  0  0  0  0
   68.9333   52.4625   56.3653 C   0  0  0  0  0  0  0  0  0  0  0  0
   69.9476   53.5814   56.2572 C   0  0  0  0  0  0  0  0  0  0  0  0
   71.3073   53.0971   55.9349 C   0  0  0  0  0  0  0  0  0  0  0  0
 13 14  1  0
 14 12  1  0
 12  8  1  0
  8  9  1  0
  9 10  2  0
  9 11  1  0
 11  1  1  0
  1  2  2  0
  1  6  1  0
  2  3  1  0
  3 15  1  0
  3  4  2  0
 15 16  1  0
 16 17  2  0
 16 22  1  0
 17 18  1  0
 18 19  1  0
 19 20  2  0
 19 21  1  0
 21 22  2  0
 21 26  1  0
 22 23  1  0
 23 24  1  0
 24 25  1  0
 25 26  1  0
  4  5  1  0
  5  6  2  0
  6  7  1  0
M  END
>  <minimizedAffinity>  (857) 
-8.65738

$$$$
cs_full_output_folder/data/smiles/61.pdb
     RDKit          3D

 27 30  0  0  0  0  0  0  0  0999 V2000
   72.1508   46.9527   58.9939 C   0  0  0  0  0  0  0  0  0  0  0  0
   70.9812   46.3455   58.6304 C   0  0  0  0  0  0  0  0  0  0  0  0
   70.0696   46.9178   57.7358 C   0  0  0  0  0  0  0  0  0  0  0  0
   70.3392   48.1469   57.1835 C   0  0  0  0  0  0  0  0  0  0  0  0
   71.5450   48.7422   57.5764 C   0  0  0  0  0  0  0  0  0  0  0  0
   72.3898   48.1547   58.4391 N   0  0  0  0  0  0  0  0  0  0  0  0
   72.4763   47.8547   61.5100 O   0  0  0  0  0  0  0  0  0  0  0  0
   73.2709   46.8855   61.2311 C   0  0  0  0  0  0  0  0  0  0  0  0
   73.1023   46.4050   59.8992 N   0  0  0  0  0  0  0  0  0  0  0  0
   74.2102   46.3768   62.1927 C   0  0  0  0  0  0  0  0  0  0  0  0
   74.9803   45.2864   61.9312 C   0  0  0  0  0  0  0  0  0  0  0  0
   75.8755   44.8516   62.9238 C   0  0  0  0  0  0  0  0  0  0  0  0
   75.9729   45.4793   64.0829 N   0  0  0  0  0  0  0  0  0  0  0  0
   75.2271   46.5583   64.3743 C   0  0  0  0  0  0  0  0  0  0  0  0
   74.3371   47.0039   63.4058 C   0  0  0  0  0  0  0  0  0  0  0  0
   69.4221   48.8153   56.2429 C   0  0  0  0  0  0  0  0  0  0  0  0
   69.7055   48.6226   54.8269 C   0  0  0  0  0  0  0  0  0  0  0  0
   70.6483   49.4031   54.2609 N   0  0  0  0  0  0  0  0  0  0  0  0
   70.9933   49.3499   53.0100 N   0  0  0  0  0  0  0  0  0  0  0  0
   70.3866   48.4705   52.2087 C   0  0  0  0  0  0  0  0  0  0  0  0
   70.7141   48.4136   50.9977 O   0  0  0  0  0  0  0  0  0  0  0  0
   69.3936   47.6262   52.7331 C   0  0  0  0  0  0  0  0  0  0  0  0
   69.0425   47.6940   54.0558 C   0  0  0  0  0  0  0  0  0  0  0  0
   68.0052   46.7975   54.6019 C   0  0  0  0  0  0  0  0  0  0  0  0
   67.9809   45.5314   53.7790 C   0  0  0  0  0  0  0  0  0  0  0  0
   67.5725   45.9485   52.3594 C   0  0  0  0  0  0  0  0  0  0  0  0
   68.7610   46.6803   51.7946 C   0  0  0  0  0  0  0  0  0  0  0  0
  7  8  2  0
  8  9  1  0
  8 10  1  0
  9  1  1  0
  1  2  2  0
  1  6  1  0
  2  3  1  0
  3  4  2  0
  4 16  1  0
  4  5  1  0
 16 17  1  0
 17 18  2  0
 17 23  1  0
 18 19  1  0
 19 20  1  0
 20 21  2  0
 20 22  1  0
 22 23  2  0
 22 27  1  0
 23 24  1  0
 24 25  1  0
 25 26  1  0
 26 27  1  0
  5  6  2  0
 10 11  2  0
 10 15  1  0
 11 12  1  0
 12 13  2  0
 13 14  1  0
 14 15  2  0
M  END
>  <minimizedAffinity>  (858) 
-8.65527

$$$$
cs_full_output_folder/data/smiles/6258.pdb
     RDKit          3D

 27 29  0  0  0  0  0  0  0  0999 V2000
   69.1686   49.4153   56.9313 C   0  0  0  0  0  0  0  0  0  0  0  0
   68.4468   50.1982   57.8160 C   0  0  0  0  0  0  0  0  0  0  0  0
   67.7699   51.3375   57.4336 C   0  0  0  0  0  0  0  0  0  0  0  0
   67.8207   51.7072   56.0979 C   0  0  0  0  0  0  0  0  0  0  0  0
   68.5439   50.9263   55.1990 C   0  0  0  0  0  0  0  0  0  0  0  0
   69.2147   49.7879   55.6055 C   0  0  0  0  0  0  0  0  0  0  0  0
   69.2465   46.9637   57.5760 N   0  0  0  0  0  0  0  0  0  0  0  0
   69.8746   48.2165   57.3578 C   0  0  0  0  0  0  0  0  0  0  0  0
   71.1183   48.3155   57.5410 O   0  0  0  0  0  0  0  0  0  0  0  0
   68.8697   44.5487   56.4812 O   0  0  0  0  0  0  0  0  0  0  0  0
   69.7711   44.5518   57.4022 C   0  0  0  0  0  0  0  0  0  0  0  0
   69.9871   45.8186   57.9947 N   0  0  0  0  0  0  0  0  0  0  0  0
   70.4321   43.3145   57.7130 C   0  0  0  0  0  0  0  0  0  0  0  0
   69.6478   42.1782   57.9191 C   0  0  0  0  0  0  0  0  0  0  0  0
   70.1734   40.9480   58.2156 C   0  0  0  0  0  0  0  0  0  0  0  0
   71.5370   40.7867   58.3219 C   0  0  0  0  0  0  0  0  0  0  0  0
   72.3352   41.8787   58.1259 C   0  0  0  0  0  0  0  0  0  0  0  0
   71.7785   43.1283   57.8238 C   0  0  0  0  0  0  0  0  0  0  0  0
   72.6081   44.1938   57.6396 F   0  0  0  0  0  0  0  0  0  0  0  0
   69.9619   48.9947   54.6383 C   0  0  0  0  0  0  0  0  0  0  0  0
   71.1916   49.1782   54.5246 O   0  0  0  0  0  0  0  0  0  0  0  0
   69.2955   47.9935   53.8059 C   0  0  0  0  0  0  0  0  0  0  0  0
   68.4022   47.1023   54.3509 C   0  0  0  0  0  0  0  0  0  0  0  0
   67.7662   46.1493   53.5631 C   0  0  0  0  0  0  0  0  0  0  0  0
   68.0887   46.1579   52.2126 C   0  0  0  0  0  0  0  0  0  0  0  0
   68.9806   47.0455   51.6643 C   0  0  0  0  0  0  0  0  0  0  0  0
   69.5904   47.9719   52.4662 C   0  0  0  0  0  0  0  0  0  0  0  0
 10 11  2  0
 11 12  1  0
 11 13  1  0
 12  7  1  0
  7  8  1  0
  8  9  2  0
  8  1  1  0
  1  2  2  0
  1  6  1  0
  2  3  1  0
  3  4  2  0
  4  5  1  0
  5  6  2  0
  6 20  1  0
 20 21  2  0
 20 22  1  0
 22 23  2  0
 22 27  1  0
 23 24  1  0
 24 25  2  0
 25 26  1  0
 26 27  2  0
 13 14  2  0
 13 18  1  0
 14 15  1  0
 15 16  2  0
 16 17  1  0
 17 18  2  0
 18 19  1  0
M  END
>  <minimizedAffinity>  (859) 
-8.65337

$$$$
cs_full_output_folder/data/smiles/3243.pdb
     RDKit          3D

 27 29  0  0  0  0  0  0  0  0999 V2000
   69.3083   48.0895   53.5295 C   0  0  0  0  0  0  0  0  0  0  0  0
   68.8133   47.7656   52.2873 C   0  0  0  0  0  0  0  0  0  0  0  0
   68.1810   46.5536   52.1202 C   0  0  0  0  0  0  0  0  0  0  0  0
   68.0481   45.6732   53.1999 C   0  0  0  0  0  0  0  0  0  0  0  0
   68.5367   45.9861   54.4424 C   0  0  0  0  0  0  0  0  0  0  0  0
   69.1663   47.1985   54.5957 C   0  0  0  0  0  0  0  0  0  0  0  0
   70.1101   49.6302   53.7373 S   0  0  0  0  0  0  0  0  0  0  0  0
   69.3881   50.6416   52.8953 O   0  0  0  0  0  0  0  0  0  0  0  0
   71.5704   49.5417   53.3471 O   0  0  0  0  0  0  0  0  0  0  0  0
   67.9496   49.2890   57.2297 C   0  0  0  0  0  0  0  0  0  0  0  0
   68.4878   50.6893   57.1375 C   0  0  1  0  0  0  0  0  0  0  0  0
   69.7366   50.8123   57.9829 C   0  0  0  0  0  0  0  0  0  0  0  0
   70.8508   51.4354   57.1438 C   0  0  0  0  0  0  0  0  0  0  0  0
   71.1848   50.5647   55.9524 C   0  0  0  0  0  0  0  0  0  0  0  0
   69.9775   50.0591   55.3929 N   0  0  0  0  0  0  0  0  0  0  0  0
   68.8768   50.9215   55.6736 C   0  0  0  0  0  0  0  0  0  0  0  0
   68.4187   45.1060   55.5827 C   0  0  0  0  0  0  0  0  0  0  0  0
   68.8951   45.4519   56.6941 O   0  0  0  0  0  0  0  0  0  0  0  0
   67.7850   43.8338   55.5530 N   0  0  0  0  0  0  0  0  0  0  0  0
   67.6923   43.0138   56.6846 N   0  0  0  0  0  0  0  0  0  0  0  0
   67.6206   41.6047   56.6487 C   0  0  0  0  0  0  0  0  0  0  0  0
   67.6400   41.0283   55.5358 O   0  0  0  0  0  0  0  0  0  0  0  0
   67.5235   40.7758   57.8547 C   0  0  0  0  0  0  0  0  0  0  0  0
   66.8688   41.0804   58.9497 C   0  0  0  0  0  0  0  0  0  0  0  0
   66.9959   40.0207   59.9319 C   0  0  0  0  0  0  0  0  0  0  0  0
   67.7399   39.0642   59.4175 C   0  0  0  0  0  0  0  0  0  0  0  0
   68.1377   39.4532   58.0667 C   0  0  0  0  0  0  0  0  0  0  0  0
 11 10  1  6
 11 12  1  0
 11 16  1  0
 12 13  1  0
 13 14  1  0
 14 15  1  0
 15  7  1  0
 15 16  1  0
  7  8  2  0
  7  9  2  0
  7  1  1  0
  1  2  2  0
  1  6  1  0
  2  3  1  0
  3  4  2  0
  4  5  1  0
  5 17  1  0
  5  6  2  0
 17 18  2  0
 17 19  1  0
 19 20  1  0
 20 21  1  0
 21 22  2  0
 21 23  1  0
 23 24  2  0
 23 27  1  0
 24 25  1  0
 25 26  2  0
 26 27  1  0
M  END
>  <minimizedAffinity>  (860) 
-8.65270

$$$$
cs_full_output_folder/data/smiles/3903.pdb
     RDKit          3D

 24 26  0  0  0  0  0  0  0  0999 V2000
   70.5968   46.3085   58.3621 C   0  0  0  0  0  0  0  0  0  0  0  0
   71.8591   46.7291   58.7378 C   0  0  0  0  0  0  0  0  0  0  0  0
   72.3208   47.9413   58.2795 C   0  0  0  0  0  0  0  0  0  0  0  0
   71.5448   48.7275   57.4603 C   0  0  0  0  0  0  0  0  0  0  0  0
   70.2546   48.3357   57.0547 C   0  0  0  0  0  0  0  0  0  0  0  0
   69.8176   47.1278   57.5229 C   0  0  0  0  0  0  0  0  0  0  0  0
   70.0927   45.0571   58.8109 N   0  0  0  0  0  0  0  0  0  0  0  0
   70.7190   42.7097   59.1602 C   0  0  0  0  0  0  0  0  0  0  0  0
   70.4155   43.8006   58.1787 C   0  0  1  0  0  0  0  0  0  0  0  0
   69.3478   43.3617   57.2132 C   0  0  0  0  0  0  0  0  0  0  0  0
   68.6944   42.2275   57.3592 C   0  0  0  0  0  0  0  0  0  0  0  0
   67.3576   41.7350   56.1013 Br  0  0  0  0  0  0  0  0  0  0  0  0
   69.4750   49.2285   56.1543 C   0  0  0  0  0  0  0  0  0  0  0  0
   69.7198   48.8072   54.7754 C   0  0  0  0  0  0  0  0  0  0  0  0
   70.7714   49.3412   54.0963 N   0  0  0  0  0  0  0  0  0  0  0  0
   71.0454   49.0660   52.8385 N   0  0  0  0  0  0  0  0  0  0  0  0
   70.2559   48.2124   52.1663 C   0  0  0  0  0  0  0  0  0  0  0  0
   70.4689   47.9096   50.9577 O   0  0  0  0  0  0  0  0  0  0  0  0
   69.1744   47.6250   52.7681 C   0  0  0  0  0  0  0  0  0  0  0  0
   68.9266   47.9502   54.1118 C   0  0  0  0  0  0  0  0  0  0  0  0
   67.7888   47.2667   54.7402 C   0  0  0  0  0  0  0  0  0  0  0  0
   68.0284   45.7651   54.4457 C   0  0  0  0  0  0  0  0  0  0  0  0
   68.1411   45.4633   53.0001 C   0  0  0  0  0  0  0  0  0  0  0  0
   68.2383   46.6865   52.1258 C   0  0  0  0  0  0  0  0  0  0  0  0
  9  8  1  1
  9 10  1  0
  9  7  1  0
 10 11  2  0
 11 12  1  0
  7  1  1  0
  1  2  2  0
  1  6  1  0
  2  3  1  0
  3  4  2  0
  4  5  1  0
  5 13  1  0
  5  6  2  0
 13 14  1  0
 14 15  2  0
 14 20  1  0
 15 16  1  0
 16 17  1  0
 17 18  2  0
 17 19  1  0
 19 20  2  0
 19 24  1  0
 20 21  1  0
 21 22  1  0
 22 23  1  0
 23 24  1  0
M  END
>  <minimizedAffinity>  (861) 
-8.65268

$$$$
cs_full_output_folder/data/smiles/5151.pdb
     RDKit          3D

 27 30  0  0  0  0  0  0  0  0999 V2000
   70.7822   49.2423   58.2660 C   0  0  0  0  0  0  0  0  0  0  0  0
   70.4316   48.3664   57.2632 C   0  0  0  0  0  0  0  0  0  0  0  0
   69.2357   48.4306   56.5876 C   0  0  0  0  0  0  0  0  0  0  0  0
   68.3673   49.4605   56.9815 C   0  0  0  0  0  0  0  0  0  0  0  0
   68.7115   50.3413   57.9851 C   0  0  0  0  0  0  0  0  0  0  0  0
   69.9142   50.2463   58.6367 C   0  0  0  0  0  0  0  0  0  0  0  0
   70.2886   51.0936   59.6276 F   0  0  0  0  0  0  0  0  0  0  0  0
   68.8239   47.5544   55.5121 C   0  0  0  0  0  0  0  0  0  0  0  0
   68.0278   46.4752   55.7903 N   0  0  0  0  0  0  0  0  0  0  0  0
   67.6095   45.6398   54.8714 N   0  0  0  0  0  0  0  0  0  0  0  0
   67.9270   45.7741   53.5691 C   0  0  0  0  0  0  0  0  0  0  0  0
   68.7320   46.8615   53.2544 C   0  0  0  0  0  0  0  0  0  0  0  0
   69.0667   47.0421   51.9341 C   0  0  0  0  0  0  0  0  0  0  0  0
   69.8545   48.1185   51.5663 C   0  0  0  0  0  0  0  0  0  0  0  0
   70.2985   49.0064   52.5400 C   0  0  0  0  0  0  0  0  0  0  0  0
   69.9744   48.8444   53.8720 C   0  0  0  0  0  0  0  0  0  0  0  0
   69.1886   47.7644   54.2216 C   0  0  0  0  0  0  0  0  0  0  0  0
   67.4785   44.8740   52.5618 N   0  0  0  0  0  0  0  0  0  0  0  0
   66.8899   45.4929   51.0286 Cl  0  0  0  0  0  0  0  0  0  0  0  0
   71.4225   47.4309   60.3258 O   0  0  0  0  0  0  0  0  0  0  0  0
   72.2860   48.2950   60.0461 C   0  0  0  0  0  0  0  0  0  0  0  0
   73.4995   48.3563   60.8917 C   0  0  0  0  0  0  0  0  0  0  0  0
   74.3157   49.5973   60.6030 C   0  0  0  0  0  0  0  0  0  0  0  0
   74.4274   49.7933   59.1008 C   0  0  0  0  0  0  0  0  0  0  0  0
   73.0950   49.9686   58.4767 C   0  0  0  0  0  0  0  0  0  0  0  0
   72.8910   50.8062   57.5656 O   0  0  0  0  0  0  0  0  0  0  0  0
   72.0402   49.1453   58.9502 N   0  0  0  0  0  0  0  0  0  0  0  0
 20 21  2  0
 21 22  1  0
 21 27  1  0
 22 23  1  0
 23 24  1  0
 24 25  1  0
 25 26  2  0
 25 27  1  0
 27  1  1  0
  1  2  2  0
  1  6  1  0
  2  3  1  0
  3  8  1  0
  3  4  2  0
  8  9  2  0
  8 17  1  0
  9 10  1  0
 10 11  2  0
 11 18  1  0
 11 12  1  0
 18 19  1  0
 12 13  1  0
 12 17  2  0
 13 14  2  0
 14 15  1  0
 15 16  2  0
 16 17  1  0
  4  5  1  0
  5  6  2  0
  6  7  1  0
M  END
>  <minimizedAffinity>  (862) 
-8.65261

$$$$
cs_full_output_folder/data/smiles/9601.pdb
     RDKit          3D

 27 30  0  0  0  0  0  0  0  0999 V2000
   75.2297   35.0508   53.7981 C   0  0  0  0  0  0  0  0  0  0  0  0
   76.3902   35.7270   53.5140 C   0  0  0  0  0  0  0  0  0  0  0  0
   76.9656   35.7195   52.2315 C   0  0  0  0  0  0  0  0  0  0  0  0
   76.3655   35.0218   51.2078 C   0  0  0  0  0  0  0  0  0  0  0  0
   75.1925   34.3382   51.4914 C   0  0  0  0  0  0  0  0  0  0  0  0
   74.6404   34.3568   52.7640 C   0  0  0  0  0  0  0  0  0  0  0  0
   74.5675   33.6418   50.5294 N   0  0  0  0  0  0  0  0  0  0  0  0
   75.0809   33.6056   49.2819 C   0  0  0  0  0  0  0  0  0  0  0  0
   74.4563   32.9379   48.4146 O   0  0  0  0  0  0  0  0  0  0  0  0
   76.2413   34.2682   48.9571 C   0  0  0  0  0  0  0  0  0  0  0  0
   76.7643   34.2302   47.6815 C   0  0  0  0  0  0  0  0  0  0  0  0
   77.9241   34.8934   47.3606 C   0  0  0  0  0  0  0  0  0  0  0  0
   78.5677   35.6114   48.3533 C   0  0  0  0  0  0  0  0  0  0  0  0
   78.0786   35.6719   49.6319 C   0  0  0  0  0  0  0  0  0  0  0  0
   76.9222   35.0067   49.9373 C   0  0  0  0  0  0  0  0  0  0  0  0
   72.6546   35.8903   54.4268 O   0  0  0  0  0  0  0  0  0  0  0  0
   73.3756   35.5078   55.4076 C   0  0  0  0  0  0  0  0  0  0  0  0
   74.6773   35.0808   55.1087 N   0  0  0  0  0  0  0  0  0  0  0  0
   72.7731   35.5550   56.7277 C   0  0  0  0  0  0  0  0  0  0  0  0
   72.6600   34.4125   57.4863 C   0  0  0  0  0  0  0  0  0  0  0  0
   72.0810   34.4457   58.7604 C   0  0  0  0  0  0  0  0  0  0  0  0
   71.6111   35.6117   59.2868 C   0  0  0  0  0  0  0  0  0  0  0  0
   71.7175   36.7711   58.5358 C   0  0  0  0  0  0  0  0  0  0  0  0
   72.2880   36.7131   57.2911 C   0  0  0  0  0  0  0  0  0  0  0  0
   71.0174   35.6903   60.5726 N   0  0  0  0  0  0  0  0  0  0  0  0
   71.7210   35.5513   61.5822 O   0  0  0  0  0  0  0  0  0  0  0  0
   69.6786   35.9179   60.7291 O   0  0  0  0  0  0  0  0  0  0  0  0
 16 17  2  0
 17 18  1  0
 17 19  1  0
 18  1  1  0
  1  2  2  0
  1  6  1  0
  2  3  1  0
  3  4  2  0
  4  5  1  0
  4 15  1  0
  5  6  2  0
  5  7  1  0
  7  8  1  0
  8  9  2  0
  8 10  1  0
 10 11  1  0
 10 15  2  0
 11 12  2  0
 12 13  1  0
 13 14  2  0
 14 15  1  0
 19 20  2  0
 19 24  1  0
 20 21  1  0
 21 22  2  0
 22 25  1  0
 22 23  1  0
 25 26  2  0
 25 27  1  0
 23 24  2  0
M  CHG  2  25   1  27  -1
M  END
>  <minimizedAffinity>  (863) 
-8.65034

$$$$
cs_full_output_folder/data/smiles/7628.pdb
     RDKit          3D

 28 32  0  0  0  0  0  0  0  0999 V2000
   71.8389   47.8106   58.7997 C   0  0  0  0  0  0  0  0  0  0  0  0
   70.6866   47.8199   58.0590 C   0  0  0  0  0  0  0  0  0  0  0  0
   70.5036   48.8157   57.1193 C   0  0  0  0  0  0  0  0  0  0  0  0
   71.4891   49.7459   56.9737 C   0  0  0  0  0  0  0  0  0  0  0  0
   72.6677   49.7533   57.7165 C   0  0  0  0  0  0  0  0  0  0  0  0
   72.8435   48.7586   58.6534 C   0  0  0  0  0  0  0  0  0  0  0  0
   73.9677   48.7061   59.4118 F   0  0  0  0  0  0  0  0  0  0  0  0
   71.7155   46.9700   61.0107 O   0  0  0  0  0  0  0  0  0  0  0  0
   72.0674   46.7794   59.8032 C   0  0  0  0  0  0  0  0  0  0  0  0
   72.6892   45.5242   59.4697 N   0  0  0  0  0  0  0  0  0  0  0  0
   73.1239   45.2145   58.1282 C   0  0  0  0  0  0  0  0  0  0  0  0
   74.1020   44.0804   58.2718 C   0  0  2  0  0  0  0  0  0  0  0  0
   73.5790   42.7858   57.6616 C   0  0  0  0  0  0  0  0  0  0  0  0
   73.0934   42.3905   58.9560 N   0  0  0  0  0  0  0  0  0  0  0  0
   73.8243   43.4681   59.6107 C   0  0  2  0  0  0  0  0  0  0  0  0
   72.9665   44.4234   60.3567 C   0  0  0  0  0  0  0  0  0  0  0  0
   69.3031   48.8709   56.2621 C   0  0  0  0  0  0  0  0  0  0  0  0
   69.5336   48.7637   54.8286 C   0  0  0  0  0  0  0  0  0  0  0  0
   70.3447   49.6667   54.2281 N   0  0  0  0  0  0  0  0  0  0  0  0
   70.6716   49.6752   52.9722 N   0  0  0  0  0  0  0  0  0  0  0  0
   70.1831   48.7128   52.1438 C   0  0  0  0  0  0  0  0  0  0  0  0
   70.5133   48.7362   50.9256 O   0  0  0  0  0  0  0  0  0  0  0  0
   69.3482   47.7599   52.6883 C   0  0  0  0  0  0  0  0  0  0  0  0
   68.8257   46.7708   51.8645 C   0  0  0  0  0  0  0  0  0  0  0  0
   67.9930   45.8265   52.3734 C   0  0  0  0  0  0  0  0  0  0  0  0
   67.6504   45.8287   53.7064 C   0  0  0  0  0  0  0  0  0  0  0  0
   68.1601   46.8016   54.5399 C   0  0  0  0  0  0  0  0  0  0  0  0
   69.0134   47.7739   54.0394 C   0  0  0  0  0  0  0  0  0  0  0  0
  8  9  2  0
  9  1  1  0
  9 10  1  0
  1  2  2  0
  1  6  1  0
  2  3  1  0
  3 17  1  0
  3  4  2  0
 17 18  1  0
 18 19  2  0
 18 28  1  0
 19 20  1  0
 20 21  1  0
 21 22  2  0
 21 23  1  0
 23 24  1  0
 23 28  2  0
 24 25  2  0
 25 26  1  0
 26 27  2  0
 27 28  1  0
  4  5  1  0
  5  6  2  0
  6  7  1  0
 10 11  1  0
 10 16  1  0
 12 11  1  6
 12 13  1  0
 12 15  1  0
 13 14  1  0
 14 15  1  0
 15 16  1  1
M  CHG  1  14   1
M  END
>  <minimizedAffinity>  (864) 
-8.64907

$$$$
cs_full_output_folder/data/smiles/3205.pdb
     RDKit          3D

 23 24  0  0  0  0  0  0  0  0999 V2000
   69.4982   47.9259   55.0609 N   0  0  0  0  0  0  0  0  0  0  0  0
   69.0063   47.7052   52.7298 C   0  0  0  0  0  0  0  0  0  0  0  0
   68.4229   47.0338   51.6616 C   0  0  0  0  0  0  0  0  0  0  0  0
   67.6788   45.8880   51.8322 C   0  0  0  0  0  0  0  0  0  0  0  0
   67.1043   45.2239   50.7919 F   0  0  0  0  0  0  0  0  0  0  0  0
   67.5316   45.4213   53.1218 C   0  0  0  0  0  0  0  0  0  0  0  0
   68.1001   46.0671   54.2003 C   0  0  0  0  0  0  0  0  0  0  0  0
   68.8485   47.2211   54.0254 C   0  0  0  0  0  0  0  0  0  0  0  0
   69.2189   50.4505   53.3078 N   0  0  0  0  0  0  0  0  0  0  0  0
   69.9287   49.1387   52.4539 S   0  0  0  0  0  0  0  0  0  0  0  0
   71.3570   48.9752   52.9282 O   0  0  0  0  0  0  0  0  0  0  0  0
   70.0054   49.4254   50.9811 O   0  0  0  0  0  0  0  0  0  0  0  0
   69.1199   47.8313   56.7257 S   0  0  0  0  0  0  0  0  0  0  0  0
   69.1485   49.2311   57.3024 O   0  0  0  0  0  0  0  0  0  0  0  0
   67.6789   47.3610   56.8608 O   0  0  0  0  0  0  0  0  0  0  0  0
   70.1301   46.7570   57.6424 C   0  0  0  0  0  0  0  0  0  0  0  0
   71.0133   47.2781   58.6051 C   0  0  0  0  0  0  0  0  0  0  0  0
   71.8167   46.4641   59.3597 C   0  0  0  0  0  0  0  0  0  0  0  0
   71.8150   45.0964   59.2289 C   0  0  0  0  0  0  0  0  0  0  0  0
   70.9579   44.5705   58.2924 C   0  0  0  0  0  0  0  0  0  0  0  0
   70.9067   43.2281   58.1134 F   0  0  0  0  0  0  0  0  0  0  0  0
   70.1299   45.3980   57.5129 C   0  0  0  0  0  0  0  0  0  0  0  0
   69.3273   44.8128   56.6047 F   0  0  0  0  0  0  0  0  0  0  0  0
  9 10  1  0
 10 11  2  0
 10 12  2  0
 10  2  1  0
  2  3  2  0
  2  8  1  0
  3  4  1  0
  4  5  1  0
  4  6  2  0
  6  7  1  0
  7  8  2  0
  8  1  1  0
  1 13  1  0
 13 14  2  0
 13 15  2  0
 13 16  1  0
 16 17  2  0
 16 22  1  0
 17 18  1  0
 18 19  2  0
 19 20  1  0
 20 21  1  0
 20 22  2  0
 22 23  1  0
M  END
>  <minimizedAffinity>  (865) 
-8.64756

$$$$
cs_full_output_folder/data/smiles/5531.pdb
     RDKit          3D

 28 31  0  0  0  0  0  0  0  0999 V2000
   71.6420   47.1419   59.0359 C   0  0  0  0  0  0  0  0  0  0  0  0
   70.6825   47.7312   58.2646 C   0  0  0  0  0  0  0  0  0  0  0  0
   69.8560   46.9921   57.4182 C   0  0  0  0  0  0  0  0  0  0  0  0
   70.0180   45.6327   57.3669 C   0  0  0  0  0  0  0  0  0  0  0  0
   70.9795   45.0365   58.1402 C   0  0  0  0  0  0  0  0  0  0  0  0
   71.8018   45.7841   58.9833 C   0  0  0  0  0  0  0  0  0  0  0  0
   72.7501   45.1982   59.7453 F   0  0  0  0  0  0  0  0  0  0  0  0
   73.2411   52.5705   58.2500 C   0  0  0  0  0  0  0  0  0  0  0  0
   73.4195   51.2007   58.5834 N   0  0  0  0  0  0  0  0  0  0  0  0
   73.4315   50.3123   57.4535 C   0  0  0  0  0  0  0  0  0  0  0  0
   73.6531   48.8925   57.9511 C   0  0  0  0  0  0  0  0  0  0  0  0
   73.4537   48.8434   59.3684 N   0  0  0  0  0  0  0  0  0  0  0  0
   72.4773   47.9953   59.9065 C   0  0  0  0  0  0  0  0  0  0  0  0
   72.2360   47.8907   61.1458 O   0  0  0  0  0  0  0  0  0  0  0  0
   74.2667   49.6720   60.2037 C   0  0  0  0  0  0  0  0  0  0  0  0
   74.5843   50.9342   59.3883 C   0  0  0  0  0  0  0  0  0  0  0  0
   68.8511   47.7190   56.5928 C   0  0  0  0  0  0  0  0  0  0  0  0
   69.2948   47.9934   55.2071 C   0  0  0  0  0  0  0  0  0  0  0  0
   70.2348   48.9703   55.0350 N   0  0  0  0  0  0  0  0  0  0  0  0
   70.7125   49.3149   53.8802 N   0  0  0  0  0  0  0  0  0  0  0  0
   70.2862   48.7035   52.7758 C   0  0  0  0  0  0  0  0  0  0  0  0
   70.7296   49.0118   51.6323 O   0  0  0  0  0  0  0  0  0  0  0  0
   69.3211   47.6872   52.8669 C   0  0  0  0  0  0  0  0  0  0  0  0
   68.8312   47.3419   54.0967 C   0  0  0  0  0  0  0  0  0  0  0  0
   67.8102   46.2768   54.2888 C   0  0  0  0  0  0  0  0  0  0  0  0
   67.7654   45.3595   53.0767 C   0  0  0  0  0  0  0  0  0  0  0  0
   67.7011   46.1928   51.8089 C   0  0  0  0  0  0  0  0  0  0  0  0
   68.8989   47.0357   51.6242 C   0  0  0  0  0  0  0  0  0  0  0  0
  8  9  1  0
  9 10  1  0
  9 16  1  0
 10 11  1  0
 11 12  1  0
 12 13  1  0
 12 15  1  0
 13 14  2  0
 13  1  1  0
  1  2  2  0
  1  6  1  0
  2  3  1  0
  3 17  1  0
  3  4  2  0
 17 18  1  0
 18 19  2  0
 18 24  1  0
 19 20  1  0
 20 21  1  0
 21 22  2  0
 21 23  1  0
 23 24  2  0
 23 28  1  0
 24 25  1  0
 25 26  1  0
 26 27  1  0
 27 28  1  0
  4  5  1  0
  5  6  2  0
  6  7  1  0
 15 16  1  0
M  CHG  1   9   1
M  END
>  <minimizedAffinity>  (866) 
-8.64449

$$$$
cs_full_output_folder/data/smiles/3642.pdb
     RDKit          3D

 28 31  0  0  0  0  0  0  0  0999 V2000
   71.8177   37.0987   58.1336 C   0  0  0  0  0  0  0  0  0  0  0  0
   72.4484   36.8384   56.9453 N   0  0  0  0  0  0  0  0  0  0  0  0
   72.7872   35.6366   56.5378 N   0  0  0  0  0  0  0  0  0  0  0  0
   72.4960   34.5940   57.3419 C   0  0  0  0  0  0  0  0  0  0  0  0
   72.8024   33.4322   56.9858 O   0  0  0  0  0  0  0  0  0  0  0  0
   71.8642   34.7794   58.5556 C   0  0  0  0  0  0  0  0  0  0  0  0
   71.5824   33.7337   59.4078 C   0  0  0  0  0  0  0  0  0  0  0  0
   70.9779   33.9273   60.6333 C   0  0  0  0  0  0  0  0  0  0  0  0
   70.6327   35.1922   61.0515 C   0  0  0  0  0  0  0  0  0  0  0  0
   70.9088   36.2516   60.2061 C   0  0  0  0  0  0  0  0  0  0  0  0
   71.5150   36.0532   58.9688 C   0  0  0  0  0  0  0  0  0  0  0  0
   73.4515   35.4290   55.2767 C   0  0  0  0  0  0  0  0  0  0  0  0
   72.7266   35.4595   54.1070 C   0  0  0  0  0  0  0  0  0  0  0  0
   73.3355   35.2645   52.8775 C   0  0  0  0  0  0  0  0  0  0  0  0
   74.6904   35.0329   52.7808 C   0  0  0  0  0  0  0  0  0  0  0  0
   75.4205   35.0011   53.9475 C   0  0  0  0  0  0  0  0  0  0  0  0
   74.8078   35.1980   55.1920 C   0  0  0  0  0  0  0  0  0  0  0  0
   72.5207   39.1703   58.8624 O   0  0  0  0  0  0  0  0  0  0  0  0
   71.5187   38.4872   58.4416 C   0  0  0  0  0  0  0  0  0  0  0  0
   70.3140   39.1666   58.3351 N   0  0  0  0  0  0  0  0  0  0  0  0
   70.0741   40.5680   58.6763 C   0  0  0  0  0  0  0  0  0  0  0  0
   69.1626   41.2034   57.7047 C   0  0  0  0  0  0  0  0  0  0  0  0
   68.1130   40.5652   57.1030 C   0  0  0  0  0  0  0  0  0  0  0  0
   67.2719   41.2109   56.1920 C   0  0  0  0  0  0  0  0  0  0  0  0
   67.4923   42.5349   55.8772 C   0  0  0  0  0  0  0  0  0  0  0  0
   68.5379   43.1896   56.4707 C   0  0  0  0  0  0  0  0  0  0  0  0
   68.7597   44.4810   56.1695 F   0  0  0  0  0  0  0  0  0  0  0  0
   69.3552   42.5458   57.3614 C   0  0  0  0  0  0  0  0  0  0  0  0
 18 19  2  0
 19 20  1  0
 19  1  1  0
 20 21  1  0
 21 22  1  0
 22 23  2  0
 22 28  1  0
 23 24  1  0
 24 25  2  0
 25 26  1  0
 26 27  1  0
 26 28  2  0
  1  2  2  0
  1 11  1  0
  2  3  1  0
  3 12  1  0
  3  4  1  0
 12 13  2  0
 12 17  1  0
 13 14  1  0
 14 15  2  0
 15 16  1  0
 16 17  2  0
  4  5  2  0
  4  6  1  0
  6  7  1  0
  6 11  2  0
  7  8  2  0
  8  9  1  0
  9 10  2  0
 10 11  1  0
M  END
>  <minimizedAffinity>  (867) 
-8.64416

$$$$
cs_full_output_folder/data/smiles/6912.pdb
     RDKit          3D

 28 32  0  0  0  0  0  0  0  0999 V2000
   70.7847   49.7248   58.0597 N   0  0  0  0  0  0  0  0  0  0  0  0
   70.1334   48.5594   57.5159 C   0  0  0  0  0  0  0  0  0  0  0  0
   68.9150   48.6297   56.9888 C   0  0  0  0  0  0  0  0  0  0  0  0
   68.2838   49.9628   56.9872 C   0  0  0  0  0  0  0  0  0  0  0  0
   68.5468   50.7574   58.2381 C   0  0  0  0  0  0  0  0  0  0  0  0
   69.9400   50.6482   58.7742 C   0  0  0  0  0  0  0  0  0  0  0  0
   72.2015   49.8469   57.8435 C   0  0  0  0  0  0  0  0  0  0  0  0
   73.5192   52.5792   53.3076 O   0  0  0  0  0  0  0  0  0  0  0  0
   73.2186   51.9564   54.3542 C   0  0  0  0  0  0  0  0  0  0  0  0
   72.9376   50.6481   54.3349 N   0  0  0  0  0  0  0  0  0  0  0  0
   72.6164   49.9614   55.4347 N   0  0  0  0  0  0  0  0  0  0  0  0
   72.5630   50.5856   56.6303 C   0  0  0  0  0  0  0  0  0  0  0  0
   72.8455   51.9259   56.6861 C   0  0  0  0  0  0  0  0  0  0  0  0
   73.1796   52.6544   55.5628 C   0  0  0  0  0  0  0  0  0  0  0  0
   73.4942   54.1003   55.5420 C   0  0  0  0  0  0  0  0  0  0  0  0
   73.2488   54.7294   56.8959 C   0  0  0  0  0  0  0  0  0  0  0  0
   73.7836   53.7686   57.9278 C   0  0  0  0  0  0  0  0  0  0  0  0
   72.7968   52.6088   57.9917 C   0  0  0  0  0  0  0  0  0  0  0  0
   68.2957   47.4646   56.4628 N   0  0  0  0  0  0  0  0  0  0  0  0
   68.5193   47.2382   55.0734 C   0  0  0  0  0  0  0  0  0  0  0  0
   67.9113   46.1934   54.4115 C   0  0  0  0  0  0  0  0  0  0  0  0
   68.1401   46.0039   53.0417 C   0  0  0  0  0  0  0  0  0  0  0  0
   68.9688   46.8456   52.3241 C   0  0  0  0  0  0  0  0  0  0  0  0
   69.3650   46.9163   51.0406 N   0  0  0  0  0  0  0  0  0  0  0  0
   70.1833   47.9372   50.8461 N   0  0  0  0  0  0  0  0  0  0  0  0
   70.3213   48.5444   52.0381 C   0  0  0  0  0  0  0  0  0  0  0  0
   69.5756   47.8884   52.9899 C   0  0  0  0  0  0  0  0  0  0  0  0
   69.3451   48.0662   54.3322 C   0  0  0  0  0  0  0  0  0  0  0  0
  8  9  2  0
  9 10  1  0
  9 14  1  0
 10 11  1  0
 11 12  2  0
 12  7  1  0
 12 13  1  0
  7  1  1  0
  1  2  1  0
  1  6  1  0
  2  3  2  0
  3 19  1  0
  3  4  1  0
 19 20  1  0
 20 21  2  0
 20 28  1  0
 21 22  1  0
 22 23  2  0
 23 24  1  0
 23 27  1  0
 24 25  1  0
 25 26  2  0
 26 27  1  0
 27 28  2  0
  4  5  1  0
  5  6  1  0
 13 14  2  0
 13 18  1  0
 14 15  1  0
 15 16  1  0
 16 17  1  0
 17 18  1  0
M  END
>  <minimizedAffinity>  (868) 
-8.64326

$$$$
cs_full_output_folder/data/smiles/3636.pdb
     RDKit          3D

 29 32  0  0  0  0  0  0  0  0999 V2000
   73.4449   35.3608   56.1282 N   0  0  0  0  0  0  0  0  0  0  0  0
   73.0395   35.2552   54.8565 C   0  0  0  0  0  0  0  0  0  0  0  0
   74.0830   34.9258   54.0269 C   0  0  0  0  0  0  0  0  0  0  0  0
   75.1955   34.8260   54.8611 C   0  0  0  0  0  0  0  0  0  0  0  0
   76.5115   34.5267   54.5844 C   0  0  0  0  0  0  0  0  0  0  0  0
   77.4223   34.5027   55.6216 C   0  0  0  0  0  0  0  0  0  0  0  0
   76.9971   34.7767   56.9040 C   0  0  0  0  0  0  0  0  0  0  0  0
   75.6922   35.0768   57.2042 C   0  0  0  0  0  0  0  0  0  0  0  0
   74.7691   35.1012   56.1541 C   0  0  0  0  0  0  0  0  0  0  0  0
   70.9982   36.3666   59.4390 C   0  0  0  0  0  0  0  0  0  0  0  0
   71.4186   37.3295   58.5352 C   0  0  0  0  0  0  0  0  0  0  0  0
   72.2210   36.9741   57.4671 C   0  0  0  0  0  0  0  0  0  0  0  0
   72.6421   35.6753   57.2384 C   0  0  0  0  0  0  0  0  0  0  0  0
   72.2317   34.7042   58.1316 C   0  0  0  0  0  0  0  0  0  0  0  0
   71.4361   35.0659   59.1883 C   0  0  0  0  0  0  0  0  0  0  0  0
   68.8336   37.1721   60.3375 N   0  0  0  0  0  0  0  0  0  0  0  0
   70.1249   36.6496   60.5663 C   0  0  0  0  0  0  0  0  0  0  0  0
   70.5197   36.4307   61.7197 O   0  0  0  0  0  0  0  0  0  0  0  0
   74.0093   34.7262   52.5908 C   0  0  0  0  0  0  0  0  0  0  0  0
   73.0547   35.3019   51.9872 O   0  0  0  0  0  0  0  0  0  0  0  0
   74.9462   33.9293   51.9011 N   0  0  0  0  0  0  0  0  0  0  0  0
   74.9519   33.6853   50.4974 C   0  0  0  0  0  0  0  0  0  0  0  0
   76.0555   34.3612   49.8068 C   0  0  0  0  0  0  0  0  0  0  0  0
   76.9795   35.0934   50.4932 C   0  0  0  0  0  0  0  0  0  0  0  0
   77.9974   35.7161   49.8147 C   0  0  0  0  0  0  0  0  0  0  0  0
   78.1370   35.6370   48.4523 C   0  0  0  0  0  0  0  0  0  0  0  0
   77.2029   34.8989   47.7667 C   0  0  0  0  0  0  0  0  0  0  0  0
   77.2627   34.7698   46.4187 F   0  0  0  0  0  0  0  0  0  0  0  0
   76.1575   34.2551   48.4274 C   0  0  0  0  0  0  0  0  0  0  0  0
 16 17  1  0
 17 18  2  0
 17 10  1  0
 10 11  2  0
 10 15  1  0
 11 12  1  0
 12 13  2  0
 13  1  1  0
 13 14  1  0
  1  2  1  0
  1  9  1  0
  2  3  2  0
  3 19  1  0
  3  4  1  0
 19 20  2  0
 19 21  1  0
 21 22  1  0
 22 23  1  0
 23 24  2  0
 23 29  1  0
 24 25  1  0
 25 26  2  0
 26 27  1  0
 27 28  1  0
 27 29  2  0
  4  5  1  0
  4  9  2  0
  5  6  2  0
  6  7  1  0
  7  8  2  0
  8  9  1  0
 14 15  2  0
M  END
>  <minimizedAffinity>  (869) 
-8.64292

$$$$
cs_full_output_folder/data/smiles/4731.pdb
     RDKit          3D

 27 30  0  0  0  0  0  0  0  0999 V2000
   72.3471   46.4777   59.0294 C   0  0  0  0  0  0  0  0  0  0  0  0
   71.4847   45.5910   58.4216 C   0  0  0  0  0  0  0  0  0  0  0  0
   70.3441   46.0542   57.7710 C   0  0  0  0  0  0  0  0  0  0  0  0
   70.0290   47.3853   57.7059 C   0  0  0  0  0  0  0  0  0  0  0  0
   70.9327   48.2457   58.3373 C   0  0  0  0  0  0  0  0  0  0  0  0
   72.0300   47.7827   58.9599 N   0  0  0  0  0  0  0  0  0  0  0  0
   73.5280   46.0346   59.7047 N   0  0  0  0  0  0  0  0  0  0  0  0
   74.7740   46.8562   57.8941 N   0  0  0  0  0  0  0  0  0  0  0  0
   74.8367   46.1286   59.1469 C   0  0  2  0  0  0  0  0  0  0  0  0
   75.4328   44.8056   58.8359 C   0  0  0  0  0  0  0  0  0  0  0  0
   74.6167   43.7853   58.4038 C   0  0  0  0  0  0  0  0  0  0  0  0
   75.1196   42.5389   58.1011 C   0  0  0  0  0  0  0  0  0  0  0  0
   76.4682   42.2920   58.2290 C   0  0  0  0  0  0  0  0  0  0  0  0
   77.2677   43.3292   58.6633 C   0  0  0  0  0  0  0  0  0  0  0  0
   76.7807   44.5791   58.9692 C   0  0  0  0  0  0  0  0  0  0  0  0
   68.8285   47.8986   57.0247 C   0  0  0  0  0  0  0  0  0  0  0  0
   68.6072   47.2024   55.7644 C   0  0  0  0  0  0  0  0  0  0  0  0
   67.9926   45.9843   55.8306 N   0  0  0  0  0  0  0  0  0  0  0  0
   67.7457   45.2622   54.7610 N   0  0  0  0  0  0  0  0  0  0  0  0
   68.1018   45.7194   53.5563 C   0  0  0  0  0  0  0  0  0  0  0  0
   67.8804   45.0523   52.4969 O   0  0  0  0  0  0  0  0  0  0  0  0
   68.7365   46.9504   53.3737 C   0  0  0  0  0  0  0  0  0  0  0  0
   68.9719   47.6795   54.5480 C   0  0  0  0  0  0  0  0  0  0  0  0
   69.5485   49.0105   54.4017 C   0  0  0  0  0  0  0  0  0  0  0  0
   70.2454   49.3176   53.1244 C   0  0  0  0  0  0  0  0  0  0  0  0
   69.9148   48.4808   51.9598 C   0  0  0  0  0  0  0  0  0  0  0  0
   69.2177   47.3823   52.0883 C   0  0  0  0  0  0  0  0  0  0  0  0
  9  8  1  6
  9  7  1  0
  9 10  1  0
  7  1  1  0
  1  2  2  0
  1  6  1  0
  2  3  1  0
  3  4  2  0
  4 16  1  0
  4  5  1  0
 16 17  1  0
 17 18  2  0
 17 23  1  0
 18 19  1  0
 19 20  1  0
 20 21  2  0
 20 22  1  0
 22 23  2  0
 22 27  1  0
 23 24  1  0
 24 25  1  0
 25 26  1  0
 26 27  2  0
  5  6  2  0
 10 11  2  0
 10 15  1  0
 11 12  1  0
 12 13  2  0
 13 14  1  0
 14 15  2  0
M  CHG  1   8   1
M  END
>  <minimizedAffinity>  (870) 
-8.64268

$$$$
cs_full_output_folder/data/smiles/3242.pdb
     RDKit          3D

 27 30  0  0  0  0  0  0  0  0999 V2000
   71.5365   47.2059   58.7286 C   0  0  0  0  0  0  0  0  0  0  0  0
   71.5788   45.8388   58.6095 C   0  0  0  0  0  0  0  0  0  0  0  0
   70.6644   45.1738   57.7925 C   0  0  0  0  0  0  0  0  0  0  0  0
   69.7268   45.9047   57.1117 C   0  0  0  0  0  0  0  0  0  0  0  0
   69.6385   47.3067   57.1977 C   0  0  0  0  0  0  0  0  0  0  0  0
   70.5588   47.8864   58.0104 C   0  0  0  0  0  0  0  0  0  0  0  0
   72.1145   47.9107   60.8341 O   0  0  0  0  0  0  0  0  0  0  0  0
   72.4731   47.8979   59.6059 C   0  0  0  0  0  0  0  0  0  0  0  0
   73.6670   48.5130   59.2288 N   0  0  0  0  0  0  0  0  0  0  0  0
   74.4703   49.1643   60.2795 C   0  0  0  0  0  0  0  0  0  0  0  0
   75.7476   48.4119   60.2694 C   0  0  0  0  0  0  0  0  0  0  0  0
   76.3198   48.2015   59.1020 C   0  0  0  0  0  0  0  0  0  0  0  0
   77.5076   47.5123   58.9872 F   0  0  0  0  0  0  0  0  0  0  0  0
   75.7136   48.7077   57.8470 C   0  0  0  0  0  0  0  0  0  0  0  0
   74.2184   48.5788   57.8979 C   0  0  0  0  0  0  0  0  0  0  0  0
   68.5702   47.9460   56.4138 C   0  0  0  0  0  0  0  0  0  0  0  0
   69.0098   48.1628   55.0395 C   0  0  0  0  0  0  0  0  0  0  0  0
   69.8880   49.1634   54.7912 N   0  0  0  0  0  0  0  0  0  0  0  0
   70.4007   49.3935   53.5902 N   0  0  0  0  0  0  0  0  0  0  0  0
   70.0840   48.6454   52.5206 C   0  0  0  0  0  0  0  0  0  0  0  0
   70.5934   48.8887   51.3769 O   0  0  0  0  0  0  0  0  0  0  0  0
   69.1932   47.6036   52.6780 C   0  0  0  0  0  0  0  0  0  0  0  0
   68.8110   46.8174   51.6139 C   0  0  0  0  0  0  0  0  0  0  0  0
   67.8912   45.7868   51.7791 C   0  0  0  0  0  0  0  0  0  0  0  0
   67.3799   45.5848   53.0416 C   0  0  0  0  0  0  0  0  0  0  0  0
   67.7764   46.3812   54.0868 C   0  0  0  0  0  0  0  0  0  0  0  0
   68.6717   47.3889   53.9556 C   0  0  0  0  0  0  0  0  0  0  0  0
  7  8  2  0
  8  1  1  0
  8  9  1  0
  1  2  2  0
  1  6  1  0
  2  3  1  0
  3  4  2  0
  4  5  1  0
  5 16  1  0
  5  6  2  0
 16 17  1  0
 17 18  2  0
 17 27  1  0
 18 19  1  0
 19 20  1  0
 20 21  2  0
 20 22  1  0
 22 23  1  0
 22 27  2  0
 23 24  2  0
 24 25  1  0
 25 26  2  0
 26 27  1  0
  9 10  1  0
  9 15  1  0
 10 11  1  0
 11 12  2  0
 12 13  1  0
 12 14  1  0
 14 15  1  0
M  END
>  <minimizedAffinity>  (871) 
-8.64041

$$$$
cs_full_output_folder/data/smiles/2743.pdb
     RDKit          3D

 28 31  0  0  0  0  0  0  0  0999 V2000
   72.1515   47.5592   58.9474 C   0  0  0  0  0  0  0  0  0  0  0  0
   71.0620   47.6563   58.1318 C   0  0  0  0  0  0  0  0  0  0  0  0
   70.9418   48.6695   57.1845 C   0  0  0  0  0  0  0  0  0  0  0  0
   71.9584   49.5739   57.0953 C   0  0  0  0  0  0  0  0  0  0  0  0
   73.0850   49.4928   57.9216 C   0  0  0  0  0  0  0  0  0  0  0  0
   73.1828   48.4810   58.8520 C   0  0  0  0  0  0  0  0  0  0  0  0
   74.2515   48.3820   59.6561 F   0  0  0  0  0  0  0  0  0  0  0  0
   71.9461   42.0352   60.2567 C   0  0  0  0  0  0  0  0  0  0  0  0
   72.8206   42.9272   59.8753 C   0  0  0  0  0  0  0  0  0  0  0  0
   73.7222   42.6705   58.7440 C   0  0  0  0  0  0  0  0  0  0  0  0
   73.5235   43.7437   57.7189 C   0  0  0  0  0  0  0  0  0  0  0  0
   73.3967   45.1194   58.2396 C   0  0  0  0  0  0  0  0  0  0  0  0
   72.8670   45.2604   59.5582 N   0  0  0  0  0  0  0  0  0  0  0  0
   72.2398   46.4770   59.9316 C   0  0  0  0  0  0  0  0  0  0  0  0
   71.7476   46.6618   61.0975 O   0  0  0  0  0  0  0  0  0  0  0  0
   72.9277   44.2179   60.5696 C   0  0  0  0  0  0  0  0  0  0  0  0
   69.7138   48.6843   56.3823 C   0  0  0  0  0  0  0  0  0  0  0  0
   69.9148   48.6020   54.9306 C   0  0  0  0  0  0  0  0  0  0  0  0
   70.7867   49.4301   54.2922 N   0  0  0  0  0  0  0  0  0  0  0  0
   70.9923   49.4471   53.0102 N   0  0  0  0  0  0  0  0  0  0  0  0
   70.3328   48.6148   52.1975 C   0  0  0  0  0  0  0  0  0  0  0  0
   70.5385   48.6363   50.9416 O   0  0  0  0  0  0  0  0  0  0  0  0
   69.4224   47.7291   52.7506 C   0  0  0  0  0  0  0  0  0  0  0  0
   68.7370   46.8491   51.9252 C   0  0  0  0  0  0  0  0  0  0  0  0
   67.8339   45.9464   52.4410 C   0  0  0  0  0  0  0  0  0  0  0  0
   67.6527   45.9678   53.8174 C   0  0  0  0  0  0  0  0  0  0  0  0
   68.3214   46.8322   54.6463 C   0  0  0  0  0  0  0  0  0  0  0  0
   69.2217   47.7319   54.1254 C   0  0  0  0  0  0  0  0  0  0  0  0
  8  9  2  0
  9 10  1  0
  9 16  1  0
 10 11  1  0
 11 12  1  0
 12 13  1  0
 13 14  1  0
 13 16  1  0
 14 15  2  0
 14  1  1  0
  1  2  2  0
  1  6  1  0
  2  3  1  0
  3 17  1  0
  3  4  2  0
 17 18  1  0
 18 19  2  0
 18 28  1  0
 19 20  1  0
 20 21  1  0
 21 22  2  0
 21 23  1  0
 23 24  1  0
 23 28  2  0
 24 25  2  0
 25 26  1  0
 26 27  2  0
 27 28  1  0
  4  5  1  0
  5  6  2  0
  6  7  1  0
M  END
>  <minimizedAffinity>  (872) 
-8.64003

$$$$
cs_full_output_folder/data/smiles/2572.pdb
     RDKit          3D

 26 28  0  0  0  0  0  0  0  0999 V2000
   73.6758   50.2226   56.4924 C   0  0  0  0  0  0  0  0  0  0  0  0
   72.8895   49.5287   57.3554 C   0  0  0  0  0  0  0  0  0  0  0  0
   71.5041   49.3878   57.1959 C   0  0  0  0  0  0  0  0  0  0  0  0
   70.8666   49.9643   56.1248 C   0  0  0  0  0  0  0  0  0  0  0  0
   71.6938   50.6762   55.2443 C   0  0  0  0  0  0  0  0  0  0  0  0
   73.0105   50.7839   55.4371 N   0  0  0  0  0  0  0  0  0  0  0  0
   76.0264   49.9964   55.6279 C   0  0  0  0  0  0  0  0  0  0  0  0
   75.6279   49.3593   54.6077 O   0  0  0  0  0  0  0  0  0  0  0  0
   75.0697   50.4249   56.5595 N   0  0  0  0  0  0  0  0  0  0  0  0
   78.1891   49.4452   56.5292 C   0  0  0  0  0  0  0  0  0  0  0  0
   77.4424   50.2766   55.8281 C   0  0  0  0  0  0  0  0  0  0  0  0
   79.1384   50.1508   59.0707 C   0  0  0  0  0  0  0  0  0  0  0  0
   80.0175   49.9868   57.9295 N   0  0  0  0  0  0  0  0  0  0  0  0
   79.6020   49.6656   56.7654 C   0  0  0  0  0  0  0  0  0  0  0  0
   69.4070   49.8630   55.8629 C   0  0  0  0  0  0  0  0  0  0  0  0
   69.0325   48.4514   55.5793 C   0  0  0  0  0  0  0  0  0  0  0  0
   68.7543   47.6920   56.6837 N   0  0  0  0  0  0  0  0  0  0  0  0
   68.4029   46.4538   56.5104 N   0  0  0  0  0  0  0  0  0  0  0  0
   68.2983   45.8805   55.3147 C   0  0  0  0  0  0  0  0  0  0  0  0
   67.9510   44.6641   55.1839 O   0  0  0  0  0  0  0  0  0  0  0  0
   68.5769   46.6327   54.1664 C   0  0  0  0  0  0  0  0  0  0  0  0
   68.9518   47.9467   54.3098 C   0  0  0  0  0  0  0  0  0  0  0  0
   69.2777   48.8117   53.1490 C   0  0  0  0  0  0  0  0  0  0  0  0
   69.8251   47.8757   52.0554 C   0  0  0  0  0  0  0  0  0  0  0  0
   68.6449   46.9552   51.7468 C   0  0  0  0  0  0  0  0  0  0  0  0
   68.4574   45.9857   52.8574 C   0  0  0  0  0  0  0  0  0  0  0  0
 12 13  1  0
 13 14  2  0
 14 10  1  0
 10 11  2  0
 11  7  1  0
  7  8  2  0
  7  9  1  0
  9  1  1  0
  1  2  2  0
  1  6  1  0
  2  3  1  0
  3  4  2  0
  4 15  1  0
  4  5  1  0
 15 16  1  0
 16 17  2  0
 16 22  1  0
 17 18  1  0
 18 19  1  0
 19 20  2  0
 19 21  1  0
 21 22  2  0
 21 26  1  0
 22 23  1  0
 23 24  1  0
 24 25  1  0
 25 26  1  0
  5  6  2  0
M  END
>  <minimizedAffinity>  (873) 
-8.63850

$$$$
cs_full_output_folder/data/smiles/5089.pdb
     RDKit          3D

 26 28  0  0  0  0  0  0  0  0999 V2000
   71.4467   41.9044   58.6229 C   0  0  0  0  0  0  0  0  0  0  0  0
   70.1377   41.6738   57.9776 C   0  0  0  0  0  0  0  0  0  0  0  0
   69.3479   42.6518   57.3902 C   0  0  0  0  0  0  0  0  0  0  0  0
   68.2247   41.9764   56.9246 C   0  0  0  0  0  0  0  0  0  0  0  0
   68.3735   40.6859   57.2321 N   0  0  0  0  0  0  0  0  0  0  0  0
   69.5233   40.4619   57.8722 N   0  0  0  0  0  0  0  0  0  0  0  0
   70.0234   39.2239   58.3292 C   0  0  0  0  0  0  0  0  0  0  0  0
   71.2057   38.6387   57.9302 C   0  0  0  0  0  0  0  0  0  0  0  0
   71.6348   37.4195   58.4175 C   0  0  0  0  0  0  0  0  0  0  0  0
   70.8803   36.7217   59.3396 C   0  0  0  0  0  0  0  0  0  0  0  0
   71.4519   35.1689   59.9463 Cl  0  0  0  0  0  0  0  0  0  0  0  0
   69.6750   37.2855   59.7628 C   0  0  0  0  0  0  0  0  0  0  0  0
   69.2636   38.5028   59.2671 C   0  0  0  0  0  0  0  0  0  0  0  0
   69.6235   44.0858   57.2639 C   0  0  0  0  0  0  0  0  0  0  0  0
   70.5646   44.6116   57.8586 O   0  0  0  0  0  0  0  0  0  0  0  0
   68.7628   44.8647   56.4301 N   0  0  0  0  0  0  0  0  0  0  0  0
   68.8860   46.2655   56.1849 C   0  0  0  0  0  0  0  0  0  0  0  0
   68.8431   46.5918   54.7449 C   0  0  0  0  0  0  0  0  0  0  0  0
   68.1324   45.8348   53.8492 C   0  0  0  0  0  0  0  0  0  0  0  0
   68.0792   46.1458   52.4816 C   0  0  0  0  0  0  0  0  0  0  0  0
   68.7568   47.2481   52.0054 C   0  0  0  0  0  0  0  0  0  0  0  0
   69.4711   48.0065   52.9073 C   0  0  0  0  0  0  0  0  0  0  0  0
   69.5242   47.7023   54.2406 C   0  0  0  0  0  0  0  0  0  0  0  0
   70.1803   49.2034   52.3692 C   0  0  1  0  0  0  0  0  0  0  0  0
   69.8949   49.3289   51.0091 O   0  0  0  0  0  0  0  0  0  0  0  0
   69.5132   50.6452   53.2095 Cl  0  0  0  0  0  0  0  0  0  0  0  0
  1  2  1  0
  2  3  2  0
  2  6  1  0
  3 14  1  0
  3  4  1  0
 14 15  2  0
 14 16  1  0
 16 17  1  0
 17 18  1  0
 18 19  2  0
 18 23  1  0
 19 20  1  0
 20 21  2  0
 21 22  1  0
 22 24  1  0
 22 23  2  0
 24 25  1  6
 24 26  1  0
  4  5  2  0
  5  6  1  0
  6  7  1  0
  7  8  2  0
  7 13  1  0
  8  9  1  0
  9 10  2  0
 10 11  1  0
 10 12  1  0
 12 13  2  0
M  END
>  <minimizedAffinity>  (874) 
-8.63840

$$$$
cs_full_output_folder/data/smiles/1250.pdb
     RDKit          3D

 25 27  0  0  0  0  0  0  0  0999 V2000
   69.5935   45.0267   56.4816 N   0  0  0  0  0  0  0  0  0  0  0  0
   70.0597   44.6878   57.7747 C   0  0  0  0  0  0  0  0  0  0  0  0
   69.7988   45.4407   58.7248 O   0  0  0  0  0  0  0  0  0  0  0  0
   70.8461   43.4500   57.9779 C   0  0  0  0  0  0  0  0  0  0  0  0
   72.2201   43.3435   58.0289 C   0  0  0  0  0  0  0  0  0  0  0  0
   72.5151   42.0442   58.2282 N   0  0  0  0  0  0  0  0  0  0  0  0
   71.4162   41.3084   58.3100 N   0  0  0  0  0  0  0  0  0  0  0  0
   70.3864   42.1650   58.1568 C   0  0  0  0  0  0  0  0  0  0  0  0
   71.3588   39.8892   58.5195 C   0  0  0  0  0  0  0  0  0  0  0  0
   70.1669   39.2205   58.6839 C   0  0  0  0  0  0  0  0  0  0  0  0
   70.1505   37.8379   58.8828 C   0  0  0  0  0  0  0  0  0  0  0  0
   71.3149   37.1032   58.9210 C   0  0  0  0  0  0  0  0  0  0  0  0
   71.3151   35.3573   59.1702 Cl  0  0  0  0  0  0  0  0  0  0  0  0
   72.5100   37.7719   58.7567 C   0  0  0  0  0  0  0  0  0  0  0  0
   72.5194   39.1408   58.5601 C   0  0  0  0  0  0  0  0  0  0  0  0
   68.8214   46.2037   56.1597 C   0  0  0  0  0  0  0  0  0  0  0  0
   69.1569   47.7865   52.7728 C   0  0  0  0  0  0  0  0  0  0  0  0
   68.4318   46.9108   51.9618 C   0  0  0  0  0  0  0  0  0  0  0  0
   67.8454   45.8124   52.5418 C   0  0  0  0  0  0  0  0  0  0  0  0
   67.9455   45.5374   53.9016 C   0  0  0  0  0  0  0  0  0  0  0  0
   68.6579   46.3987   54.7006 C   0  0  0  0  0  0  0  0  0  0  0  0
   69.2501   47.5070   54.1138 C   0  0  0  0  0  0  0  0  0  0  0  0
   69.7863   50.2741   52.8794 C   0  0  0  0  0  0  0  0  0  0  0  0
   69.7948   48.9639   52.1991 C   0  0  0  0  0  0  0  0  0  0  0  0
   70.3686   48.8547   51.0877 O   0  0  0  0  0  0  0  0  0  0  0  0
 23 24  1  0
 24 25  2  0
 24 17  1  0
 17 18  2  0
 17 22  1  0
 18 19  1  0
 19 20  2  0
 20 21  1  0
 21 16  1  0
 21 22  2  0
 16  1  1  0
  1  2  1  0
  2  3  2  0
  2  4  1  0
  4  5  1  0
  4  8  2  0
  5  6  2  0
  6  7  1  0
  7  9  1  0
  7  8  1  0
  9 10  2  0
  9 15  1  0
 10 11  1  0
 11 12  2  0
 12 13  1  0
 12 14  1  0
 14 15  2  0
M  END
>  <minimizedAffinity>  (875) 
-8.63707

$$$$
cs_full_output_folder/data/smiles/4525.pdb
     RDKit          3D

 29 32  0  0  0  0  0  0  0  0999 V2000
   71.5549   47.6108   60.6788 O   0  0  0  0  0  0  0  0  0  0  0  0
   72.1091   47.3145   59.5257 C   0  0  0  0  0  0  0  0  0  0  0  0
   73.4715   47.5436   59.3819 N   0  0  0  0  0  0  0  0  0  0  0  0
   74.1316   48.1588   60.5656 C   0  0  0  0  0  0  0  0  0  0  0  0
   75.2829   49.0270   60.2012 C   0  0  0  0  0  0  0  0  0  0  0  0
   76.0187   48.5703   59.0393 N   0  0  0  0  0  0  0  0  0  0  0  0
   75.7646   47.2047   58.6232 C   0  0  0  0  0  0  0  0  0  0  0  0
   74.2551   47.1954   58.2502 C   0  0  0  0  0  0  0  0  0  0  0  0
   71.2071   46.7724   58.5417 C   0  0  0  0  0  0  0  0  0  0  0  0
   70.3418   47.4739   57.7491 C   0  0  0  0  0  0  0  0  0  0  0  0
   69.4528   46.8559   56.8467 C   0  0  0  0  0  0  0  0  0  0  0  0
   69.4286   45.5029   56.7371 C   0  0  0  0  0  0  0  0  0  0  0  0
   70.2775   44.7439   57.5132 C   0  0  0  0  0  0  0  0  0  0  0  0
   71.1271   45.3706   58.3759 C   0  0  0  0  0  0  0  0  0  0  0  0
   71.9848   44.6124   59.1588 O   0  0  0  0  0  0  0  0  0  0  0  0
   68.5801   47.7649   56.0577 C   0  0  0  0  0  0  0  0  0  0  0  0
   68.6989   47.4578   54.6061 C   0  0  0  0  0  0  0  0  0  0  0  0
   69.5166   48.2010   53.7836 C   0  0  0  0  0  0  0  0  0  0  0  0
   69.6266   47.9184   52.4410 C   0  0  0  0  0  0  0  0  0  0  0  0
   68.9151   46.8764   51.8867 C   0  0  0  0  0  0  0  0  0  0  0  0
   68.1005   46.1313   52.6891 C   0  0  0  0  0  0  0  0  0  0  0  0
   67.9926   46.4157   54.0306 C   0  0  0  0  0  0  0  0  0  0  0  0
   76.9273   49.4061   58.3541 C   0  0  0  0  0  0  0  0  0  0  0  0
   76.9238   49.4538   57.0125 N   0  0  0  0  0  0  0  0  0  0  0  0
   77.7699   50.2336   56.3207 C   0  0  0  0  0  0  0  0  0  0  0  0
   78.6803   51.0193   56.9883 C   0  0  0  0  0  0  0  0  0  0  0  0
   79.5512   51.8201   56.3197 F   0  0  0  0  0  0  0  0  0  0  0  0
   78.6784   50.9653   58.3629 C   0  0  0  0  0  0  0  0  0  0  0  0
   77.8104   50.1671   59.0012 N   0  0  0  0  0  0  0  0  0  0  0  0
  1  2  2  0
  2  9  1  0
  2  3  1  0
  9 10  2  0
  9 14  1  0
 10 11  1  0
 11 16  1  0
 11 12  2  0
 16 17  1  0
 17 18  2  0
 17 22  1  0
 18 19  1  0
 19 20  2  0
 20 21  1  0
 21 22  2  0
 12 13  1  0
 13 14  2  0
 14 15  1  0
  3  4  1  0
  3  8  1  0
  4  5  1  0
  5  6  1  0
  6 23  1  0
  6  7  1  0
 23 24  2  0
 23 29  1  0
 24 25  1  0
 25 26  2  0
 26 27  1  0
 26 28  1  0
 28 29  2  0
  7  8  1  0
M  END
>  <minimizedAffinity>  (876) 
-8.63672

$$$$
cs_full_output_folder/data/smiles/3296.pdb
     RDKit          3D

 24 25  0  0  0  0  0  0  0  0999 V2000
   70.0386   49.2334   52.6065 S   0  0  0  0  0  0  0  0  0  0  0  0
   71.5263   49.1462   52.9107 O   0  0  0  0  0  0  0  0  0  0  0  0
   69.8857   49.1737   51.0977 O   0  0  0  0  0  0  0  0  0  0  0  0
   69.2536   47.8419   53.2554 C   0  0  0  0  0  0  0  0  0  0  0  0
   68.6148   46.9473   52.3871 C   0  0  0  0  0  0  0  0  0  0  0  0
   68.5893   47.1800   51.0485 F   0  0  0  0  0  0  0  0  0  0  0  0
   67.9892   45.8043   52.8335 C   0  0  0  0  0  0  0  0  0  0  0  0
   67.3676   44.9305   52.0052 F   0  0  0  0  0  0  0  0  0  0  0  0
   68.0209   45.5762   54.1989 C   0  0  0  0  0  0  0  0  0  0  0  0
   67.4308   44.4803   54.7090 F   0  0  0  0  0  0  0  0  0  0  0  0
   68.6494   46.4548   55.0649 C   0  0  0  0  0  0  0  0  0  0  0  0
   68.6752   46.2193   56.4174 F   0  0  0  0  0  0  0  0  0  0  0  0
   69.2723   47.5956   54.6123 C   0  0  0  0  0  0  0  0  0  0  0  0
   69.8815   48.4371   55.4887 F   0  0  0  0  0  0  0  0  0  0  0  0
   69.4356   50.7387   53.1397 N   0  0  0  0  0  0  0  0  0  0  0  0
   71.1247   53.2700   56.1330 C   0  0  0  0  0  0  0  0  0  0  0  0
   71.9400   52.5496   55.2908 C   0  0  0  0  0  0  0  0  0  0  0  0
   71.3861   51.7239   54.3063 C   0  0  0  0  0  0  0  0  0  0  0  0
   70.0348   51.5814   54.1194 C   0  0  0  0  0  0  0  0  0  0  0  0
   69.2187   52.3238   54.9875 C   0  0  0  0  0  0  0  0  0  0  0  0
   69.7656   53.1350   55.9559 C   0  0  0  0  0  0  0  0  0  0  0  0
   68.9308   53.8980   56.8486 N   0  0  0  0  0  0  0  0  0  0  0  0
   72.9584   53.8524   57.6596 C   0  0  0  0  0  0  0  0  0  0  0  0
   71.6771   54.0866   57.1068 O   0  0  0  0  0  0  0  0  0  0  0  0
 23 24  1  0
 24 16  1  0
 16 17  2  0
 16 21  1  0
 17 18  1  0
 18 19  2  0
 19 15  1  0
 19 20  1  0
 15  1  1  0
  1  2  2  0
  1  3  2  0
  1  4  1  0
  4  5  2  0
  4 13  1  0
  5  6  1  0
  5  7  1  0
  7  8  1  0
  7  9  2  0
  9 10  1  0
  9 11  1  0
 11 12  1  0
 11 13  2  0
 13 14  1  0
 20 21  2  0
 21 22  1  0
M  END
>  <minimizedAffinity>  (877) 
-8.63537

$$$$
cs_full_output_folder/data/smiles/7463.pdb
     RDKit          3D

 28 31  0  0  0  0  0  0  0  0999 V2000
   72.5087   40.4704   61.0067 O   0  0  0  0  0  0  0  0  0  0  0  0
   72.3249   40.4778   59.7023 C   0  0  0  0  0  0  0  0  0  0  0  0
   72.0962   41.7572   59.2133 N   0  0  0  0  0  0  0  0  0  0  0  0
   71.9013   42.2443   57.8802 C   0  0  0  0  0  0  0  0  0  0  0  0
   72.4119   43.6977   57.8449 C   0  0  0  0  0  0  0  0  0  0  0  0
   71.3999   44.5824   58.5617 C   0  0  0  0  0  0  0  0  0  0  0  0
   70.9006   43.7601   59.7482 C   0  0  0  0  0  0  0  0  0  0  0  0
   72.0060   42.8627   60.2209 C   0  0  0  0  0  0  0  0  0  0  0  0
   72.4099   39.1775   59.1162 C   0  0  0  0  0  0  0  0  0  0  0  0
   73.5920   38.4487   59.3284 C   0  0  0  0  0  0  0  0  0  0  0  0
   74.6648   39.0171   60.0493 O   0  0  0  0  0  0  0  0  0  0  0  0
   73.7858   37.1716   58.8651 C   0  0  0  0  0  0  0  0  0  0  0  0
   72.7862   36.5540   58.1553 C   0  0  0  0  0  0  0  0  0  0  0  0
   71.6178   37.2316   57.9287 C   0  0  0  0  0  0  0  0  0  0  0  0
   71.4282   38.5362   58.4065 C   0  0  0  0  0  0  0  0  0  0  0  0
   70.2020   39.1240   58.1244 O   0  0  0  0  0  0  0  0  0  0  0  0
   70.3258   44.9789   57.6492 C   0  0  0  0  0  0  0  0  0  0  0  0
   70.0583   46.2746   57.2506 C   0  0  0  0  0  0  0  0  0  0  0  0
   68.9808   46.2429   56.3970 C   0  0  0  0  0  0  0  0  0  0  0  0
   68.6107   44.9565   56.2880 N   0  0  0  0  0  0  0  0  0  0  0  0
   69.4137   44.2131   57.0335 N   0  0  0  0  0  0  0  0  0  0  0  0
   68.3732   47.4505   55.7399 C   0  0  0  0  0  0  0  0  0  0  0  0
   68.8271   47.4884   54.3283 C   0  0  0  0  0  0  0  0  0  0  0  0
   68.3847   46.5885   53.3731 C   0  0  0  0  0  0  0  0  0  0  0  0
   68.8201   46.6411   52.0658 C   0  0  0  0  0  0  0  0  0  0  0  0
   69.7199   47.5990   51.6511 C   0  0  0  0  0  0  0  0  0  0  0  0
   70.1674   48.5037   52.6021 C   0  0  0  0  0  0  0  0  0  0  0  0
   69.7290   48.4466   53.9104 C   0  0  0  0  0  0  0  0  0  0  0  0
  1  2  2  0
  2  9  1  0
  2  3  1  0
  9 10  2  0
  9 15  1  0
 10 11  1  0
 10 12  1  0
 12 13  2  0
 13 14  1  0
 14 15  2  0
 15 16  1  0
  3  4  1  0
  3  8  1  0
  4  5  1  0
  5  6  1  0
  6 17  1  0
  6  7  1  0
 17 18  1  0
 17 21  2  0
 18 19  2  0
 19 22  1  0
 19 20  1  0
 22 23  1  0
 23 24  2  0
 23 28  1  0
 24 25  1  0
 25 26  2  0
 26 27  1  0
 27 28  2  0
 20 21  1  0
  7  8  1  0
M  END
>  <minimizedAffinity>  (878) 
-8.63006

$$$$
cs_full_output_folder/data/smiles/405.pdb
     RDKit          3D

 26 29  0  0  0  0  0  0  0  0999 V2000
   69.1297   48.3946   53.5015 C   0  0  0  0  0  0  0  0  0  0  0  0
   69.3095   48.0396   52.2042 C   0  0  0  0  0  0  0  0  0  0  0  0
   68.8883   46.8009   51.6765 C   0  0  0  0  0  0  0  0  0  0  0  0
   68.2664   45.8896   52.4863 C   0  0  0  0  0  0  0  0  0  0  0  0
   68.0778   46.2354   53.8043 C   0  0  0  0  0  0  0  0  0  0  0  0
   68.4891   47.4429   54.3132 C   0  0  0  0  0  0  0  0  0  0  0  0
   71.7278   49.6584   53.5234 O   0  0  0  0  0  0  0  0  0  0  0  0
   70.7818   50.2107   54.0977 C   0  0  0  0  0  0  0  0  0  0  0  0
   69.5234   49.6107   54.0945 N   0  0  0  0  0  0  0  0  0  0  0  0
   71.0387   51.5042   54.7720 C   0  0  0  0  0  0  0  0  0  0  0  0
   72.1243   52.2174   55.0241 C   0  0  0  0  0  0  0  0  0  0  0  0
   71.9290   53.3541   55.6692 N   0  0  0  0  0  0  0  0  0  0  0  0
   70.9772   53.8270   56.0488 C   0  0  0  0  0  0  0  0  0  0  0  0
   69.7049   52.5029   55.4867 S   0  0  0  0  0  0  0  0  0  0  0  0
   68.2401   47.7248   55.7455 C   0  0  0  0  0  0  0  0  0  0  0  0
   69.0190   46.7373   56.5387 C   0  0  0  0  0  0  0  0  0  0  0  0
   68.7647   45.4166   56.4941 N   0  0  0  0  0  0  0  0  0  0  0  0
   69.4361   44.5158   57.1849 N   0  0  0  0  0  0  0  0  0  0  0  0
   70.4310   44.9386   57.9779 C   0  0  0  0  0  0  0  0  0  0  0  0
   71.0854   44.0821   58.6477 O   0  0  0  0  0  0  0  0  0  0  0  0
   70.7501   46.3034   58.0720 C   0  0  0  0  0  0  0  0  0  0  0  0
   70.0310   47.2201   57.3389 C   0  0  0  0  0  0  0  0  0  0  0  0
   70.2963   48.6794   57.3735 C   0  0  0  0  0  0  0  0  0  0  0  0
   70.8779   48.9660   58.7490 C   0  0  0  0  0  0  0  0  0  0  0  0
   72.1834   48.1859   58.7963 C   0  0  0  0  0  0  0  0  0  0  0  0
   71.8607   46.7212   58.9645 C   0  0  0  0  0  0  0  0  0  0  0  0
  7  8  2  0
  8  9  1  0
  8 10  1  0
  9  1  1  0
  1  2  2  0
  1  6  1  0
  2  3  1  0
  3  4  2  0
  4  5  1  0
  5  6  2  0
  6 15  1  0
 15 16  1  0
 16 17  2  0
 16 22  1  0
 17 18  1  0
 18 19  1  0
 19 20  2  0
 19 21  1  0
 21 22  2  0
 21 26  1  0
 22 23  1  0
 23 24  1  0
 24 25  1  0
 25 26  1  0
 10 11  2  0
 10 14  1  0
 11 12  1  0
 12 13  2  0
 13 14  1  0
M  END
>  <minimizedAffinity>  (879) 
-8.62967

$$$$
cs_full_output_folder/data/smiles/5722.pdb
     RDKit          3D

 28 31  0  0  0  0  0  0  0  0999 V2000
   71.5431   47.1075   58.9934 C   0  0  0  0  0  0  0  0  0  0  0  0
   71.6887   45.7495   58.8242 C   0  0  0  0  0  0  0  0  0  0  0  0
   70.8746   45.0634   57.9485 C   0  0  0  0  0  0  0  0  0  0  0  0
   69.9218   45.7715   57.2542 C   0  0  0  0  0  0  0  0  0  0  0  0
   69.7183   47.1386   57.3731 C   0  0  0  0  0  0  0  0  0  0  0  0
   70.5670   47.7729   58.2688 C   0  0  0  0  0  0  0  0  0  0  0  0
   76.3496   47.1969   59.0398 C   0  0  0  0  0  0  0  0  0  0  0  0
   76.0256   48.5486   58.7128 N   0  0  0  0  0  0  0  0  0  0  0  0
   75.7467   49.3767   59.8499 C   0  0  0  0  0  0  0  0  0  0  0  0
   74.3136   49.3711   60.2724 C   0  0  0  0  0  0  0  0  0  0  0  0
   73.4559   48.6427   59.3920 N   0  0  0  0  0  0  0  0  0  0  0  0
   72.4143   47.8480   59.9320 C   0  0  0  0  0  0  0  0  0  0  0  0
   72.2305   47.7702   61.1723 O   0  0  0  0  0  0  0  0  0  0  0  0
   73.6755   48.7377   57.9653 C   0  0  0  0  0  0  0  0  0  0  0  0
   75.1204   48.7062   57.6101 C   0  0  0  0  0  0  0  0  0  0  0  0
   68.6497   47.8386   56.6069 C   0  0  0  0  0  0  0  0  0  0  0  0
   69.0353   48.2163   55.2578 C   0  0  0  0  0  0  0  0  0  0  0  0
   69.7448   49.3645   54.9987 C   0  0  0  0  0  0  0  0  0  0  0  0
   70.2007   50.4404   56.3156 Cl  0  0  0  0  0  0  0  0  0  0  0  0
   70.1230   49.7313   53.6964 C   0  0  0  0  0  0  0  0  0  0  0  0
   70.8571   50.9303   53.4837 N   0  0  0  0  0  0  0  0  0  0  0  0
   69.7691   48.9245   52.6891 N   0  0  0  0  0  0  0  0  0  0  0  0
   69.0755   47.7835   52.8493 C   0  0  0  0  0  0  0  0  0  0  0  0
   68.7399   46.9952   51.7627 C   0  0  0  0  0  0  0  0  0  0  0  0
   68.0288   45.8401   51.9713 C   0  0  0  0  0  0  0  0  0  0  0  0
   67.6670   45.4988   53.2706 C   0  0  0  0  0  0  0  0  0  0  0  0
   68.0097   46.2965   54.3472 C   0  0  0  0  0  0  0  0  0  0  0  0
   68.7114   47.4361   54.1402 C   0  0  0  0  0  0  0  0  0  0  0  0
  7  8  1  0
  8  9  1  0
  8 15  1  0
  9 10  1  0
 10 11  1  0
 11 12  1  0
 11 14  1  0
 12 13  2  0
 12  1  1  0
  1  2  2  0
  1  6  1  0
  2  3  1  0
  3  4  2  0
  4  5  1  0
  5 16  1  0
  5  6  2  0
 16 17  1  0
 17 18  2  0
 17 28  1  0
 18 19  1  0
 18 20  1  0
 20 21  1  0
 20 22  2  0
 22 23  1  0
 23 24  1  0
 23 28  2  0
 24 25  2  0
 25 26  1  0
 26 27  2  0
 27 28  1  0
 14 15  1  0
M  CHG  1   8   1
M  END
>  <minimizedAffinity>  (880) 
-8.62875

$$$$
cs_full_output_folder/data/smiles/4404.pdb
     RDKit          3D

 24 26  0  0  0  0  0  0  0  0999 V2000
   69.5498   44.4504   57.3783 C   0  0  0  0  0  0  0  0  0  0  0  0
   70.0921   45.3606   58.0613 O   0  0  0  0  0  0  0  0  0  0  0  0
   68.7332   44.8734   56.3028 N   0  0  0  0  0  0  0  0  0  0  0  0
   67.7969   41.6170   56.9027 C   0  0  0  0  0  0  0  0  0  0  0  0
   69.1433   41.9292   57.5521 C   0  0  0  0  0  0  0  0  0  0  0  0
   69.7775   43.0228   57.7128 C   0  0  0  0  0  0  0  0  0  0  0  0
   70.8792   42.3588   58.3785 C   0  0  0  0  0  0  0  0  0  0  0  0
   70.1276   41.1887   58.1789 N   0  0  0  0  0  0  0  0  0  0  0  0
   70.2809   39.8053   58.4804 C   0  0  0  0  0  0  0  0  0  0  0  0
   69.3864   39.0602   59.1294 C   0  0  0  0  0  0  0  0  0  0  0  0
   69.8661   37.6632   59.2728 C   0  0  0  0  0  0  0  0  0  0  0  0
   71.1797   37.7018   58.6071 C   0  0  0  0  0  0  0  0  0  0  0  0
   72.3893   36.2365   58.4056 Br  0  0  0  0  0  0  0  0  0  0  0  0
   71.3779   38.9113   58.1779 C   0  0  0  0  0  0  0  0  0  0  0  0
   68.4882   46.2332   55.9416 C   0  0  0  0  0  0  0  0  0  0  0  0
   68.5330   46.4531   54.4711 C   0  0  0  0  0  0  0  0  0  0  0  0
   67.8119   45.6921   53.6063 C   0  0  0  0  0  0  0  0  0  0  0  0
   67.8555   45.9148   52.2378 C   0  0  0  0  0  0  0  0  0  0  0  0
   68.6527   46.9334   51.7679 C   0  0  0  0  0  0  0  0  0  0  0  0
   69.3967   47.7221   52.6187 C   0  0  0  0  0  0  0  0  0  0  0  0
   69.3224   47.4652   53.9759 C   0  0  0  0  0  0  0  0  0  0  0  0
   70.2335   48.7903   52.0888 C   0  0  0  0  0  0  0  0  0  0  0  0
   69.7916   49.6188   51.0327 N   0  0  0  0  0  0  0  0  0  0  0  0
   71.3682   48.9761   52.5810 O   0  0  0  0  0  0  0  0  0  0  0  0
  4  5  1  0
  5  6  2  0
  5  8  1  0
  6  1  1  0
  6  7  1  0
  1  2  2  0
  1  3  1  0
  3 15  1  0
 15 16  1  0
 16 17  2  0
 16 21  1  0
 17 18  1  0
 18 19  2  0
 19 20  1  0
 20 22  1  0
 20 21  2  0
 22 23  1  0
 22 24  2  0
  7  8  1  0
  8  9  1  0
  9 10  2  0
  9 14  1  0
 10 11  1  0
 11 12  1  0
 12 13  1  0
 12 14  2  0
M  END
>  <minimizedAffinity>  (881) 
-8.62807

$$$$
cs_full_output_folder/data/smiles/3911.pdb
     RDKit          3D

 28 31  0  0  0  0  0  0  0  0999 V2000
   71.5541   51.7468   56.2864 C   0  0  0  0  0  0  0  0  0  0  0  0
   71.2892   50.7271   55.4039 C   0  0  0  0  0  0  0  0  0  0  0  0
   70.2359   50.7343   54.5399 C   0  0  0  0  0  0  0  0  0  0  0  0
   69.3852   51.8483   54.5683 C   0  0  0  0  0  0  0  0  0  0  0  0
   69.6250   52.8822   55.4403 C   0  0  0  0  0  0  0  0  0  0  0  0
   70.6928   52.8431   56.2930 C   0  0  0  0  0  0  0  0  0  0  0  0
   70.9320   53.8520   57.1478 F   0  0  0  0  0  0  0  0  0  0  0  0
   69.9402   49.6662   53.5638 C   0  0  0  0  0  0  0  0  0  0  0  0
   70.2564   49.8239   52.2665 N   0  0  0  0  0  0  0  0  0  0  0  0
   70.0041   48.8752   51.3862 N   0  0  0  0  0  0  0  0  0  0  0  0
   69.4316   47.7282   51.7372 C   0  0  0  0  0  0  0  0  0  0  0  0
   69.1949   46.8242   50.8746 O   0  0  0  0  0  0  0  0  0  0  0  0
   69.0754   47.4830   53.0493 C   0  0  0  0  0  0  0  0  0  0  0  0
   68.4928   46.2767   53.4023 C   0  0  0  0  0  0  0  0  0  0  0  0
   68.1633   46.0497   54.7185 C   0  0  0  0  0  0  0  0  0  0  0  0
   68.4204   47.0254   55.6521 C   0  0  0  0  0  0  0  0  0  0  0  0
   69.0093   48.2345   55.2706 C   0  0  0  0  0  0  0  0  0  0  0  0
   69.3487   48.4962   53.9725 C   0  0  0  0  0  0  0  0  0  0  0  0
   71.4290   47.6099   58.2457 C   0  0  0  0  0  0  0  0  0  0  0  0
   72.2439   48.6257   59.0389 C   0  0  1  0  0  0  0  0  0  0  0  0
   72.1574   48.3528   60.3936 F   0  0  0  0  0  0  0  0  0  0  0  0
   73.6753   48.4646   58.6175 C   0  0  0  0  0  0  0  0  0  0  0  0
   74.5830   49.5591   59.0292 C   0  0  0  0  0  0  0  0  0  0  0  0
   73.8944   50.8894   59.2380 C   0  0  0  0  0  0  0  0  0  0  0  0
   72.7498   50.8930   58.3473 N   0  0  0  0  0  0  0  0  0  0  0  0
   72.6894   51.7182   57.2018 C   0  0  0  0  0  0  0  0  0  0  0  0
   73.6643   52.4683   56.9560 O   0  0  0  0  0  0  0  0  0  0  0  0
   71.6776   49.9867   58.7258 C   0  0  0  0  0  0  0  0  0  0  0  0
 20 19  1  6
 20 21  1  0
 20 22  1  0
 20 28  1  0
 22 23  1  0
 23 24  1  0
 24 25  1  0
 25 26  1  0
 25 28  1  0
 26 27  2  0
 26  1  1  0
  1  2  2  0
  1  6  1  0
  2  3  1  0
  3  8  1  0
  3  4  2  0
  8  9  2  0
  8 18  1  0
  9 10  1  0
 10 11  1  0
 11 12  2  0
 11 13  1  0
 13 14  1  0
 13 18  2  0
 14 15  2  0
 15 16  1  0
 16 17  2  0
 17 18  1  0
  4  5  1  0
  5  6  2  0
  6  7  1  0
M  END
>  <minimizedAffinity>  (882) 
-8.62412

$$$$
cs_full_output_folder/data/smiles/5590.pdb
     RDKit          3D

 26 29  0  0  0  0  0  0  0  0999 V2000
   70.7081   50.8737   55.8663 N   0  0  0  0  0  0  0  0  0  0  0  0
   71.0061   46.7997   58.7837 C   0  0  0  0  0  0  0  0  0  0  0  0
   71.5378   46.7564   60.0219 N   0  0  0  0  0  0  0  0  0  0  0  0
   71.9842   47.9258   60.3969 N   0  0  0  0  0  0  0  0  0  0  0  0
   71.7425   48.7724   59.3808 C   0  0  0  0  0  0  0  0  0  0  0  0
   72.0096   50.1169   59.2480 C   0  0  0  0  0  0  0  0  0  0  0  0
   71.6559   50.7512   58.0883 C   0  0  0  0  0  0  0  0  0  0  0  0
   71.0302   50.1085   57.0137 C   0  0  0  0  0  0  0  0  0  0  0  0
   70.7783   48.7686   57.1785 C   0  0  0  0  0  0  0  0  0  0  0  0
   71.1198   48.0960   58.3319 C   0  0  0  0  0  0  0  0  0  0  0  0
   70.9677   44.3049   58.0494 C   0  0  0  0  0  0  0  0  0  0  0  0
   70.4324   45.6773   58.0894 C   0  0  0  0  0  0  0  0  0  0  0  0
   69.3438   45.9007   57.4403 O   0  0  0  0  0  0  0  0  0  0  0  0
   71.1200   50.5237   54.2667 S   0  0  0  0  0  0  0  0  0  0  0  0
   70.9773   51.7504   53.4005 O   0  0  0  0  0  0  0  0  0  0  0  0
   72.5989   50.1623   54.1778 O   0  0  0  0  0  0  0  0  0  0  0  0
   70.2585   49.2305   53.5197 C   0  0  0  0  0  0  0  0  0  0  0  0
   70.1967   49.0891   52.1430 C   0  0  0  0  0  0  0  0  0  0  0  0
   69.4986   48.0735   51.5462 C   0  0  0  0  0  0  0  0  0  0  0  0
   68.8188   47.1379   52.2978 C   0  0  0  0  0  0  0  0  0  0  0  0
   68.1138   46.1138   51.6954 C   0  0  0  0  0  0  0  0  0  0  0  0
   67.4344   45.1776   52.4290 C   0  0  0  0  0  0  0  0  0  0  0  0
   67.4688   45.2793   53.8076 C   0  0  0  0  0  0  0  0  0  0  0  0
   68.1729   46.3029   54.3979 C   0  0  0  0  0  0  0  0  0  0  0  0
   68.8605   47.2510   53.6762 C   0  0  0  0  0  0  0  0  0  0  0  0
   69.5723   48.2851   54.2556 C   0  0  0  0  0  0  0  0  0  0  0  0
 11 12  1  0
 12 13  2  0
 12  2  1  0
  2  3  2  0
  2 10  1  0
  3  4  1  0
  4  5  1  0
  5  6  1  0
  5 10  2  0
  6  7  2  0
  7  8  1  0
  8  1  1  0
  8  9  2  0
  1 14  1  0
 14 15  2  0
 14 16  2  0
 14 17  1  0
 17 18  2  0
 17 26  1  0
 18 19  1  0
 19 20  2  0
 20 21  1  0
 20 25  1  0
 21 22  2  0
 22 23  1  0
 23 24  2  0
 24 25  1  0
 25 26  2  0
  9 10  1  0
M  END
>  <minimizedAffinity>  (883) 
-8.62320

$$$$
cs_full_output_folder/data/smiles/914.pdb
     RDKit          3D

 24 25  0  0  0  0  0  0  0  0999 V2000
   70.3435   43.0981   56.9631 O   0  0  0  0  0  0  0  0  0  0  0  0
   69.1995   43.0783   57.5083 C   0  0  0  0  0  0  0  0  0  0  0  0
   69.0593   42.5701   58.8290 N   0  0  0  0  0  0  0  0  0  0  0  0
   68.1342   43.5730   56.7411 N   0  0  0  0  0  0  0  0  0  0  0  0
   68.2587   44.0794   55.4293 N   0  0  0  0  0  0  0  0  0  0  0  0
   68.1909   45.4460   55.1219 C   0  0  0  0  0  0  0  0  0  0  0  0
   68.0059   46.2333   56.1114 O   0  0  0  0  0  0  0  0  0  0  0  0
   68.3101   46.0306   53.7985 C   0  0  0  0  0  0  0  0  0  0  0  0
   67.5520   45.5750   52.7438 C   0  0  0  0  0  0  0  0  0  0  0  0
   67.6615   46.1312   51.4738 C   0  0  0  0  0  0  0  0  0  0  0  0
   68.5351   47.1638   51.2196 C   0  0  0  0  0  0  0  0  0  0  0  0
   69.2968   47.6286   52.2665 C   0  0  0  0  0  0  0  0  0  0  0  0
   69.1743   47.0606   53.5250 C   0  0  0  0  0  0  0  0  0  0  0  0
   70.1982   48.6862   52.0274 N   0  0  0  0  0  0  0  0  0  0  0  0
   71.1545   48.8889   52.7779 O   0  0  0  0  0  0  0  0  0  0  0  0
   70.0064   49.4960   50.9480 O   0  0  0  0  0  0  0  0  0  0  0  0
   70.1824   42.0655   59.5945 C   0  0  0  0  0  0  0  0  0  0  0  0
   70.5488   40.6935   59.2274 C   0  0  0  0  0  0  0  0  0  0  0  0
   69.6313   39.6850   58.9651 C   0  0  0  0  0  0  0  0  0  0  0  0
   69.9943   38.4073   58.6257 C   0  0  0  0  0  0  0  0  0  0  0  0
   71.3327   38.1049   58.5378 C   0  0  0  0  0  0  0  0  0  0  0  0
   71.9571   36.3618   58.0735 Br  0  0  0  0  0  0  0  0  0  0  0  0
   72.2957   39.0763   58.7902 C   0  0  0  0  0  0  0  0  0  0  0  0
   71.8839   40.3569   59.1308 C   0  0  0  0  0  0  0  0  0  0  0  0
  1  2  2  0
  2  3  1  0
  2  4  1  0
  3 17  1  0
 17 18  1  0
 18 19  2  0
 18 24  1  0
 19 20  1  0
 20 21  2  0
 21 22  1  0
 21 23  1  0
 23 24  2  0
  4  5  1  0
  5  6  1  0
  6  7  2  0
  6  8  1  0
  8  9  2  0
  8 13  1  0
  9 10  1  0
 10 11  2  0
 11 12  1  0
 12 14  1  0
 12 13  2  0
 14 15  2  0
 14 16  1  0
M  CHG  2  14   1  16  -1
M  END
>  <minimizedAffinity>  (884) 
-8.62211

$$$$
cs_full_output_folder/data/smiles/4255.pdb
     RDKit          3D

 28 30  0  0  0  0  0  0  0  0999 V2000
   68.5197   41.3713   57.1754 C   0  0  0  0  0  0  0  0  0  0  0  0
   68.6513   40.2948   58.0681 C   0  0  0  0  0  0  0  0  0  0  0  0
   69.6299   40.2441   59.0222 C   0  0  0  0  0  0  0  0  0  0  0  0
   70.5114   41.2949   59.0988 C   0  0  0  0  0  0  0  0  0  0  0  0
   70.4501   42.3804   58.2668 C   0  0  0  0  0  0  0  0  0  0  0  0
   69.4324   42.3888   57.3065 C   0  0  0  0  0  0  0  0  0  0  0  0
   69.3717   43.4753   56.4736 O   0  0  0  0  0  0  0  0  0  0  0  0
   71.3980   43.4794   58.3712 C   0  0  0  0  0  0  0  0  0  0  0  0
   72.6878   43.3720   57.8385 C   0  0  0  0  0  0  0  0  0  0  0  0
   73.5753   44.4182   57.9436 C   0  0  0  0  0  0  0  0  0  0  0  0
   73.2309   45.5954   58.5689 C   0  0  0  0  0  0  0  0  0  0  0  0
   71.9494   45.7366   59.1133 C   0  0  0  0  0  0  0  0  0  0  0  0
   71.0918   44.6730   58.9900 C   0  0  0  0  0  0  0  0  0  0  0  0
   71.6280   46.9459   59.7442 N   0  0  0  0  0  0  0  0  0  0  0  0
   71.7771   47.1176   60.9631 O   0  0  0  0  0  0  0  0  0  0  0  0
   71.1308   47.9817   58.9956 O   0  0  0  0  0  0  0  0  0  0  0  0
   66.4383   42.0734   56.3773 O   0  0  0  0  0  0  0  0  0  0  0  0
   67.4456   41.2990   56.2198 C   0  0  0  0  0  0  0  0  0  0  0  0
   67.3638   40.4539   55.0957 N   0  0  0  0  0  0  0  0  0  0  0  0
   66.2734   40.4816   54.2517 O   0  0  0  0  0  0  0  0  0  0  0  0
   69.7676   39.1149   59.9575 C   0  0  0  0  0  0  0  0  0  0  0  0
   70.5682   38.0708   59.2907 C   0  0  0  0  0  0  0  0  0  0  0  0
   70.5099   36.7706   59.7220 C   0  0  0  0  0  0  0  0  0  0  0  0
   71.2633   35.7641   59.1015 C   0  0  0  0  0  0  0  0  0  0  0  0
   72.0854   36.0768   58.0303 C   0  0  0  0  0  0  0  0  0  0  0  0
   72.8120   35.0688   57.4428 F   0  0  0  0  0  0  0  0  0  0  0  0
   72.1395   37.3684   57.6057 C   0  0  0  0  0  0  0  0  0  0  0  0
   71.3938   38.3490   58.2247 C   0  0  0  0  0  0  0  0  0  0  0  0
 17 18  2  0
 18 19  1  0
 18  1  1  0
 19 20  1  0
  1  2  2  0
  1  6  1  0
  2  3  1  0
  3 21  1  0
  3  4  2  0
 21 22  1  0
 22 23  2  0
 22 28  1  0
 23 24  1  0
 24 25  2  0
 25 26  1  0
 25 27  1  0
 27 28  2  0
  4  5  1  0
  5  8  1  0
  5  6  2  0
  8  9  2  0
  8 13  1  0
  9 10  1  0
 10 11  2  0
 11 12  1  0
 12 14  1  0
 12 13  2  0
 14 15  2  0
 14 16  1  0
  6  7  1  0
M  CHG  2  14   1  16  -1
M  END
>  <minimizedAffinity>  (885) 
-8.61972

$$$$
cs_full_output_folder/data/smiles/3813.pdb
     RDKit          3D

 25 27  0  0  0  0  0  0  0  0999 V2000
   69.0394   47.1022   56.9598 S   0  0  0  0  0  0  0  0  0  0  0  0
   68.2869   47.6933   58.1073 O   0  0  0  0  0  0  0  0  0  0  0  0
   69.8173   48.2291   56.2994 O   0  0  0  0  0  0  0  0  0  0  0  0
   74.2698   43.5569   59.4140 C   0  0  0  0  0  0  0  0  0  0  0  0
   73.0082   43.0754   58.7899 C   0  0  0  0  0  0  0  0  0  0  0  0
   72.7791   41.7183   58.6448 C   0  0  0  0  0  0  0  0  0  0  0  0
   73.7294   40.7954   59.0840 O   0  0  0  0  0  0  0  0  0  0  0  0
   71.5896   41.3413   58.0582 C   0  0  0  0  0  0  0  0  0  0  0  0
   70.6557   42.2675   57.6275 C   0  0  0  0  0  0  0  0  0  0  0  0
   70.8937   43.6224   57.7754 C   0  0  0  0  0  0  0  0  0  0  0  0
   69.9679   44.5435   57.3487 C   0  0  0  0  0  0  0  0  0  0  0  0
   70.1952   45.8855   57.4912 C   0  0  0  0  0  0  0  0  0  0  0  0
   71.3728   46.3047   58.0730 C   0  0  0  0  0  0  0  0  0  0  0  0
   72.3036   45.3710   58.5029 C   0  0  0  0  0  0  0  0  0  0  0  0
   72.0763   44.0207   58.3596 C   0  0  0  0  0  0  0  0  0  0  0  0
   67.9702   46.3910   55.8178 N   0  0  0  0  0  0  0  0  0  0  0  0
   68.2231   46.5551   54.4299 C   0  0  0  0  0  0  0  0  0  0  0  0
   67.6233   45.7511   53.4876 C   0  0  0  0  0  0  0  0  0  0  0  0
   67.8563   45.8947   52.1379 C   0  0  0  0  0  0  0  0  0  0  0  0
   68.7110   46.8704   51.7325 C   0  0  0  0  0  0  0  0  0  0  0  0
   69.3444   47.7091   52.6054 C   0  0  0  0  0  0  0  0  0  0  0  0
   69.0867   47.5363   53.9671 C   0  0  0  0  0  0  0  0  0  0  0  0
   70.2425   48.7270   52.1167 C   0  0  0  0  0  0  0  0  0  0  0  0
   70.0202   49.2720   51.0132 O   0  0  0  0  0  0  0  0  0  0  0  0
   71.3552   49.1344   52.8269 O   0  0  0  0  0  0  0  0  0  0  0  0
  4  5  1  0
  5  6  2  0
  5 15  1  0
  6  7  1  0
  6  8  1  0
  8  9  2  0
  9 10  1  0
 10 11  1  0
 10 15  2  0
 11 12  2  0
 12  1  1  0
 12 13  1  0
  1  2  2  0
  1  3  2  0
  1 16  1  0
 16 17  1  0
 17 18  2  0
 17 22  1  0
 18 19  1  0
 19 20  2  0
 20 21  1  0
 21 23  1  0
 21 22  2  0
 23 24  2  0
 23 25  1  0
 13 14  2  0
 14 15  1  0
M  END
>  <minimizedAffinity>  (886) 
-8.61541

$$$$
cs_full_output_folder/data/smiles/2325.pdb
     RDKit          3D

 27 30  0  0  0  0  0  0  0  0999 V2000
   74.7833   35.3861   53.6742 C   0  0  0  0  0  0  0  0  0  0  0  0
   73.4172   35.4386   53.8159 C   0  0  0  0  0  0  0  0  0  0  0  0
   72.7852   35.2028   55.0566 C   0  0  0  0  0  0  0  0  0  0  0  0
   73.5081   34.9105   56.1790 C   0  0  0  0  0  0  0  0  0  0  0  0
   74.9062   34.8709   55.9718 C   0  0  0  0  0  0  0  0  0  0  0  0
   75.4805   35.0975   54.7871 N   0  0  0  0  0  0  0  0  0  0  0  0
   75.4861   33.4260   51.8712 O   0  0  0  0  0  0  0  0  0  0  0  0
   75.8008   34.6023   51.5317 C   0  0  0  0  0  0  0  0  0  0  0  0
   75.4481   35.6202   52.4403 N   0  0  0  0  0  0  0  0  0  0  0  0
   76.4796   34.8053   50.2686 C   0  0  0  0  0  0  0  0  0  0  0  0
   76.0983   34.1248   49.1290 C   0  0  0  0  0  0  0  0  0  0  0  0
   76.7755   34.3415   47.9417 C   0  0  0  0  0  0  0  0  0  0  0  0
   77.8284   35.2218   47.8604 C   0  0  0  0  0  0  0  0  0  0  0  0
   78.2128   35.9005   48.9868 C   0  0  0  0  0  0  0  0  0  0  0  0
   77.5334   35.6877   50.1919 C   0  0  0  0  0  0  0  0  0  0  0  0
   72.9849   34.6332   57.5397 C   0  0  0  0  0  0  0  0  0  0  0  0
   72.2481   35.7549   58.1659 C   0  0  0  0  0  0  0  0  0  0  0  0
   72.3569   36.9493   57.5184 N   0  0  0  0  0  0  0  0  0  0  0  0
   71.4700   38.2401   58.0833 S   0  0  0  0  0  0  0  0  0  0  0  0
   70.5330   37.8181   59.4382 C   0  0  0  0  0  0  0  0  0  0  0  0
   69.7772   38.6446   60.0342 O   0  0  0  0  0  0  0  0  0  0  0  0
   70.6386   36.4962   59.8704 C   0  0  0  0  0  0  0  0  0  0  0  0
   71.4482   35.5498   59.2663 C   0  0  0  0  0  0  0  0  0  0  0  0
   71.5751   34.2505   60.0024 C   0  0  0  0  0  0  0  0  0  0  0  0
   70.4155   33.8465   60.8160 C   0  0  0  0  0  0  0  0  0  0  0  0
   69.6324   34.9321   61.3837 C   0  0  0  0  0  0  0  0  0  0  0  0
   69.7214   36.1600   60.9571 C   0  0  0  0  0  0  0  0  0  0  0  0
  7  8  2  0
  8  9  1  0
  8 10  1  0
  9  1  1  0
  1  2  2  0
  1  6  1  0
  2  3  1  0
  3  4  2  0
  4 16  1  0
  4  5  1  0
 16 17  1  0
 17 18  2  0
 17 23  1  0
 18 19  1  0
 19 20  1  0
 20 21  2  0
 20 22  1  0
 22 23  2  0
 22 27  1  0
 23 24  1  0
 24 25  1  0
 25 26  1  0
 26 27  2  0
  5  6  2  0
 10 11  2  0
 10 15  1  0
 11 12  1  0
 12 13  2  0
 13 14  1  0
 14 15  2  0
M  END
>  <minimizedAffinity>  (887) 
-8.61085

$$$$
cs_full_output_folder/data/smiles/68.pdb
     RDKit          3D

 26 27  0  0  0  0  0  0  0  0999 V2000
   71.2005   50.7385   56.3054 C   0  0  0  0  0  0  0  0  0  0  0  0
   70.1019   51.2777   57.2463 C   0  0  0  0  0  0  0  0  0  0  0  0
   68.9940   51.4048   56.7435 C   0  0  0  0  0  0  0  0  0  0  0  0
   68.4975   51.2006   55.4177 C   0  0  0  0  0  0  0  0  0  0  0  0
   69.3875   50.7457   54.5008 C   0  0  0  0  0  0  0  0  0  0  0  0
   70.6477   50.5465   55.0381 C   0  0  0  0  0  0  0  0  0  0  0  0
   73.5989   50.2062   56.4523 C   0  0  0  0  0  0  0  0  0  0  0  0
   72.4034   50.4714   56.3686 C   0  0  0  0  0  0  0  0  0  0  0  0
   76.2473   49.5743   56.6491 C   0  0  0  0  0  0  0  0  0  0  0  0
   75.0404   49.8632   56.5499 C   0  0  0  0  0  0  0  0  0  0  0  0
   78.4302   49.2599   55.7188 C   0  0  0  0  0  0  0  0  0  0  0  0
   77.5674   49.2765   56.7555 C   0  0  0  0  0  0  0  0  0  0  0  0
   80.2709   47.7834   55.7777 O   0  0  0  0  0  0  0  0  0  0  0  0
   79.8119   48.9308   55.8718 C   0  0  0  0  0  0  0  0  0  0  0  0
   80.7888   49.9507   56.1119 N   0  0  0  0  0  0  0  0  0  0  0  0
   82.1042   49.5323   56.2491 O   0  0  0  0  0  0  0  0  0  0  0  0
   69.3022   50.5547   53.0814 N   0  0  0  0  0  0  0  0  0  0  0  0
   70.1134   49.1874   52.4448 S   0  0  0  0  0  0  0  0  0  0  0  0
   70.0556   49.3645   50.9718 O   0  0  0  0  0  0  0  0  0  0  0  0
   71.5125   49.1187   52.9212 O   0  0  0  0  0  0  0  0  0  0  0  0
   69.2032   47.7459   52.9692 C   0  0  0  0  0  0  0  0  0  0  0  0
   69.0027   47.5024   54.2846 C   0  0  0  0  0  0  0  0  0  0  0  0
   68.2284   46.4367   54.7688 C   0  0  0  0  0  0  0  0  0  0  0  0
   67.6708   45.6040   53.8269 C   0  0  0  0  0  0  0  0  0  0  0  0
   67.8448   45.7843   52.4559 C   0  0  0  0  0  0  0  0  0  0  0  0
   68.6206   46.8818   52.0163 C   0  0  0  0  0  0  0  0  0  0  0  0
 13 14  2  0
 14 11  1  0
 14 15  1  0
 11 12  2  0
 12  9  1  0
  9 10  3  0
 10  7  1  0
  7  8  3  0
  8  1  1  0
  1  2  2  0
  1  6  1  0
  2  3  1  0
  3  4  2  0
  4  5  1  0
  5 17  1  0
  5  6  2  0
 17 18  1  0
 18 19  2  0
 18 20  2  0
 18 21  1  0
 21 22  2  0
 21 26  1  0
 22 23  1  0
 23 24  2  0
 24 25  1  0
 25 26  2  0
 15 16  1  0
M  END
>  <minimizedAffinity>  (888) 
-8.60552

$$$$
cs_full_output_folder/data/smiles/3394.pdb
     RDKit          3D

 26 28  0  0  0  0  0  0  0  0999 V2000
   68.6495   48.2117   56.5255 C   0  0  0  0  0  0  0  0  0  0  0  0
   67.8082   48.8868   57.1345 O   0  0  0  0  0  0  0  0  0  0  0  0
   67.0767   45.2044   52.7155 N   0  0  0  0  0  0  0  0  0  0  0  0
   68.0435   46.2325   52.7753 C   0  0  0  0  0  0  0  0  0  0  0  0
   68.7669   46.5930   51.6786 C   0  0  0  0  0  0  0  0  0  0  0  0
   69.6977   47.6022   51.7863 C   0  0  0  0  0  0  0  0  0  0  0  0
   69.9084   48.2538   52.9881 C   0  0  0  0  0  0  0  0  0  0  0  0
   70.8227   49.2293   53.0510 N   0  0  0  0  0  0  0  0  0  0  0  0
   71.0407   49.8699   54.2032 C   0  0  0  0  0  0  0  0  0  0  0  0
   71.9040   50.7748   54.2156 O   0  0  0  0  0  0  0  0  0  0  0  0
   70.3216   49.5253   55.3295 C   0  0  0  0  0  0  0  0  0  0  0  0
   69.3694   48.5278   55.3171 C   0  0  0  0  0  0  0  0  0  0  0  0
   69.1669   47.8896   54.1284 C   0  0  0  0  0  0  0  0  0  0  0  0
   68.2552   46.8906   53.9920 C   0  0  0  0  0  0  0  0  0  0  0  0
   68.8921   46.9566   57.1636 O   0  0  0  0  0  0  0  0  0  0  0  0
   70.1673   46.5337   57.4796 C   0  0  0  0  0  0  0  0  0  0  0  0
   70.1665   45.1221   58.0079 C   0  0  0  0  0  0  0  0  0  0  0  0
   69.8295   44.9412   59.2310 O   0  0  0  0  0  0  0  0  0  0  0  0
   70.5150   43.9869   57.2494 N   0  0  0  0  0  0  0  0  0  0  0  0
   70.5194   42.6517   57.6970 C   0  0  0  0  0  0  0  0  0  0  0  0
   71.5054   41.9526   58.1795 C   0  0  0  0  0  0  0  0  0  0  0  0
   71.3249   40.5630   58.5990 C   0  0  0  0  0  0  0  0  0  0  0  0
   70.1567   40.0338   58.4783 C   0  0  0  0  0  0  0  0  0  0  0  0
   69.1228   40.7176   58.1748 C   0  0  0  0  0  0  0  0  0  0  0  0
   69.2386   41.9041   57.6239 C   0  0  0  0  0  0  0  0  0  0  0  0
   68.1883   42.4341   56.9952 F   0  0  0  0  0  0  0  0  0  0  0  0
  3  4  1  0
  4  5  2  0
  4 14  1  0
  5  6  1  0
  6  7  2  0
  7  8  1  0
  7 13  1  0
  8  9  1  0
  9 10  2  0
  9 11  1  0
 11 12  2  0
 12  1  1  0
 12 13  1  0
  1  2  2  0
  1 15  1  0
 15 16  1  0
 16 17  1  0
 17 18  2  0
 17 19  1  0
 19 20  1  0
 20 21  2  0
 20 25  1  0
 21 22  1  0
 22 23  2  0
 23 24  2  0
 24 25  2  0
 25 26  1  0
 13 14  2  0
M  END
>  <minimizedAffinity>  (889) 
-8.60379

$$$$
cs_full_output_folder/data/smiles/5425.pdb
     RDKit          3D

 25 27  0  0  0  0  0  0  0  0999 V2000
   68.4555   42.5163   56.6743 C   0  0  0  0  0  0  0  0  0  0  0  0
   67.6338   41.1212   56.8485 S   0  0  0  0  0  0  0  0  0  0  0  0
   70.5148   43.3151   57.8299 C   0  0  0  0  0  0  0  0  0  0  0  0
   69.7781   43.9935   58.5839 O   0  0  0  0  0  0  0  0  0  0  0  0
   69.8843   42.5402   56.8343 N   0  0  0  0  0  0  0  0  0  0  0  0
   74.7600   43.5668   58.4541 C   0  0  0  0  0  0  0  0  0  0  0  0
   73.9790   44.6965   58.3217 C   0  0  0  0  0  0  0  0  0  0  0  0
   72.6198   44.5956   58.1214 C   0  0  0  0  0  0  0  0  0  0  0  0
   71.9618   43.3803   58.0428 C   0  0  0  0  0  0  0  0  0  0  0  0
   72.7520   42.2567   58.1756 C   0  0  0  0  0  0  0  0  0  0  0  0
   74.1165   42.3507   58.3762 C   0  0  0  0  0  0  0  0  0  0  0  0
   76.5502   43.7741   60.1593 C   0  0  0  0  0  0  0  0  0  0  0  0
   76.2320   43.6612   58.6712 C   0  0  0  0  0  0  0  0  0  0  0  0
   76.9788   42.4789   58.1454 C   0  0  0  0  0  0  0  0  0  0  0  0
   67.7927   43.7174   56.3665 N   0  0  0  0  0  0  0  0  0  0  0  0
   68.1563   44.4763   55.2508 N   0  0  0  0  0  0  0  0  0  0  0  0
   68.3787   45.8747   55.3261 C   0  0  0  0  0  0  0  0  0  0  0  0
   68.2362   46.4467   56.4624 O   0  0  0  0  0  0  0  0  0  0  0  0
   68.7537   46.6664   54.1824 C   0  0  0  0  0  0  0  0  0  0  0  0
   68.4145   46.2342   52.9108 C   0  0  0  0  0  0  0  0  0  0  0  0
   68.7271   46.9202   51.7728 C   0  0  0  0  0  0  0  0  0  0  0  0
   69.4143   48.1062   51.8740 C   0  0  0  0  0  0  0  0  0  0  0  0
   69.7956   48.6136   53.1543 C   0  0  0  0  0  0  0  0  0  0  0  0
   69.4370   47.8489   54.2736 C   0  0  0  0  0  0  0  0  0  0  0  0
   70.1272   49.3362   51.9803 N   0  0  0  0  0  0  0  0  0  0  0  0
 12 13  1  0
 13 14  1  0
 13  6  1  0
  6  7  2  0
  6 11  1  0
  7  8  1  0
  8  9  2  0
  9  3  1  0
  9 10  1  0
  3  4  2  0
  3  5  1  0
  5  1  1  0
  1  2  2  0
  1 15  1  0
 15 16  1  0
 16 17  1  0
 17 18  2  0
 17 19  1  0
 19 20  2  0
 19 24  1  0
 20 21  1  0
 21 22  2  0
 22 23  1  0
 22 25  1  0
 23 24  2  0
 23 25  1  0
 10 11  2  0
M  CHG  1  25   1
M  END
>  <minimizedAffinity>  (890) 
-8.60288

$$$$
cs_full_output_folder/data/smiles/575.pdb
     RDKit          3D

 27 30  0  0  0  0  0  0  0  0999 V2000
   73.6643   48.1612   59.7076 C   0  0  0  0  0  0  0  0  0  0  0  0
   72.4728   48.3556   58.8417 C   0  0  0  0  0  0  0  0  0  0  0  0
   72.2631   49.4776   58.1458 N   0  0  0  0  0  0  0  0  0  0  0  0
   71.2064   49.7057   57.3591 C   0  0  0  0  0  0  0  0  0  0  0  0
   70.2137   48.7173   57.2213 C   0  0  0  0  0  0  0  0  0  0  0  0
   70.3857   47.5591   57.9104 C   0  0  0  0  0  0  0  0  0  0  0  0
   71.5132   47.3605   58.7275 C   0  0  0  0  0  0  0  0  0  0  0  0
   71.7489   46.1233   59.4382 C   0  0  0  0  0  0  0  0  0  0  0  0
   71.6567   46.0213   60.6947 O   0  0  0  0  0  0  0  0  0  0  0  0
   72.1084   44.9247   58.7083 C   0  0  0  0  0  0  0  0  0  0  0  0
   71.1211   43.9814   58.4466 C   0  0  0  0  0  0  0  0  0  0  0  0
   71.4036   42.8214   57.7615 C   0  0  0  0  0  0  0  0  0  0  0  0
   72.6724   42.5877   57.3268 N   0  0  0  0  0  0  0  0  0  0  0  0
   73.6536   43.4731   57.5582 C   0  0  0  0  0  0  0  0  0  0  0  0
   73.3749   44.6472   58.2512 C   0  0  0  0  0  0  0  0  0  0  0  0
   69.0643   48.9426   56.3161 C   0  0  0  0  0  0  0  0  0  0  0  0
   69.3426   48.9736   54.9019 C   0  0  0  0  0  0  0  0  0  0  0  0
   69.7677   50.1533   54.3440 N   0  0  0  0  0  0  0  0  0  0  0  0
   70.0061   50.2831   53.0520 N   0  0  0  0  0  0  0  0  0  0  0  0
   69.8531   49.2695   52.1720 C   0  0  0  0  0  0  0  0  0  0  0  0
   70.0748   49.3729   50.9369 O   0  0  0  0  0  0  0  0  0  0  0  0
   69.4265   48.0610   52.7024 C   0  0  0  0  0  0  0  0  0  0  0  0
   69.1766   47.9358   54.0738 C   0  0  0  0  0  0  0  0  0  0  0  0
   68.7799   46.6024   54.5275 C   0  0  0  0  0  0  0  0  0  0  0  0
   67.5498   46.2414   53.6821 C   0  0  0  0  0  0  0  0  0  0  0  0
   67.9418   46.1323   52.2275 C   0  0  0  0  0  0  0  0  0  0  0  0
   69.2188   46.8377   51.8910 C   0  0  0  0  0  0  0  0  0  0  0  0
  1  2  1  0
  2  3  2  0
  2  7  1  0
  3  4  1  0
  4  5  2  0
  5 16  1  0
  5  6  1  0
 16 17  1  0
 17 18  2  0
 17 23  1  0
 18 19  1  0
 19 20  1  0
 20 21  2  0
 20 22  1  0
 22 23  2  0
 22 27  1  0
 23 24  1  0
 24 25  1  0
 25 26  1  0
 26 27  1  0
  6  7  2  0
  7  8  1  0
  8  9  2  0
  8 10  1  0
 10 11  2  0
 10 15  1  0
 11 12  1  0
 12 13  2  0
 13 14  1  0
 14 15  2  0
M  END
>  <minimizedAffinity>  (891) 
-8.60184

$$$$
cs_full_output_folder/data/smiles/8216.pdb
     RDKit          3D

 27 29  0  0  0  0  0  0  0  0999 V2000
   69.9778   49.0286   53.2022 C   0  0  0  0  0  0  0  0  0  0  0  0
   69.3703   48.4605   54.2862 C   0  0  0  0  0  0  0  0  0  0  0  0
   68.7073   47.2392   54.2203 C   0  0  0  0  0  0  0  0  0  0  0  0
   68.6844   46.6079   52.9960 C   0  0  0  0  0  0  0  0  0  0  0  0
   69.3031   47.1801   51.8813 C   0  0  0  0  0  0  0  0  0  0  0  0
   69.9542   48.3929   51.9739 C   0  0  0  0  0  0  0  0  0  0  0  0
   70.5649   48.9444   50.8441 O   0  0  0  0  0  0  0  0  0  0  0  0
   70.6859   50.2525   53.2722 N   0  0  0  0  0  0  0  0  0  0  0  0
   73.2972   50.4005   53.7843 O   0  0  0  0  0  0  0  0  0  0  0  0
   71.9184   50.6360   54.3614 S   0  0  0  0  0  0  0  0  0  0  0  0
   71.8302   49.6776   55.5427 O   0  0  0  0  0  0  0  0  0  0  0  0
   71.8002   52.2320   54.9938 C   0  0  0  0  0  0  0  0  0  0  0  0
   72.7387   53.2048   55.0309 C   0  0  0  0  0  0  0  0  0  0  0  0
   72.1861   54.3026   55.6057 N   0  0  0  0  0  0  0  0  0  0  0  0
   70.9379   54.0349   55.9214 N   0  0  0  0  0  0  0  0  0  0  0  0
   70.6428   52.7945   55.5757 C   0  0  0  0  0  0  0  0  0  0  0  0
   69.3732   52.0378   55.7236 C   0  0  0  0  0  0  0  0  0  0  0  0
   68.7869   51.8538   54.4715 F   0  0  0  0  0  0  0  0  0  0  0  0
   69.5814   50.8412   56.3751 F   0  0  0  0  0  0  0  0  0  0  0  0
   68.4951   52.7734   56.5005 F   0  0  0  0  0  0  0  0  0  0  0  0
   68.0531   46.6421   55.4141 C   0  0  0  0  0  0  0  0  0  0  0  0
   69.0708   46.5035   56.4682 C   0  0  0  0  0  0  0  0  0  0  0  0
   69.5500   47.5816   57.1709 C   0  0  0  0  0  0  0  0  0  0  0  0
   70.5034   47.4529   58.1599 C   0  0  0  0  0  0  0  0  0  0  0  0
   71.0131   46.2174   58.4778 C   0  0  0  0  0  0  0  0  0  0  0  0
   70.5484   45.1221   57.7877 C   0  0  0  0  0  0  0  0  0  0  0  0
   69.5802   45.2693   56.7857 C   0  0  0  0  0  0  0  0  0  0  0  0
  9 10  2  0
 10 11  2  0
 10  8  1  0
 10 12  1  0
  8  1  1  0
  1  2  2  0
  1  6  1  0
  2  3  1  0
  3 21  1  0
  3  4  2  0
 21 22  1  0
 22 23  2  0
 22 27  1  0
 23 24  1  0
 24 25  2  0
 25 26  1  0
 26 27  2  0
  4  5  1  0
  5  6  2  0
  6  7  1  0
 12 13  1  0
 12 16  2  0
 13 14  2  0
 14 15  1  0
 15 16  1  0
 16 17  1  0
 17 18  1  0
 17 19  1  0
 17 20  1  0
M  END
>  <minimizedAffinity>  (892) 
-8.60103

$$$$
cs_full_output_folder/data/smiles/6163.pdb
     RDKit          3D

 27 30  0  0  0  0  0  0  0  0999 V2000
   71.8957   47.3972   58.4309 C   0  0  0  0  0  0  0  0  0  0  0  0
   70.9713   48.0810   57.7114 C   0  0  0  0  0  0  0  0  0  0  0  0
   69.8810   47.4964   57.0671 C   0  0  0  0  0  0  0  0  0  0  0  0
   69.7184   46.1507   57.1571 C   0  0  0  0  0  0  0  0  0  0  0  0
   70.6293   45.4033   57.8774 C   0  0  0  0  0  0  0  0  0  0  0  0
   71.7105   46.0300   58.5084 C   0  0  0  0  0  0  0  0  0  0  0  0
   72.5230   45.2113   59.1788 F   0  0  0  0  0  0  0  0  0  0  0  0
   72.7690   47.4829   61.3689 N   0  0  0  0  0  0  0  0  0  0  0  0
   72.9312   48.5668   60.4245 C   0  0  1  0  0  0  0  0  0  0  0  0
   74.3258   49.1321   60.7131 C   0  0  0  0  0  0  0  0  0  0  0  0
   74.7947   50.0495   59.6274 C   0  0  0  0  0  0  0  0  0  0  0  0
   75.1656   49.1933   58.4332 C   0  0  0  0  0  0  0  0  0  0  0  0
   74.3034   47.9723   58.4768 C   0  0  0  0  0  0  0  0  0  0  0  0
   74.7182   46.8813   57.9522 O   0  0  0  0  0  0  0  0  0  0  0  0
   73.0033   47.9625   59.0923 N   0  0  0  0  0  0  0  0  0  0  0  0
   68.9538   48.3934   56.3452 C   0  0  0  0  0  0  0  0  0  0  0  0
   69.3317   48.4077   54.9335 C   0  0  0  0  0  0  0  0  0  0  0  0
   70.2961   49.3127   54.5599 N   0  0  0  0  0  0  0  0  0  0  0  0
   70.7387   49.3728   53.3236 N   0  0  0  0  0  0  0  0  0  0  0  0
   70.2905   48.5674   52.3496 C   0  0  0  0  0  0  0  0  0  0  0  0
   70.7396   48.6510   51.1697 O   0  0  0  0  0  0  0  0  0  0  0  0
   69.3231   47.6322   52.6408 C   0  0  0  0  0  0  0  0  0  0  0  0
   68.8502   46.8105   51.6370 C   0  0  0  0  0  0  0  0  0  0  0  0
   67.8715   45.9049   51.9891 C   0  0  0  0  0  0  0  0  0  0  0  0
   67.3962   45.8322   53.2805 C   0  0  0  0  0  0  0  0  0  0  0  0
   67.8885   46.6687   54.2644 C   0  0  0  0  0  0  0  0  0  0  0  0
   68.8582   47.5744   53.9474 C   0  0  0  0  0  0  0  0  0  0  0  0
  9  8  1  1
  9 10  1  0
  9 15  1  0
 10 11  1  0
 11 12  1  0
 12 13  1  0
 13 14  2  0
 13 15  1  0
 15  1  1  0
  1  2  2  0
  1  6  1  0
  2  3  1  0
  3 16  1  0
  3  4  2  0
 16 17  1  0
 17 18  2  0
 17 27  1  0
 18 19  1  0
 19 20  1  0
 20 21  2  0
 20 22  1  0
 22 23  1  0
 22 27  2  0
 23 24  2  0
 24 25  1  0
 25 26  2  0
 26 27  1  0
  4  5  1  0
  5  6  2  0
  6  7  1  0
M  CHG  1   8   1
M  END
>  <minimizedAffinity>  (893) 
-8.59629

$$$$
cs_full_output_folder/data/smiles/2799.pdb
     RDKit          3D

 26 28  0  0  0  0  0  0  0  0999 V2000
   70.0498   43.4622   56.7437 O   0  0  0  0  0  0  0  0  0  0  0  0
   68.9198   43.0050   56.9920 C   0  0  0  0  0  0  0  0  0  0  0  0
   67.9039   43.6913   56.1900 N   0  0  0  0  0  0  0  0  0  0  0  0
   68.2127   44.6976   55.2981 N   0  0  0  0  0  0  0  0  0  0  0  0
   68.5323   46.0259   55.6503 C   0  0  0  0  0  0  0  0  0  0  0  0
   68.5319   46.2976   56.8810 O   0  0  0  0  0  0  0  0  0  0  0  0
   68.8573   47.0806   54.7088 C   0  0  0  0  0  0  0  0  0  0  0  0
   69.1726   48.3426   55.1464 C   0  0  0  0  0  0  0  0  0  0  0  0
   69.4875   49.3770   54.2716 C   0  0  0  0  0  0  0  0  0  0  0  0
   69.4874   49.1402   52.9171 C   0  0  0  0  0  0  0  0  0  0  0  0
   69.1744   47.8811   52.4545 C   0  0  0  0  0  0  0  0  0  0  0  0
   68.8603   46.8561   53.3511 C   0  0  0  0  0  0  0  0  0  0  0  0
   69.8097   50.1922   52.0093 N   0  0  0  0  0  0  0  0  0  0  0  0
   70.1317   51.2950   52.4452 O   0  0  0  0  0  0  0  0  0  0  0  0
   69.7612   49.9712   50.6605 O   0  0  0  0  0  0  0  0  0  0  0  0
   68.5523   41.9654   57.9062 C   0  0  0  0  0  0  0  0  0  0  0  0
   67.6196   42.3415   58.7560 O   0  0  0  0  0  0  0  0  0  0  0  0
   69.0181   40.6253   58.0506 C   0  0  0  0  0  0  0  0  0  0  0  0
   68.1607   39.5272   57.9702 C   0  0  0  0  0  0  0  0  0  0  0  0
   68.8539   38.4174   58.2071 N   0  0  0  0  0  0  0  0  0  0  0  0
   70.1288   38.7452   58.4374 C   0  0  0  0  0  0  0  0  0  0  0  0
   71.1742   37.8968   58.7101 C   0  0  0  0  0  0  0  0  0  0  0  0
   72.4286   38.4325   58.9011 C   0  0  0  0  0  0  0  0  0  0  0  0
   72.5777   39.7812   58.8108 C   0  0  0  0  0  0  0  0  0  0  0  0
   71.5061   40.6236   58.5345 C   0  0  0  0  0  0  0  0  0  0  0  0
   70.2435   40.1291   58.3405 C   0  0  0  0  0  0  0  0  0  0  0  0
  1  2  2  0
  2  3  1  0
  2 16  1  0
  3  4  1  0
  4  5  1  0
  5  6  2  0
  5  7  1  0
  7  8  2  0
  7 12  1  0
  8  9  1  0
  9 10  2  0
 10 13  1  0
 10 11  1  0
 13 14  2  0
 13 15  1  0
 11 12  2  0
 16 17  2  0
 16 18  1  0
 18 19  2  0
 18 26  1  0
 19 20  1  0
 20 21  1  0
 21 22  1  0
 21 26  2  0
 22 23  2  0
 23 24  1  0
 24 25  2  0
 25 26  1  0
M  CHG  2  13   1  15  -1
M  END
>  <minimizedAffinity>  (894) 
-8.59596

$$$$
cs_full_output_folder/data/smiles/6843.pdb
     RDKit          3D

 27 30  0  0  0  0  0  0  0  0999 V2000
   71.4364   46.9171   58.7090 C   0  0  0  0  0  0  0  0  0  0  0  0
   70.6406   47.7506   57.9826 C   0  0  0  0  0  0  0  0  0  0  0  0
   69.7182   47.2091   57.0752 C   0  0  0  0  0  0  0  0  0  0  0  0
   69.6166   45.8525   56.9192 C   0  0  0  0  0  0  0  0  0  0  0  0
   70.4315   44.9911   57.6618 C   0  0  0  0  0  0  0  0  0  0  0  0
   71.3378   45.5575   58.5551 C   0  0  0  0  0  0  0  0  0  0  0  0
   72.1315   44.7522   59.2816 F   0  0  0  0  0  0  0  0  0  0  0  0
   75.7828   47.1834   59.1216 C   0  0  0  0  0  0  0  0  0  0  0  0
   74.5880   47.2832   58.1962 C   0  0  0  0  0  0  0  0  0  0  0  0
   73.7652   47.6107   59.3308 N   0  0  0  0  0  0  0  0  0  0  0  0
   72.3884   47.4898   59.6497 C   0  0  0  0  0  0  0  0  0  0  0  0
   71.9387   47.8803   60.7722 O   0  0  0  0  0  0  0  0  0  0  0  0
   74.9362   48.1095   60.0002 C   0  0  0  0  0  0  0  0  0  0  0  0
   75.6311   44.8913   58.8565 C   0  0  0  0  0  0  0  0  0  0  0  0
   75.9863   45.9528   59.6936 O   0  0  0  0  0  0  0  0  0  0  0  0
   68.8495   48.1538   56.3267 C   0  0  0  0  0  0  0  0  0  0  0  0
   69.2871   48.2763   54.9255 C   0  0  0  0  0  0  0  0  0  0  0  0
   70.2493   49.1800   54.5661 N   0  0  0  0  0  0  0  0  0  0  0  0
   70.7041   49.2991   53.3404 N   0  0  0  0  0  0  0  0  0  0  0  0
   70.2661   48.5409   52.3170 C   0  0  0  0  0  0  0  0  0  0  0  0
   70.7479   48.7086   51.1681 O   0  0  0  0  0  0  0  0  0  0  0  0
   69.2932   47.6071   52.6047 C   0  0  0  0  0  0  0  0  0  0  0  0
   68.7956   46.8109   51.5997 C   0  0  0  0  0  0  0  0  0  0  0  0
   67.8082   45.8659   51.8233 C   0  0  0  0  0  0  0  0  0  0  0  0
   67.3301   45.7418   53.0985 C   0  0  0  0  0  0  0  0  0  0  0  0
   67.8324   46.5428   54.1089 C   0  0  0  0  0  0  0  0  0  0  0  0
   68.8114   47.4855   53.9147 C   0  0  0  0  0  0  0  0  0  0  0  0
 14 15  1  0
 15  8  1  0
  8  9  1  0
  8 13  1  0
  9 10  1  0
 10 11  1  0
 10 13  1  0
 11 12  2  0
 11  1  1  0
  1  2  2  0
  1  6  1  0
  2  3  1  0
  3 16  1  0
  3  4  2  0
 16 17  1  0
 17 18  2  0
 17 27  1  0
 18 19  1  0
 19 20  1  0
 20 21  2  0
 20 22  1  0
 22 23  1  0
 22 27  2  0
 23 24  2  0
 24 25  1  0
 25 26  2  0
 26 27  1  0
  4  5  1  0
  5  6  2  0
  6  7  1  0
M  END
>  <minimizedAffinity>  (895) 
-8.59551

$$$$
cs_full_output_folder/data/smiles/7008.pdb
     RDKit          3D

 28 31  0  0  0  0  0  0  0  0999 V2000
   68.8031   46.4074   54.9769 C   0  0  0  0  0  0  0  0  0  0  0  0
   69.2947   47.6025   54.4326 C   0  0  0  0  0  0  0  0  0  0  0  0
   69.1282   47.9227   53.1342 C   0  0  0  0  0  0  0  0  0  0  0  0
   68.4351   47.0039   52.3356 C   0  0  0  0  0  0  0  0  0  0  0  0
   67.9281   45.8250   52.7910 C   0  0  0  0  0  0  0  0  0  0  0  0
   68.1273   45.5426   54.1392 C   0  0  0  0  0  0  0  0  0  0  0  0
   67.6257   44.3684   54.5922 F   0  0  0  0  0  0  0  0  0  0  0  0
   69.0099   46.1080   56.3897 C   0  0  0  0  0  0  0  0  0  0  0  0
   69.0402   44.8890   56.7154 O   0  0  0  0  0  0  0  0  0  0  0  0
   69.1697   47.2009   57.3532 C   0  0  0  0  0  0  0  0  0  0  0  0
   69.8896   49.9686   58.1221 C   0  0  0  0  0  0  0  0  0  0  0  0
   70.8346   49.1082   57.3091 C   0  0  1  0  0  0  0  0  0  0  0  0
   72.2060   49.2520   57.9883 C   0  0  0  0  0  0  0  0  0  0  0  0
   71.9509   48.5533   59.2496 N   0  0  0  0  0  0  0  0  0  0  0  0
   71.0224   47.4925   58.9761 C   0  0  0  0  0  0  0  0  0  0  0  0
   70.6046   47.6318   57.5207 C   0  0  1  0  0  0  0  0  0  0  0  0
   69.5748   49.1408   52.4308 C   0  0  0  0  0  0  0  0  0  0  0  0
   70.4684   49.9105   53.2603 C   0  0  0  0  0  0  0  0  0  0  0  0
   71.8042   49.6164   53.2354 N   0  0  0  0  0  0  0  0  0  0  0  0
   72.6741   50.3111   53.9363 N   0  0  0  0  0  0  0  0  0  0  0  0
   72.3245   51.3454   54.7158 C   0  0  0  0  0  0  0  0  0  0  0  0
   73.1616   52.0162   55.3916 O   0  0  0  0  0  0  0  0  0  0  0  0
   71.0051   51.6982   54.7906 C   0  0  0  0  0  0  0  0  0  0  0  0
   70.5590   52.7455   55.5795 C   0  0  0  0  0  0  0  0  0  0  0  0
   69.2303   53.0991   55.6707 C   0  0  0  0  0  0  0  0  0  0  0  0
   68.3168   52.3698   54.9377 C   0  0  0  0  0  0  0  0  0  0  0  0
   68.7824   51.3130   54.1435 C   0  0  0  0  0  0  0  0  0  0  0  0
   70.0912   50.9547   54.0445 C   0  0  0  0  0  0  0  0  0  0  0  0
 12 11  1  1
 12 13  1  0
 12 16  1  0
 13 14  1  0
 14 15  1  0
 15 16  1  0
 16 10  1  1
 10  8  1  0
  8  9  2  0
  8  1  1  0
  1  2  2  0
  1  6  1  0
  2  3  1  0
  3 17  1  0
  3  4  2  0
 17 18  1  0
 18 19  2  0
 18 28  1  0
 19 20  1  0
 20 21  1  0
 21 22  2  0
 21 23  1  0
 23 24  1  0
 23 28  2  0
 24 25  2  0
 25 26  1  0
 26 27  2  0
 27 28  1  0
  4  5  1  0
  5  6  2  0
  6  7  1  0
M  CHG  1  14   1
M  END
>  <minimizedAffinity>  (896) 
-8.59482

$$$$
cs_full_output_folder/data/smiles/997.pdb
     RDKit          3D

 24 25  0  0  0  0  0  0  0  0999 V2000
   70.0906   49.1243   52.4618 S   0  0  0  0  0  0  0  0  0  0  0  0
   70.2069   48.9746   50.9697 O   0  0  0  0  0  0  0  0  0  0  0  0
   71.4846   49.0414   53.0161 O   0  0  0  0  0  0  0  0  0  0  0  0
   69.2160   47.7373   53.1051 C   0  0  0  0  0  0  0  0  0  0  0  0
   69.1969   47.5299   54.4669 C   0  0  0  0  0  0  0  0  0  0  0  0
   69.8653   48.4184   55.2614 F   0  0  0  0  0  0  0  0  0  0  0  0
   68.5139   46.4451   54.9879 C   0  0  0  0  0  0  0  0  0  0  0  0
   68.5032   46.2514   56.3278 F   0  0  0  0  0  0  0  0  0  0  0  0
   67.8339   45.5390   54.1959 C   0  0  0  0  0  0  0  0  0  0  0  0
   67.8611   45.7590   52.8317 C   0  0  0  0  0  0  0  0  0  0  0  0
   67.1990   44.8769   52.0553 F   0  0  0  0  0  0  0  0  0  0  0  0
   68.5457   46.8485   52.2934 C   0  0  0  0  0  0  0  0  0  0  0  0
   68.5621   47.0478   50.9719 F   0  0  0  0  0  0  0  0  0  0  0  0
   69.3567   50.5960   52.9143 N   0  0  0  0  0  0  0  0  0  0  0  0
   70.5570   52.9092   56.2457 C   0  0  0  0  0  0  0  0  0  0  0  0
   71.3937   52.7255   55.1618 C   0  0  0  0  0  0  0  0  0  0  0  0
   71.0292   51.9779   54.0641 C   0  0  0  0  0  0  0  0  0  0  0  0
   69.7958   51.3712   53.9992 C   0  0  0  0  0  0  0  0  0  0  0  0
   68.9469   51.5569   55.0955 C   0  0  0  0  0  0  0  0  0  0  0  0
   69.3185   52.3054   56.1893 C   0  0  0  0  0  0  0  0  0  0  0  0
   72.2847   53.6532   57.7222 C   0  0  0  0  0  0  0  0  0  0  0  0
   70.9156   53.6631   57.3600 O   0  0  0  0  0  0  0  0  0  0  0  0
   68.4184   52.4624   57.2785 N   0  0  0  0  0  0  0  0  0  0  0  0
   67.3787   51.6319   57.4264 F   0  0  0  0  0  0  0  0  0  0  0  0
 21 22  1  0
 22 15  1  0
 15 16  2  0
 15 20  1  0
 16 17  1  0
 17 18  2  0
 18 14  1  0
 18 19  1  0
 14  1  1  0
  1  2  2  0
  1  3  2  0
  1  4  1  0
  4  5  2  0
  4 12  1  0
  5  6  1  0
  5  7  1  0
  7  8  1  0
  7  9  2  0
  9 10  1  0
 10 11  1  0
 10 12  2  0
 12 13  1  0
 19 20  2  0
 20 23  1  0
 23 24  1  0
M  END
>  <minimizedAffinity>  (897) 
-8.59472

$$$$
cs_full_output_folder/data/smiles/790.pdb
     RDKit          3D

 25 27  0  0  0  0  0  0  0  0999 V2000
   67.6515   47.4190   56.8810 O   0  0  0  0  0  0  0  0  0  0  0  0
   68.8744   47.3817   56.4549 C   0  0  0  0  0  0  0  0  0  0  0  0
   69.1520   47.8114   55.1002 C   0  0  0  0  0  0  0  0  0  0  0  0
   69.9282   48.9730   54.9016 C   0  0  0  0  0  0  0  0  0  0  0  0
   70.2210   49.4134   53.6464 C   0  0  0  0  0  0  0  0  0  0  0  0
   70.9196   50.4576   53.5380 O   0  0  0  0  0  0  0  0  0  0  0  0
   69.7841   48.7642   52.5692 N   0  0  0  0  0  0  0  0  0  0  0  0
   69.0470   47.6624   52.7090 C   0  0  0  0  0  0  0  0  0  0  0  0
   68.6064   46.9893   51.5900 C   0  0  0  0  0  0  0  0  0  0  0  0
   67.8582   45.8535   51.7068 C   0  0  0  0  0  0  0  0  0  0  0  0
   67.5323   45.3622   52.9504 C   0  0  0  0  0  0  0  0  0  0  0  0
   67.9614   46.0192   54.1015 C   0  0  0  0  0  0  0  0  0  0  0  0
   68.7114   47.1581   53.9710 C   0  0  0  0  0  0  0  0  0  0  0  0
   69.7577   46.9373   57.3476 O   0  0  0  0  0  0  0  0  0  0  0  0
   71.1091   47.6492   58.1189 S   0  0  0  0  0  0  0  0  0  0  0  0
   71.1545   49.0907   58.8374 C   0  0  0  0  0  0  0  0  0  0  0  0
   72.3826   49.5105   59.4307 O   0  0  0  0  0  0  0  0  0  0  0  0
   70.1056   50.0218   58.9633 N   0  0  0  0  0  0  0  0  0  0  0  0
   69.6884   50.8845   57.9403 C   0  0  0  0  0  0  0  0  0  0  0  0
   70.5581   51.6972   57.2731 C   0  0  0  0  0  0  0  0  0  0  0  0
   70.0633   52.4843   56.2483 C   0  0  0  0  0  0  0  0  0  0  0  0
   68.7188   52.4559   55.8975 C   0  0  0  0  0  0  0  0  0  0  0  0
   67.8391   51.6454   56.5592 C   0  0  0  0  0  0  0  0  0  0  0  0
   68.3385   50.8666   57.5781 C   0  0  0  0  0  0  0  0  0  0  0  0
   67.5060   50.0518   58.2640 F   0  0  0  0  0  0  0  0  0  0  0  0
  1  2  2  0
  2 14  1  0
  2  3  1  0
 14 15  1  0
 15 16  2  0
 16 17  1  0
 16 18  1  0
 18 19  1  0
 19 20  2  0
 19 24  1  0
 20 21  1  0
 21 22  2  0
 22 23  1  0
 23 24  2  0
 24 25  1  0
  3  4  2  0
  3 13  1  0
  4  5  1  0
  5  6  2  0
  5  7  1  0
  7  8  1  0
  8  9  1  0
  8 13  2  0
  9 10  2  0
 10 11  1  0
 11 12  2  0
 12 13  1  0
M  END
>  <minimizedAffinity>  (898) 
-8.59460

$$$$
cs_full_output_folder/data/smiles/2528.pdb
     RDKit          3D

 27 30  0  0  0  0  0  0  0  0999 V2000
   73.8149   50.4538   56.2838 C   0  0  0  0  0  0  0  0  0  0  0  0
   72.9888   51.3377   55.6632 C   0  0  0  0  0  0  0  0  0  0  0  0
   71.6024   51.1826   55.6061 C   0  0  0  0  0  0  0  0  0  0  0  0
   71.0062   50.0814   56.2030 C   0  0  0  0  0  0  0  0  0  0  0  0
   71.8563   49.2048   56.8226 C   0  0  0  0  0  0  0  0  0  0  0  0
   73.1879   49.3862   56.8574 N   0  0  0  0  0  0  0  0  0  0  0  0
   75.7470   49.2262   54.5805 O   0  0  0  0  0  0  0  0  0  0  0  0
   76.1736   49.9117   55.5697 C   0  0  0  0  0  0  0  0  0  0  0  0
   75.2259   50.5087   56.3997 N   0  0  0  0  0  0  0  0  0  0  0  0
   77.6229   49.9978   55.7309 C   0  0  0  0  0  0  0  0  0  0  0  0
   78.2015   51.0879   56.3648 C   0  0  0  0  0  0  0  0  0  0  0  0
   79.5729   51.2136   56.5410 C   0  0  0  0  0  0  0  0  0  0  0  0
   80.4170   50.2299   56.0765 C   0  0  0  0  0  0  0  0  0  0  0  0
   79.8660   49.1574   55.4530 C   0  0  0  0  0  0  0  0  0  0  0  0
   78.4790   49.0314   55.2764 C   0  0  0  0  0  0  0  0  0  0  0  0
   69.5185   49.9466   56.1433 C   0  0  0  0  0  0  0  0  0  0  0  0
   69.0607   48.6397   55.6833 C   0  0  0  0  0  0  0  0  0  0  0  0
   68.4673   47.8311   56.5942 N   0  0  0  0  0  0  0  0  0  0  0  0
   67.9938   46.6425   56.2746 N   0  0  0  0  0  0  0  0  0  0  0  0
   68.0563   46.1357   55.0337 C   0  0  0  0  0  0  0  0  0  0  0  0
   67.5905   44.9931   54.7663 O   0  0  0  0  0  0  0  0  0  0  0  0
   68.6497   46.9128   54.0637 C   0  0  0  0  0  0  0  0  0  0  0  0
   69.1476   48.1560   54.3970 C   0  0  0  0  0  0  0  0  0  0  0  0
   69.7987   48.8984   53.4081 N   0  0  0  0  0  0  0  0  0  0  0  0
   69.7775   48.5157   52.0281 C   0  0  0  0  0  0  0  0  0  0  0  0
   69.2283   47.1693   51.7600 C   0  0  0  0  0  0  0  0  0  0  0  0
   68.7048   46.4302   52.7062 C   0  0  0  0  0  0  0  0  0  0  0  0
  7  8  2  0
  8  9  1  0
  8 10  1  0
  9  1  1  0
  1  2  2  0
  1  6  1  0
  2  3  1  0
  3  4  2  0
  4 16  1  0
  4  5  1  0
 16 17  1  0
 17 18  2  0
 17 23  1  0
 18 19  1  0
 19 20  1  0
 20 21  2  0
 20 22  1  0
 22 23  2  0
 22 27  1  0
 23 24  1  0
 24 25  1  0
 25 26  1  0
 26 27  2  0
  5  6  2  0
 10 11  2  0
 10 15  1  0
 11 12  1  0
 12 13  2  0
 13 14  1  0
 14 15  2  0
M  END
>  <minimizedAffinity>  (899) 
-8.59457

$$$$
cs_full_output_folder/data/smiles/1821.pdb
     RDKit          3D

 25 27  0  0  0  0  0  0  0  0999 V2000
   71.0056   41.6310   58.4204 C   0  0  0  0  0  0  0  0  0  0  0  0
   69.7291   41.2417   57.7992 C   0  0  0  0  0  0  0  0  0  0  0  0
   68.8521   42.0863   57.1737 C   0  0  0  0  0  0  0  0  0  0  0  0
   67.8061   41.2981   56.7459 C   0  0  0  0  0  0  0  0  0  0  0  0
   68.0794   40.0294   57.1186 N   0  0  0  0  0  0  0  0  0  0  0  0
   69.2422   39.9682   57.7603 N   0  0  0  0  0  0  0  0  0  0  0  0
   69.9096   38.8467   58.3236 C   0  0  0  0  0  0  0  0  0  0  0  0
   71.0917   38.3340   57.8414 C   0  0  0  0  0  0  0  0  0  0  0  0
   71.7254   37.2521   58.4028 C   0  0  0  0  0  0  0  0  0  0  0  0
   71.1805   36.6167   59.5118 C   0  0  0  0  0  0  0  0  0  0  0  0
   72.0658   35.1054   60.2996 Br  0  0  0  0  0  0  0  0  0  0  0  0
   69.9960   37.1185   60.0059 C   0  0  0  0  0  0  0  0  0  0  0  0
   69.3664   38.2035   59.4377 C   0  0  0  0  0  0  0  0  0  0  0  0
   68.9562   43.5232   56.9800 C   0  0  0  0  0  0  0  0  0  0  0  0
   69.5809   44.2210   57.8569 O   0  0  0  0  0  0  0  0  0  0  0  0
   68.4190   44.2405   55.8887 N   0  0  0  0  0  0  0  0  0  0  0  0
   68.5334   45.6653   55.7115 C   0  0  0  0  0  0  0  0  0  0  0  0
   68.4722   46.0920   54.2981 C   0  0  0  0  0  0  0  0  0  0  0  0
   67.7761   45.4255   53.3160 C   0  0  0  0  0  0  0  0  0  0  0  0
   67.7243   45.8535   51.9989 C   0  0  0  0  0  0  0  0  0  0  0  0
   68.3938   46.9991   51.6299 C   0  0  0  0  0  0  0  0  0  0  0  0
   69.0972   47.6896   52.5760 C   0  0  0  0  0  0  0  0  0  0  0  0
   69.1386   47.2526   53.8761 C   0  0  0  0  0  0  0  0  0  0  0  0
   69.8191   48.8982   52.2121 C   0  0  0  0  0  0  0  0  0  0  0  0
   71.0871   48.9071   52.0716 O   0  0  0  0  0  0  0  0  0  0  0  0
  1  2  1  0
  2  3  2  0
  2  6  1  0
  3 14  1  0
  3  4  1  0
 14 15  2  0
 14 16  1  0
 16 17  1  0
 17 18  1  0
 18 19  2  0
 18 23  1  0
 19 20  1  0
 20 21  2  0
 21 22  1  0
 22 24  1  0
 22 23  2  0
 24 25  2  0
  4  5  2  0
  5  6  1  0
  6  7  1  0
  7  8  2  0
  7 13  1  0
  8  9  1  0
  9 10  2  0
 10 11  1  0
 10 12  1  0
 12 13  2  0
M  END
>  <minimizedAffinity>  (900) 
-8.59275

$$$$
cs_full_output_folder/data/smiles/8326.pdb
     RDKit          3D

 26 28  0  0  0  0  0  0  0  0999 V2000
   70.7080   44.7547   57.8442 C   0  0  0  0  0  0  0  0  0  0  0  0
   71.8219   45.2986   57.7473 O   0  0  0  0  0  0  0  0  0  0  0  0
   69.6096   45.6928   57.6640 N   0  0  0  0  0  0  0  0  0  0  0  0
   71.6837   40.6817   60.3033 C   0  0  0  0  0  0  0  0  0  0  0  0
   70.8996   41.4167   59.3147 N   0  0  0  0  0  0  0  0  0  0  0  0
   71.1225   42.6734   59.0267 N   0  0  0  0  0  0  0  0  0  0  0  0
   70.3944   43.3731   58.1008 C   0  0  0  0  0  0  0  0  0  0  0  0
   69.3852   42.7054   57.4550 C   0  0  0  0  0  0  0  0  0  0  0  0
   68.6114   43.3397   56.5151 C   0  0  0  0  0  0  0  0  0  0  0  0
   67.5823   42.6399   55.8635 C   0  0  0  0  0  0  0  0  0  0  0  0
   67.3580   41.3194   56.1760 C   0  0  0  0  0  0  0  0  0  0  0  0
   68.1191   40.6639   57.1138 C   0  0  0  0  0  0  0  0  0  0  0  0
   69.1180   41.3541   57.7410 C   0  0  0  0  0  0  0  0  0  0  0  0
   69.9193   40.7489   58.6959 C   0  0  0  0  0  0  0  0  0  0  0  0
   69.6773   39.5260   58.9532 O   0  0  0  0  0  0  0  0  0  0  0  0
   69.8550   47.0747   57.4032 C   0  0  0  0  0  0  0  0  0  0  0  0
   68.7232   47.8060   56.7318 C   0  0  0  0  0  0  0  0  0  0  0  0
   68.6778   47.4031   55.3009 C   0  0  0  0  0  0  0  0  0  0  0  0
   67.9707   46.2742   54.9475 C   0  0  0  0  0  0  0  0  0  0  0  0
   67.9153   45.8874   53.6287 C   0  0  0  0  0  0  0  0  0  0  0  0
   68.5708   46.6313   52.6490 C   0  0  0  0  0  0  0  0  0  0  0  0
   69.2767   47.7569   52.9995 C   0  0  0  0  0  0  0  0  0  0  0  0
   69.3170   48.1265   54.3404 C   0  0  0  0  0  0  0  0  0  0  0  0
   69.9695   48.5498   51.9973 C   0  0  0  0  0  0  0  0  0  0  0  0
   70.1038   49.9575   52.1828 N   0  0  0  0  0  0  0  0  0  0  0  0
   70.4491   48.0195   50.9778 O   0  0  0  0  0  0  0  0  0  0  0  0
  4  5  1  0
  5  6  1  0
  5 14  1  0
  6  7  2  0
  7  1  1  0
  7  8  1  0
  1  2  2  0
  1  3  1  0
  3 16  1  0
 16 17  1  0
 17 18  1  0
 18 19  2  0
 18 23  1  0
 19 20  1  0
 20 21  2  0
 21 22  1  0
 22 24  1  0
 22 23  2  0
 24 25  1  0
 24 26  2  0
  8  9  1  0
  8 13  2  0
  9 10  2  0
 10 11  1  0
 11 12  2  0
 12 13  1  0
 13 14  1  0
 14 15  2  0
M  END
>  <minimizedAffinity>  (901) 
-8.58738

$$$$
cs_full_output_folder/data/smiles/435.pdb
     RDKit          3D

 26 28  0  0  0  0  0  0  0  0999 V2000
   71.7558   49.7061   54.0357 O   0  0  0  0  0  0  0  0  0  0  0  0
   70.3777   49.6559   53.7286 C   0  0  0  0  0  0  0  0  0  0  0  0
   70.0015   50.5742   53.0122 O   0  0  0  0  0  0  0  0  0  0  0  0
   69.6276   48.5501   54.2938 C   0  0  0  0  0  0  0  0  0  0  0  0
   69.5244   48.3940   55.6848 C   0  0  0  0  0  0  0  0  0  0  0  0
   68.8214   47.3598   56.2480 C   0  0  0  0  0  0  0  0  0  0  0  0
   68.7465   47.2464   57.4881 O   0  0  0  0  0  0  0  0  0  0  0  0
   68.2147   46.4680   55.4624 N   0  0  0  0  0  0  0  0  0  0  0  0
   68.2690   46.5510   54.1140 C   0  0  0  0  0  0  0  0  0  0  0  0
   67.6108   45.5837   53.3785 C   0  0  0  0  0  0  0  0  0  0  0  0
   67.6704   45.6745   52.0202 C   0  0  0  0  0  0  0  0  0  0  0  0
   68.3562   46.6860   51.3843 C   0  0  0  0  0  0  0  0  0  0  0  0
   69.0109   47.6472   52.1670 C   0  0  0  0  0  0  0  0  0  0  0  0
   68.9844   47.6057   53.5303 C   0  0  0  0  0  0  0  0  0  0  0  0
   72.3499   50.8315   54.5510 C   0  0  0  0  0  0  0  0  0  0  0  0
   73.5257   49.6587   56.1780 O   0  0  0  0  0  0  0  0  0  0  0  0
   72.7173   50.6430   55.9716 C   0  0  0  0  0  0  0  0  0  0  0  0
   72.3082   51.3614   57.0365 N   0  0  0  0  0  0  0  0  0  0  0  0
   71.3484   51.7315   57.6992 C   0  0  0  0  0  0  0  0  0  0  0  0
   69.9160   51.4580   57.5421 C   0  0  0  0  0  0  0  0  0  0  0  0
   69.2492   50.6340   58.4163 C   0  0  0  0  0  0  0  0  0  0  0  0
   67.9064   50.3913   58.2309 C   0  0  0  0  0  0  0  0  0  0  0  0
   67.1925   50.9412   57.1992 C   0  0  0  0  0  0  0  0  0  0  0  0
   67.8637   51.7622   56.3318 C   0  0  0  0  0  0  0  0  0  0  0  0
   69.2021   52.0190   56.4959 C   0  0  0  0  0  0  0  0  0  0  0  0
   69.8739   52.8350   55.6346 F   0  0  0  0  0  0  0  0  0  0  0  0
 16 17  2  0
 17 15  1  0
 17 18  1  0
 15  1  1  0
  1  2  1  0
  2  3  2  0
  2  4  1  0
  4  5  2  0
  4 14  1  0
  5  6  1  0
  6  7  2  0
  6  8  1  0
  8  9  1  0
  9 10  1  0
  9 14  2  0
 10 11  2  0
 11 12  1  0
 12 13  2  0
 13 14  1  0
 18 19  2  0
 19 20  1  0
 20 21  2  0
 20 25  1  0
 21 22  1  0
 22 23  2  0
 23 24  1  0
 24 25  2  0
 25 26  1  0
M  END
>  <minimizedAffinity>  (902) 
-8.58640

$$$$
cs_full_output_folder/data/smiles/4349.pdb
     RDKit          3D

 26 28  0  0  0  0  0  0  0  0999 V2000
   72.9471   45.0285   59.1045 C   0  0  0  0  0  0  0  0  0  0  0  0
   72.2513   43.8830   58.4667 C   0  0  0  0  0  0  0  0  0  0  0  0
   70.9846   43.9177   57.9186 C   0  0  0  0  0  0  0  0  0  0  0  0
   70.7773   42.6327   57.4558 C   0  0  0  0  0  0  0  0  0  0  0  0
   71.8817   41.9159   57.7344 N   0  0  0  0  0  0  0  0  0  0  0  0
   72.7838   42.6523   58.3449 N   0  0  0  0  0  0  0  0  0  0  0  0
   74.0633   42.1911   58.7762 C   0  0  0  0  0  0  0  0  0  0  0  0
   74.2171   41.3392   59.8528 C   0  0  0  0  0  0  0  0  0  0  0  0
   75.4576   40.8951   60.2659 C   0  0  0  0  0  0  0  0  0  0  0  0
   76.6082   41.2889   59.6151 C   0  0  0  0  0  0  0  0  0  0  0  0
   76.4706   42.1392   58.5403 C   0  0  0  0  0  0  0  0  0  0  0  0
   77.9119   42.6556   57.6941 Cl  0  0  0  0  0  0  0  0  0  0  0  0
   75.2261   42.5753   58.1368 C   0  0  0  0  0  0  0  0  0  0  0  0
   70.0664   45.0618   57.8445 C   0  0  0  0  0  0  0  0  0  0  0  0
   69.9142   45.8102   58.8160 O   0  0  0  0  0  0  0  0  0  0  0  0
   69.3676   45.3157   56.7011 O   0  0  0  0  0  0  0  0  0  0  0  0
   68.8340   46.5153   56.2518 C   0  0  0  0  0  0  0  0  0  0  0  0
   68.7801   46.6964   54.7975 C   0  0  0  0  0  0  0  0  0  0  0  0
   68.0680   45.7539   54.0494 C   0  0  0  0  0  0  0  0  0  0  0  0
   67.9767   45.8497   52.6811 C   0  0  0  0  0  0  0  0  0  0  0  0
   68.6038   46.9048   52.0215 C   0  0  0  0  0  0  0  0  0  0  0  0
   69.3105   47.8446   52.7369 C   0  0  0  0  0  0  0  0  0  0  0  0
   69.3822   47.7212   54.0950 C   0  0  0  0  0  0  0  0  0  0  0  0
   69.9655   48.9457   52.0493 C   0  0  0  0  0  0  0  0  0  0  0  0
   70.0285   50.2406   52.6243 N   0  0  0  0  0  0  0  0  0  0  0  0
   70.4887   48.7646   50.9244 O   0  0  0  0  0  0  0  0  0  0  0  0
  1  2  1  0
  2  3  2  0
  2  6  1  0
  3 14  1  0
  3  4  1  0
 14 15  2  0
 14 16  1  0
 16 17  1  0
 17 18  1  0
 18 19  2  0
 18 23  1  0
 19 20  1  0
 20 21  2  0
 21 22  1  0
 22 24  1  0
 22 23  2  0
 24 25  1  0
 24 26  2  0
  4  5  2  0
  5  6  1  0
  6  7  1  0
  7  8  2  0
  7 13  1  0
  8  9  1  0
  9 10  2  0
 10 11  1  0
 11 12  1  0
 11 13  2  0
M  END
>  <minimizedAffinity>  (903) 
-8.58527

$$$$
cs_full_output_folder/data/smiles/1558.pdb
     RDKit          3D

 24 25  0  0  0  0  0  0  0  0999 V2000
   70.1401   49.2393   52.5678 S   0  0  0  0  0  0  0  0  0  0  0  0
   70.3050   48.9835   51.1077 O   0  0  0  0  0  0  0  0  0  0  0  0
   71.4692   49.4729   53.2381 O   0  0  0  0  0  0  0  0  0  0  0  0
   68.9339   46.5038   55.2887 C   0  0  0  0  0  0  0  0  0  0  0  0
   69.5233   47.5879   54.6688 C   0  0  0  0  0  0  0  0  0  0  0  0
   69.3660   47.8375   53.3214 C   0  0  0  0  0  0  0  0  0  0  0  0
   68.5928   46.9604   52.6060 C   0  0  0  0  0  0  0  0  0  0  0  0
   67.9848   45.8595   53.1966 C   0  0  0  0  0  0  0  0  0  0  0  0
   68.1529   45.6240   54.5493 C   0  0  0  0  0  0  0  0  0  0  0  0
   67.5338   44.5184   55.1055 O   0  0  0  0  0  0  0  0  0  0  0  0
   69.6569   45.0706   57.1935 N   0  0  0  0  0  0  0  0  0  0  0  0
   69.1199   46.2717   56.6996 C   0  0  0  0  0  0  0  0  0  0  0  0
   68.7931   47.1667   57.5344 O   0  0  0  0  0  0  0  0  0  0  0  0
   69.0910   50.5794   52.8422 N   0  0  0  0  0  0  0  0  0  0  0  0
   69.0392   51.1671   54.1328 C   0  0  0  0  0  0  0  0  0  0  0  0
   69.7476   52.3457   54.3686 C   0  0  0  0  0  0  0  0  0  0  0  0
   69.7202   52.9409   55.6067 C   0  0  0  0  0  0  0  0  0  0  0  0
   68.9902   52.3845   56.6467 C   0  0  0  0  0  0  0  0  0  0  0  0
   68.2929   51.2361   56.4421 C   0  0  0  0  0  0  0  0  0  0  0  0
   68.3246   50.6391   55.1841 C   0  0  0  0  0  0  0  0  0  0  0  0
   67.4921   50.6038   57.5386 C   0  0  0  0  0  0  0  0  0  0  0  0
   66.3415   51.3532   57.7408 F   0  0  0  0  0  0  0  0  0  0  0  0
   68.2361   50.5124   58.6887 F   0  0  0  0  0  0  0  0  0  0  0  0
   67.1660   49.3257   57.1305 F   0  0  0  0  0  0  0  0  0  0  0  0
 11 12  1  0
 12 13  2  0
 12  4  1  0
  4  5  2  0
  4  9  1  0
  5  6  1  0
  6  1  1  0
  6  7  2  0
  1  2  2  0
  1  3  2  0
  1 14  1  0
 14 15  1  0
 15 16  2  0
 15 20  1  0
 16 17  1  0
 17 18  2  0
 18 19  1  0
 19 21  1  0
 19 20  2  0
 21 22  1  0
 21 23  1  0
 21 24  1  0
  7  8  1  0
  8  9  2  0
  9 10  1  0
M  END
>  <minimizedAffinity>  (904) 
-8.58227

$$$$
cs_full_output_folder/data/smiles/5297.pdb
     RDKit          3D

 28 31  0  0  0  0  0  0  0  0999 V2000
   71.7839   46.9617   59.1686 C   0  0  0  0  0  0  0  0  0  0  0  0
   70.7686   47.6132   58.4900 C   0  0  0  0  0  0  0  0  0  0  0  0
   69.9838   46.9541   57.5717 C   0  0  0  0  0  0  0  0  0  0  0  0
   70.2348   45.6307   57.3462 C   0  0  0  0  0  0  0  0  0  0  0  0
   71.2578   44.9534   58.0227 C   0  0  0  0  0  0  0  0  0  0  0  0
   72.0252   45.6273   58.9307 C   0  0  0  0  0  0  0  0  0  0  0  0
   73.0399   45.0001   59.6176 F   0  0  0  0  0  0  0  0  0  0  0  0
   73.2346   48.8918   57.3572 C   0  0  0  0  0  0  0  0  0  0  0  0
   74.2251   48.6859   58.4706 C   0  0  1  0  0  0  0  0  0  0  0  0
   75.0281   47.5813   58.1506 F   0  0  0  0  0  0  0  0  0  0  0  0
   75.1358   49.8950   58.4960 C   0  0  0  0  0  0  0  0  0  0  0  0
   75.2065   50.3208   59.9233 C   0  0  0  0  0  0  0  0  0  0  0  0
   74.4562   49.2934   60.7003 C   0  0  0  0  0  0  0  0  0  0  0  0
   73.6592   48.5079   59.7717 N   0  0  0  0  0  0  0  0  0  0  0  0
   72.5647   47.7209   60.1467 C   0  0  0  0  0  0  0  0  0  0  0  0
   72.2302   47.6503   61.3539 O   0  0  0  0  0  0  0  0  0  0  0  0
   68.9517   47.7658   56.8968 C   0  0  0  0  0  0  0  0  0  0  0  0
   69.3987   48.0428   55.5078 C   0  0  0  0  0  0  0  0  0  0  0  0
   70.3174   49.0469   55.2858 N   0  0  0  0  0  0  0  0  0  0  0  0
   70.7207   49.3746   54.0765 N   0  0  0  0  0  0  0  0  0  0  0  0
   70.2719   48.7606   52.9717 C   0  0  0  0  0  0  0  0  0  0  0  0
   70.6755   49.0984   51.8309 O   0  0  0  0  0  0  0  0  0  0  0  0
   69.3422   47.7319   53.0909 C   0  0  0  0  0  0  0  0  0  0  0  0
   68.8732   47.0664   51.9731 C   0  0  0  0  0  0  0  0  0  0  0  0
   67.9690   46.0354   52.0972 C   0  0  0  0  0  0  0  0  0  0  0  0
   67.5750   45.7218   53.3779 C   0  0  0  0  0  0  0  0  0  0  0  0
   68.0316   46.3745   54.5094 C   0  0  0  0  0  0  0  0  0  0  0  0
   68.9416   47.4144   54.3793 C   0  0  0  0  0  0  0  0  0  0  0  0
  9  8  1  6
  9 10  1  0
  9 11  1  0
  9 14  1  0
 11 12  1  0
 12 13  1  0
 13 14  1  0
 14 15  1  0
 15 16  2  0
 15  1  1  0
  1  2  2  0
  1  6  1  0
  2  3  1  0
  3 17  1  0
  3  4  2  0
 17 18  1  0
 18 19  2  0
 18 28  1  0
 19 20  1  0
 20 21  1  0
 21 22  2  0
 21 23  1  0
 23 24  1  0
 23 28  2  0
 24 25  2  0
 25 26  1  0
 26 27  2  0
 27 28  1  0
  4  5  1  0
  5  6  2  0
  6  7  1  0
M  END
>  <minimizedAffinity>  (905) 
-8.58227

$$$$
cs_full_output_folder/data/smiles/8424.pdb
     RDKit          3D

 23 25  0  0  0  0  0  0  0  0999 V2000
   68.7499   43.4589   56.5421 C   0  0  0  0  0  0  0  0  0  0  0  0
   69.8849   43.9624   57.0606 N   0  0  0  0  0  0  0  0  0  0  0  0
   70.7900   43.1939   57.6985 C   0  0  0  0  0  0  0  0  0  0  0  0
   71.9522   43.7116   58.2289 C   0  0  0  0  0  0  0  0  0  0  0  0
   72.8830   42.9300   58.8837 C   0  0  0  0  0  0  0  0  0  0  0  0
   72.6802   41.5729   59.0338 C   0  0  0  0  0  0  0  0  0  0  0  0
   71.5175   41.0521   58.5034 C   0  0  0  0  0  0  0  0  0  0  0  0
   70.5826   41.8374   57.8464 C   0  0  0  0  0  0  0  0  0  0  0  0
   69.4502   41.3228   57.3305 N   0  0  0  0  0  0  0  0  0  0  0  0
   68.5368   42.1050   56.6863 C   0  0  0  0  0  0  0  0  0  0  0  0
   67.2850   41.5396   56.1158 C   0  0  0  0  0  0  0  0  0  0  0  0
   67.5105   40.4001   55.3777 O   0  0  0  0  0  0  0  0  0  0  0  0
   67.8044   44.2349   55.8797 O   0  0  0  0  0  0  0  0  0  0  0  0
   68.9205   47.4163   53.3602 C   0  0  0  0  0  0  0  0  0  0  0  0
   69.1154   47.4734   54.7264 C   0  0  0  0  0  0  0  0  0  0  0  0
   68.7398   46.4127   55.5372 C   0  0  0  0  0  0  0  0  0  0  0  0
   68.1626   45.2692   55.0232 C   0  0  0  0  0  0  0  0  0  0  0  0
   67.9672   45.2099   53.6591 C   0  0  0  0  0  0  0  0  0  0  0  0
   68.3449   46.2760   52.8472 C   0  0  0  0  0  0  0  0  0  0  0  0
   69.2995   48.5144   52.4408 C   0  0  0  0  0  0  0  0  0  0  0  0
   71.4539   49.1931   52.9863 O   0  0  0  0  0  0  0  0  0  0  0  0
   70.2684   49.4440   53.0123 C   0  0  0  0  0  0  0  0  0  0  0  0
   69.6758   51.0660   53.8082 Br  0  0  0  0  0  0  0  0  0  0  0  0
 21 22  2  0
 22 23  1  0
 22 20  1  0
 20 14  1  0
 14 15  2  0
 14 19  1  0
 15 16  1  0
 16 17  2  0
 17 13  1  0
 17 18  1  0
 13  1  1  0
  1  2  2  0
  1 10  1  0
  2  3  1  0
  3  4  2  0
  3  8  1  0
  4  5  1  0
  5  6  2  0
  6  7  1  0
  7  8  2  0
  8  9  1  0
  9 10  2  0
 10 11  1  0
 11 12  1  0
 18 19  2  0
M  END
>  <minimizedAffinity>  (906) 
-8.58143

$$$$
cs_full_output_folder/data/smiles/1792.pdb
     RDKit          3D

 27 30  0  0  0  0  0  0  0  0999 V2000
   71.1005   47.2713   58.5948 C   0  0  0  0  0  0  0  0  0  0  0  0
   70.0577   47.3988   57.7123 C   0  0  0  0  0  0  0  0  0  0  0  0
   69.6171   48.6578   57.2954 C   0  0  0  0  0  0  0  0  0  0  0  0
   70.2229   49.7751   57.7659 C   0  0  0  0  0  0  0  0  0  0  0  0
   71.2718   49.6260   58.6545 C   0  0  0  0  0  0  0  0  0  0  0  0
   71.6729   48.4043   59.0364 N   0  0  0  0  0  0  0  0  0  0  0  0
   71.4042   45.6115   60.2168 O   0  0  0  0  0  0  0  0  0  0  0  0
   71.5738   45.9472   59.0426 C   0  0  0  0  0  0  0  0  0  0  0  0
   72.2195   45.0372   58.1691 N   0  0  0  0  0  0  0  0  0  0  0  0
   72.7034   43.7346   58.5402 C   0  0  0  0  0  0  0  0  0  0  0  0
   71.9686   42.5899   57.9488 C   0  0  0  0  0  0  0  0  0  0  0  0
   72.5558   41.3030   58.4846 C   0  0  0  0  0  0  0  0  0  0  0  0
   73.9044   41.4838   59.1164 C   0  0  0  0  0  0  0  0  0  0  0  0
   74.7586   42.3163   58.2212 C   0  0  0  0  0  0  0  0  0  0  0  0
   74.1491   43.6585   58.0407 C   0  0  0  0  0  0  0  0  0  0  0  0
   68.4779   48.7305   56.3591 C   0  0  0  0  0  0  0  0  0  0  0  0
   68.9245   48.8510   54.9843 C   0  0  0  0  0  0  0  0  0  0  0  0
   69.2930   50.0831   54.5135 N   0  0  0  0  0  0  0  0  0  0  0  0
   69.6774   50.2919   53.2674 N   0  0  0  0  0  0  0  0  0  0  0  0
   69.7298   49.2774   52.3686 C   0  0  0  0  0  0  0  0  0  0  0  0
   70.0931   49.4556   51.1753 O   0  0  0  0  0  0  0  0  0  0  0  0
   69.3812   48.0267   52.7598 C   0  0  0  0  0  0  0  0  0  0  0  0
   68.9789   47.8450   54.0954 C   0  0  0  0  0  0  0  0  0  0  0  0
   68.6522   46.4606   54.4472 C   0  0  0  0  0  0  0  0  0  0  0  0
   67.5702   45.9999   53.4992 C   0  0  0  0  0  0  0  0  0  0  0  0
   67.9588   46.2214   52.0718 C   0  0  0  0  0  0  0  0  0  0  0  0
   69.3682   46.8069   51.9155 C   0  0  0  0  0  0  0  0  0  0  0  0
  7  8  2  0
  8  9  1  0
  8  1  1  0
  9 10  1  0
 10 11  1  0
 10 15  1  0
 11 12  1  0
 12 13  1  0
 13 14  1  0
 14 15  1  0
  1  2  2  0
  1  6  1  0
  2  3  1  0
  3 16  1  0
  3  4  2  0
 16 17  1  0
 17 18  2  0
 17 23  1  0
 18 19  1  0
 19 20  1  0
 20 21  2  0
 20 22  1  0
 22 23  2  0
 22 27  1  0
 23 24  1  0
 24 25  1  0
 25 26  1  0
 26 27  1  0
  4  5  1  0
  5  6  2  0
M  END
>  <minimizedAffinity>  (907) 
-8.57986

$$$$
cs_full_output_folder/data/smiles/412.pdb
     RDKit          3D

 26 28  0  0  0  0  0  0  0  0999 V2000
   70.2123   47.6354   57.5883 C   0  0  0  0  0  0  0  0  0  0  0  0
   70.5563   48.4898   58.4430 O   0  0  0  0  0  0  0  0  0  0  0  0
   70.8640   46.4398   57.5472 O   0  0  0  0  0  0  0  0  0  0  0  0
   71.1062   45.6264   58.6911 C   0  0  0  0  0  0  0  0  0  0  0  0
   69.4864   44.1504   59.5393 O   0  0  0  0  0  0  0  0  0  0  0  0
   70.3221   44.3700   58.6311 C   0  0  0  0  0  0  0  0  0  0  0  0
   70.4810   43.4168   57.5971 N   0  0  0  0  0  0  0  0  0  0  0  0
   69.7180   42.2090   57.5524 C   0  0  0  0  0  0  0  0  0  0  0  0
   70.1242   41.0845   58.2384 C   0  0  0  0  0  0  0  0  0  0  0  0
   69.3940   39.9128   58.2017 C   0  0  0  0  0  0  0  0  0  0  0  0
   68.2221   39.8099   57.4771 C   0  0  0  0  0  0  0  0  0  0  0  0
   67.8228   40.9430   56.7918 C   0  0  0  0  0  0  0  0  0  0  0  0
   68.5493   42.1145   56.8258 C   0  0  0  0  0  0  0  0  0  0  0  0
   68.1533   43.2186   56.1543 F   0  0  0  0  0  0  0  0  0  0  0  0
   69.1637   47.9790   56.7242 O   0  0  0  0  0  0  0  0  0  0  0  0
   69.3561   48.2354   55.3802 C   0  0  0  0  0  0  0  0  0  0  0  0
   70.0499   49.3565   54.9921 C   0  0  0  0  0  0  0  0  0  0  0  0
   70.2559   49.6347   53.6337 C   0  0  0  0  0  0  0  0  0  0  0  0
   70.9012   50.6815   53.3643 O   0  0  0  0  0  0  0  0  0  0  0  0
   69.7712   48.7997   52.7021 N   0  0  0  0  0  0  0  0  0  0  0  0
   69.0858   47.6889   53.0371 C   0  0  0  0  0  0  0  0  0  0  0  0
   68.6075   46.8619   52.0431 C   0  0  0  0  0  0  0  0  0  0  0  0
   67.9058   45.7246   52.3733 C   0  0  0  0  0  0  0  0  0  0  0  0
   67.6903   45.4290   53.7016 C   0  0  0  0  0  0  0  0  0  0  0  0
   68.1739   46.2662   54.6910 C   0  0  0  0  0  0  0  0  0  0  0  0
   68.8781   47.4083   54.3926 C   0  0  0  0  0  0  0  0  0  0  0  0
  5  6  2  0
  6  4  1  0
  6  7  1  0
  4  3  1  0
  3  1  1  0
  1  2  2  0
  1 15  1  0
 15 16  1  0
 16 17  2  0
 16 26  1  0
 17 18  1  0
 18 19  2  0
 18 20  1  0
 20 21  1  0
 21 22  1  0
 21 26  2  0
 22 23  2  0
 23 24  1  0
 24 25  2  0
 25 26  1  0
  7  8  1  0
  8  9  2  0
  8 13  1  0
  9 10  1  0
 10 11  2  0
 11 12  1  0
 12 13  2  0
 13 14  1  0
M  END
>  <minimizedAffinity>  (908) 
-8.57824

$$$$
cs_full_output_folder/data/smiles/3474.pdb
     RDKit          3D

 26 29  0  0  0  0  0  0  0  0999 V2000
   71.9531   47.0876   59.4049 C   0  0  0  0  0  0  0  0  0  0  0  0
   72.1850   45.7378   59.2293 C   0  0  0  0  0  0  0  0  0  0  0  0
   71.3769   45.0592   58.3146 C   0  0  0  0  0  0  0  0  0  0  0  0
   70.4027   45.7568   57.6428 C   0  0  0  0  0  0  0  0  0  0  0  0
   70.1612   47.0984   57.8080 C   0  0  0  0  0  0  0  0  0  0  0  0
   70.9719   47.7702   58.7230 C   0  0  0  0  0  0  0  0  0  0  0  0
   72.5544   47.8263   61.5525 O   0  0  0  0  0  0  0  0  0  0  0  0
   72.7978   47.8219   60.3362 C   0  0  0  0  0  0  0  0  0  0  0  0
   73.8974   48.5206   59.7789 N   0  0  0  0  0  0  0  0  0  0  0  0
   74.1913   48.5202   58.3577 C   0  0  0  0  0  0  0  0  0  0  0  0
   75.6742   48.1593   58.2214 C   0  0  0  0  0  0  0  0  0  0  0  0
   76.4411   49.3163   58.7909 C   0  0  0  0  0  0  0  0  0  0  0  0
   75.6033   50.1889   59.7033 C   0  0  0  0  0  0  0  0  0  0  0  0
   74.7888   49.2779   60.6342 C   0  0  0  0  0  0  0  0  0  0  0  0
   69.1116   47.8516   57.0360 C   0  0  0  0  0  0  0  0  0  0  0  0
   68.7619   47.1181   55.7899 C   0  0  0  0  0  0  0  0  0  0  0  0
   68.0540   45.9524   55.8516 N   0  0  0  0  0  0  0  0  0  0  0  0
   67.7260   45.2904   54.7590 N   0  0  0  0  0  0  0  0  0  0  0  0
   68.0567   45.7022   53.5225 C   0  0  0  0  0  0  0  0  0  0  0  0
   67.7128   45.0233   52.5240 O   0  0  0  0  0  0  0  0  0  0  0  0
   68.7747   46.8772   53.3878 C   0  0  0  0  0  0  0  0  0  0  0  0
   69.1106   47.5569   54.5285 C   0  0  0  0  0  0  0  0  0  0  0  0
   69.8569   48.7662   54.4027 N   0  0  0  0  0  0  0  0  0  0  0  0
   69.8288   49.5010   53.1538 C   0  0  0  0  0  0  0  0  0  0  0  0
   69.9431   48.5807   51.9644 C   0  0  0  0  0  0  0  0  0  0  0  0
   69.1309   47.3504   52.0576 C   0  0  0  0  0  0  0  0  0  0  0  0
  7  8  2  0
  8  1  1  0
  8  9  1  0
  1  2  2  0
  1  6  1  0
  2  3  1  0
  3  4  2  0
  4  5  1  0
  5 15  1  0
  5  6  2  0
 15 16  1  0
 16 17  2  0
 16 22  1  0
 17 18  1  0
 18 19  1  0
 19 20  2  0
 19 21  1  0
 21 22  2  0
 21 26  1  0
 22 23  1  0
 23 24  1  0
 24 25  1  0
 25 26  1  0
  9 10  1  0
  9 14  1  0
 10 11  1  0
 11 12  1  0
 12 13  1  0
 13 14  1  0
M  END
>  <minimizedAffinity>  (909) 
-8.57773

$$$$
cs_full_output_folder/data/smiles/5586.pdb
     RDKit          3D

 26 29  0  0  0  0  0  0  0  0999 V2000
   73.5219   50.3656   56.7800 C   0  0  0  0  0  0  0  0  0  0  0  0
   72.9267   51.1732   55.8258 C   0  0  0  0  0  0  0  0  0  0  0  0
   71.5971   51.0134   55.5001 C   0  0  0  0  0  0  0  0  0  0  0  0
   70.7992   50.0400   56.1127 C   0  0  0  0  0  0  0  0  0  0  0  0
   71.3946   49.2605   57.0427 C   0  0  0  0  0  0  0  0  0  0  0  0
   72.7530   49.4149   57.3820 C   0  0  0  0  0  0  0  0  0  0  0  0
   73.2795   48.5993   58.3165 F   0  0  0  0  0  0  0  0  0  0  0  0
   74.8817   50.5467   57.1042 N   0  0  0  0  0  0  0  0  0  0  0  0
   79.3351   48.9072   55.4823 C   0  0  0  0  0  0  0  0  0  0  0  0
   77.8889   49.2431   55.5226 C   0  0  0  0  0  0  0  0  0  0  0  0
   77.2434   49.8093   56.5959 C   0  0  0  0  0  0  0  0  0  0  0  0
   75.8928   49.9839   56.2798 C   0  0  0  0  0  0  0  0  0  0  0  0
   75.7656   49.5180   55.0291 N   0  0  0  0  0  0  0  0  0  0  0  0
   76.9509   49.0791   54.5796 N   0  0  0  0  0  0  0  0  0  0  0  0
   69.3891   49.8910   55.6850 C   0  0  0  0  0  0  0  0  0  0  0  0
   69.0806   48.4703   55.4751 C   0  0  0  0  0  0  0  0  0  0  0  0
   68.8467   47.6906   56.5861 N   0  0  0  0  0  0  0  0  0  0  0  0
   68.4710   46.4321   56.4676 N   0  0  0  0  0  0  0  0  0  0  0  0
   68.2905   45.8261   55.2862 C   0  0  0  0  0  0  0  0  0  0  0  0
   67.9247   44.6010   55.2333 O   0  0  0  0  0  0  0  0  0  0  0  0
   68.5110   46.5544   54.1352 C   0  0  0  0  0  0  0  0  0  0  0  0
   68.9136   47.8965   54.2466 C   0  0  0  0  0  0  0  0  0  0  0  0
   69.2394   48.6636   53.0197 C   0  0  0  0  0  0  0  0  0  0  0  0
   69.7767   47.6083   52.0133 C   0  0  0  0  0  0  0  0  0  0  0  0
   68.5249   46.7721   51.6998 C   0  0  0  0  0  0  0  0  0  0  0  0
   68.3133   45.8367   52.8647 C   0  0  0  0  0  0  0  0  0  0  0  0
  9 10  1  0
 10 11  2  0
 10 14  1  0
 11 12  1  0
 12  8  1  0
 12 13  2  0
  8  1  1  0
  1  2  2  0
  1  6  1  0
  2  3  1  0
  3  4  2  0
  4 15  1  0
  4  5  1  0
 15 16  1  0
 16 17  2  0
 16 22  1  0
 17 18  1  0
 18 19  1  0
 19 20  2  0
 19 21  1  0
 21 22  2  0
 21 26  1  0
 22 23  1  0
 23 24  1  0
 24 25  1  0
 25 26  1  0
  5  6  2  0
  6  7  1  0
 13 14  1  0
M  END
>  <minimizedAffinity>  (910) 
-8.57618

$$$$
cs_full_output_folder/data/smiles/122.pdb
     RDKit          3D

 27 30  0  0  0  0  0  0  0  0999 V2000
   74.2984   50.6002   55.8910 C   0  0  0  0  0  0  0  0  0  0  0  0
   73.9179   51.4843   54.9110 C   0  0  0  0  0  0  0  0  0  0  0  0
   72.6187   51.5728   54.4564 C   0  0  0  0  0  0  0  0  0  0  0  0
   71.6311   50.7355   55.0030 C   0  0  0  0  0  0  0  0  0  0  0  0
   72.0558   49.8668   55.9812 C   0  0  0  0  0  0  0  0  0  0  0  0
   73.3545   49.8141   56.4000 N   0  0  0  0  0  0  0  0  0  0  0  0
   76.1744   49.1405   54.6504 O   0  0  0  0  0  0  0  0  0  0  0  0
   76.6475   49.7864   55.6849 C   0  0  0  0  0  0  0  0  0  0  0  0
   75.6701   50.5487   56.3312 N   0  0  0  0  0  0  0  0  0  0  0  0
   78.0484   49.6213   55.9865 C   0  0  0  0  0  0  0  0  0  0  0  0
   78.7064   49.6021   57.0944 C   0  0  0  0  0  0  0  0  0  0  0  0
   78.3470   49.7339   58.4934 C   0  0  0  0  0  0  0  0  0  0  0  0
   79.4556   49.6315   59.2617 C   0  0  0  0  0  0  0  0  0  0  0  0
   80.5492   49.4334   58.4040 N   0  0  0  0  0  0  0  0  0  0  0  0
   80.1775   49.4091   57.1706 C   0  0  0  0  0  0  0  0  0  0  0  0
   70.2400   50.7987   54.5203 C   0  0  0  0  0  0  0  0  0  0  0  0
   69.8692   49.6684   53.6112 C   0  0  0  0  0  0  0  0  0  0  0  0
   70.3211   49.7403   52.3269 N   0  0  0  0  0  0  0  0  0  0  0  0
   70.0467   48.8089   51.4536 N   0  0  0  0  0  0  0  0  0  0  0  0
   69.2994   47.7251   51.7799 C   0  0  0  0  0  0  0  0  0  0  0  0
   69.0389   46.8335   50.9374 O   0  0  0  0  0  0  0  0  0  0  0  0
   68.8303   47.6222   53.0647 C   0  0  0  0  0  0  0  0  0  0  0  0
   69.1110   48.5990   54.0002 C   0  0  0  0  0  0  0  0  0  0  0  0
   68.6113   48.5016   55.3996 C   0  0  0  0  0  0  0  0  0  0  0  0
   68.2981   47.1076   55.8263 C   0  0  0  0  0  0  0  0  0  0  0  0
   68.6179   46.0346   54.8410 C   0  0  0  0  0  0  0  0  0  0  0  0
   68.0178   46.4537   53.4913 C   0  0  0  0  0  0  0  0  0  0  0  0
  7  8  2  0
  8 10  1  0
  8  9  1  0
 10 11  2  0
 11 12  1  0
 11 15  1  0
 12 13  2  0
 13 14  1  0
 14 15  2  0
  9  1  1  0
  1  2  2  0
  1  6  1  0
  2  3  1  0
  3  4  2  0
  4 16  1  0
  4  5  1  0
 16 17  1  0
 17 18  2  0
 17 23  1  0
 18 19  1  0
 19 20  1  0
 20 21  2  0
 20 22  1  0
 22 23  2  0
 22 27  1  0
 23 24  1  0
 24 25  1  0
 25 26  1  0
 26 27  1  0
  5  6  2  0
M  END
>  <minimizedAffinity>  (911) 
-8.57554

$$$$
cs_full_output_folder/data/smiles/6141.pdb
     RDKit          3D

 29 32  0  0  0  0  0  0  0  0999 V2000
   71.4070   46.5047   58.2624 C   0  0  0  0  0  0  0  0  0  0  0  0
   72.5537   47.1545   58.5923 C   0  0  0  0  0  0  0  0  0  0  0  0
   72.7813   48.4694   58.1616 C   0  0  0  0  0  0  0  0  0  0  0  0
   71.8491   49.1336   57.3952 C   0  0  0  0  0  0  0  0  0  0  0  0
   70.6746   48.4769   57.0548 C   0  0  0  0  0  0  0  0  0  0  0  0
   70.4730   47.1998   57.4831 C   0  0  0  0  0  0  0  0  0  0  0  0
   70.9325   44.0812   57.7372 N   0  0  0  0  0  0  0  0  0  0  0  0
   71.0751   45.1299   58.6753 C   0  0  0  0  0  0  0  0  0  0  0  0
   70.9142   44.8851   59.8980 O   0  0  0  0  0  0  0  0  0  0  0  0
   70.6233   42.7239   58.0224 C   0  0  0  0  0  0  0  0  0  0  0  0
   68.5055   42.1291   60.4085 C   0  0  0  0  0  0  0  0  0  0  0  0
   68.8238   41.4815   59.1628 N   0  0  1  0  0  0  0  0  0  0  0  0
   68.0687   40.3154   58.9039 C   0  0  0  0  0  0  0  0  0  0  0  0
   68.0523   39.8274   57.5018 C   0  0  0  0  0  0  0  0  0  0  0  0
   67.6234   41.0068   56.6539 C   0  0  0  0  0  0  0  0  0  0  0  0
   68.5852   42.1299   56.7813 C   0  0  0  0  0  0  0  0  0  0  0  0
   69.1646   42.3652   58.1424 C   0  0  2  0  0  0  0  0  0  0  0  0
   69.6670   49.1919   56.2559 C   0  0  0  0  0  0  0  0  0  0  0  0
   69.7977   48.8471   54.8524 C   0  0  0  0  0  0  0  0  0  0  0  0
   70.8157   49.4055   54.1286 N   0  0  0  0  0  0  0  0  0  0  0  0
   71.0266   49.1077   52.8583 N   0  0  0  0  0  0  0  0  0  0  0  0
   70.2541   48.2357   52.1907 C   0  0  0  0  0  0  0  0  0  0  0  0
   70.4507   47.9451   50.9710 O   0  0  0  0  0  0  0  0  0  0  0  0
   69.2194   47.6418   52.8499 C   0  0  0  0  0  0  0  0  0  0  0  0
   69.0153   47.9762   54.2028 C   0  0  0  0  0  0  0  0  0  0  0  0
   67.8571   47.3190   54.8144 C   0  0  0  0  0  0  0  0  0  0  0  0
   68.0674   45.8263   54.6596 C   0  0  0  0  0  0  0  0  0  0  0  0
   68.2552   45.4575   53.2097 C   0  0  0  0  0  0  0  0  0  0  0  0
   68.2739   46.6540   52.2765 C   0  0  0  0  0  0  0  0  0  0  0  0
 12 11  1  1
 12 13  1  0
 12 17  1  0
 13 14  1  0
 14 15  1  0
 15 16  1  0
 16 17  1  0
 17 10  1  6
 10  7  1  0
  7  8  1  0
  8  9  2  0
  8  1  1  0
  1  2  2  0
  1  6  1  0
  2  3  1  0
  3  4  2  0
  4  5  1  0
  5 18  1  0
  5  6  2  0
 18 19  1  0
 19 20  2  0
 19 25  1  0
 20 21  1  0
 21 22  1  0
 22 23  2  0
 22 24  1  0
 24 25  2  0
 24 29  1  0
 25 26  1  0
 26 27  1  0
 27 28  1  0
 28 29  1  0
M  CHG  1  12   1
M  END
>  <minimizedAffinity>  (912) 
-8.57376

$$$$
cs_full_output_folder/data/smiles/3206.pdb
     RDKit          3D

 25 27  0  0  0  0  0  0  0  0999 V2000
   68.9444   46.9511   56.6634 C   0  0  0  0  0  0  0  0  0  0  0  0
   71.1621   50.5400   54.2633 C   0  0  0  0  0  0  0  0  0  0  0  0
   70.3421   49.3310   54.2360 N   0  0  0  0  0  0  0  0  0  0  0  0
   69.9829   48.7188   55.3463 N   0  0  0  0  0  0  0  0  0  0  0  0
   69.2205   47.5878   55.3766 C   0  0  0  0  0  0  0  0  0  0  0  0
   68.8382   47.1143   54.1396 C   0  0  0  0  0  0  0  0  0  0  0  0
   68.0566   46.0088   54.0541 C   0  0  0  0  0  0  0  0  0  0  0  0
   67.6246   45.4920   52.8494 C   0  0  0  0  0  0  0  0  0  0  0  0
   67.9914   46.1124   51.6794 C   0  0  0  0  0  0  0  0  0  0  0  0
   68.7789   47.2332   51.7423 C   0  0  0  0  0  0  0  0  0  0  0  0
   69.1981   47.7319   52.9551 C   0  0  0  0  0  0  0  0  0  0  0  0
   69.9777   48.8780   53.0167 C   0  0  0  0  0  0  0  0  0  0  0  0
   70.3247   49.4667   51.9702 O   0  0  0  0  0  0  0  0  0  0  0  0
   70.0763   46.1255   57.2094 C   0  0  0  0  0  0  0  0  0  0  0  0
   69.8869   44.6965   57.3131 C   0  0  0  0  0  0  0  0  0  0  0  0
   70.8078   43.9040   58.0082 C   0  0  0  0  0  0  0  0  0  0  0  0
   70.6103   42.5469   58.0971 C   0  0  0  0  0  0  0  0  0  0  0  0
   69.5344   41.9209   57.5259 C   0  0  0  0  0  0  0  0  0  0  0  0
   69.3475   40.5748   57.6201 F   0  0  0  0  0  0  0  0  0  0  0  0
   68.6214   42.6890   56.8402 C   0  0  0  0  0  0  0  0  0  0  0  0
   68.8148   44.0594   56.7465 C   0  0  0  0  0  0  0  0  0  0  0  0
   67.4383   42.0471   56.2075 C   0  0  0  0  0  0  0  0  0  0  0  0
   66.4496   41.8591   57.1516 F   0  0  0  0  0  0  0  0  0  0  0  0
   67.8237   40.8198   55.6536 F   0  0  0  0  0  0  0  0  0  0  0  0
   66.9402   42.8601   55.2164 F   0  0  0  0  0  0  0  0  0  0  0  0
  2  3  1  0
  3  4  1  0
  3 12  1  0
  4  5  2  0
  5  1  1  0
  5  6  1  0
  1 14  1  0
 14 15  1  0
 15 16  2  0
 15 21  1  0
 16 17  1  0
 17 18  2  0
 18 19  1  0
 18 20  1  0
 20 22  1  0
 20 21  2  0
 22 23  1  0
 22 24  1  0
 22 25  1  0
  6  7  1  0
  6 11  2  0
  7  8  2  0
  8  9  1  0
  9 10  2  0
 10 11  1  0
 11 12  1  0
 12 13  2  0
M  END
>  <minimizedAffinity>  (913) 
-8.57324

$$$$
cs_full_output_folder/data/smiles/1536.pdb
     RDKit          3D

 27 30  0  0  0  0  0  0  0  0999 V2000
   71.9250   47.1372   59.2169 C   0  0  0  0  0  0  0  0  0  0  0  0
   72.0920   45.7881   59.0288 C   0  0  0  0  0  0  0  0  0  0  0  0
   71.2148   45.1420   58.1862 C   0  0  0  0  0  0  0  0  0  0  0  0
   70.2054   45.8058   57.5502 C   0  0  0  0  0  0  0  0  0  0  0  0
   70.0168   47.1974   57.7319 C   0  0  0  0  0  0  0  0  0  0  0  0
   70.8845   47.8226   58.5627 C   0  0  0  0  0  0  0  0  0  0  0  0
   70.8229   49.1310   58.8415 F   0  0  0  0  0  0  0  0  0  0  0  0
   72.5120   47.8979   61.3433 O   0  0  0  0  0  0  0  0  0  0  0  0
   72.8233   47.8485   60.1085 C   0  0  0  0  0  0  0  0  0  0  0  0
   73.9885   48.4499   59.5976 N   0  0  0  0  0  0  0  0  0  0  0  0
   74.8744   49.1588   60.4908 C   0  0  0  0  0  0  0  0  0  0  0  0
   76.2928   48.7586   60.2546 C   0  0  0  0  0  0  0  0  0  0  0  0
   76.5145   48.1920   58.9988 O   0  0  0  0  0  0  0  0  0  0  0  0
   75.7601   48.9004   58.0608 C   0  0  0  0  0  0  0  0  0  0  0  0
   74.3254   48.3730   58.1966 C   0  0  0  0  0  0  0  0  0  0  0  0
   68.9017   47.7986   56.9912 C   0  0  0  0  0  0  0  0  0  0  0  0
   68.5751   47.1329   55.7180 C   0  0  0  0  0  0  0  0  0  0  0  0
   68.0278   45.8719   55.7465 N   0  0  0  0  0  0  0  0  0  0  0  0
   67.7853   45.1763   54.6650 N   0  0  0  0  0  0  0  0  0  0  0  0
   68.0543   45.6476   53.4413 C   0  0  0  0  0  0  0  0  0  0  0  0
   67.8063   44.9422   52.4068 O   0  0  0  0  0  0  0  0  0  0  0  0
   68.6030   46.9001   53.2962 C   0  0  0  0  0  0  0  0  0  0  0  0
   68.8500   47.6231   54.4755 C   0  0  0  0  0  0  0  0  0  0  0  0
   69.3359   48.9899   54.2351 C   0  0  0  0  0  0  0  0  0  0  0  0
   70.4264   48.9404   53.2168 C   0  0  0  0  0  0  0  0  0  0  0  0
   69.9481   48.4489   51.8847 C   0  0  0  0  0  0  0  0  0  0  0  0
   68.8964   47.4006   51.9493 C   0  0  0  0  0  0  0  0  0  0  0  0
  8  9  2  0
  9  1  1  0
  9 10  1  0
  1  2  2  0
  1  6  1  0
  2  3  1  0
  3  4  2  0
  4  5  1  0
  5 16  1  0
  5  6  2  0
 16 17  1  0
 17 18  2  0
 17 23  1  0
 18 19  1  0
 19 20  1  0
 20 21  2  0
 20 22  1  0
 22 23  2  0
 22 27  1  0
 23 24  1  0
 24 25  1  0
 25 26  1  0
 26 27  1  0
  6  7  1  0
 10 11  1  0
 10 15  1  0
 11 12  1  0
 12 13  1  0
 13 14  1  0
 14 15  1  0
M  END
>  <minimizedAffinity>  (914) 
-8.57109

$$$$
cs_full_output_folder/data/smiles/2269.pdb
     RDKit          3D

 26 29  0  0  0  0  0  0  0  0999 V2000
   71.6245   47.0482   58.9710 C   0  0  0  0  0  0  0  0  0  0  0  0
   70.6181   47.7429   58.2910 C   0  0  0  0  0  0  0  0  0  0  0  0
   69.7526   47.1489   57.4191 C   0  0  0  0  0  0  0  0  0  0  0  0
   69.9123   45.7659   57.2204 C   0  0  0  0  0  0  0  0  0  0  0  0
   70.8876   45.0446   57.8663 C   0  0  0  0  0  0  0  0  0  0  0  0
   71.7276   45.6936   58.7307 C   0  0  0  0  0  0  0  0  0  0  0  0
   72.7233   45.0466   59.4118 F   0  0  0  0  0  0  0  0  0  0  0  0
   74.6455   50.5618   59.8615 C   0  0  0  0  0  0  0  0  0  0  0  0
   74.8490   49.0521   59.9881 C   0  0  2  0  0  0  0  0  0  0  0  0
   75.6922   48.5507   58.8443 C   0  0  0  0  0  0  0  0  0  0  0  0
   74.3887   48.3642   58.1444 C   0  0  0  0  0  0  0  0  0  0  0  0
   73.7333   48.3089   59.4516 N   0  0  0  0  0  0  0  0  0  0  0  0
   72.5116   47.7416   59.8913 C   0  0  0  0  0  0  0  0  0  0  0  0
   72.2106   47.8528   61.0981 O   0  0  0  0  0  0  0  0  0  0  0  0
   68.6530   47.8125   56.6682 C   0  0  0  0  0  0  0  0  0  0  0  0
   69.1494   48.0622   55.2910 C   0  0  0  0  0  0  0  0  0  0  0  0
   70.1056   49.0335   55.1210 N   0  0  0  0  0  0  0  0  0  0  0  0
   70.6559   49.3041   53.9620 N   0  0  0  0  0  0  0  0  0  0  0  0
   70.3161   48.6419   52.8485 C   0  0  0  0  0  0  0  0  0  0  0  0
   70.8709   48.9262   51.7240 O   0  0  0  0  0  0  0  0  0  0  0  0
   69.3676   47.6586   52.9336 C   0  0  0  0  0  0  0  0  0  0  0  0
   69.0029   46.9886   51.7963 C   0  0  0  0  0  0  0  0  0  0  0  0
   68.0306   46.0066   51.8753 C   0  0  0  0  0  0  0  0  0  0  0  0
   67.4765   45.7500   53.0956 C   0  0  0  0  0  0  0  0  0  0  0  0
   67.8248   46.4094   54.2544 C   0  0  0  0  0  0  0  0  0  0  0  0
   68.7958   47.3872   54.1739 C   0  0  0  0  0  0  0  0  0  0  0  0
  9  8  1  6
  9 10  1  0
  9 12  1  0
 10 11  1  0
 11 12  1  0
 12 13  1  0
 13 14  2  0
 13  1  1  0
  1  2  2  0
  1  6  1  0
  2  3  1  0
  3 15  1  0
  3  4  2  0
 15 16  1  0
 16 17  2  0
 16 26  1  0
 17 18  1  0
 18 19  1  0
 19 20  2  0
 19 21  1  0
 21 22  1  0
 21 26  2  0
 22 23  2  0
 23 24  1  0
 24 25  2  0
 25 26  1  0
  4  5  1  0
  5  6  2  0
  6  7  1  0
M  END
>  <minimizedAffinity>  (915) 
-8.57081

$$$$
cs_full_output_folder/data/smiles/4068.pdb
     RDKit          3D

 28 31  0  0  0  0  0  0  0  0999 V2000
   69.4557   48.0366   53.5949 C   0  0  0  0  0  0  0  0  0  0  0  0
   69.6275   47.6877   52.2479 C   0  0  0  0  0  0  0  0  0  0  0  0
   68.8664   46.7007   51.6651 C   0  0  0  0  0  0  0  0  0  0  0  0
   67.9067   46.0146   52.3782 C   0  0  0  0  0  0  0  0  0  0  0  0
   67.7301   46.3488   53.6995 C   0  0  0  0  0  0  0  0  0  0  0  0
   68.5050   47.3586   54.3040 C   0  0  0  0  0  0  0  0  0  0  0  0
   68.9041   50.8322   53.4695 O   0  0  0  0  0  0  0  0  0  0  0  0
   69.9373   50.4536   54.1157 C   0  0  0  0  0  0  0  0  0  0  0  0
   70.2035   49.0839   54.1784 N   0  0  0  0  0  0  0  0  0  0  0  0
   70.7682   51.4708   54.7461 C   0  0  0  0  0  0  0  0  0  0  0  0
   70.2916   52.5851   55.3946 C   0  0  0  0  0  0  0  0  0  0  0  0
   71.1547   53.5118   55.9707 C   0  0  0  0  0  0  0  0  0  0  0  0
   72.5234   53.3547   55.9179 C   0  0  0  0  0  0  0  0  0  0  0  0
   73.6211   54.5216   56.6467 Cl  0  0  0  0  0  0  0  0  0  0  0  0
   72.9773   52.2601   55.2816 N   0  0  0  0  0  0  0  0  0  0  0  0
   72.1637   51.3482   54.7150 C   0  0  0  0  0  0  0  0  0  0  0  0
   68.2681   47.6761   55.7297 C   0  0  0  0  0  0  0  0  0  0  0  0
   69.0918   46.7861   56.5815 C   0  0  0  0  0  0  0  0  0  0  0  0
   69.0278   45.4456   56.5424 N   0  0  0  0  0  0  0  0  0  0  0  0
   69.7590   44.6669   57.3227 N   0  0  0  0  0  0  0  0  0  0  0  0
   70.6248   45.1756   58.2172 C   0  0  0  0  0  0  0  0  0  0  0  0
   71.3241   44.4543   58.9627 O   0  0  0  0  0  0  0  0  0  0  0  0
   70.7676   46.5613   58.3375 C   0  0  0  0  0  0  0  0  0  0  0  0
   69.9907   47.3295   57.5092 C   0  0  0  0  0  0  0  0  0  0  0  0
   70.0947   48.8006   57.6116 C   0  0  0  0  0  0  0  0  0  0  0  0
   71.5196   49.1552   57.9206 C   0  0  0  0  0  0  0  0  0  0  0  0
   71.9694   48.5549   59.2188 C   0  0  0  0  0  0  0  0  0  0  0  0
   71.7306   47.0960   59.3351 C   0  0  0  0  0  0  0  0  0  0  0  0
  7  8  2  0
  8  9  1  0
  8 10  1  0
  9  1  1  0
  1  2  2  0
  1  6  1  0
  2  3  1  0
  3  4  2  0
  4  5  1  0
  5  6  2  0
  6 17  1  0
 17 18  1  0
 18 19  2  0
 18 24  1  0
 19 20  1  0
 20 21  1  0
 21 22  2  0
 21 23  1  0
 23 24  2  0
 23 28  1  0
 24 25  1  0
 25 26  1  0
 26 27  1  0
 27 28  1  0
 10 11  2  0
 10 16  1  0
 11 12  1  0
 12 13  2  0
 13 14  1  0
 13 15  1  0
 15 16  2  0
M  END
>  <minimizedAffinity>  (916) 
-8.56934

$$$$
cs_full_output_folder/data/smiles/6825.pdb
     RDKit          3D

 23 25  0  0  0  0  0  0  0  0999 V2000
   68.8111   44.0737   56.2564 N   0  0  0  0  0  0  0  0  0  0  0  0
   68.6480   42.8686   56.6444 C   0  0  0  0  0  0  0  0  0  0  0  0
   67.4318   42.0952   56.4472 C   0  0  0  0  0  0  0  0  0  0  0  0
   66.3741   42.4967   55.8734 O   0  0  0  0  0  0  0  0  0  0  0  0
   67.6835   40.8206   57.0245 N   0  0  0  0  0  0  0  0  0  0  0  0
   69.0070   40.7563   57.5790 C   0  0  0  0  0  0  0  0  0  0  0  0
   69.7142   39.7635   58.2335 C   0  0  0  0  0  0  0  0  0  0  0  0
   70.9999   39.9393   58.6812 C   0  0  0  0  0  0  0  0  0  0  0  0
   71.5858   41.1868   58.4492 C   0  0  0  0  0  0  0  0  0  0  0  0
   70.8768   42.1720   57.7971 C   0  0  0  0  0  0  0  0  0  0  0  0
   69.5848   41.9880   57.3491 C   0  0  0  0  0  0  0  0  0  0  0  0
   67.8436   44.8394   55.5795 N   0  0  0  0  0  0  0  0  0  0  0  0
   69.2522   47.9234   53.0860 C   0  0  0  0  0  0  0  0  0  0  0  0
   68.6440   46.8213   52.5456 C   0  0  0  0  0  0  0  0  0  0  0  0
   68.1869   45.8170   53.3658 C   0  0  0  0  0  0  0  0  0  0  0  0
   68.3133   45.8632   54.7335 C   0  0  0  0  0  0  0  0  0  0  0  0
   68.9222   46.9665   55.2773 C   0  0  0  0  0  0  0  0  0  0  0  0
   69.3970   48.0055   54.4605 C   0  0  0  0  0  0  0  0  0  0  0  0
   70.4027   48.7536   51.1838 O   0  0  0  0  0  0  0  0  0  0  0  0
   69.7487   49.0148   52.2182 C   0  0  0  0  0  0  0  0  0  0  0  0
   71.7608   38.8730   59.3883 C   0  0  0  0  0  0  0  0  0  0  0  0
   71.2361   37.5162   59.0005 C   0  0  0  0  0  0  0  0  0  0  0  0
   72.4121   36.6631   57.7192 Br  0  0  0  0  0  0  0  0  0  0  0  0
 19 20  2  0
 20 13  1  0
 13 14  2  0
 13 18  1  0
 14 15  1  0
 15 16  2  0
 16 12  1  0
 16 17  1  0
 12  1  1  0
  1  2  2  0
  2  3  1  0
  2 11  1  0
  3  4  2  0
  3  5  1  0
  5  6  1  0
  6  7  1  0
  6 11  2  0
  7  8  2  0
  8 21  1  0
  8  9  1  0
 21 22  1  0
 22 23  1  0
  9 10  2  0
 10 11  1  0
 17 18  2  0
M  END
>  <minimizedAffinity>  (917) 
-8.56809

$$$$
cs_full_output_folder/data/smiles/187.pdb
     RDKit          3D

 28 31  0  0  0  0  0  0  0  0999 V2000
   69.8853   46.8873   57.4214 C   0  0  0  0  0  0  0  0  0  0  0  0
   69.9167   45.5111   57.4111 C   0  0  0  0  0  0  0  0  0  0  0  0
   70.9839   44.8184   57.9413 C   0  0  0  0  0  0  0  0  0  0  0  0
   72.0402   45.5350   58.4928 C   0  0  0  0  0  0  0  0  0  0  0  0
   73.0534   44.7822   59.0176 F   0  0  0  0  0  0  0  0  0  0  0  0
   72.0502   46.9106   58.5239 C   0  0  0  0  0  0  0  0  0  0  0  0
   70.9358   47.5608   57.9689 C   0  0  0  0  0  0  0  0  0  0  0  0
   73.1274   47.6205   59.0449 N   0  0  0  0  0  0  0  0  0  0  0  0
   74.3442   47.9073   58.3492 C   0  0  0  0  0  0  0  0  0  0  0  0
   74.3174   48.1882   57.1493 O   0  0  0  0  0  0  0  0  0  0  0  0
   75.6017   47.8534   59.1330 C   0  0  0  0  0  0  0  0  0  0  0  0
   75.5393   48.7286   60.3600 C   0  0  0  0  0  0  0  0  0  0  0  0
   74.1327   49.1997   60.6661 C   0  0  0  0  0  0  0  0  0  0  0  0
   73.1379   48.1110   60.4058 C   0  0  0  0  0  0  0  0  0  0  0  0
   72.3843   47.6635   61.2860 O   0  0  0  0  0  0  0  0  0  0  0  0
   68.7316   47.5768   56.8185 C   0  0  0  0  0  0  0  0  0  0  0  0
   71.0715   50.8422   54.1852 C   0  0  0  0  0  0  0  0  0  0  0  0
   70.2665   49.6358   54.2273 N   0  0  0  0  0  0  0  0  0  0  0  0
   69.8363   49.1509   55.3841 N   0  0  0  0  0  0  0  0  0  0  0  0
   69.0784   48.0141   55.4766 C   0  0  0  0  0  0  0  0  0  0  0  0
   68.7910   47.4094   54.2877 C   0  0  0  0  0  0  0  0  0  0  0  0
   68.0171   46.2704   54.3013 C   0  0  0  0  0  0  0  0  0  0  0  0
   67.6906   45.6273   53.1036 C   0  0  0  0  0  0  0  0  0  0  0  0
   68.1144   46.0877   51.8807 C   0  0  0  0  0  0  0  0  0  0  0  0
   68.8855   47.2290   51.8801 C   0  0  0  0  0  0  0  0  0  0  0  0
   69.2248   47.8861   53.0464 C   0  0  0  0  0  0  0  0  0  0  0  0
   69.9826   49.0347   53.0542 C   0  0  0  0  0  0  0  0  0  0  0  0
   70.3823   49.4810   51.9493 O   0  0  0  0  0  0  0  0  0  0  0  0
 17 18  1  0
 18 19  1  0
 18 27  1  0
 19 20  2  0
 20 16  1  0
 20 21  1  0
 16  1  1  0
  1  2  2  0
  1  7  1  0
  2  3  1  0
  3  4  2  0
  4  5  1  0
  4  6  1  0
  6  8  1  0
  6  7  2  0
  8  9  1  0
  8 14  1  0
  9 10  2  0
  9 11  1  0
 11 12  1  0
 12 13  1  0
 13 14  1  0
 14 15  2  0
 21 22  1  0
 21 26  2  0
 22 23  2  0
 23 24  1  0
 24 25  2  0
 25 26  1  0
 26 27  1  0
 27 28  2  0
M  END
>  <minimizedAffinity>  (918) 
-8.56804

$$$$
cs_full_output_folder/data/smiles/7817.pdb
     RDKit          3D

 24 25  0  0  0  0  0  0  0  0999 V2000
   69.8183   49.1893   52.6709 S   0  0  0  0  0  0  0  0  0  0  0  0
   69.6427   49.1343   51.1708 O   0  0  0  0  0  0  0  0  0  0  0  0
   71.2980   49.1637   52.9245 O   0  0  0  0  0  0  0  0  0  0  0  0
   69.1117   47.7177   53.3155 C   0  0  0  0  0  0  0  0  0  0  0  0
   69.1841   47.4614   54.6606 C   0  0  0  0  0  0  0  0  0  0  0  0
   69.7809   48.2948   55.5439 F   0  0  0  0  0  0  0  0  0  0  0  0
   68.6199   46.2985   55.1369 C   0  0  0  0  0  0  0  0  0  0  0  0
   67.9881   45.3865   54.3037 C   0  0  0  0  0  0  0  0  0  0  0  0
   67.4441   44.2516   54.8087 F   0  0  0  0  0  0  0  0  0  0  0  0
   67.9170   45.6430   52.9604 C   0  0  0  0  0  0  0  0  0  0  0  0
   67.3002   44.7566   52.1399 F   0  0  0  0  0  0  0  0  0  0  0  0
   68.4849   46.8160   52.4777 C   0  0  0  0  0  0  0  0  0  0  0  0
   68.3882   47.0261   51.1395 F   0  0  0  0  0  0  0  0  0  0  0  0
   69.1209   50.5879   53.3502 N   0  0  0  0  0  0  0  0  0  0  0  0
   71.8267   52.5666   54.9733 C   0  0  0  0  0  0  0  0  0  0  0  0
   71.1764   51.6812   54.1394 C   0  0  0  0  0  0  0  0  0  0  0  0
   69.8125   51.4924   54.1979 C   0  0  0  0  0  0  0  0  0  0  0  0
   69.1147   52.2301   55.1310 C   0  0  0  0  0  0  0  0  0  0  0  0
   69.7702   53.1199   55.9677 C   0  0  0  0  0  0  0  0  0  0  0  0
   71.1357   53.3071   55.9088 C   0  0  0  0  0  0  0  0  0  0  0  0
   73.7758   53.3005   53.8719 C   0  0  0  0  0  0  0  0  0  0  0  0
   73.2369   52.7578   54.9102 N   0  0  0  0  0  0  0  0  0  0  0  0
   71.7960   54.2050   56.7549 O   0  0  0  0  0  0  0  0  0  0  0  0
   72.4221   53.7757   57.9466 C   0  0  0  0  0  0  0  0  0  0  0  0
 21 22  2  0
 22 15  1  0
 15 16  2  0
 15 20  1  0
 16 17  1  0
 17 14  1  0
 17 18  2  0
 14  1  1  0
  1  2  2  0
  1  3  2  0
  1  4  1  0
  4  5  2  0
  4 12  1  0
  5  6  1  0
  5  7  1  0
  7  8  2  0
  8  9  1  0
  8 10  1  0
 10 11  1  0
 10 12  2  0
 12 13  1  0
 18 19  1  0
 19 20  2  0
 20 23  1  0
 23 24  1  0
M  END
>  <minimizedAffinity>  (919) 
-8.56671

$$$$
cs_full_output_folder/data/smiles/733.pdb
     RDKit          3D

 26 28  0  0  0  0  0  0  0  0999 V2000
   68.0846   41.9814   57.7600 C   0  0  0  0  0  0  0  0  0  0  0  0
   69.5503   41.9450   57.8299 C   0  0  0  0  0  0  0  0  0  0  0  0
   70.3622   43.0398   57.6074 C   0  0  0  0  0  0  0  0  0  0  0  0
   71.6521   42.5751   57.7684 C   0  0  0  0  0  0  0  0  0  0  0  0
   71.5762   41.2740   58.0684 N   0  0  0  0  0  0  0  0  0  0  0  0
   70.2886   40.8718   58.1100 N   0  0  0  0  0  0  0  0  0  0  0  0
   69.8880   39.5445   58.4073 C   0  0  0  0  0  0  0  0  0  0  0  0
   70.7635   38.5835   58.3860 C   0  0  0  0  0  0  0  0  0  0  0  0
   70.6583   37.6398   59.2787 C   0  0  0  0  0  0  0  0  0  0  0  0
   69.6165   37.5445   60.0735 C   0  0  0  0  0  0  0  0  0  0  0  0
   69.7355   36.7468   61.6189 Cl  0  0  0  0  0  0  0  0  0  0  0  0
   68.3563   38.1393   59.6004 C   0  0  0  0  0  0  0  0  0  0  0  0
   68.5234   39.1554   58.7528 C   0  0  0  0  0  0  0  0  0  0  0  0
   70.0115   44.4141   57.2748 C   0  0  0  0  0  0  0  0  0  0  0  0
   70.6340   45.3246   57.8762 O   0  0  0  0  0  0  0  0  0  0  0  0
   69.0389   44.7915   56.3398 N   0  0  0  0  0  0  0  0  0  0  0  0
   68.6569   46.1398   55.9870 C   0  0  0  0  0  0  0  0  0  0  0  0
   68.5605   46.3449   54.5045 C   0  0  0  0  0  0  0  0  0  0  0  0
   67.8371   45.5257   53.6735 C   0  0  0  0  0  0  0  0  0  0  0  0
   67.7905   45.7672   52.2977 C   0  0  0  0  0  0  0  0  0  0  0  0
   68.4802   46.8430   51.7843 C   0  0  0  0  0  0  0  0  0  0  0  0
   69.2205   47.6960   52.5751 C   0  0  0  0  0  0  0  0  0  0  0  0
   69.2306   47.4057   53.9331 C   0  0  0  0  0  0  0  0  0  0  0  0
   69.9486   48.8378   52.0310 C   0  0  0  0  0  0  0  0  0  0  0  0
   70.0201   50.0605   52.7305 N   0  0  0  0  0  0  0  0  0  0  0  0
   70.5179   48.7243   50.9270 O   0  0  0  0  0  0  0  0  0  0  0  0
  1  2  1  0
  2  3  2  0
  2  6  1  0
  3 14  1  0
  3  4  1  0
 14 15  2  0
 14 16  1  0
 16 17  1  0
 17 18  1  0
 18 19  2  0
 18 23  1  0
 19 20  1  0
 20 21  2  0
 21 22  1  0
 22 24  1  0
 22 23  2  0
 24 25  1  0
 24 26  2  0
  4  5  2  0
  5  6  1  0
  6  7  1  0
  7  8  2  0
  7 13  1  0
  8  9  2  0
  9 10  2  0
 10 11  1  0
 10 12  1  0
 12 13  2  0
M  END
>  <minimizedAffinity>  (920) 
-8.56539

$$$$
cs_full_output_folder/data/smiles/6280.pdb
     RDKit          3D

 28 30  0  0  0  0  0  0  0  0999 V2000
   70.5753   42.0607   58.5830 O   0  0  0  0  0  0  0  0  0  0  0  0
   69.7103   41.3166   58.0064 C   0  0  0  0  0  0  0  0  0  0  0  0
   69.7585   39.9661   58.3813 N   0  0  0  0  0  0  0  0  0  0  0  0
   68.7841   41.9167   57.0457 C   0  0  0  0  0  0  0  0  0  0  0  0
   69.0376   43.2553   56.6838 C   0  0  0  0  0  0  0  0  0  0  0  0
   68.2680   43.9562   55.8067 C   0  0  0  0  0  0  0  0  0  0  0  0
   67.2070   43.2587   55.2848 N   0  0  0  0  0  0  0  0  0  0  0  0
   66.9429   42.0177   55.5975 N   0  0  0  0  0  0  0  0  0  0  0  0
   67.7147   41.3110   56.4794 C   0  0  0  0  0  0  0  0  0  0  0  0
   67.4343   40.1288   56.7553 O   0  0  0  0  0  0  0  0  0  0  0  0
   68.4687   45.3325   55.3888 C   0  0  0  0  0  0  0  0  0  0  0  0
   68.1496   45.7050   54.0695 C   0  0  0  0  0  0  0  0  0  0  0  0
   68.3026   46.9541   53.6111 N   0  0  0  0  0  0  0  0  0  0  0  0
   68.7709   47.9493   54.3694 C   0  0  0  0  0  0  0  0  0  0  0  0
   69.0990   47.6410   55.6653 C   0  0  0  0  0  0  0  0  0  0  0  0
   68.9485   46.3387   56.1725 C   0  0  0  0  0  0  0  0  0  0  0  0
   69.2716   46.1500   57.3638 O   0  0  0  0  0  0  0  0  0  0  0  0
   70.6981   39.4271   59.3326 C   0  0  0  0  0  0  0  0  0  0  0  0
   71.1760   38.0630   58.9855 C   0  0  0  0  0  0  0  0  0  0  0  0
   70.7777   36.9170   59.6253 C   0  0  0  0  0  0  0  0  0  0  0  0
   71.2627   35.6547   59.2743 C   0  0  0  0  0  0  0  0  0  0  0  0
   72.1771   35.4995   58.2548 C   0  0  0  0  0  0  0  0  0  0  0  0
   72.5819   36.6499   57.6057 C   0  0  0  0  0  0  0  0  0  0  0  0
   72.1057   37.8915   57.9501 C   0  0  0  0  0  0  0  0  0  0  0  0
   72.7058   34.1579   57.8677 C   0  0  0  0  0  0  0  0  0  0  0  0
   71.9541   33.1461   58.4556 F   0  0  0  0  0  0  0  0  0  0  0  0
   72.6261   33.9694   56.5040 F   0  0  0  0  0  0  0  0  0  0  0  0
   73.9958   33.9955   58.3230 F   0  0  0  0  0  0  0  0  0  0  0  0
  1  2  2  0
  2  3  1  0
  2  4  1  0
  3 18  1  0
 18 19  1  0
 19 20  2  0
 19 24  1  0
 20 21  1  0
 21 22  2  0
 22 25  1  0
 22 23  1  0
 25 26  1  0
 25 27  1  0
 25 28  1  0
 23 24  2  0
  4  5  2  0
  4  9  1  0
  5  6  1  0
  6 11  1  0
  6  7  2  0
 11 12  2  0
 11 16  1  0
 12 13  1  0
 13 14  1  0
 14 15  2  0
 15 16  1  0
 16 17  2  0
  7  8  1  0
  8  9  1  0
  9 10  2  0
M  END
>  <minimizedAffinity>  (921) 
-8.56485

$$$$
cs_full_output_folder/data/smiles/157.pdb
     RDKit          3D

 27 28  0  0  0  0  0  0  0  0999 V2000
   72.2121   36.0585   57.7915 C   0  0  0  0  0  0  0  0  0  0  0  0
   71.9588   34.9446   58.5141 C   0  0  0  0  0  0  0  0  0  0  0  0
   72.4824   33.6865   58.1557 C   0  0  0  0  0  0  0  0  0  0  0  0
   73.2643   33.6025   57.0386 C   0  0  0  0  0  0  0  0  0  0  0  0
   73.5588   34.6560   56.2720 C   0  0  0  0  0  0  0  0  0  0  0  0
   73.0296   35.9195   56.6377 C   0  0  0  0  0  0  0  0  0  0  0  0
   71.5072   38.5434   58.3756 C   0  0  0  0  0  0  0  0  0  0  0  0
   71.8319   37.3679   58.0972 C   0  0  0  0  0  0  0  0  0  0  0  0
   70.8676   40.9865   58.9618 C   0  0  0  0  0  0  0  0  0  0  0  0
   71.1607   39.8733   58.6827 C   0  0  0  0  0  0  0  0  0  0  0  0
   69.5693   41.7513   60.5962 C   0  0  0  0  0  0  0  0  0  0  0  0
   70.5320   42.3278   59.3065 C   0  0  0  0  0  0  0  0  0  0  0  0
   69.3320   43.3938   62.2910 O   0  0  0  0  0  0  0  0  0  0  0  0
   68.9444   42.8006   61.2885 C   0  0  0  0  0  0  0  0  0  0  0  0
   67.6520   43.2829   60.7730 N   0  0  0  0  0  0  0  0  0  0  0  0
   67.0150   44.2861   61.3807 O   0  0  0  0  0  0  0  0  0  0  0  0
   74.3800   34.5816   55.1186 N   0  0  0  0  0  0  0  0  0  0  0  0
   73.6396   34.8905   53.5739 S   0  0  0  0  0  0  0  0  0  0  0  0
   72.1288   34.7846   53.6789 O   0  0  0  0  0  0  0  0  0  0  0  0
   73.9431   36.2945   53.1711 O   0  0  0  0  0  0  0  0  0  0  0  0
   74.2769   33.7565   52.3964 C   0  0  0  0  0  0  0  0  0  0  0  0
   75.3354   34.2772   51.5295 C   0  0  0  0  0  0  0  0  0  0  0  0
   75.3237   34.0510   50.1575 C   0  0  0  0  0  0  0  0  0  0  0  0
   76.3923   34.5485   49.4008 C   0  0  0  0  0  0  0  0  0  0  0  0
   77.4053   35.2319   49.9838 C   0  0  0  0  0  0  0  0  0  0  0  0
   77.4434   35.4735   51.3421 C   0  0  0  0  0  0  0  0  0  0  0  0
   76.3701   34.9643   52.0763 C   0  0  0  0  0  0  0  0  0  0  0  0
 13 14  2  0
 14 11  1  0
 14 15  1  0
 11 12  2  0
 12  9  1  0
  9 10  3  0
 10  7  1  0
  7  8  3  0
  8  1  1  0
  1  2  2  0
  1  6  1  0
  2  3  1  0
  3  4  2  0
  4  5  1  0
  5 17  1  0
  5  6  2  0
 17 18  1  0
 18 19  2  0
 18 20  2  0
 18 21  1  0
 21 22  1  0
 22 23  2  0
 22 27  1  0
 23 24  1  0
 24 25  2  0
 25 26  1  0
 26 27  2  0
 15 16  1  0
M  END
>  <minimizedAffinity>  (922) 
-8.56318

$$$$
cs_full_output_folder/data/smiles/2046.pdb
     RDKit          3D

 25 27  0  0  0  0  0  0  0  0999 V2000
   72.3304   42.5804   57.6276 C   0  0  0  0  0  0  0  0  0  0  0  0
   70.9182   42.1850   57.8071 C   0  0  0  0  0  0  0  0  0  0  0  0
   69.8288   42.9991   57.6235 C   0  0  0  0  0  0  0  0  0  0  0  0
   68.7403   42.2114   57.9017 C   0  0  0  0  0  0  0  0  0  0  0  0
   69.2100   40.9809   58.2343 N   0  0  0  0  0  0  0  0  0  0  0  0
   70.5298   40.9509   58.1814 N   0  0  0  0  0  0  0  0  0  0  0  0
   71.4007   39.8467   58.4572 C   0  0  0  0  0  0  0  0  0  0  0  0
   71.1597   38.5890   57.9525 C   0  0  0  0  0  0  0  0  0  0  0  0
   71.9654   37.5010   58.1928 C   0  0  0  0  0  0  0  0  0  0  0  0
   73.0969   37.6621   58.9894 C   0  0  0  0  0  0  0  0  0  0  0  0
   74.1596   36.3108   59.3291 Cl  0  0  0  0  0  0  0  0  0  0  0  0
   73.3549   38.9030   59.5009 C   0  0  0  0  0  0  0  0  0  0  0  0
   72.5243   39.9945   59.2457 C   0  0  0  0  0  0  0  0  0  0  0  0
   69.7891   44.4015   57.2202 C   0  0  0  0  0  0  0  0  0  0  0  0
   70.6844   45.2084   57.6551 O   0  0  0  0  0  0  0  0  0  0  0  0
   68.7540   44.8258   56.3544 N   0  0  0  0  0  0  0  0  0  0  0  0
   68.6788   46.1958   55.9285 C   0  0  0  0  0  0  0  0  0  0  0  0
   68.5837   46.3708   54.4575 C   0  0  0  0  0  0  0  0  0  0  0  0
   67.7979   45.5741   53.6563 C   0  0  0  0  0  0  0  0  0  0  0  0
   67.7175   45.7643   52.2889 C   0  0  0  0  0  0  0  0  0  0  0  0
   68.4559   46.7943   51.7066 C   0  0  0  0  0  0  0  0  0  0  0  0
   69.2549   47.6136   52.4736 C   0  0  0  0  0  0  0  0  0  0  0  0
   69.3100   47.3961   53.8269 C   0  0  0  0  0  0  0  0  0  0  0  0
   70.0631   48.7281   51.8804 C   0  0  0  0  0  0  0  0  0  0  0  0
   71.1555   48.9906   52.7031 O   0  0  0  0  0  0  0  0  0  0  0  0
  1  2  1  0
  2  3  2  0
  2  6  1  0
  3 14  1  0
  3  4  1  0
 14 15  2  0
 14 16  1  0
 16 17  1  0
 17 18  1  0
 18 19  2  0
 18 23  1  0
 19 20  1  0
 20 21  2  0
 21 22  1  0
 22 24  1  0
 22 23  2  0
 24 25  1  0
  4  5  2  0
  5  6  1  0
  6  7  1  0
  7  8  2  0
  7 13  1  0
  8  9  1  0
  9 10  2  0
 10 11  1  0
 10 12  1  0
 12 13  2  0
M  END
>  <minimizedAffinity>  (923) 
-8.56316

$$$$
cs_full_output_folder/data/smiles/7506.pdb
     RDKit          3D

 27 29  0  0  0  0  0  0  0  0999 V2000
   70.1161   50.8572   57.4268 C   0  0  0  0  0  0  0  0  0  0  0  0
   68.8207   51.0949   57.9195 C   0  0  0  0  0  0  0  0  0  0  0  0
   67.7246   51.3003   57.1229 C   0  0  0  0  0  0  0  0  0  0  0  0
   67.8935   51.2730   55.7653 C   0  0  0  0  0  0  0  0  0  0  0  0
   69.1279   51.0464   55.2237 C   0  0  0  0  0  0  0  0  0  0  0  0
   70.2073   50.8447   56.0673 C   0  0  0  0  0  0  0  0  0  0  0  0
   71.8650   49.5080   58.6786 C   0  0  0  0  0  0  0  0  0  0  0  0
   71.5069   48.4715   58.0465 O   0  0  0  0  0  0  0  0  0  0  0  0
   71.1633   50.6605   58.3514 N   0  0  0  0  0  0  0  0  0  0  0  0
   74.0892   47.3098   62.6144 C   0  0  0  0  0  0  0  0  0  0  0  0
   74.0925   48.3442   61.5242 C   0  0  0  0  0  0  0  0  0  0  0  0
   75.1459   49.2139   61.3693 C   0  0  0  0  0  0  0  0  0  0  0  0
   75.1392   50.1574   60.3666 C   0  0  0  0  0  0  0  0  0  0  0  0
   74.0548   50.1893   59.5470 C   0  0  0  0  0  0  0  0  0  0  0  0
   72.9474   49.3389   59.6431 C   0  0  0  0  0  0  0  0  0  0  0  0
   73.0027   48.4258   60.6474 C   0  0  0  0  0  0  0  0  0  0  0  0
   71.9665   47.5424   60.8294 O   0  0  0  0  0  0  0  0  0  0  0  0
   69.3590   51.0087   53.8127 N   0  0  0  0  0  0  0  0  0  0  0  0
   70.0775   49.6554   53.0403 S   0  0  0  0  0  0  0  0  0  0  0  0
   69.9663   49.8770   51.5450 O   0  0  0  0  0  0  0  0  0  0  0  0
   71.5164   49.4863   53.3567 O   0  0  0  0  0  0  0  0  0  0  0  0
   69.2352   48.1711   53.4010 C   0  0  0  0  0  0  0  0  0  0  0  0
   68.8836   47.3518   52.3517 C   0  0  0  0  0  0  0  0  0  0  0  0
   68.2181   46.1723   52.5782 C   0  0  0  0  0  0  0  0  0  0  0  0
   67.8971   45.7977   53.8644 C   0  0  0  0  0  0  0  0  0  0  0  0
   68.2403   46.6054   54.9276 C   0  0  0  0  0  0  0  0  0  0  0  0
   68.9048   47.7806   54.6842 C   0  0  0  0  0  0  0  0  0  0  0  0
 10 11  1  0
 11 12  2  0
 11 16  1  0
 12 13  1  0
 13 14  2  0
 14 15  1  0
 15  7  1  0
 15 16  2  0
  7  8  2  0
  7  9  1  0
  9  1  1  0
  1  2  2  0
  1  6  1  0
  2  3  1  0
  3  4  2  0
  4  5  1  0
  5 18  1  0
  5  6  2  0
 18 19  1  0
 19 20  2  0
 19 21  2  0
 19 22  1  0
 22 23  2  0
 22 27  1  0
 23 24  1  0
 24 25  2  0
 25 26  1  0
 26 27  2  0
 16 17  1  0
M  END
>  <minimizedAffinity>  (924) 
-8.56286

$$$$
cs_full_output_folder/data/smiles/5870.pdb
     RDKit          3D

 27 30  0  0  0  0  0  0  0  0999 V2000
   70.4340   47.0947   58.5197 O   0  0  0  0  0  0  0  0  0  0  0  0
   69.7321   46.7183   57.5984 C   0  0  0  0  0  0  0  0  0  0  0  0
   69.6508   45.2603   57.4697 N   0  0  0  0  0  0  0  0  0  0  0  0
   70.3304   44.3965   58.3439 C   0  0  0  0  0  0  0  0  0  0  0  0
   71.0286   44.9623   59.2621 O   0  0  0  0  0  0  0  0  0  0  0  0
   70.3264   42.9558   58.3193 C   0  0  0  0  0  0  0  0  0  0  0  0
   71.4942   42.2647   58.6543 C   0  0  0  0  0  0  0  0  0  0  0  0
   71.5950   40.9024   58.6614 C   0  0  0  0  0  0  0  0  0  0  0  0
   72.7733   40.2509   58.9997 C   0  0  0  0  0  0  0  0  0  0  0  0
   72.8765   38.8758   59.0075 C   0  0  0  0  0  0  0  0  0  0  0  0
   71.7936   38.0812   58.6742 C   0  0  0  0  0  0  0  0  0  0  0  0
   70.6335   38.7432   58.3425 C   0  0  0  0  0  0  0  0  0  0  0  0
   70.5141   40.1206   58.3289 C   0  0  0  0  0  0  0  0  0  0  0  0
   69.3490   40.7591   57.9944 C   0  0  0  0  0  0  0  0  0  0  0  0
   69.2611   42.1648   57.9919 C   0  0  0  0  0  0  0  0  0  0  0  0
   68.0503   42.7524   57.6431 O   0  0  0  0  0  0  0  0  0  0  0  0
   69.0135   47.5409   56.6755 C   0  0  0  0  0  0  0  0  0  0  0  0
   68.0438   48.2658   57.1666 O   0  0  0  0  0  0  0  0  0  0  0  0
   69.1959   47.6862   55.2639 C   0  0  0  0  0  0  0  0  0  0  0  0
   69.9292   48.7712   54.7123 C   0  0  0  0  0  0  0  0  0  0  0  0
   69.8412   48.7221   53.3856 N   0  0  0  0  0  0  0  0  0  0  0  0
   69.1039   47.6790   53.0173 C   0  0  0  0  0  0  0  0  0  0  0  0
   68.7773   47.2428   51.7348 C   0  0  0  0  0  0  0  0  0  0  0  0
   68.0153   46.1009   51.6222 C   0  0  0  0  0  0  0  0  0  0  0  0
   67.6046   45.4325   52.7479 C   0  0  0  0  0  0  0  0  0  0  0  0
   67.9460   45.8937   54.0210 C   0  0  0  0  0  0  0  0  0  0  0  0
   68.7031   47.0349   54.1520 C   0  0  0  0  0  0  0  0  0  0  0  0
  1  2  2  0
  2  3  1  0
  2 17  1  0
  3  4  1  0
  4  5  2  0
  4  6  1  0
  6  7  2  0
  6 15  1  0
  7  8  1  0
  8  9  2  0
  8 13  1  0
  9 10  1  0
 10 11  2  0
 11 12  1  0
 12 13  2  0
 13 14  1  0
 14 15  2  0
 15 16  1  0
 17 18  2  0
 17 19  1  0
 19 20  2  0
 19 27  1  0
 20 21  1  0
 21 22  1  0
 22 23  1  0
 22 27  2  0
 23 24  2  0
 24 25  1  0
 25 26  2  0
 26 27  1  0
M  END
>  <minimizedAffinity>  (925) 
-8.56089

$$$$
cs_full_output_folder/data/smiles/2695.pdb
     RDKit          3D

 27 30  0  0  0  0  0  0  0  0999 V2000
   71.5350   51.7477   56.1717 C   0  0  0  0  0  0  0  0  0  0  0  0
   71.2413   50.7170   55.3147 C   0  0  0  0  0  0  0  0  0  0  0  0
   70.1599   50.7644   54.4670 C   0  0  0  0  0  0  0  0  0  0  0  0
   69.3534   51.8846   54.4886 C   0  0  0  0  0  0  0  0  0  0  0  0
   69.6448   52.9141   55.3422 C   0  0  0  0  0  0  0  0  0  0  0  0
   70.7305   52.8699   56.1945 C   0  0  0  0  0  0  0  0  0  0  0  0
   71.0125   53.9018   57.0416 F   0  0  0  0  0  0  0  0  0  0  0  0
   69.8740   49.6646   53.5436 C   0  0  0  0  0  0  0  0  0  0  0  0
   70.1995   49.8384   52.2526 N   0  0  0  0  0  0  0  0  0  0  0  0
   69.9808   48.8957   51.3595 N   0  0  0  0  0  0  0  0  0  0  0  0
   69.4213   47.7327   51.7366 C   0  0  0  0  0  0  0  0  0  0  0  0
   69.2099   46.8258   50.8746 O   0  0  0  0  0  0  0  0  0  0  0  0
   69.0530   47.4575   53.0408 C   0  0  0  0  0  0  0  0  0  0  0  0
   68.4964   46.2590   53.4143 C   0  0  0  0  0  0  0  0  0  0  0  0
   68.1822   46.0861   54.7472 C   0  0  0  0  0  0  0  0  0  0  0  0
   68.4032   47.0493   55.6949 C   0  0  0  0  0  0  0  0  0  0  0  0
   68.9713   48.2557   55.2777 C   0  0  0  0  0  0  0  0  0  0  0  0
   69.3025   48.4866   53.9659 C   0  0  0  0  0  0  0  0  0  0  0  0
   72.8957   47.1882   59.8730 C   0  0  0  0  0  0  0  0  0  0  0  0
   72.7317   48.6278   59.4583 C   0  0  0  0  0  0  0  0  0  0  0  0
   73.7149   49.4887   59.6651 C   0  0  0  0  0  0  0  0  0  0  0  0
   73.6254   50.9339   59.2795 C   0  0  0  0  0  0  0  0  0  0  0  0
   72.5503   51.0521   58.3293 N   0  0  0  0  0  0  0  0  0  0  0  0
   72.6902   51.6794   57.0649 C   0  0  0  0  0  0  0  0  0  0  0  0
   73.7993   52.1541   56.7549 O   0  0  0  0  0  0  0  0  0  0  0  0
   71.2604   50.4781   58.7357 C   0  0  0  0  0  0  0  0  0  0  0  0
   71.4366   48.9857   58.8280 C   0  0  0  0  0  0  0  0  0  0  0  0
 19 20  1  0
 20 21  2  0
 20 27  1  0
 21 22  1  0
 22 23  1  0
 23 24  1  0
 23 26  1  0
 24 25  2  0
 24  1  1  0
  1  2  2  0
  1  6  1  0
  2  3  1  0
  3  8  1  0
  3  4  2  0
  8  9  2  0
  8 18  1  0
  9 10  1  0
 10 11  1  0
 11 12  2  0
 11 13  1  0
 13 14  1  0
 13 18  2  0
 14 15  2  0
 15 16  1  0
 16 17  2  0
 17 18  1  0
  4  5  1  0
  5  6  2  0
  6  7  1  0
 26 27  1  0
M  END
>  <minimizedAffinity>  (926) 
-8.56048

$$$$
cs_full_output_folder/data/smiles/6663.pdb
     RDKit          3D

 25 27  0  0  0  0  0  0  0  0999 V2000
   68.3827   46.2132   54.6950 C   0  0  0  0  0  0  0  0  0  0  0  0
   67.8767   45.3780   53.6965 C   0  0  0  0  0  0  0  0  0  0  0  0
   67.9561   45.7441   52.3473 C   0  0  0  0  0  0  0  0  0  0  0  0
   68.5403   46.9436   51.9651 C   0  0  0  0  0  0  0  0  0  0  0  0
   69.0472   47.7915   52.9592 C   0  0  0  0  0  0  0  0  0  0  0  0
   68.9489   47.3953   54.2698 C   0  0  0  0  0  0  0  0  0  0  0  0
   68.2854   45.8099   56.0144 O   0  0  0  0  0  0  0  0  0  0  0  0
   70.8193   46.2741   58.5644 C   0  0  0  0  0  0  0  0  0  0  0  0
   71.3070   44.9860   58.6772 C   0  0  0  0  0  0  0  0  0  0  0  0
   70.8281   43.9261   57.9337 C   0  0  0  0  0  0  0  0  0  0  0  0
   69.7778   44.2559   57.0168 C   0  0  0  0  0  0  0  0  0  0  0  0
   69.2861   45.5245   56.8967 C   0  0  0  0  0  0  0  0  0  0  0  0
   69.8276   46.4988   57.6785 N   0  0  0  0  0  0  0  0  0  0  0  0
   71.7888   48.2210   60.0279 N   0  0  0  0  0  0  0  0  0  0  0  0
   71.3515   47.3348   59.3493 C   0  0  0  0  0  0  0  0  0  0  0  0
   69.6334   49.0490   52.5950 N   0  0  0  0  0  0  0  0  0  0  0  0
   70.3577   50.1686   53.6052 S   0  0  0  0  0  0  0  0  0  0  0  0
   70.3982   51.5070   52.8517 O   0  0  0  0  0  0  0  0  0  0  0  0
   71.8295   49.8372   53.8383 O   0  0  0  0  0  0  0  0  0  0  0  0
   69.6749   50.4765   55.1427 C   0  0  0  0  0  0  0  0  0  0  0  0
   70.0667   49.9296   56.3164 C   0  0  0  0  0  0  0  0  0  0  0  0
   69.4861   50.1559   57.5625 C   0  0  0  0  0  0  0  0  0  0  0  0
   68.4035   51.0323   57.5767 C   0  0  0  0  0  0  0  0  0  0  0  0
   67.9810   51.6043   56.3974 C   0  0  0  0  0  0  0  0  0  0  0  0
   68.5773   51.3568   55.1900 C   0  0  0  0  0  0  0  0  0  0  0  0
 14 15  3  0
 15  8  1  0
  8  9  2  0
  8 13  1  0
  9 10  1  0
 10 11  2  0
 11 12  1  0
 12  7  1  0
 12 13  2  0
  7  1  1  0
  1  2  2  0
  1  6  1  0
  2  3  1  0
  3  4  2  0
  4  5  1  0
  5 16  1  0
  5  6  2  0
 16 17  1  0
 17 18  2  0
 17 19  2  0
 17 20  1  0
 20 21  2  0
 20 25  1  0
 21 22  1  0
 22 23  2  0
 23 24  1  0
 24 25  2  0
M  END
>  <minimizedAffinity>  (927) 
-8.56027

$$$$
cs_full_output_folder/data/smiles/1092.pdb
     RDKit          3D

 26 27  0  0  0  0  0  0  0  0999 V2000
   71.7247   43.1687   58.2480 C   0  0  0  0  0  0  0  0  0  0  0  0
   72.4907   43.6955   57.3950 O   0  0  0  0  0  0  0  0  0  0  0  0
   70.8619   44.0332   58.9519 N   0  0  0  0  0  0  0  0  0  0  0  0
   71.9834   38.9210   58.8086 C   0  0  0  0  0  0  0  0  0  0  0  0
   70.8081   39.5142   58.3989 C   0  0  0  0  0  0  0  0  0  0  0  0
   70.7136   40.8934   58.2144 C   0  0  0  0  0  0  0  0  0  0  0  0
   71.7941   41.7216   58.4331 C   0  0  0  0  0  0  0  0  0  0  0  0
   72.9704   41.1056   58.8455 C   0  0  0  0  0  0  0  0  0  0  0  0
   73.0667   39.7419   59.0300 C   0  0  0  0  0  0  0  0  0  0  0  0
   72.0936   37.4514   59.0082 C   0  0  0  0  0  0  0  0  0  0  0  0
   73.1770   37.1481   59.9917 C   0  0  0  0  0  0  0  0  0  0  0  0
   70.7776   36.8924   59.5640 C   0  0  0  0  0  0  0  0  0  0  0  0
   72.4803   35.2584   57.9435 C   0  0  0  0  0  0  0  0  0  0  0  0
   72.3233   36.7434   57.6885 C   0  0  0  0  0  0  0  0  0  0  0  0
   70.8182   45.4351   58.7489 C   0  0  0  0  0  0  0  0  0  0  0  0
   72.0443   46.3891   59.2425 S   0  0  0  0  0  0  0  0  0  0  0  0
   69.6911   45.9981   58.1083 N   0  0  0  0  0  0  0  0  0  0  0  0
   69.6210   45.9892   56.7114 N   0  0  0  0  0  0  0  0  0  0  0  0
   68.6196   46.6699   55.9839 C   0  0  0  0  0  0  0  0  0  0  0  0
   67.7436   47.3168   56.6115 O   0  0  0  0  0  0  0  0  0  0  0  0
   68.5459   46.6607   54.5154 C   0  0  0  0  0  0  0  0  0  0  0  0
   69.1875   47.6250   53.7642 C   0  0  0  0  0  0  0  0  0  0  0  0
   69.1486   47.6591   52.3970 C   0  0  0  0  0  0  0  0  0  0  0  0
   68.4502   46.7069   51.7023 C   0  0  0  0  0  0  0  0  0  0  0  0
   67.8006   45.7330   52.4274 C   0  0  0  0  0  0  0  0  0  0  0  0
   67.8440   45.7037   53.8151 C   0  0  0  0  0  0  0  0  0  0  0  0
 13 14  1  0
 14 10  1  0
 10 11  1  0
 10 12  1  0
 10  4  1  0
  4  5  2  0
  4  9  1  0
  5  6  1  0
  6  7  2  0
  7  1  1  0
  7  8  1  0
  1  2  2  0
  1  3  1  0
  3 15  1  0
 15 16  2  0
 15 17  1  0
 17 18  1  0
 18 19  1  0
 19 20  2  0
 19 21  1  0
 21 22  2  0
 21 26  1  0
 22 23  1  0
 23 24  2  0
 24 25  1  0
 25 26  2  0
  8  9  2  0
M  END
>  <minimizedAffinity>  (928) 
-8.55580

$$$$
cs_full_output_folder/data/smiles/5460.pdb
     RDKit          3D

 26 28  0  0  0  0  0  0  0  0999 V2000
   68.0801   43.5967   56.6409 N   0  0  0  0  0  0  0  0  0  0  0  0
   68.9115   42.6241   57.1969 C   0  0  0  0  0  0  0  0  0  0  0  0
   70.1631   42.8875   57.1420 O   0  0  0  0  0  0  0  0  0  0  0  0
   68.5390   41.3708   57.8186 C   0  0  0  0  0  0  0  0  0  0  0  0
   68.6499   41.1925   59.1898 C   0  0  0  0  0  0  0  0  0  0  0  0
   68.3263   40.0524   59.8703 C   0  0  0  0  0  0  0  0  0  0  0  0
   68.4585   39.9340   61.2419 C   0  0  0  0  0  0  0  0  0  0  0  0
   68.1330   38.7891   61.9251 C   0  0  0  0  0  0  0  0  0  0  0  0
   67.6514   37.7087   61.2115 C   0  0  0  0  0  0  0  0  0  0  0  0
   67.5157   37.8195   59.8360 C   0  0  0  0  0  0  0  0  0  0  0  0
   67.8438   38.9725   59.1462 C   0  0  0  0  0  0  0  0  0  0  0  0
   67.7093   39.0846   57.7824 C   0  0  0  0  0  0  0  0  0  0  0  0
   68.0603   40.2868   57.1303 C   0  0  0  0  0  0  0  0  0  0  0  0
   67.8960   40.3211   55.7552 O   0  0  0  0  0  0  0  0  0  0  0  0
   67.3991   44.3019   54.1366 O   0  0  0  0  0  0  0  0  0  0  0  0
   68.1502   45.1186   54.7234 C   0  0  0  0  0  0  0  0  0  0  0  0
   68.5435   44.7978   56.0514 N   0  0  0  0  0  0  0  0  0  0  0  0
   68.5522   46.3094   54.0126 C   0  0  0  0  0  0  0  0  0  0  0  0
   68.6159   46.3401   52.6399 C   0  0  0  0  0  0  0  0  0  0  0  0
   69.0051   47.4936   51.9515 C   0  0  0  0  0  0  0  0  0  0  0  0
   69.3353   48.6394   52.6796 C   0  0  0  0  0  0  0  0  0  0  0  0
   69.2699   48.6086   54.0534 C   0  0  0  0  0  0  0  0  0  0  0  0
   68.8836   47.4541   54.6991 C   0  0  0  0  0  0  0  0  0  0  0  0
   69.7307   49.8167   52.0081 N   0  0  0  0  0  0  0  0  0  0  0  0
   69.7218   49.8629   50.7737 O   0  0  0  0  0  0  0  0  0  0  0  0
   70.1245   50.9090   52.7203 O   0  0  0  0  0  0  0  0  0  0  0  0
 15 16  2  0
 16 17  1  0
 16 18  1  0
 17  1  1  0
  1  2  1  0
  2  3  2  0
  2  4  1  0
  4  5  2  0
  4 13  1  0
  5  6  1  0
  6  7  2  0
  6 11  1  0
  7  8  1  0
  8  9  2  0
  9 10  1  0
 10 11  2  0
 11 12  1  0
 12 13  2  0
 13 14  1  0
 18 19  2  0
 18 23  1  0
 19 20  1  0
 20 21  2  0
 21 24  1  0
 21 22  1  0
 24 25  2  0
 24 26  1  0
 22 23  2  0
M  CHG  2  24   1  26  -1
M  END
>  <minimizedAffinity>  (929) 
-8.55548

$$$$
cs_full_output_folder/data/smiles/2148.pdb
     RDKit          3D

 27 30  0  0  0  0  0  0  0  0999 V2000
   69.7386   48.3610   57.3107 C   0  0  0  0  0  0  0  0  0  0  0  0
   70.5383   49.2144   58.0150 C   0  0  0  0  0  0  0  0  0  0  0  0
   71.5105   48.7190   58.8946 C   0  0  0  0  0  0  0  0  0  0  0  0
   71.7060   47.3822   59.0867 C   0  0  0  0  0  0  0  0  0  0  0  0
   70.8813   46.5482   58.3625 N   0  0  0  0  0  0  0  0  0  0  0  0
   69.9558   47.0148   57.5270 C   0  0  0  0  0  0  0  0  0  0  0  0
   68.7285   48.8552   56.3315 C   0  0  0  0  0  0  0  0  0  0  0  0
   70.6229   48.8543   51.1958 O   0  0  0  0  0  0  0  0  0  0  0  0
   70.2024   48.8626   52.3817 C   0  0  0  0  0  0  0  0  0  0  0  0
   70.5375   49.7783   53.2789 N   0  0  0  0  0  0  0  0  0  0  0  0
   70.0684   49.7581   54.5369 N   0  0  0  0  0  0  0  0  0  0  0  0
   69.2295   48.8071   54.9613 C   0  0  0  0  0  0  0  0  0  0  0  0
   68.8471   47.8280   54.0756 C   0  0  0  0  0  0  0  0  0  0  0  0
   69.3307   47.8451   52.7657 C   0  0  0  0  0  0  0  0  0  0  0  0
   68.9115   46.8168   51.8280 C   0  0  0  0  0  0  0  0  0  0  0  0
   68.0818   45.8621   52.1712 C   0  0  0  0  0  0  0  0  0  0  0  0
   67.5109   45.7555   53.5315 C   0  0  0  0  0  0  0  0  0  0  0  0
   67.9408   46.7766   54.5031 C   0  0  0  0  0  0  0  0  0  0  0  0
   72.6811   46.8183   59.9292 N   0  0  0  0  0  0  0  0  0  0  0  0
   72.8893   45.4891   60.3641 C   0  0  0  0  0  0  0  0  0  0  0  0
   72.6726   44.4057   59.4169 C   0  0  0  0  0  0  0  0  0  0  0  0
   73.6288   44.1157   58.4599 C   0  0  0  0  0  0  0  0  0  0  0  0
   73.4740   43.0478   57.5649 C   0  0  0  0  0  0  0  0  0  0  0  0
   72.3537   42.2733   57.6379 C   0  0  0  0  0  0  0  0  0  0  0  0
   71.3912   42.5259   58.5619 C   0  0  0  0  0  0  0  0  0  0  0  0
   71.5642   43.6026   59.4528 C   0  0  0  0  0  0  0  0  0  0  0  0
   70.5308   43.7875   60.3632 O   0  0  0  0  0  0  0  0  0  0  0  0
  8  9  2  0
  9 10  1  0
  9 14  1  0
 10 11  1  0
 11 12  2  0
 12  7  1  0
 12 13  1  0
  7  1  1  0
  1  2  2  0
  1  6  1  0
  2  3  1  0
  3  4  2  0
  4 19  1  0
  4  5  1  0
 19 20  1  0
 20 21  1  0
 21 22  2  0
 21 26  1  0
 22 23  1  0
 23 24  2  0
 24 25  1  0
 25 26  2  0
 26 27  1  0
  5  6  2  0
 13 14  2  0
 13 18  1  0
 14 15  1  0
 15 16  2  0
 16 17  1  0
 17 18  1  0
M  END
>  <minimizedAffinity>  (930) 
-8.55391

$$$$
cs_full_output_folder/data/smiles/1914.pdb
     RDKit          3D

 26 29  0  0  0  0  0  0  0  0999 V2000
   72.3683   47.2749   58.8489 C   0  0  0  0  0  0  0  0  0  0  0  0
   71.2303   47.8456   58.2696 C   0  0  0  0  0  0  0  0  0  0  0  0
   70.2230   47.1187   57.6967 C   0  0  0  0  0  0  0  0  0  0  0  0
   70.3244   45.7186   57.6827 C   0  0  0  0  0  0  0  0  0  0  0  0
   71.4351   45.1425   58.2462 C   0  0  0  0  0  0  0  0  0  0  0  0
   72.4361   45.8995   58.8172 C   0  0  0  0  0  0  0  0  0  0  0  0
   73.5252   45.3042   59.3692 F   0  0  0  0  0  0  0  0  0  0  0  0
   72.5113   47.7725   61.5472 O   0  0  0  0  0  0  0  0  0  0  0  0
   73.3474   48.3723   60.8310 C   0  0  0  0  0  0  0  0  0  0  0  0
   74.2461   49.3080   61.3658 N   0  0  0  0  0  0  0  0  0  0  0  0
   74.8398   50.3135   60.5448 C   0  0  0  0  0  0  0  0  0  0  0  0
   74.7439   50.0901   59.0756 C   0  0  0  0  0  0  0  0  0  0  0  0
   74.4719   48.6738   58.6785 C   0  0  0  0  0  0  0  0  0  0  0  0
   73.3812   48.0942   59.4389 N   0  0  0  0  0  0  0  0  0  0  0  0
   68.9875   47.6506   57.0799 C   0  0  0  0  0  0  0  0  0  0  0  0
   68.7310   46.9892   55.7857 C   0  0  0  0  0  0  0  0  0  0  0  0
   68.0683   45.7908   55.7839 N   0  0  0  0  0  0  0  0  0  0  0  0
   67.7447   45.1711   54.6697 N   0  0  0  0  0  0  0  0  0  0  0  0
   68.0456   45.6798   53.4680 C   0  0  0  0  0  0  0  0  0  0  0  0
   67.7149   45.0517   52.3992 O   0  0  0  0  0  0  0  0  0  0  0  0
   68.7142   46.8827   53.3684 C   0  0  0  0  0  0  0  0  0  0  0  0
   69.0467   47.5185   54.5597 C   0  0  0  0  0  0  0  0  0  0  0  0
   69.7917   48.7548   54.4964 C   0  0  0  0  0  0  0  0  0  0  0  0
   70.1322   49.2454   53.3286 C   0  0  0  0  0  0  0  0  0  0  0  0
   69.8375   48.6689   52.0152 C   0  0  0  0  0  0  0  0  0  0  0  0
   69.0262   47.4141   52.0224 C   0  0  0  0  0  0  0  0  0  0  0  0
  8  9  2  0
  9 10  1  0
  9 14  1  0
 10 11  1  0
 11 12  1  0
 12 13  1  0
 13 14  1  0
 14  1  1  0
  1  2  2  0
  1  6  1  0
  2  3  1  0
  3 15  1  0
  3  4  2  0
 15 16  1  0
 16 17  2  0
 16 22  1  0
 17 18  1  0
 18 19  1  0
 19 20  2  0
 19 21  1  0
 21 22  2  0
 21 26  1  0
 22 23  1  0
 23 24  2  0
 24 25  1  0
 25 26  1  0
  4  5  1  0
  5  6  2  0
  6  7  1  0
M  END
>  <minimizedAffinity>  (931) 
-8.55203

$$$$
cs_full_output_folder/data/smiles/3061.pdb
     RDKit          3D

 27 29  0  0  0  0  0  0  0  0999 V2000
   69.7696   44.6336   57.3438 C   0  0  0  0  0  0  0  0  0  0  0  0
   70.7014   45.0891   58.2454 C   0  0  0  0  0  0  0  0  0  0  0  0
   70.9755   46.4485   58.4463 C   0  0  0  0  0  0  0  0  0  0  0  0
   70.2477   47.3256   57.6758 C   0  0  0  0  0  0  0  0  0  0  0  0
   69.2967   46.8669   56.7547 C   0  0  0  0  0  0  0  0  0  0  0  0
   69.0952   45.5568   56.6248 N   0  0  0  0  0  0  0  0  0  0  0  0
   67.8177   41.3781   56.6597 C   0  0  0  0  0  0  0  0  0  0  0  0
   68.1756   42.7637   56.8677 N   0  0  0  0  0  0  0  0  0  0  0  0
   69.4949   43.2114   57.1468 C   0  0  0  0  0  0  0  0  0  0  0  0
   70.3906   42.3495   57.2150 O   0  0  0  0  0  0  0  0  0  0  0  0
   71.9817   46.8576   59.4240 C   0  0  0  0  0  0  0  0  0  0  0  0
   71.7536   46.6403   60.6553 O   0  0  0  0  0  0  0  0  0  0  0  0
   73.1900   47.4825   59.0417 N   0  0  0  0  0  0  0  0  0  0  0  0
   74.1362   47.8594   60.0702 C   0  0  1  0  0  0  0  0  0  0  0  0
   75.5398   47.6270   59.5523 C   0  0  0  0  0  0  0  0  0  0  0  0
   75.7011   48.4662   58.3214 C   0  0  0  0  0  0  0  0  0  0  0  0
   75.3102   49.8855   58.4756 C   0  0  2  0  0  0  0  0  0  0  0  0
   76.4463   50.6856   58.2168 O   0  0  0  0  0  0  0  0  0  0  0  0
   74.7903   50.2774   59.8170 C   0  0  0  0  0  0  0  0  0  0  0  0
   73.8997   49.2825   60.4742 C   0  0  0  0  0  0  0  0  0  0  0  0
   68.5419   47.8587   55.9512 C   0  0  0  0  0  0  0  0  0  0  0  0
   68.6606   47.4785   54.5189 C   0  0  0  0  0  0  0  0  0  0  0  0
   69.5048   48.1990   53.6993 C   0  0  0  0  0  0  0  0  0  0  0  0
   69.6454   47.8784   52.3570 C   0  0  0  0  0  0  0  0  0  0  0  0
   68.9493   46.8315   51.7906 C   0  0  0  0  0  0  0  0  0  0  0  0
   68.1039   46.1107   52.6094 C   0  0  0  0  0  0  0  0  0  0  0  0
   67.9577   46.4289   53.9628 C   0  0  0  0  0  0  0  0  0  0  0  0
  7  8  1  0
  8  9  1  0
  9 10  2  0
  9  1  1  0
  1  2  2  0
  1  6  1  0
  2  3  1  0
  3 11  1  0
  3  4  2  0
 11 12  2  0
 11 13  1  0
 14 13  1  6
 14 15  1  0
 14 20  1  0
 15 16  1  0
 16 17  1  0
 17 18  1  1
 17 19  1  0
 19 20  1  0
  4  5  1  0
  5 21  1  0
  5  6  2  0
 21 22  1  0
 22 23  2  0
 22 27  1  0
 23 24  1  0
 24 25  2  0
 25 26  1  0
 26 27  2  0
M  END
>  <minimizedAffinity>  (932) 
-8.54980

$$$$
cs_full_output_folder/data/smiles/7182.pdb
     RDKit          3D

 29 32  0  0  0  0  0  0  0  0999 V2000
   71.4355   44.8529   58.5146 C   0  0  0  0  0  0  0  0  0  0  0  0
   70.3107   45.5021   58.0018 C   0  0  0  0  0  0  0  0  0  0  0  0
   70.2589   46.8505   57.7646 C   0  0  0  0  0  0  0  0  0  0  0  0
   71.3601   47.6036   58.0402 C   0  0  0  0  0  0  0  0  0  0  0  0
   72.4827   46.9882   58.5470 C   0  0  0  0  0  0  0  0  0  0  0  0
   72.5255   45.6377   58.7822 C   0  0  0  0  0  0  0  0  0  0  0  0
   73.6710   45.1001   59.2839 F   0  0  0  0  0  0  0  0  0  0  0  0
   71.5218   42.5349   57.7891 C   0  0  0  0  0  0  0  0  0  0  0  0
   71.3705   43.4069   58.7261 C   0  0  0  0  0  0  0  0  0  0  0  0
   71.1264   42.9290   60.0655 N   0  0  0  0  0  0  0  0  0  0  0  0
   72.2672   42.6700   60.8920 C   0  0  0  0  0  0  0  0  0  0  0  0
   71.9802   43.3113   62.2554 C   0  0  0  0  0  0  0  0  0  0  0  0
   70.7516   42.7014   62.7227 N   0  0  0  0  0  0  0  0  0  0  0  0
   70.7681   41.9345   63.9168 C   0  0  0  0  0  0  0  0  0  0  0  0
   69.6879   41.4161   64.2978 O   0  0  0  0  0  0  0  0  0  0  0  0
   69.5492   42.8984   61.9467 C   0  0  0  0  0  0  0  0  0  0  0  0
   69.7813   42.7580   60.4680 C   0  0  0  0  0  0  0  0  0  0  0  0
   69.0427   47.4604   57.1951 C   0  0  0  0  0  0  0  0  0  0  0  0
   68.7841   46.9115   55.8734 C   0  0  0  0  0  0  0  0  0  0  0  0
   68.1299   45.7096   55.8337 N   0  0  0  0  0  0  0  0  0  0  0  0
   67.7769   45.0904   54.7462 N   0  0  0  0  0  0  0  0  0  0  0  0
   68.0486   45.6208   53.5421 C   0  0  0  0  0  0  0  0  0  0  0  0
   67.7270   45.0598   52.4661 O   0  0  0  0  0  0  0  0  0  0  0  0
   68.7051   46.8291   53.4577 C   0  0  0  0  0  0  0  0  0  0  0  0
   69.0245   47.4225   52.2587 C   0  0  0  0  0  0  0  0  0  0  0  0
   69.6928   48.6214   52.1959 C   0  0  0  0  0  0  0  0  0  0  0  0
   70.0377   49.2197   53.4099 C   0  0  0  0  0  0  0  0  0  0  0  0
   69.7227   48.6363   54.6159 C   0  0  0  0  0  0  0  0  0  0  0  0
   69.0622   47.4532   54.6590 C   0  0  0  0  0  0  0  0  0  0  0  0
  8  9  2  0
  9  1  1  0
  9 10  1  0
  1  2  2  0
  1  6  1  0
  2  3  1  0
  3 18  1  0
  3  4  2  0
 18 19  1  0
 19 20  2  0
 19 29  1  0
 20 21  1  0
 21 22  1  0
 22 23  2  0
 22 24  1  0
 24 25  1  0
 24 29  2  0
 25 26  2  0
 26 27  1  0
 27 28  2  0
 28 29  1  0
  4  5  1  0
  5  6  2  0
  6  7  1  0
 10 11  1  0
 10 17  1  0
 11 12  1  0
 12 13  1  0
 13 14  1  0
 13 16  1  0
 14 15  2  0
 16 17  1  0
M  END
>  <minimizedAffinity>  (933) 
-8.54738

$$$$
cs_full_output_folder/data/smiles/7577.pdb
     RDKit          3D

 27 30  0  0  0  0  0  0  0  0999 V2000
   69.8379   47.6081   57.6153 C   0  0  0  0  0  0  0  0  0  0  0  0
   70.6548   48.4441   58.3349 C   0  0  0  0  0  0  0  0  0  0  0  0
   71.6059   47.8837   59.1953 C   0  0  0  0  0  0  0  0  0  0  0  0
   71.6915   46.5099   59.2912 C   0  0  0  0  0  0  0  0  0  0  0  0
   72.6080   45.9534   60.1212 F   0  0  0  0  0  0  0  0  0  0  0  0
   70.8704   45.6852   58.5670 C   0  0  0  0  0  0  0  0  0  0  0  0
   69.9339   46.2361   57.7202 C   0  0  0  0  0  0  0  0  0  0  0  0
   68.8228   48.1813   56.7118 C   0  0  0  0  0  0  0  0  0  0  0  0
   67.6622   45.0961   52.3430 O   0  0  0  0  0  0  0  0  0  0  0  0
   67.9489   45.8300   53.3400 C   0  0  0  0  0  0  0  0  0  0  0  0
   67.5547   45.5131   54.5759 N   0  0  0  0  0  0  0  0  0  0  0  0
   67.8639   46.2862   55.5783 N   0  0  0  0  0  0  0  0  0  0  0  0
   68.5843   47.4374   55.4758 C   0  0  0  0  0  0  0  0  0  0  0  0
   69.0169   47.8119   54.2250 C   0  0  0  0  0  0  0  0  0  0  0  0
   68.6878   46.9926   53.1669 C   0  0  0  0  0  0  0  0  0  0  0  0
   69.0988   47.2949   51.7786 C   0  0  0  0  0  0  0  0  0  0  0  0
   69.5942   48.7100   51.7110 C   0  0  0  0  0  0  0  0  0  0  0  0
   70.6316   48.9174   52.8221 C   0  0  0  0  0  0  0  0  0  0  0  0
   69.8056   49.0486   54.0899 C   0  0  0  0  0  0  0  0  0  0  0  0
   70.9521   44.1936   58.6641 C   0  0  0  0  0  0  0  0  0  0  0  0
   69.6385   43.5972   58.5556 N   0  0  0  0  0  0  0  0  0  0  0  0
   69.6060   42.5314   57.5744 C   0  0  0  0  0  0  0  0  0  0  0  0
   69.1210   41.2903   58.3321 C   0  0  0  0  0  0  0  0  0  0  0  0
   67.7014   41.6336   58.7631 C   0  0  0  0  0  0  0  0  0  0  0  0
   66.8612   41.5392   57.6719 O   0  0  0  0  0  0  0  0  0  0  0  0
   67.4585   41.8444   56.4695 C   0  0  0  0  0  0  0  0  0  0  0  0
   68.5480   42.8685   56.5562 C   0  0  0  0  0  0  0  0  0  0  0  0
  9 10  2  0
 10 11  1  0
 10 15  1  0
 11 12  1  0
 12 13  2  0
 13  8  1  0
 13 14  1  0
  8  1  1  0
  1  2  2  0
  1  7  1  0
  2  3  1  0
  3  4  2  0
  4  5  1  0
  4  6  1  0
  6 20  1  0
  6  7  2  0
 20 21  1  0
 21 22  1  0
 22 23  1  0
 22 27  1  0
 23 24  1  0
 24 25  1  0
 25 26  1  0
 26 27  1  0
 14 15  2  0
 14 19  1  0
 15 16  1  0
 16 17  1  0
 17 18  1  0
 18 19  1  0
M  CHG  1  21   1
M  END
>  <minimizedAffinity>  (934) 
-8.54517

$$$$
cs_full_output_folder/data/smiles/9401.pdb
     RDKit          3D

 28 31  0  0  0  0  0  0  0  0999 V2000
   75.6106   34.1944   55.7403 N   0  0  0  0  0  0  0  0  0  0  0  0
   75.7006   35.0535   56.8474 C   0  0  0  0  0  0  0  0  0  0  0  0
   74.5484   34.6845   57.7954 C   0  0  0  0  0  0  0  0  0  0  0  0
   73.1961   34.8289   57.1799 C   0  0  0  0  0  0  0  0  0  0  0  0
   73.4259   35.3113   55.7385 C   0  0  0  0  0  0  0  0  0  0  0  0
   74.3441   34.3086   55.0482 C   0  0  0  0  0  0  0  0  0  0  0  0
   72.3295   35.7666   57.9397 C   0  0  0  0  0  0  0  0  0  0  0  0
   72.2023   37.0904   57.6517 C   0  0  0  0  0  0  0  0  0  0  0  0
   71.3543   37.8823   58.4030 C   0  0  0  0  0  0  0  0  0  0  0  0
   71.2619   39.1205   58.1011 O   0  0  0  0  0  0  0  0  0  0  0  0
   70.6354   37.4140   59.4209 N   0  0  0  0  0  0  0  0  0  0  0  0
   70.7290   36.0981   59.7482 C   0  0  0  0  0  0  0  0  0  0  0  0
   70.0000   35.5868   60.8050 C   0  0  0  0  0  0  0  0  0  0  0  0
   70.1013   34.2501   61.1428 C   0  0  0  0  0  0  0  0  0  0  0  0
   70.9220   33.4063   60.4421 C   0  0  0  0  0  0  0  0  0  0  0  0
   71.6455   33.9441   59.3816 C   0  0  0  0  0  0  0  0  0  0  0  0
   71.5764   35.2711   59.0090 C   0  0  0  0  0  0  0  0  0  0  0  0
   76.7067   33.9150   54.9220 C   0  0  0  0  0  0  0  0  0  0  0  0
   77.3041   34.9514   54.0692 C   0  0  0  0  0  0  0  0  0  0  0  0
   78.2433   33.8089   52.2096 O   0  0  0  0  0  0  0  0  0  0  0  0
   77.4924   34.6993   52.6539 C   0  0  0  0  0  0  0  0  0  0  0  0
   76.8201   35.4701   51.6342 N   0  0  0  0  0  0  0  0  0  0  0  0
   76.9942   35.2413   50.2601 C   0  0  0  0  0  0  0  0  0  0  0  0
   76.1751   34.3120   49.6130 C   0  0  0  0  0  0  0  0  0  0  0  0
   76.3146   34.0472   48.2698 C   0  0  0  0  0  0  0  0  0  0  0  0
   77.2766   34.7009   47.5294 C   0  0  0  0  0  0  0  0  0  0  0  0
   78.0774   35.6140   48.1770 C   0  0  0  0  0  0  0  0  0  0  0  0
   77.9508   35.8952   49.5369 C   0  0  0  0  0  0  0  0  0  0  0  0
 20 21  2  0
 21 19  1  0
 21 22  1  0
 19 18  1  0
 18  1  1  0
  1  2  1  0
  1  6  1  0
  2  3  1  0
  3  4  1  0
  4  7  1  0
  4  5  1  0
  7  8  2  0
  7 17  1  0
  8  9  1  0
  9 10  2  0
  9 11  1  0
 11 12  1  0
 12 13  1  0
 12 17  2  0
 13 14  2  0
 14 15  1  0
 15 16  2  0
 16 17  1  0
  5  6  1  0
 22 23  1  0
 23 24  2  0
 23 28  1  0
 24 25  1  0
 25 26  2  0
 26 27  1  0
 27 28  2  0
M  CHG  1   1   1
M  END
>  <minimizedAffinity>  (935) 
-8.54363

$$$$
cs_full_output_folder/data/smiles/3947.pdb
     RDKit          3D

 21 23  0  0  0  0  0  0  0  0999 V2000
   67.4555   44.8024   52.4920 O   0  0  0  0  0  0  0  0  0  0  0  0
   67.9087   45.5240   53.4096 C   0  0  0  0  0  0  0  0  0  0  0  0
   67.6851   45.1575   54.6787 N   0  0  0  0  0  0  0  0  0  0  0  0
   68.1177   45.8476   55.7034 N   0  0  0  0  0  0  0  0  0  0  0  0
   68.8370   47.0039   55.5572 C   0  0  0  0  0  0  0  0  0  0  0  0
   69.0809   47.3992   54.2722 C   0  0  0  0  0  0  0  0  0  0  0  0
   69.8080   48.5363   54.0393 C   0  0  0  0  0  0  0  0  0  0  0  0
   70.0564   48.9168   52.7253 C   0  0  0  0  0  0  0  0  0  0  0  0
   69.6082   48.2071   51.6319 C   0  0  0  0  0  0  0  0  0  0  0  0
   68.8794   47.0637   51.8703 C   0  0  0  0  0  0  0  0  0  0  0  0
   68.6263   46.6752   53.1663 C   0  0  0  0  0  0  0  0  0  0  0  0
   69.2386   47.7396   56.7788 C   0  0  0  0  0  0  0  0  0  0  0  0
   68.3213   48.8411   57.1244 C   0  0  0  0  0  0  0  0  0  0  0  0
   67.0702   48.7019   57.6546 C   0  0  0  0  0  0  0  0  0  0  0  0
   66.2761   49.8081   57.9617 C   0  0  0  0  0  0  0  0  0  0  0  0
   66.7433   51.0825   57.7338 C   0  0  0  0  0  0  0  0  0  0  0  0
   67.9937   51.2384   57.2032 C   0  0  0  0  0  0  0  0  0  0  0  0
   68.7530   50.1377   56.9109 C   0  0  0  0  0  0  0  0  0  0  0  0
   68.4765   52.5053   56.9689 O   0  0  0  0  0  0  0  0  0  0  0  0
   69.1844   52.7405   55.7976 N   0  0  0  0  0  0  0  0  0  0  0  0
   71.1216   53.3904   56.2033 I   0  0  0  0  0  0  0  0  0  0  0  0
  1  2  2  0
  2  3  1  0
  2 11  1  0
  3  4  1  0
  4  5  2  0
  5 12  1  0
  5  6  1  0
 12 13  1  0
 13 14  2  0
 13 18  1  0
 14 15  1  0
 15 16  2  0
 16 17  1  0
 17 19  1  0
 17 18  2  0
 19 20  1  0
 20 21  1  0
  6  7  1  0
  6 11  2  0
  7  8  2  0
  8  9  1  0
  9 10  2  0
 10 11  1  0
M  END
>  <minimizedAffinity>  (936) 
-8.54205

$$$$
cs_full_output_folder/data/smiles/5274.pdb
     RDKit          3D

 26 28  0  0  0  0  0  0  0  0999 V2000
   71.0976   44.2658   58.5004 C   0  0  0  0  0  0  0  0  0  0  0  0
   70.1504   43.4350   59.0972 C   0  0  0  0  0  0  0  0  0  0  0  0
   70.2842   42.0646   59.0694 C   0  0  0  0  0  0  0  0  0  0  0  0
   71.3457   41.4288   58.4611 C   0  0  0  0  0  0  0  0  0  0  0  0
   72.2884   42.2575   57.8678 C   0  0  0  0  0  0  0  0  0  0  0  0
   72.1613   43.6303   57.8917 C   0  0  0  0  0  0  0  0  0  0  0  0
   70.9413   46.0022   58.5291 S   0  0  0  0  0  0  0  0  0  0  0  0
   71.1337   46.4998   59.9427 O   0  0  0  0  0  0  0  0  0  0  0  0
   72.0976   46.6017   57.7305 O   0  0  0  0  0  0  0  0  0  0  0  0
   69.4483   46.4811   57.8829 N   0  0  0  0  0  0  0  0  0  0  0  0
   67.8129   45.2101   53.4438 N   0  0  0  0  0  0  0  0  0  0  0  0
   68.3764   46.1558   54.3419 C   0  0  0  0  0  0  0  0  0  0  0  0
   68.6689   47.4161   53.8808 C   0  0  0  0  0  0  0  0  0  0  0  0
   69.2200   48.3746   54.7108 C   0  0  0  0  0  0  0  0  0  0  0  0
   69.4624   48.0251   56.0019 C   0  0  0  0  0  0  0  0  0  0  0  0
   69.1842   46.7582   56.5236 C   0  0  0  0  0  0  0  0  0  0  0  0
   68.6394   45.8512   55.6518 C   0  0  0  0  0  0  0  0  0  0  0  0
   71.4836   39.9993   58.4351 C   0  0  0  0  0  0  0  0  0  0  0  0
   71.5863   38.7975   58.4051 C   0  0  0  0  0  0  0  0  0  0  0  0
   71.7303   37.3669   58.3774 C   0  0  0  0  0  0  0  0  0  0  0  0
   72.4795   36.7023   57.4341 C   0  0  0  0  0  0  0  0  0  0  0  0
   72.6136   35.3317   57.4079 C   0  0  0  0  0  0  0  0  0  0  0  0
   71.9896   34.6029   58.3386 N   0  0  0  0  0  0  0  0  0  0  0  0
   71.2442   35.1859   59.2848 C   0  0  0  0  0  0  0  0  0  0  0  0
   70.6102   34.4431   60.2304 F   0  0  0  0  0  0  0  0  0  0  0  0
   71.1002   36.5606   59.3251 C   0  0  0  0  0  0  0  0  0  0  0  0
 11 12  1  0
 12 13  2  0
 12 17  1  0
 13 14  1  0
 14 15  2  0
 15 16  1  0
 16 10  1  0
 16 17  2  0
 10  7  1  0
  7  8  2  0
  7  9  2  0
  7  1  1  0
  1  2  2  0
  1  6  1  0
  2  3  1  0
  3  4  2  0
  4 18  1  0
  4  5  1  0
 18 19  3  0
 19 20  1  0
 20 21  2  0
 20 26  1  0
 21 22  1  0
 22 23  2  0
 23 24  1  0
 24 25  1  0
 24 26  2  0
  5  6  2  0
M  END
>  <minimizedAffinity>  (937) 
-8.54114

$$$$
cs_full_output_folder/data/smiles/3692.pdb
     RDKit          3D

 27 30  0  0  0  0  0  0  0  0999 V2000
   72.1411   50.6444   57.2623 C   0  0  0  0  0  0  0  0  0  0  0  0
   71.7704   49.9573   56.1310 C   0  0  0  0  0  0  0  0  0  0  0  0
   70.5999   50.2139   55.4467 C   0  0  0  0  0  0  0  0  0  0  0  0
   69.7613   51.1980   55.9090 C   0  0  0  0  0  0  0  0  0  0  0  0
   70.1028   51.8994   57.0304 C   0  0  0  0  0  0  0  0  0  0  0  0
   71.2730   51.6234   57.6910 C   0  0  0  0  0  0  0  0  0  0  0  0
   71.5886   52.3401   58.8099 F   0  0  0  0  0  0  0  0  0  0  0  0
   70.3162   49.3784   54.2848 C   0  0  0  0  0  0  0  0  0  0  0  0
   70.8348   49.7260   53.0655 N   0  0  0  0  0  0  0  0  0  0  0  0
   70.6273   49.0369   51.9652 N   0  0  0  0  0  0  0  0  0  0  0  0
   69.8686   47.9296   52.0214 C   0  0  0  0  0  0  0  0  0  0  0  0
   69.6897   47.2856   50.9316 O   0  0  0  0  0  0  0  0  0  0  0  0
   69.2917   47.4809   53.1916 C   0  0  0  0  0  0  0  0  0  0  0  0
   68.5081   46.3485   53.2060 C   0  0  0  0  0  0  0  0  0  0  0  0
   67.9521   45.9721   54.4111 C   0  0  0  0  0  0  0  0  0  0  0  0
   68.1854   46.7174   55.5467 C   0  0  0  0  0  0  0  0  0  0  0  0
   68.9729   47.8548   55.5330 C   0  0  0  0  0  0  0  0  0  0  0  0
   69.5364   48.2402   54.3324 C   0  0  0  0  0  0  0  0  0  0  0  0
   74.4655   50.9137   57.7109 O   0  0  0  0  0  0  0  0  0  0  0  0
   73.3896   50.3695   57.9904 C   0  0  0  0  0  0  0  0  0  0  0  0
   73.3117   49.4299   59.0560 N   0  0  0  0  0  0  0  0  0  0  0  0
   74.5475   49.1796   59.7523 C   0  0  0  0  0  0  0  0  0  0  0  0
   74.3428   49.3227   61.2290 C   0  0  0  0  0  0  0  0  0  0  0  0
   73.5787   48.2174   61.8363 C   0  0  0  0  0  0  0  0  0  0  0  0
   72.7138   47.4706   61.2714 N   0  0  0  0  0  0  0  0  0  0  0  0
   72.1968   47.4268   59.9339 C   0  0  0  0  0  0  0  0  0  0  0  0
   72.0369   48.8179   59.3498 C   0  0  0  0  0  0  0  0  0  0  0  0
 19 20  2  0
 20  1  1  0
 20 21  1  0
  1  2  2  0
  1  6  1  0
  2  3  1  0
  3  8  1  0
  3  4  2  0
  8  9  2  0
  8 18  1  0
  9 10  1  0
 10 11  1  0
 11 12  2  0
 11 13  1  0
 13 14  1  0
 13 18  2  0
 14 15  2  0
 15 16  1  0
 16 17  2  0
 17 18  1  0
  4  5  1  0
  5  6  2  0
  6  7  1  0
 21 22  1  0
 21 27  1  0
 22 23  1  0
 23 24  1  0
 24 25  2  0
 25 26  1  0
 26 27  1  0
M  END
>  <minimizedAffinity>  (938) 
-8.53834

$$$$
cs_full_output_folder/data/smiles/2441.pdb
     RDKit          3D

 27 30  0  0  0  0  0  0  0  0999 V2000
   69.9588   47.2233   57.7358 C   0  0  0  0  0  0  0  0  0  0  0  0
   70.1127   45.8569   57.4707 C   0  0  0  0  0  0  0  0  0  0  0  0
   71.0830   45.0925   58.0783 C   0  0  0  0  0  0  0  0  0  0  0  0
   71.9371   45.7188   58.9922 C   0  0  0  0  0  0  0  0  0  0  0  0
   71.8149   47.0559   59.2762 C   0  0  0  0  0  0  0  0  0  0  0  0
   70.8220   47.7680   58.6332 C   0  0  0  0  0  0  0  0  0  0  0  0
   72.7284   47.6805   60.2557 C   0  0  0  0  0  0  0  0  0  0  0  0
   72.4290   47.7162   61.4604 O   0  0  0  0  0  0  0  0  0  0  0  0
   73.9629   48.2459   59.8320 N   0  0  0  0  0  0  0  0  0  0  0  0
   74.4135   48.2716   58.4515 C   0  0  0  0  0  0  0  0  0  0  0  0
   75.1083   49.5264   58.0597 C   0  0  0  0  0  0  0  0  0  0  0  0
   74.4626   50.8169   59.1141 S   0  0  0  0  0  0  0  0  0  0  0  0
   72.9330   51.5072   58.6420 N   0  0  0  0  0  0  0  0  0  0  0  0
   74.6852   50.3275   60.7341 C   0  0  0  0  0  0  0  0  0  0  0  0
   74.8572   48.8282   60.8077 C   0  0  0  0  0  0  0  0  0  0  0  0
   68.8717   47.9122   57.0048 C   0  0  0  0  0  0  0  0  0  0  0  0
   67.7053   44.9878   52.3331 N   0  0  0  0  0  0  0  0  0  0  0  0
   68.0187   45.7360   53.5219 C   0  0  0  0  0  0  0  0  0  0  0  0
   67.7872   45.2315   54.7433 N   0  0  0  0  0  0  0  0  0  0  0  0
   68.0834   45.9381   55.8176 N   0  0  0  0  0  0  0  0  0  0  0  0
   68.6234   47.1803   55.7591 C   0  0  0  0  0  0  0  0  0  0  0  0
   68.8609   47.6944   54.5357 C   0  0  0  0  0  0  0  0  0  0  0  0
   68.5569   46.9716   53.3585 C   0  0  0  0  0  0  0  0  0  0  0  0
   68.7963   47.5185   52.0200 C   0  0  0  0  0  0  0  0  0  0  0  0
   69.7629   48.6525   51.9507 C   0  0  0  0  0  0  0  0  0  0  0  0
   70.5268   48.8130   53.2406 C   0  0  0  0  0  0  0  0  0  0  0  0
   69.4899   49.0245   54.3652 C   0  0  0  0  0  0  0  0  0  0  0  0
 17 18  1  0
 18 19  2  0
 18 23  1  0
 19 20  1  0
 20 21  2  0
 21 16  1  0
 21 22  1  0
 16  1  1  0
  1  2  2  0
  1  6  1  0
  2  3  1  0
  3  4  2  0
  4  5  1  0
  5  7  1  0
  5  6  2  0
  7  8  2  0
  7  9  1  0
  9 10  1  0
  9 15  1  0
 10 11  1  0
 11 12  1  0
 12 13  1  0
 12 14  1  0
 14 15  1  0
 22 23  2  0
 22 27  1  0
 23 24  1  0
 24 25  1  0
 25 26  1  0
 26 27  1  0
M  END
>  <minimizedAffinity>  (939) 
-8.53806

$$$$
cs_full_output_folder/data/smiles/3338.pdb
     RDKit          3D

 24 25  0  0  0  0  0  0  0  0999 V2000
   68.6923   45.9598   56.4113 N   0  0  0  0  0  0  0  0  0  0  0  0
   68.9782   47.7305   53.1046 C   0  0  0  0  0  0  0  0  0  0  0  0
   69.0679   47.4269   54.4788 C   0  0  0  0  0  0  0  0  0  0  0  0
   68.5578   46.2814   55.0383 C   0  0  0  0  0  0  0  0  0  0  0  0
   67.9158   45.3524   54.2497 C   0  0  0  0  0  0  0  0  0  0  0  0
   67.8105   45.6126   52.9120 C   0  0  0  0  0  0  0  0  0  0  0  0
   68.3388   46.7847   52.3655 C   0  0  0  0  0  0  0  0  0  0  0  0
   68.1963   46.9077   51.0287 F   0  0  0  0  0  0  0  0  0  0  0  0
   70.1244   51.2927   52.6426 N   0  0  0  0  0  0  0  0  0  0  0  0
   69.4215   50.1955   53.2657 C   0  0  0  0  0  0  0  0  0  0  0  0
   68.7193   50.3619   54.2662 O   0  0  0  0  0  0  0  0  0  0  0  0
   69.5763   48.9304   52.6752 N   0  0  0  0  0  0  0  0  0  0  0  0
   69.5867   46.9476   57.4803 S   0  0  0  0  0  0  0  0  0  0  0  0
   69.5094   46.3807   58.8832 O   0  0  0  0  0  0  0  0  0  0  0  0
   71.0582   46.9064   57.0491 O   0  0  0  0  0  0  0  0  0  0  0  0
   69.1344   48.6281   57.4741 C   0  0  0  0  0  0  0  0  0  0  0  0
   70.1487   49.6063   57.4383 C   0  0  0  0  0  0  0  0  0  0  0  0
   69.8813   50.9489   57.4476 C   0  0  0  0  0  0  0  0  0  0  0  0
   68.5800   51.3962   57.4922 C   0  0  0  0  0  0  0  0  0  0  0  0
   68.2981   52.7378   57.5019 F   0  0  0  0  0  0  0  0  0  0  0  0
   67.5692   50.4688   57.5275 C   0  0  0  0  0  0  0  0  0  0  0  0
   66.2698   50.8877   57.5730 F   0  0  0  0  0  0  0  0  0  0  0  0
   67.8644   49.1154   57.5180 C   0  0  0  0  0  0  0  0  0  0  0  0
   66.8249   48.2674   57.5368 F   0  0  0  0  0  0  0  0  0  0  0  0
  9 10  1  0
 10 11  2  0
 10 12  1  0
 12  2  1  0
  2  3  2  0
  2  7  1  0
  3  4  1  0
  4  1  1  0
  4  5  2  0
  1 13  1  0
 13 14  2  0
 13 15  2  0
 13 16  1  0
 16 17  2  0
 16 23  1  0
 17 18  1  0
 18 19  2  0
 19 20  1  0
 19 21  1  0
 21 22  1  0
 21 23  2  0
 23 24  1  0
  5  6  1  0
  6  7  2  0
  7  8  1  0
M  END
>  <minimizedAffinity>  (940) 
-8.53802

$$$$
cs_full_output_folder/data/smiles/5198.pdb
     RDKit          3D

 26 29  0  0  0  0  0  0  0  0999 V2000
   69.0881   48.6297   56.6646 C   0  0  0  0  0  0  0  0  0  0  0  0
   68.2607   49.6636   57.0743 C   0  0  0  0  0  0  0  0  0  0  0  0
   68.6506   50.5647   58.0426 C   0  0  0  0  0  0  0  0  0  0  0  0
   69.8928   50.4606   58.6412 C   0  0  0  0  0  0  0  0  0  0  0  0
   70.3345   51.3093   59.5945 F   0  0  0  0  0  0  0  0  0  0  0  0
   70.7659   49.4333   58.2630 C   0  0  0  0  0  0  0  0  0  0  0  0
   70.3231   48.5687   57.2953 C   0  0  0  0  0  0  0  0  0  0  0  0
   67.5423   44.7765   53.0189 N   0  0  0  0  0  0  0  0  0  0  0  0
   67.9496   45.7353   53.8077 C   0  0  0  0  0  0  0  0  0  0  0  0
   67.6569   45.6817   55.0951 O   0  0  0  0  0  0  0  0  0  0  0  0
   68.0020   46.5655   55.9667 N   0  0  0  0  0  0  0  0  0  0  0  0
   68.7219   47.6695   55.6293 C   0  0  0  0  0  0  0  0  0  0  0  0
   69.0626   47.7893   54.3073 C   0  0  0  0  0  0  0  0  0  0  0  0
   69.7973   48.8520   53.8910 C   0  0  0  0  0  0  0  0  0  0  0  0
   70.1474   48.9529   52.5505 C   0  0  0  0  0  0  0  0  0  0  0  0
   69.7626   47.9948   51.6392 C   0  0  0  0  0  0  0  0  0  0  0  0
   69.0206   46.9102   52.0405 C   0  0  0  0  0  0  0  0  0  0  0  0
   68.6774   46.8155   53.3704 C   0  0  0  0  0  0  0  0  0  0  0  0
   72.0438   49.3195   58.8734 N   0  0  0  0  0  0  0  0  0  0  0  0
   72.2647   48.3199   59.8499 C   0  0  0  0  0  0  0  0  0  0  0  0
   71.2774   47.6456   60.2829 O   0  0  0  0  0  0  0  0  0  0  0  0
   73.6528   48.0572   60.3718 C   0  0  0  0  0  0  0  0  0  0  0  0
   74.3515   49.3814   60.5356 C   0  0  0  0  0  0  0  0  0  0  0  0
   74.4359   50.1250   59.2240 C   0  0  0  0  0  0  0  0  0  0  0  0
   73.1166   50.1774   58.5361 C   0  0  0  0  0  0  0  0  0  0  0  0
   72.9973   51.0413   57.6182 O   0  0  0  0  0  0  0  0  0  0  0  0
  8  9  2  0
  9 10  1  0
  9 18  1  0
 10 11  1  0
 11 12  2  0
 12  1  1  0
 12 13  1  0
  1  2  2  0
  1  7  1  0
  2  3  1  0
  3  4  2  0
  4  5  1  0
  4  6  1  0
  6 19  1  0
  6  7  2  0
 19 20  1  0
 19 25  1  0
 20 21  2  0
 20 22  1  0
 22 23  1  0
 23 24  1  0
 24 25  1  0
 25 26  2  0
 13 14  1  0
 13 18  2  0
 14 15  2  0
 15 16  1  0
 16 17  2  0
 17 18  1  0
M  END
>  <minimizedAffinity>  (941) 
-8.53767

$$$$
cs_full_output_folder/data/smiles/6478.pdb
     RDKit          3D

 26 27  0  0  0  0  0  0  0  0999 V2000
   71.9112   43.4422   58.1091 C   0  0  0  0  0  0  0  0  0  0  0  0
   72.8767   43.9127   57.4629 O   0  0  0  0  0  0  0  0  0  0  0  0
   70.9444   44.3613   58.5784 N   0  0  0  0  0  0  0  0  0  0  0  0
   71.8893   39.1916   58.8257 C   0  0  0  0  0  0  0  0  0  0  0  0
   70.7586   39.8324   58.3812 C   0  0  0  0  0  0  0  0  0  0  0  0
   70.7357   41.2149   58.1392 C   0  0  0  0  0  0  0  0  0  0  0  0
   71.8453   41.9913   58.3362 C   0  0  0  0  0  0  0  0  0  0  0  0
   72.9812   41.3326   58.7858 C   0  0  0  0  0  0  0  0  0  0  0  0
   73.0049   39.9753   59.0234 C   0  0  0  0  0  0  0  0  0  0  0  0
   70.5732   37.2286   59.6061 C   0  0  0  0  0  0  0  0  0  0  0  0
   71.9236   37.7194   59.0858 C   0  0  0  0  0  0  0  0  0  0  0  0
   72.9285   37.4286   60.1759 C   0  0  0  0  0  0  0  0  0  0  0  0
   72.2239   36.9547   57.8296 C   0  0  0  0  0  0  0  0  0  0  0  0
   70.8637   45.7351   58.4503 C   0  0  0  0  0  0  0  0  0  0  0  0
   71.9906   46.5887   59.3605 S   0  0  0  0  0  0  0  0  0  0  0  0
   69.9981   46.5888   57.6858 C   0  0  0  0  0  0  0  0  0  0  0  0
   69.2629   46.1287   56.7403 N   0  0  0  0  0  0  0  0  0  0  0  0
   68.3973   46.9387   55.9647 C   0  0  0  0  0  0  0  0  0  0  0  0
   67.5811   47.6841   56.5313 O   0  0  0  0  0  0  0  0  0  0  0  0
   68.4681   46.8964   54.5068 C   0  0  0  0  0  0  0  0  0  0  0  0
   69.2990   47.7521   53.8086 C   0  0  0  0  0  0  0  0  0  0  0  0
   69.3676   47.7119   52.4150 C   0  0  0  0  0  0  0  0  0  0  0  0
   68.5917   46.8013   51.7302 C   0  0  0  0  0  0  0  0  0  0  0  0
   67.7562   45.9370   52.3910 C   0  0  0  0  0  0  0  0  0  0  0  0
   66.9737   45.0147   51.6410 N   0  0  0  0  0  0  0  0  0  0  0  0
   67.7132   46.0054   53.7760 C   0  0  0  0  0  0  0  0  0  0  0  0
 10 11  1  0
 11 12  1  0
 11 13  1  0
 11  4  1  0
  4  5  2  0
  4  9  1  0
  5  6  1  0
  6  7  2  0
  7  1  1  0
  7  8  1  0
  1  2  2  0
  1  3  1  0
  3 14  1  0
 14 15  2  0
 14 16  1  0
 16 17  2  0
 17 18  1  0
 18 19  2  0
 18 20  1  0
 20 21  2  0
 20 26  1  0
 21 22  1  0
 22 23  2  0
 23 24  1  0
 24 25  1  0
 24 26  2  0
  8  9  2  0
M  CHG  1  25   1
M  END
>  <minimizedAffinity>  (942) 
-8.53691

$$$$
cs_full_output_folder/data/smiles/9024.pdb
     RDKit          3D

 27 30  0  0  0  0  0  0  0  0999 V2000
   71.9680   46.1186   58.6008 C   0  0  0  0  0  0  0  0  0  0  0  0
   72.0507   47.4937   58.4885 C   0  0  0  0  0  0  0  0  0  0  0  0
   71.1096   48.2439   57.7731 C   0  0  0  0  0  0  0  0  0  0  0  0
   70.0694   47.6468   57.1542 C   0  0  0  0  0  0  0  0  0  0  0  0
   69.9823   46.2611   57.2646 C   0  0  0  0  0  0  0  0  0  0  0  0
   70.9188   45.5018   57.9783 C   0  0  0  0  0  0  0  0  0  0  0  0
   72.7467   43.6115   62.4575 C   0  0  0  0  0  0  0  0  0  0  0  0
   73.4367   43.9977   61.1341 C   0  0  0  0  0  0  0  0  0  0  0  0
   74.1283   42.7877   60.6383 C   0  0  0  0  0  0  0  0  0  0  0  0
   74.2624   45.2153   61.3305 C   0  0  0  0  0  0  0  0  0  0  0  0
   73.8241   46.2430   60.2849 C   0  0  0  0  0  0  0  0  0  0  0  0
   73.0036   45.3801   59.3367 C   0  0  2  0  0  0  0  0  0  0  0  0
   73.8714   44.6676   58.3562 C   0  0  0  0  0  0  0  0  0  0  0  0
   72.3362   44.4668   60.2889 N   0  0  0  0  0  0  0  0  0  0  0  0
   71.7002   45.3537   61.1553 O   0  0  0  0  0  0  0  0  0  0  0  0
   69.0027   48.2998   56.3507 C   0  0  0  0  0  0  0  0  0  0  0  0
   69.3588   48.3814   54.9260 C   0  0  0  0  0  0  0  0  0  0  0  0
   70.2073   49.3441   54.5271 N   0  0  0  0  0  0  0  0  0  0  0  0
   70.5354   49.4991   53.2335 N   0  0  0  0  0  0  0  0  0  0  0  0
   70.0482   48.7188   52.2631 C   0  0  0  0  0  0  0  0  0  0  0  0
   70.3864   48.9031   51.0513 O   0  0  0  0  0  0  0  0  0  0  0  0
   69.1744   47.7140   52.6119 C   0  0  0  0  0  0  0  0  0  0  0  0
   68.6882   46.9078   51.6255 C   0  0  0  0  0  0  0  0  0  0  0  0
   67.8314   45.8969   51.9709 C   0  0  0  0  0  0  0  0  0  0  0  0
   67.4893   45.7213   53.2775 C   0  0  0  0  0  0  0  0  0  0  0  0
   67.9861   46.5421   54.2602 C   0  0  0  0  0  0  0  0  0  0  0  0
   68.8405   47.5612   53.9632 C   0  0  0  0  0  0  0  0  0  0  0  0
  7  8  1  0
  8  9  1  0
  8 10  1  0
  8 14  1  0
 10 11  1  0
 11 12  1  0
 12 13  1  6
 12  1  1  0
 12 14  1  0
  1  2  2  0
  1  6  1  0
  2  3  1  0
  3  4  2  0
  4 16  1  0
  4  5  1  0
 16 17  1  0
 17 18  2  0
 17 27  1  0
 18 19  1  0
 19 20  1  0
 20 21  2  0
 20 22  1  0
 22 23  1  0
 22 27  2  0
 23 24  2  0
 24 25  1  0
 25 26  2  0
 26 27  1  0
  5  6  2  0
 14 15  1  0
M  END
>  <minimizedAffinity>  (943) 
-8.53640

$$$$
cs_full_output_folder/data/smiles/6029.pdb
     RDKit          3D

 26 28  0  0  0  0  0  0  0  0999 V2000
   69.8769   45.6480   56.6811 N   0  0  0  0  0  0  0  0  0  0  0  0
   69.0224   46.7483   56.2647 C   0  0  0  0  0  0  0  0  0  0  0  0
   68.1535   47.0357   57.0942 O   0  0  0  0  0  0  0  0  0  0  0  0
   69.2495   47.3822   54.9840 C   0  0  0  0  0  0  0  0  0  0  0  0
   70.0000   48.5073   54.8962 N   0  0  0  0  0  0  0  0  0  0  0  0
   70.2174   49.0968   53.7450 N   0  0  0  0  0  0  0  0  0  0  0  0
   69.7271   48.6467   52.5773 C   0  0  0  0  0  0  0  0  0  0  0  0
   69.9442   49.2251   51.4735 O   0  0  0  0  0  0  0  0  0  0  0  0
   68.9538   47.5045   52.5905 C   0  0  0  0  0  0  0  0  0  0  0  0
   68.4478   47.0369   51.4105 C   0  0  0  0  0  0  0  0  0  0  0  0
   67.6746   45.9006   51.4055 C   0  0  0  0  0  0  0  0  0  0  0  0
   67.4297   45.2648   52.5849 C   0  0  0  0  0  0  0  0  0  0  0  0
   67.9525   45.7528   53.7855 C   0  0  0  0  0  0  0  0  0  0  0  0
   68.7298   46.8860   53.8276 C   0  0  0  0  0  0  0  0  0  0  0  0
   70.0640   43.6553   58.1331 C   0  0  0  0  0  0  0  0  0  0  0  0
   70.5628   43.0503   57.1302 O   0  0  0  0  0  0  0  0  0  0  0  0
   69.7130   44.9941   57.9051 N   0  0  0  0  0  0  0  0  0  0  0  0
   69.9339   42.8814   59.3595 C   0  0  0  0  0  0  0  0  0  0  0  0
   71.4145   42.1554   60.0249 S   0  0  0  0  0  0  0  0  0  0  0  0
   72.2699   36.5004   57.8686 C   0  0  0  0  0  0  0  0  0  0  0  0
   72.0589   37.8720   58.3971 C   0  0  0  0  0  0  0  0  0  0  0  0
   70.8642   38.5453   58.2573 C   0  0  0  0  0  0  0  0  0  0  0  0
   70.6862   39.8154   58.7520 C   0  0  0  0  0  0  0  0  0  0  0  0
   71.7098   40.5009   59.4303 C   0  0  0  0  0  0  0  0  0  0  0  0
   72.8972   39.8250   59.5667 C   0  0  0  0  0  0  0  0  0  0  0  0
   73.0698   38.5287   59.0576 C   0  0  0  0  0  0  0  0  0  0  0  0
 20 21  1  0
 21 22  2  0
 21 26  1  0
 22 23  1  0
 23 24  2  0
 24 19  1  0
 24 25  1  0
 19 18  1  0
 18 15  1  0
 15 16  2  0
 15 17  1  0
 17  1  1  0
  1  2  1  0
  2  3  2  0
  2  4  1  0
  4  5  2  0
  4 14  1  0
  5  6  1  0
  6  7  1  0
  7  8  2  0
  7  9  1  0
  9 10  1  0
  9 14  2  0
 10 11  2  0
 11 12  1  0
 12 13  2  0
 13 14  1  0
 25 26  2  0
M  END
>  <minimizedAffinity>  (944) 
-8.53490

$$$$
cs_full_output_folder/data/smiles/6737.pdb
     RDKit          3D

 25 26  0  0  0  0  0  0  0  0999 V2000
   71.9659   50.5888   54.4490 S   0  0  0  0  0  0  0  0  0  0  0  0
   72.0300   49.5267   55.5310 O   0  0  0  0  0  0  0  0  0  0  0  0
   73.2564   50.1852   53.6937 O   0  0  0  0  0  0  0  0  0  0  0  0
   71.2610   52.9346   55.5423 C   0  0  0  0  0  0  0  0  0  0  0  0
   71.5460   54.2772   55.8802 C   0  0  0  0  0  0  0  0  0  0  0  0
   72.7574   54.8828   55.6550 C   0  0  0  0  0  0  0  0  0  0  0  0
   73.7421   54.1320   55.0670 C   0  0  0  0  0  0  0  0  0  0  0  0
   73.4729   52.8350   54.7379 C   0  0  0  0  0  0  0  0  0  0  0  0
   72.2291   52.1896   54.9605 C   0  0  0  0  0  0  0  0  0  0  0  0
   68.9857   52.3999   54.7030 C   0  0  0  0  0  0  0  0  0  0  0  0
   69.9496   52.4600   55.9244 C   0  0  0  0  0  0  0  0  0  0  0  0
   69.3151   53.6038   56.7255 C   0  0  0  0  0  0  0  0  0  0  0  0
   69.7641   51.2613   56.7570 C   0  0  0  0  0  0  0  0  0  0  0  0
   70.7669   50.2656   53.2899 N   0  0  0  0  0  0  0  0  0  0  0  0
   70.0425   49.0357   53.2368 C   0  0  0  0  0  0  0  0  0  0  0  0
   69.9133   48.3683   52.0397 C   0  0  0  0  0  0  0  0  0  0  0  0
   69.2179   47.1674   51.9216 C   0  0  0  0  0  0  0  0  0  0  0  0
   68.6368   46.6277   53.0491 C   0  0  0  0  0  0  0  0  0  0  0  0
   68.7610   47.2898   54.2530 C   0  0  0  0  0  0  0  0  0  0  0  0
   69.4554   48.4772   54.3422 C   0  0  0  0  0  0  0  0  0  0  0  0
   68.1450   46.7214   55.4606 C   0  0  0  0  0  0  0  0  0  0  0  0
   68.5479   45.4545   55.9338 N   0  0  0  0  0  0  0  0  0  0  0  0
   67.2576   47.3386   56.0966 O   0  0  0  0  0  0  0  0  0  0  0  0
   67.9076   45.4075   53.0292 N   0  0  0  0  0  0  0  0  0  0  0  0
   67.1850   45.0727   51.9501 F   0  0  0  0  0  0  0  0  0  0  0  0
 10 11  1  0
 11 12  1  0
 11 13  1  0
 11  4  1  0
  4  5  2  0
  4  9  1  0
  5  6  1  0
  6  7  2  0
  7  8  1  0
  8  9  2  0
  9  1  1  0
  1  2  2  0
  1  3  2  0
  1 14  1  0
 14 15  1  0
 15 16  2  0
 15 20  1  0
 16 17  1  0
 17 18  2  0
 18 24  1  0
 18 19  1  0
 24 25  1  0
 19 21  1  0
 19 20  2  0
 21 22  1  0
 21 23  2  0
M  END
>  <minimizedAffinity>  (945) 
-8.53394

$$$$
cs_full_output_folder/data/smiles/7812.pdb
     RDKit          3D

 28 30  0  0  0  0  0  0  0  0999 V2000
   70.1830   45.2791   57.5083 N   0  0  0  0  0  0  0  0  0  0  0  0
   70.4551   44.4640   58.6017 C   0  0  0  0  0  0  0  0  0  0  0  0
   70.7052   44.9818   59.6704 O   0  0  0  0  0  0  0  0  0  0  0  0
   70.4361   42.9903   58.4300 C   0  0  0  0  0  0  0  0  0  0  0  0
   71.6704   42.4000   58.1382 C   0  0  0  0  0  0  0  0  0  0  0  0
   71.8193   41.0611   58.1286 C   0  0  0  0  0  0  0  0  0  0  0  0
   70.7472   40.1575   58.4067 C   0  0  0  0  0  0  0  0  0  0  0  0
   69.5552   40.7490   58.6802 C   0  0  0  0  0  0  0  0  0  0  0  0
   69.4041   42.1506   58.6909 C   0  0  0  0  0  0  0  0  0  0  0  0
   71.1006   38.7928   58.4419 C   0  0  0  0  0  0  0  0  0  0  0  0
   71.3863   37.6074   58.4717 C   0  0  0  0  0  0  0  0  0  0  0  0
   71.7428   36.1997   58.4921 C   0  0  0  0  0  0  0  0  0  0  0  0
   71.2923   35.3388   59.4884 C   0  0  0  0  0  0  0  0  0  0  0  0
   71.5855   34.0008   59.5118 C   0  0  0  0  0  0  0  0  0  0  0  0
   72.3620   33.4551   58.5078 C   0  0  0  0  0  0  0  0  0  0  0  0
   72.8053   34.3110   57.5218 C   0  0  0  0  0  0  0  0  0  0  0  0
   72.5256   35.6566   57.4806 C   0  0  0  0  0  0  0  0  0  0  0  0
   68.9034   47.0732   56.3683 C   0  0  0  0  0  0  0  0  0  0  0  0
   68.0311   46.2919   56.0197 O   0  0  0  0  0  0  0  0  0  0  0  0
   70.0578   46.5439   57.0831 N   0  0  0  0  0  0  0  0  0  0  0  0
   68.8789   52.8202   56.2402 C   0  0  0  0  0  0  0  0  0  0  0  0
   68.8644   51.3246   56.1600 C   0  0  0  0  0  0  0  0  0  0  0  0
   68.6520   50.6197   57.3379 C   0  0  0  0  0  0  0  0  0  0  0  0
   68.6564   49.2495   57.3372 C   0  0  0  0  0  0  0  0  0  0  0  0
   68.8731   48.5299   56.1455 C   0  0  0  0  0  0  0  0  0  0  0  0
   69.0745   49.1904   55.0181 C   0  0  0  0  0  0  0  0  0  0  0  0
   69.3001   48.5474   53.7177 C   0  0  0  0  0  0  0  0  0  0  0  0
   69.0748   50.6183   54.9989 C   0  0  0  0  0  0  0  0  0  0  0  0
 21 22  1  0
 22 23  2  0
 22 28  1  0
 23 24  1  0
 24 25  2  0
 25 18  1  0
 25 26  1  0
 18 19  2  0
 18 20  1  0
 20  1  1  0
  1  2  1  0
  2  3  2  0
  2  4  1  0
  4  5  2  0
  4  9  1  0
  5  6  1  0
  6  7  2  0
  7 10  1  0
  7  8  1  0
 10 11  3  0
 11 12  1  0
 12 13  2  0
 12 17  1  0
 13 14  1  0
 14 15  2  0
 15 16  1  0
 16 17  2  0
  8  9  2  0
 26 27  1  0
 26 28  2  0
M  END
>  <minimizedAffinity>  (946) 
-8.52881

$$$$
cs_full_output_folder/data/smiles/1747.pdb
     RDKit          3D

 26 27  0  0  0  0  0  0  0  0999 V2000
   69.1111   46.8430   56.5374 S   0  0  0  0  0  0  0  0  0  0  0  0
   69.3934   45.5024   57.1399 O   0  0  0  0  0  0  0  0  0  0  0  0
   67.8757   47.3682   57.2162 O   0  0  0  0  0  0  0  0  0  0  0  0
   68.7605   46.7102   54.8331 C   0  0  0  0  0  0  0  0  0  0  0  0
   68.0923   45.6459   54.2784 C   0  0  0  0  0  0  0  0  0  0  0  0
   67.6858   44.6530   55.0797 F   0  0  0  0  0  0  0  0  0  0  0  0
   67.8484   45.6043   52.9303 C   0  0  0  0  0  0  0  0  0  0  0  0
   67.1843   44.5467   52.3794 F   0  0  0  0  0  0  0  0  0  0  0  0
   68.2531   46.6120   52.0711 C   0  0  0  0  0  0  0  0  0  0  0  0
   68.0094   46.5685   50.7313 F   0  0  0  0  0  0  0  0  0  0  0  0
   68.9211   47.6803   52.6172 C   0  0  0  0  0  0  0  0  0  0  0  0
   69.3196   48.6661   51.7858 F   0  0  0  0  0  0  0  0  0  0  0  0
   69.1697   47.7214   53.9922 C   0  0  0  0  0  0  0  0  0  0  0  0
   69.8379   48.8169   54.4514 F   0  0  0  0  0  0  0  0  0  0  0  0
   70.3906   47.9246   56.8618 N   0  0  0  0  0  0  0  0  0  0  0  0
   72.7754   47.8787   60.3913 C   0  0  0  0  0  0  0  0  0  0  0  0
   72.5561   49.0366   59.6732 C   0  0  0  0  0  0  0  0  0  0  0  0
   71.7849   49.0616   58.5289 C   0  0  0  0  0  0  0  0  0  0  0  0
   71.1868   47.9096   58.0393 C   0  0  0  0  0  0  0  0  0  0  0  0
   71.4101   46.7555   58.7613 C   0  0  0  0  0  0  0  0  0  0  0  0
   72.1813   46.7318   59.9061 C   0  0  0  0  0  0  0  0  0  0  0  0
   72.3936   45.4700   60.6468 C   0  0  0  0  0  0  0  0  0  0  0  0
   75.7531   47.6799   62.8279 C   0  0  0  0  0  0  0  0  0  0  0  0
   74.9907   47.6576   61.5940 N   0  0  0  0  0  0  0  0  0  0  0  0
   73.5963   47.8882   61.5969 C   0  0  0  0  0  0  0  0  0  0  0  0
   73.0726   48.1118   62.7430 O   0  0  0  0  0  0  0  0  0  0  0  0
 23 24  1  0
 24 25  1  0
 25 26  2  0
 25 16  1  0
 16 17  2  0
 16 21  1  0
 17 18  1  0
 18 19  2  0
 19 15  1  0
 19 20  1  0
 15  1  1  0
  1  2  2  0
  1  3  2  0
  1  4  1  0
  4  5  2  0
  4 13  1  0
  5  6  1  0
  5  7  1  0
  7  8  1  0
  7  9  2  0
  9 10  1  0
  9 11  1  0
 11 12  1  0
 11 13  2  0
 13 14  1  0
 20 21  2  0
 21 22  1  0
M  END
>  <minimizedAffinity>  (947) 
-8.52857

$$$$
cs_full_output_folder/data/smiles/3615.pdb
     RDKit          3D

 27 29  0  0  0  0  0  0  0  0999 V2000
   68.5950   42.8750   56.7174 C   0  0  0  0  0  0  0  0  0  0  0  0
   67.4503   42.2024   56.3666 C   0  0  0  0  0  0  0  0  0  0  0  0
   67.2338   40.8790   56.7591 C   0  0  0  0  0  0  0  0  0  0  0  0
   68.1753   40.2300   57.5077 C   0  0  0  0  0  0  0  0  0  0  0  0
   69.3360   40.8861   57.8726 C   0  0  0  0  0  0  0  0  0  0  0  0
   69.5262   42.1956   57.4714 C   0  0  0  0  0  0  0  0  0  0  0  0
   68.2519   44.9025   55.2425 N   0  0  0  0  0  0  0  0  0  0  0  0
   68.8688   44.2443   56.3370 C   0  0  0  0  0  0  0  0  0  0  0  0
   69.6968   44.9288   56.9915 O   0  0  0  0  0  0  0  0  0  0  0  0
   69.2255   47.8690   53.2154 C   0  0  0  0  0  0  0  0  0  0  0  0
   69.0557   48.8962   54.1169 C   0  0  0  0  0  0  0  0  0  0  0  0
   68.6208   48.6032   55.3899 C   0  0  0  0  0  0  0  0  0  0  0  0
   68.3528   47.2813   55.7692 C   0  0  0  0  0  0  0  0  0  0  0  0
   68.5209   46.2482   54.8691 C   0  0  0  0  0  0  0  0  0  0  0  0
   68.9540   46.5607   53.6076 C   0  0  0  0  0  0  0  0  0  0  0  0
   69.8964   49.4713   51.4117 N   0  0  0  0  0  0  0  0  0  0  0  0
   69.6839   48.1430   51.8628 C   0  0  0  0  0  0  0  0  0  0  0  0
   69.9069   47.2125   51.0505 O   0  0  0  0  0  0  0  0  0  0  0  0
   70.5829   40.1209   58.8272 S   0  0  0  0  0  0  0  0  0  0  0  0
   70.4811   40.5126   60.2822 O   0  0  0  0  0  0  0  0  0  0  0  0
   71.9216   40.6310   58.3338 O   0  0  0  0  0  0  0  0  0  0  0  0
   70.5278   38.3872   58.6605 N   0  0  0  0  0  0  0  0  0  0  0  0
   70.2252   37.8462   59.9491 C   0  0  0  0  0  0  0  0  0  0  0  0
   70.4442   36.3573   60.0452 C   0  0  0  0  0  0  0  0  0  0  0  0
   71.9031   36.0808   59.6577 C   0  0  0  0  0  0  0  0  0  0  0  0
   71.9986   36.4749   58.1870 C   0  0  0  0  0  0  0  0  0  0  0  0
   71.8159   37.9816   58.1490 C   0  0  0  0  0  0  0  0  0  0  0  0
 16 17  1  0
 17 18  2  0
 17 10  1  0
 10 11  2  0
 10 15  1  0
 11 12  1  0
 12 13  2  0
 13 14  1  0
 14  7  1  0
 14 15  2  0
  7  8  1  0
  8  9  2  0
  8  1  1  0
  1  2  2  0
  1  6  1  0
  2  3  1  0
  3  4  2  0
  4  5  1  0
  5 19  1  0
  5  6  2  0
 19 20  2  0
 19 21  2  0
 19 22  1  0
 22 23  1  0
 22 27  1  0
 23 24  1  0
 24 25  1  0
 25 26  1  0
 26 27  1  0
M  END
>  <minimizedAffinity>  (948) 
-8.52571

$$$$
cs_full_output_folder/data/smiles/2480.pdb
     RDKit          3D

 24 25  0  0  0  0  0  0  0  0999 V2000
   69.9321   49.2465   52.6179 S   0  0  0  0  0  0  0  0  0  0  0  0
   69.8813   49.2266   51.0996 O   0  0  0  0  0  0  0  0  0  0  0  0
   71.3710   49.2474   53.0767 O   0  0  0  0  0  0  0  0  0  0  0  0
   69.1901   47.7974   53.2133 C   0  0  0  0  0  0  0  0  0  0  0  0
   68.5539   46.8817   52.3760 C   0  0  0  0  0  0  0  0  0  0  0  0
   68.5197   47.1428   51.0543 F   0  0  0  0  0  0  0  0  0  0  0  0
   68.0004   45.7699   52.9501 C   0  0  0  0  0  0  0  0  0  0  0  0
   67.3821   44.8878   52.1117 F   0  0  0  0  0  0  0  0  0  0  0  0
   68.0465   45.5217   54.3018 C   0  0  0  0  0  0  0  0  0  0  0  0
   67.4716   44.3953   54.7792 F   0  0  0  0  0  0  0  0  0  0  0  0
   68.6775   46.4375   55.1023 C   0  0  0  0  0  0  0  0  0  0  0  0
   68.7260   46.1981   56.4372 F   0  0  0  0  0  0  0  0  0  0  0  0
   69.2496   47.5691   54.5829 C   0  0  0  0  0  0  0  0  0  0  0  0
   69.8535   48.4252   55.4270 F   0  0  0  0  0  0  0  0  0  0  0  0
   69.1971   50.6717   53.1867 N   0  0  0  0  0  0  0  0  0  0  0  0
   70.8615   53.2021   56.0379 C   0  0  0  0  0  0  0  0  0  0  0  0
   69.5595   52.7679   56.2103 C   0  0  0  0  0  0  0  0  0  0  0  0
   69.0573   51.9295   55.2516 C   0  0  0  0  0  0  0  0  0  0  0  0
   69.8124   51.5160   54.1383 C   0  0  0  0  0  0  0  0  0  0  0  0
   71.0930   51.9579   53.9934 C   0  0  0  0  0  0  0  0  0  0  0  0
   71.6051   52.8111   54.9660 C   0  0  0  0  0  0  0  0  0  0  0  0
   73.2434   53.3859   54.7941 Cl  0  0  0  0  0  0  0  0  0  0  0  0
   72.2669   53.6089   58.0101 C   0  0  0  0  0  0  0  0  0  0  0  0
   71.3844   54.0516   56.9980 O   0  0  0  0  0  0  0  0  0  0  0  0
 23 24  1  0
 24 16  1  0
 16 17  2  0
 16 21  1  0
 17 18  1  0
 18 19  2  0
 19 15  1  0
 19 20  1  0
 15  1  1  0
  1  2  2  0
  1  3  2  0
  1  4  1  0
  4  5  2  0
  4 13  1  0
  5  6  1  0
  5  7  1  0
  7  8  1  0
  7  9  2  0
  9 10  1  0
  9 11  1  0
 11 12  1  0
 11 13  2  0
 13 14  1  0
 20 21  2  0
 21 22  1  0
M  END
>  <minimizedAffinity>  (949) 
-8.52406

$$$$
cs_full_output_folder/data/smiles/2224.pdb
     RDKit          3D

 26 28  0  0  0  0  0  0  0  0999 V2000
   69.9155   47.4427   57.7227 C   0  0  0  0  0  0  0  0  0  0  0  0
   70.8003   48.1887   58.4724 C   0  0  0  0  0  0  0  0  0  0  0  0
   71.8204   47.5959   59.2089 C   0  0  0  0  0  0  0  0  0  0  0  0
   71.9605   46.2234   59.1961 C   0  0  0  0  0  0  0  0  0  0  0  0
   71.0760   45.4502   58.4454 C   0  0  0  0  0  0  0  0  0  0  0  0
   70.0615   46.0748   57.7165 C   0  0  0  0  0  0  0  0  0  0  0  0
   68.8412   48.1076   56.9569 C   0  0  0  0  0  0  0  0  0  0  0  0
   71.1179   48.8663   52.7044 N   0  0  0  0  0  0  0  0  0  0  0  0
   69.8247   48.5372   52.6046 C   0  0  0  0  0  0  0  0  0  0  0  0
   69.4995   47.4784   51.6642 C   0  0  0  0  0  0  0  0  0  0  0  0
   68.2911   46.6819   51.7645 C   0  0  0  0  0  0  0  0  0  0  0  0
   67.9416   45.8026   52.8919 C   0  0  0  0  0  0  0  0  0  0  0  0
   67.7513   46.4610   54.2220 C   0  0  0  0  0  0  0  0  0  0  0  0
   69.1091   46.8872   54.7064 C   0  0  0  0  0  0  0  0  0  0  0  0
   69.0401   48.1285   55.5089 C   0  0  0  0  0  0  0  0  0  0  0  0
   69.0551   49.2215   54.8206 N   0  0  0  0  0  0  0  0  0  0  0  0
   69.1197   49.3941   53.4601 N   0  0  0  0  0  0  0  0  0  0  0  0
   71.1920   44.0342   58.4095 N   0  0  0  0  0  0  0  0  0  0  0  0
   69.9359   43.0057   58.9356 S   0  0  0  0  0  0  0  0  0  0  0  0
   70.4697   41.7310   59.5231 O   0  0  0  0  0  0  0  0  0  0  0  0
   69.0971   43.7016   59.9679 O   0  0  0  0  0  0  0  0  0  0  0  0
   68.8721   42.5630   57.6113 C   0  0  0  0  0  0  0  0  0  0  0  0
   68.4233   41.3073   57.2853 C   0  0  0  0  0  0  0  0  0  0  0  0
   67.6256   41.4598   56.1865 C   0  0  0  0  0  0  0  0  0  0  0  0
   67.6231   42.8085   55.8888 C   0  0  0  0  0  0  0  0  0  0  0  0
   68.3707   43.4182   56.7554 O   0  0  0  0  0  0  0  0  0  0  0  0
  8  9  2  0
  9 10  1  0
  9 17  1  0
 10 11  1  0
 11 12  1  0
 12 13  1  0
 13 14  1  0
 14 15  1  0
 15  7  1  0
 15 16  2  0
  7  1  1  0
  1  2  2  0
  1  6  1  0
  2  3  1  0
  3  4  2  0
  4  5  1  0
  5 18  1  0
  5  6  2  0
 18 19  1  0
 19 20  2  0
 19 21  2  0
 19 22  1  0
 22 23  2  0
 22 26  1  0
 23 24  1  0
 24 25  2  0
 25 26  1  0
 16 17  1  0
M  CHG  1   8   1
M  END
>  <minimizedAffinity>  (950) 
-8.52311

$$$$
cs_full_output_folder/data/smiles/256.pdb
     RDKit          3D

 27 30  0  0  0  0  0  0  0  0999 V2000
   72.4512   49.2747   58.1950 C   0  0  0  0  0  0  0  0  0  0  0  0
   71.4536   48.6698   57.4191 C   0  0  0  0  0  0  0  0  0  0  0  0
   70.2565   49.2597   57.1392 C   0  0  0  0  0  0  0  0  0  0  0  0
   70.0510   50.5380   57.6725 C   0  0  0  0  0  0  0  0  0  0  0  0
   70.9976   51.1794   58.4407 C   0  0  0  0  0  0  0  0  0  0  0  0
   72.1917   50.5195   58.6856 C   0  0  0  0  0  0  0  0  0  0  0  0
   73.1526   51.1170   59.4389 F   0  0  0  0  0  0  0  0  0  0  0  0
   72.6609   47.6762   60.4422 C   0  0  0  0  0  0  0  0  0  0  0  0
   73.9058   47.7521   59.6042 C   0  0  2  0  0  0  0  0  0  0  0  0
   75.1240   48.1966   60.3439 C   0  0  0  0  0  0  0  0  0  0  0  0
   76.1512   48.8724   59.4785 C   0  0  0  0  0  0  0  0  0  0  0  0
   76.1389   48.3374   58.0539 C   0  0  0  0  0  0  0  0  0  0  0  0
   74.7831   48.6837   57.5292 C   0  0  0  0  0  0  0  0  0  0  0  0
   74.5458   49.0474   56.3648 O   0  0  0  0  0  0  0  0  0  0  0  0
   73.6827   48.5874   58.4416 N   0  0  0  0  0  0  0  0  0  0  0  0
   69.1888   48.6162   56.3106 C   0  0  0  0  0  0  0  0  0  0  0  0
   69.5224   48.6003   54.8860 C   0  0  0  0  0  0  0  0  0  0  0  0
   70.3547   49.5403   54.3767 N   0  0  0  0  0  0  0  0  0  0  0  0
   70.6386   49.6007   53.0978 N   0  0  0  0  0  0  0  0  0  0  0  0
   70.1364   48.7459   52.1837 C   0  0  0  0  0  0  0  0  0  0  0  0
   70.4120   48.8147   50.9779 O   0  0  0  0  0  0  0  0  0  0  0  0
   69.2741   47.7471   52.6232 C   0  0  0  0  0  0  0  0  0  0  0  0
   68.7283   46.8234   51.7705 C   0  0  0  0  0  0  0  0  0  0  0  0
   67.8811   45.8174   52.2101 C   0  0  0  0  0  0  0  0  0  0  0  0
   67.6155   45.7948   53.5654 C   0  0  0  0  0  0  0  0  0  0  0  0
   68.1485   46.7066   54.4319 C   0  0  0  0  0  0  0  0  0  0  0  0
   68.9902   47.7049   53.9793 C   0  0  0  0  0  0  0  0  0  0  0  0
  9  8  1  1
  9 10  1  0
  9 15  1  0
 10 11  1  0
 11 12  1  0
 12 13  1  0
 13 14  2  0
 13 15  1  0
 15  1  1  0
  1  2  2  0
  1  6  1  0
  2  3  1  0
  3 16  1  0
  3  4  2  0
 16 17  1  0
 17 18  2  0
 17 27  1  0
 18 19  1  0
 19 20  1  0
 20 21  2  0
 20 22  1  0
 22 23  1  0
 22 27  2  0
 23 24  2  0
 24 25  1  0
 25 26  2  0
 26 27  1  0
  4  5  1  0
  5  6  2  0
  6  7  1  0
M  END
>  <minimizedAffinity>  (951) 
-8.52121

$$$$
cs_full_output_folder/data/smiles/204.pdb
     RDKit          3D

 27 30  0  0  0  0  0  0  0  0999 V2000
   74.8778   35.3790   53.6947 C   0  0  0  0  0  0  0  0  0  0  0  0
   73.5026   35.3608   53.8410 C   0  0  0  0  0  0  0  0  0  0  0  0
   72.9110   35.1593   55.0880 C   0  0  0  0  0  0  0  0  0  0  0  0
   73.6907   34.9713   56.2180 C   0  0  0  0  0  0  0  0  0  0  0  0
   75.0584   34.9974   56.0270 C   0  0  0  0  0  0  0  0  0  0  0  0
   75.6063   35.1937   54.8129 N   0  0  0  0  0  0  0  0  0  0  0  0
   75.6824   33.3707   51.9601 O   0  0  0  0  0  0  0  0  0  0  0  0
   75.8860   34.5552   51.5587 C   0  0  0  0  0  0  0  0  0  0  0  0
   75.4843   35.5847   52.4247 N   0  0  0  0  0  0  0  0  0  0  0  0
   76.5079   34.7568   50.2552 C   0  0  0  0  0  0  0  0  0  0  0  0
   77.5523   35.6438   50.1127 C   0  0  0  0  0  0  0  0  0  0  0  0
   78.1833   35.8784   48.9032 C   0  0  0  0  0  0  0  0  0  0  0  0
   77.7716   35.2127   47.7760 C   0  0  0  0  0  0  0  0  0  0  0  0
   76.7298   34.3214   47.8961 C   0  0  0  0  0  0  0  0  0  0  0  0
   76.0974   34.0904   49.1240 C   0  0  0  0  0  0  0  0  0  0  0  0
   73.1055   34.7553   57.5563 C   0  0  0  0  0  0  0  0  0  0  0  0
   72.3006   35.8907   57.9800 C   0  0  0  0  0  0  0  0  0  0  0  0
   72.3499   37.0800   57.3604 N   0  0  0  0  0  0  0  0  0  0  0  0
   71.6028   38.1092   57.7649 N   0  0  0  0  0  0  0  0  0  0  0  0
   70.7708   38.0417   58.7893 C   0  0  0  0  0  0  0  0  0  0  0  0
   70.0846   39.0044   59.1533 O   0  0  0  0  0  0  0  0  0  0  0  0
   70.6546   36.8409   59.4939 C   0  0  0  0  0  0  0  0  0  0  0  0
   71.4282   35.7950   59.0652 C   0  0  0  0  0  0  0  0  0  0  0  0
   71.3603   34.5031   59.7392 C   0  0  0  0  0  0  0  0  0  0  0  0
   70.5661   34.4024   60.7165 N   0  0  0  0  0  0  0  0  0  0  0  0
   69.7034   35.4012   61.2696 C   0  0  0  0  0  0  0  0  0  0  0  0
   69.7539   36.7322   60.6347 C   0  0  0  0  0  0  0  0  0  0  0  0
  7  8  2  0
  8  9  1  0
  8 10  1  0
  9  1  1  0
  1  2  2  0
  1  6  1  0
  2  3  1  0
  3  4  2  0
  4 16  1  0
  4  5  1  0
 16 17  1  0
 17 18  2  0
 17 23  1  0
 18 19  1  0
 19 20  1  0
 20 21  2  0
 20 22  1  0
 22 23  2  0
 22 27  1  0
 23 24  1  0
 24 25  2  0
 25 26  1  0
 26 27  1  0
  5  6  2  0
 10 11  2  0
 10 15  1  0
 11 12  1  0
 12 13  2  0
 13 14  1  0
 14 15  2  0
M  END
>  <minimizedAffinity>  (952) 
-8.52069

$$$$
cs_full_output_folder/data/smiles/3651.pdb
     RDKit          3D

 29 32  0  0  0  0  0  0  0  0999 V2000
   71.0955   44.7010   57.9917 C   0  0  0  0  0  0  0  0  0  0  0  0
   70.0659   45.3535   57.3308 C   0  0  0  0  0  0  0  0  0  0  0  0
   69.8691   46.6946   57.4751 C   0  0  0  0  0  0  0  0  0  0  0  0
   70.7620   47.3536   58.3229 C   0  0  0  0  0  0  0  0  0  0  0  0
   71.7839   46.7444   58.9882 C   0  0  0  0  0  0  0  0  0  0  0  0
   71.9463   45.3854   58.8127 C   0  0  0  0  0  0  0  0  0  0  0  0
   72.9713   44.7587   59.4760 F   0  0  0  0  0  0  0  0  0  0  0  0
   69.6348   42.9495   59.6503 C   0  0  0  0  0  0  0  0  0  0  0  0
   70.5535   42.3790   58.6264 N   0  0  0  0  0  0  0  0  0  0  0  0
   71.2865   43.2419   57.8086 C   0  0  0  0  0  0  0  0  0  0  0  0
   72.0968   42.8993   56.9263 O   0  0  0  0  0  0  0  0  0  0  0  0
   70.6185   40.9817   58.5601 C   0  0  0  0  0  0  0  0  0  0  0  0
   69.4252   40.2541   58.4235 C   0  0  0  0  0  0  0  0  0  0  0  0
   69.4508   38.8903   58.3545 C   0  0  0  0  0  0  0  0  0  0  0  0
   70.6054   38.2269   58.4164 N   0  0  0  0  0  0  0  0  0  0  0  0
   71.7386   38.8914   58.5443 N   0  0  0  0  0  0  0  0  0  0  0  0
   71.7685   40.2409   58.6169 C   0  0  0  0  0  0  0  0  0  0  0  0
   68.8017   47.4694   56.7969 C   0  0  0  0  0  0  0  0  0  0  0  0
   69.2141   47.8406   55.4724 C   0  0  0  0  0  0  0  0  0  0  0  0
   70.1267   48.8600   55.3683 N   0  0  0  0  0  0  0  0  0  0  0  0
   70.6161   49.2496   54.2095 N   0  0  0  0  0  0  0  0  0  0  0  0
   70.2678   48.6911   53.0414 C   0  0  0  0  0  0  0  0  0  0  0  0
   70.7519   49.0802   51.9252 O   0  0  0  0  0  0  0  0  0  0  0  0
   69.3457   47.6498   53.0458 C   0  0  0  0  0  0  0  0  0  0  0  0
   68.9446   47.0533   51.8723 C   0  0  0  0  0  0  0  0  0  0  0  0
   68.0181   46.0335   51.8932 C   0  0  0  0  0  0  0  0  0  0  0  0
   67.5292   45.6583   53.1257 C   0  0  0  0  0  0  0  0  0  0  0  0
   67.9317   46.2572   54.3149 C   0  0  0  0  0  0  0  0  0  0  0  0
   68.8506   47.2637   54.2796 C   0  0  0  0  0  0  0  0  0  0  0  0
  8  9  1  0
  9 10  1  0
  9 12  1  0
 10 11  2  0
 10  1  1  0
  1  2  2  0
  1  6  1  0
  2  3  1  0
  3 18  1  0
  3  4  2  0
 18 19  1  0
 19 20  2  0
 19 29  1  0
 20 21  1  0
 21 22  1  0
 22 23  2  0
 22 24  1  0
 24 25  1  0
 24 29  2  0
 25 26  2  0
 26 27  1  0
 27 28  2  0
 28 29  1  0
  4  5  1  0
  5  6  2  0
  6  7  1  0
 12 13  2  0
 12 17  1  0
 13 14  1  0
 14 15  2  0
 15 16  1  0
 16 17  2  0
M  END
>  <minimizedAffinity>  (953) 
-8.51922

$$$$
cs_full_output_folder/data/smiles/1409.pdb
     RDKit          3D

 26 29  0  0  0  0  0  0  0  0999 V2000
   71.5448   46.2381   58.6757 C   0  0  0  0  0  0  0  0  0  0  0  0
   70.4309   46.5798   57.9001 C   0  0  0  0  0  0  0  0  0  0  0  0
   69.9715   47.8595   57.7584 C   0  0  0  0  0  0  0  0  0  0  0  0
   70.6818   48.8580   58.4434 C   0  0  0  0  0  0  0  0  0  0  0  0
   71.7771   48.5278   59.2059 C   0  0  0  0  0  0  0  0  0  0  0  0
   72.2312   47.2201   59.3403 C   0  0  0  0  0  0  0  0  0  0  0  0
   73.3098   46.9505   60.1225 F   0  0  0  0  0  0  0  0  0  0  0  0
   70.9751   44.2012   60.7223 O   0  0  0  0  0  0  0  0  0  0  0  0
   71.1767   43.8995   59.4979 C   0  0  0  0  0  0  0  0  0  0  0  0
   70.6941   42.6050   58.9055 C   0  0  0  0  0  0  0  0  0  0  0  0
   71.5372   42.3735   57.6696 C   0  0  0  0  0  0  0  0  0  0  0  0
   72.9385   42.8337   57.9687 C   0  0  0  0  0  0  0  0  0  0  0  0
   73.0345   44.3633   57.9502 C   0  0  0  0  0  0  0  0  0  0  0  0
   71.8853   44.8640   58.7339 N   0  0  0  0  0  0  0  0  0  0  0  0
   68.7861   48.2769   56.9648 C   0  0  0  0  0  0  0  0  0  0  0  0
   68.5504   47.4578   55.7951 C   0  0  0  0  0  0  0  0  0  0  0  0
   68.0808   46.1862   55.9800 N   0  0  0  0  0  0  0  0  0  0  0  0
   67.8694   45.3629   54.9691 N   0  0  0  0  0  0  0  0  0  0  0  0
   68.0986   45.7078   53.6724 C   0  0  0  0  0  0  0  0  0  0  0  0
   67.8731   44.8675   52.7546 O   0  0  0  0  0  0  0  0  0  0  0  0
   68.5709   46.9746   53.4240 C   0  0  0  0  0  0  0  0  0  0  0  0
   68.7834   47.8220   54.5286 C   0  0  0  0  0  0  0  0  0  0  0  0
   69.2595   49.1583   54.1620 C   0  0  0  0  0  0  0  0  0  0  0  0
   70.4636   48.9480   53.2652 C   0  0  0  0  0  0  0  0  0  0  0  0
   69.9748   48.4022   51.9473 C   0  0  0  0  0  0  0  0  0  0  0  0
   68.8510   47.4206   52.0512 C   0  0  0  0  0  0  0  0  0  0  0  0
  8  9  2  0
  9 10  1  0
  9 14  1  0
 10 11  1  0
 11 12  1  0
 12 13  1  0
 13 14  1  0
 14  1  1  0
  1  2  2  0
  1  6  1  0
  2  3  1  0
  3 15  1  0
  3  4  2  0
 15 16  1  0
 16 17  2  0
 16 22  1  0
 17 18  1  0
 18 19  1  0
 19 20  2  0
 19 21  1  0
 21 22  2  0
 21 26  1  0
 22 23  1  0
 23 24  1  0
 24 25  1  0
 25 26  1  0
  4  5  1  0
  5  6  2  0
  6  7  1  0
M  END
>  <minimizedAffinity>  (954) 
-8.51836

$$$$
cs_full_output_folder/data/smiles/5789.pdb
     RDKit          3D

 27 30  0  0  0  0  0  0  0  0999 V2000
   70.7411   46.9360   57.7303 O   0  0  0  0  0  0  0  0  0  0  0  0
   69.7045   46.5127   57.1528 C   0  0  0  0  0  0  0  0  0  0  0  0
   69.5331   45.1005   57.1097 N   0  0  0  0  0  0  0  0  0  0  0  0
   70.4729   44.2379   57.6840 N   0  0  0  0  0  0  0  0  0  0  0  0
   70.3718   43.7175   59.0075 C   0  0  0  0  0  0  0  0  0  0  0  0
   69.3784   44.0578   59.6871 O   0  0  0  0  0  0  0  0  0  0  0  0
   71.3796   42.8092   59.5913 C   0  0  0  0  0  0  0  0  0  0  0  0
   71.7242   43.0356   61.0209 C   0  0  0  0  0  0  0  0  0  0  0  0
   72.6480   44.1620   60.5587 C   0  0  0  0  0  0  0  0  0  0  0  0
   72.7860   43.3659   59.2617 C   0  0  0  0  0  0  0  0  0  0  0  0
   71.2336   41.3905   59.1735 C   0  0  0  0  0  0  0  0  0  0  0  0
   72.2706   40.4991   59.0668 C   0  0  0  0  0  0  0  0  0  0  0  0
   72.0652   39.1743   58.6559 C   0  0  0  0  0  0  0  0  0  0  0  0
   70.8119   38.7105   58.3426 C   0  0  0  0  0  0  0  0  0  0  0  0
   69.7575   39.5894   58.4442 C   0  0  0  0  0  0  0  0  0  0  0  0
   69.9623   40.8899   58.8476 C   0  0  0  0  0  0  0  0  0  0  0  0
   68.7104   47.4578   56.5475 C   0  0  0  0  0  0  0  0  0  0  0  0
   69.1644   47.9559   55.2382 C   0  0  0  0  0  0  0  0  0  0  0  0
   69.9740   49.0680   55.1198 C   0  0  0  0  0  0  0  0  0  0  0  0
   70.3899   49.5216   53.8917 C   0  0  0  0  0  0  0  0  0  0  0  0
   70.0120   48.8805   52.7320 C   0  0  0  0  0  0  0  0  0  0  0  0
   69.1972   47.7590   52.8309 C   0  0  0  0  0  0  0  0  0  0  0  0
   68.7972   47.0906   51.6860 C   0  0  0  0  0  0  0  0  0  0  0  0
   67.9887   45.9809   51.8126 C   0  0  0  0  0  0  0  0  0  0  0  0
   67.5611   45.5101   53.0379 C   0  0  0  0  0  0  0  0  0  0  0  0
   67.9690   46.1913   54.1790 C   0  0  0  0  0  0  0  0  0  0  0  0
   68.7792   47.3053   54.0861 C   0  0  0  0  0  0  0  0  0  0  0  0
  1  2  2  0
  2 17  1  0
  2  3  1  0
 17 18  1  0
 18 19  2  0
 18 27  1  0
 19 20  1  0
 20 21  2  0
 21 22  1  0
 22 23  1  0
 22 27  2  0
 23 24  2  0
 24 25  1  0
 25 26  2  0
 26 27  1  0
  3  4  1  0
  4  5  1  0
  5  6  2  0
  5  7  1  0
  7 11  1  0
  7  8  1  0
  7 10  1  0
 11 12  2  0
 11 16  1  0
 12 13  1  0
 13 14  2  0
 14 15  1  0
 15 16  2  0
  8  9  1  0
  9 10  1  0
M  END
>  <minimizedAffinity>  (955) 
-8.51716

$$$$
cs_full_output_folder/data/smiles/629.pdb
     RDKit          3D

 27 30  0  0  0  0  0  0  0  0999 V2000
   73.0131   49.3239   59.3354 C   0  0  0  0  0  0  0  0  0  0  0  0
   72.0378   48.8346   58.5798 C   0  0  0  0  0  0  0  0  0  0  0  0
   71.1436   49.5836   57.7063 C   0  0  0  0  0  0  0  0  0  0  0  0
   70.2931   48.7521   57.1083 C   0  0  0  0  0  0  0  0  0  0  0  0
   70.6261   47.4215   57.5939 C   0  0  0  0  0  0  0  0  0  0  0  0
   71.6306   47.4438   58.4458 C   0  0  0  0  0  0  0  0  0  0  0  0
   69.2203   49.1119   56.1410 C   0  0  0  0  0  0  0  0  0  0  0  0
   69.6157   48.8562   54.7546 C   0  0  0  0  0  0  0  0  0  0  0  0
   70.6642   49.4550   54.1855 N   0  0  0  0  0  0  0  0  0  0  0  0
   71.0349   49.2363   52.9358 N   0  0  0  0  0  0  0  0  0  0  0  0
   70.3317   48.3695   52.1857 C   0  0  0  0  0  0  0  0  0  0  0  0
   70.6456   48.1286   50.9916 O   0  0  0  0  0  0  0  0  0  0  0  0
   69.2391   47.7165   52.7088 C   0  0  0  0  0  0  0  0  0  0  0  0
   68.8772   47.9672   54.0162 C   0  0  0  0  0  0  0  0  0  0  0  0
   67.7031   47.2562   54.5434 C   0  0  0  0  0  0  0  0  0  0  0  0
   67.8201   45.7993   54.1910 C   0  0  0  0  0  0  0  0  0  0  0  0
   68.3664   45.5064   52.8461 C   0  0  0  0  0  0  0  0  0  0  0  0
   68.4107   46.7358   51.9275 C   0  0  0  0  0  0  0  0  0  0  0  0
   69.9333   46.2474   57.1837 N   0  0  0  0  0  0  0  0  0  0  0  0
   70.2437   44.6961   57.8574 S   0  0  0  0  0  0  0  0  0  0  0  0
   71.6710   44.3218   57.5704 O   0  0  0  0  0  0  0  0  0  0  0  0
   70.0947   44.7910   59.3455 O   0  0  0  0  0  0  0  0  0  0  0  0
   69.1593   43.4816   57.2183 C   0  0  0  0  0  0  0  0  0  0  0  0
   69.1647   42.1466   57.5619 C   0  0  0  0  0  0  0  0  0  0  0  0
   68.1634   41.5722   56.8320 C   0  0  0  0  0  0  0  0  0  0  0  0
   67.5834   42.5632   56.0750 C   0  0  0  0  0  0  0  0  0  0  0  0
   68.2112   43.6705   56.3425 O   0  0  0  0  0  0  0  0  0  0  0  0
  1  2  2  0
  2  3  1  0
  2  6  1  0
  3  4  2  0
  4  7  1  0
  4  5  1  0
  7  8  1  0
  8  9  2  0
  8 14  1  0
  9 10  1  0
 10 11  1  0
 11 12  2  0
 11 13  1  0
 13 14  2  0
 13 18  1  0
 14 15  1  0
 15 16  1  0
 16 17  1  0
 17 18  1  0
  5 19  1  0
  5  6  2  0
 19 20  1  0
 20 21  2  0
 20 22  2  0
 20 23  1  0
 23 24  2  0
 23 27  1  0
 24 25  1  0
 25 26  2  0
 26 27  1  0
M  END
>  <minimizedAffinity>  (956) 
-8.51711

$$$$
cs_full_output_folder/data/smiles/8706.pdb
     RDKit          3D

 27 29  0  0  0  0  0  0  0  0999 V2000
   70.5608   47.0915   58.1685 C   0  0  0  0  0  0  0  0  0  0  0  0
   70.8142   47.4397   59.3723 O   0  0  0  0  0  0  0  0  0  0  0  0
   70.7670   45.7353   57.8561 N   0  0  0  0  0  0  0  0  0  0  0  0
   71.2293   44.7841   58.8536 C   0  0  0  0  0  0  0  0  0  0  0  0
   71.4213   45.2514   59.9724 O   0  0  0  0  0  0  0  0  0  0  0  0
   69.9350   49.4333   57.9728 C   0  0  0  0  0  0  0  0  0  0  0  0
   70.0893   48.0961   57.2219 C   0  0  2  0  0  0  0  0  0  0  0  0
   68.7868   47.8494   56.5645 C   0  0  0  0  0  0  0  0  0  0  0  0
   68.7737   47.5519   55.1444 C   0  0  0  0  0  0  0  0  0  0  0  0
   68.1069   46.5196   54.5425 C   0  0  0  0  0  0  0  0  0  0  0  0
   68.1924   46.3395   53.1779 C   0  0  0  0  0  0  0  0  0  0  0  0
   68.9374   47.1719   52.3712 C   0  0  0  0  0  0  0  0  0  0  0  0
   69.0223   46.9880   50.9864 O   0  0  0  0  0  0  0  0  0  0  0  0
   69.6120   48.2130   52.9582 C   0  0  0  0  0  0  0  0  0  0  0  0
   70.3797   49.0845   52.1831 O   0  0  0  0  0  0  0  0  0  0  0  0
   69.5245   48.3875   54.3060 C   0  0  0  0  0  0  0  0  0  0  0  0
   71.4124   43.4181   58.4429 C   0  0  0  0  0  0  0  0  0  0  0  0
   72.6616   42.9879   58.4323 O   0  0  0  0  0  0  0  0  0  0  0  0
   70.4817   42.4100   58.0392 C   0  0  0  0  0  0  0  0  0  0  0  0
   70.5409   41.0862   58.5278 C   0  0  0  0  0  0  0  0  0  0  0  0
   69.4963   40.3763   58.0570 N   0  0  0  0  0  0  0  0  0  0  0  0
   68.7391   41.1437   57.2813 C   0  0  0  0  0  0  0  0  0  0  0  0
   67.6024   40.8528   56.5830 C   0  0  0  0  0  0  0  0  0  0  0  0
   67.0273   41.8580   55.8225 C   0  0  0  0  0  0  0  0  0  0  0  0
   67.6048   43.0923   55.7910 C   0  0  0  0  0  0  0  0  0  0  0  0
   68.7699   43.3882   56.5069 C   0  0  0  0  0  0  0  0  0  0  0  0
   69.3492   42.4004   57.2683 C   0  0  0  0  0  0  0  0  0  0  0  0
  7  6  1  1
  7  8  1  0
  7  1  1  0
  8  9  1  0
  9 10  2  0
  9 16  1  0
 10 11  1  0
 11 12  2  0
 12 13  1  0
 12 14  1  0
 14 15  1  0
 14 16  2  0
  1  2  2  0
  1  3  1  0
  3  4  1  0
  4  5  2  0
  4 17  1  0
 17 18  2  0
 17 19  1  0
 19 20  2  0
 19 27  1  0
 20 21  1  0
 21 22  1  0
 22 23  1  0
 22 27  2  0
 23 24  2  0
 24 25  1  0
 25 26  2  0
 26 27  1  0
M  END
>  <minimizedAffinity>  (957) 
-8.51564

$$$$
cs_full_output_folder/data/smiles/4770.pdb
     RDKit          3D

 27 28  0  0  0  0  0  0  0  0999 V2000
   70.4054   45.1628   58.5297 C   0  0  0  0  0  0  0  0  0  0  0  0
   71.8158   45.8667   59.1462 S   0  0  0  0  0  0  0  0  0  0  0  0
   70.6171   42.6716   58.1359 C   0  0  0  0  0  0  0  0  0  0  0  0
   71.1028   42.9386   56.9612 O   0  0  0  0  0  0  0  0  0  0  0  0
   70.2950   43.7873   58.8699 N   0  0  0  0  0  0  0  0  0  0  0  0
   69.2052   38.0298   59.0186 C   0  0  0  0  0  0  0  0  0  0  0  0
   69.9538   39.0881   58.8875 C   0  0  0  0  0  0  0  0  0  0  0  0
   71.3773   39.2129   59.0981 C   0  0  0  0  0  0  0  0  0  0  0  0
   71.6942   40.4424   58.8548 C   0  0  0  0  0  0  0  0  0  0  0  0
   70.5055   41.2616   58.4571 C   0  0  0  0  0  0  0  0  0  0  0  0
   69.4923   40.4406   58.4836 C   0  0  0  0  0  0  0  0  0  0  0  0
   68.0598   40.6430   58.1828 C   0  0  0  0  0  0  0  0  0  0  0  0
   67.4704   41.5642   59.2617 C   0  0  0  0  0  0  0  0  0  0  0  0
   67.8920   41.3116   56.8149 C   0  0  0  0  0  0  0  0  0  0  0  0
   69.5923   46.0205   57.8366 N   0  0  0  0  0  0  0  0  0  0  0  0
   69.5014   46.4116   56.5202 N   0  0  0  0  0  0  0  0  0  0  0  0
   68.6953   45.7745   55.5440 C   0  0  0  0  0  0  0  0  0  0  0  0
   68.0192   44.7863   55.9021 O   0  0  0  0  0  0  0  0  0  0  0  0
   68.6166   46.2110   54.1492 C   0  0  0  0  0  0  0  0  0  0  0  0
   67.7894   45.6248   53.2236 C   0  0  0  0  0  0  0  0  0  0  0  0
   67.7383   46.0609   51.9105 C   0  0  0  0  0  0  0  0  0  0  0  0
   68.5180   47.1077   51.4722 C   0  0  0  0  0  0  0  0  0  0  0  0
   69.3530   47.6993   52.4050 C   0  0  0  0  0  0  0  0  0  0  0  0
   69.4000   47.2640   53.7047 C   0  0  0  0  0  0  0  0  0  0  0  0
   70.1504   48.7743   51.9431 N   0  0  0  0  0  0  0  0  0  0  0  0
   69.8445   49.4837   50.9749 O   0  0  0  0  0  0  0  0  0  0  0  0
   71.3224   49.0439   52.6015 O   0  0  0  0  0  0  0  0  0  0  0  0
  6  7  2  0
  7  8  1  0
  7 11  1  0
  8  9  2  0
  9 10  1  0
 10  3  1  0
 10 11  2  0
  3  4  2  0
  3  5  1  0
  5  1  1  0
  1  2  2  0
  1 15  1  0
 15 16  1  0
 16 17  1  0
 17 18  2  0
 17 19  1  0
 19 20  2  0
 19 24  1  0
 20 21  1  0
 21 22  2  0
 22 23  1  0
 23 25  1  0
 23 24  2  0
 25 26  2  0
 25 27  1  0
 11 12  1  0
 12 13  1  0
 12 14  1  0
M  CHG  2  25   1  27  -1
M  END
>  <minimizedAffinity>  (958) 
-8.51317

$$$$
cs_full_output_folder/data/smiles/2410.pdb
     RDKit          3D

 26 28  0  0  0  0  0  0  0  0999 V2000
   68.8038   47.3769   56.9437 C   0  0  0  0  0  0  0  0  0  0  0  0
   71.4248   50.6442   54.4468 C   0  0  0  0  0  0  0  0  0  0  0  0
   70.5379   49.4727   54.4477 N   0  0  0  0  0  0  0  0  0  0  0  0
   70.0915   48.9516   55.5585 N   0  0  0  0  0  0  0  0  0  0  0  0
   69.2784   47.8827   55.6296 C   0  0  0  0  0  0  0  0  0  0  0  0
   68.8829   47.2860   54.4547 C   0  0  0  0  0  0  0  0  0  0  0  0
   68.0562   46.1790   54.4237 C   0  0  0  0  0  0  0  0  0  0  0  0
   67.6961   45.6196   53.2107 C   0  0  0  0  0  0  0  0  0  0  0  0
   68.1362   46.1279   52.0105 C   0  0  0  0  0  0  0  0  0  0  0  0
   68.9614   47.2296   52.0397 C   0  0  0  0  0  0  0  0  0  0  0  0
   69.3308   47.8031   53.2623 C   0  0  0  0  0  0  0  0  0  0  0  0
   70.1611   48.9023   53.2906 C   0  0  0  0  0  0  0  0  0  0  0  0
   70.5834   49.3931   52.1998 O   0  0  0  0  0  0  0  0  0  0  0  0
   69.8909   46.7488   57.7515 C   0  0  0  0  0  0  0  0  0  0  0  0
   70.5107   45.5978   57.1568 N   0  0  0  0  0  0  0  0  0  0  0  0
   70.0848   44.2540   57.2762 C   0  0  0  0  0  0  0  0  0  0  0  0
   70.8614   43.3834   58.0374 C   0  0  0  0  0  0  0  0  0  0  0  0
   70.4922   42.0732   58.2078 C   0  0  0  0  0  0  0  0  0  0  0  0
   69.3411   41.5973   57.6248 C   0  0  0  0  0  0  0  0  0  0  0  0
   68.9224   40.3239   57.7517 F   0  0  0  0  0  0  0  0  0  0  0  0
   68.5531   42.4428   56.8645 C   0  0  0  0  0  0  0  0  0  0  0  0
   68.9519   43.7542   56.7129 C   0  0  0  0  0  0  0  0  0  0  0  0
   67.3146   42.0042   56.2141 C   0  0  0  0  0  0  0  0  0  0  0  0
   66.2656   41.8193   57.1076 O   0  0  0  0  0  0  0  0  0  0  0  0
   66.9361   42.9452   55.2854 F   0  0  0  0  0  0  0  0  0  0  0  0
   67.5956   40.8447   55.5073 F   0  0  0  0  0  0  0  0  0  0  0  0
  2  3  1  0
  3  4  1  0
  3 12  1  0
  4  5  2  0
  5  1  1  0
  5  6  1  0
  1 14  1  0
 14 15  1  0
 15 16  1  0
 16 17  2  0
 16 22  1  0
 17 18  1  0
 18 19  2  0
 19 20  1  0
 19 21  1  0
 21 23  1  0
 21 22  2  0
 23 24  1  0
 23 25  1  0
 23 26  1  0
  6  7  1  0
  6 11  2  0
  7  8  2  0
  8  9  1  0
  9 10  2  0
 10 11  1  0
 11 12  1  0
 12 13  2  0
M  END
>  <minimizedAffinity>  (959) 
-8.51110

$$$$
cs_full_output_folder/data/smiles/6468.pdb
     RDKit          3D

 27 29  0  0  0  0  0  0  0  0999 V2000
   70.2273   51.5567   54.0701 C   0  0  0  0  0  0  0  0  0  0  0  0
   71.5660   51.2523   54.6608 C   0  0  0  0  0  0  0  0  0  0  0  0
   71.6200   51.4299   56.1614 C   0  0  0  0  0  0  0  0  0  0  0  0
   70.3511   51.3133   56.7670 N   0  0  0  0  0  0  0  0  0  0  0  0
   69.4574   52.3122   56.3586 C   0  0  0  0  0  0  0  0  0  0  0  0
   69.3878   52.4957   54.8931 C   0  0  0  0  0  0  0  0  0  0  0  0
   71.2664   49.2034   52.9428 O   0  0  0  0  0  0  0  0  0  0  0  0
   70.0307   49.2117   53.1231 C   0  0  0  0  0  0  0  0  0  0  0  0
   69.4748   50.3827   53.6909 N   0  0  0  0  0  0  0  0  0  0  0  0
   69.2041   48.0545   52.7613 C   0  0  0  0  0  0  0  0  0  0  0  0
   68.6381   47.2303   53.6953 C   0  0  0  0  0  0  0  0  0  0  0  0
   67.8757   46.1619   53.3297 C   0  0  0  0  0  0  0  0  0  0  0  0
   67.6718   45.9088   51.9903 C   0  0  0  0  0  0  0  0  0  0  0  0
   66.9718   44.9281   51.6323 O   0  0  0  0  0  0  0  0  0  0  0  0
   68.2450   46.7420   51.0876 N   0  0  0  0  0  0  0  0  0  0  0  0
   68.9820   47.7733   51.4642 N   0  0  0  0  0  0  0  0  0  0  0  0
   70.2778   50.7654   58.0495 C   0  0  0  0  0  0  0  0  0  0  0  0
   70.3453   49.2938   58.0979 C   0  0  0  0  0  0  0  0  0  0  0  0
   69.5163   48.5204   57.3199 C   0  0  0  0  0  0  0  0  0  0  0  0
   69.5602   47.1396   57.3457 C   0  0  0  0  0  0  0  0  0  0  0  0
   70.4603   46.5042   58.1734 C   0  0  0  0  0  0  0  0  0  0  0  0
   71.2934   47.2753   58.9563 C   0  0  0  0  0  0  0  0  0  0  0  0
   71.2349   48.6469   58.9165 C   0  0  0  0  0  0  0  0  0  0  0  0
   72.2754   46.5649   59.8611 C   0  0  0  0  0  0  0  0  0  0  0  0
   72.1820   47.1968   61.0865 F   0  0  0  0  0  0  0  0  0  0  0  0
   73.5433   46.6067   59.3664 F   0  0  0  0  0  0  0  0  0  0  0  0
   71.8412   45.2661   60.0368 F   0  0  0  0  0  0  0  0  0  0  0  0
  7  8  2  0
  8  9  1  0
  8 10  1  0
  9  1  1  0
  1  2  1  0
  1  6  1  0
  2  3  1  0
  3  4  1  0
  4 17  1  0
  4  5  1  0
 17 18  1  0
 18 19  2  0
 18 23  1  0
 19 20  1  0
 20 21  2  0
 21 22  1  0
 22 24  1  0
 22 23  2  0
 24 25  1  0
 24 26  1  0
 24 27  1  0
  5  6  1  0
 10 11  1  0
 10 16  2  0
 11 12  2  0
 12 13  1  0
 13 14  2  0
 13 15  1  0
 15 16  1  0
M  CHG  1   4   1
M  END
>  <minimizedAffinity>  (960) 
-8.50718

$$$$
cs_full_output_folder/data/smiles/2307.pdb
     RDKit          3D

 27 30  0  0  0  0  0  0  0  0999 V2000
   72.1948   48.5971   59.1075 C   0  0  0  0  0  0  0  0  0  0  0  0
   71.7054   47.5083   58.4377 C   0  0  0  0  0  0  0  0  0  0  0  0
   70.6339   47.6125   57.5537 C   0  0  0  0  0  0  0  0  0  0  0  0
   70.0059   48.8324   57.3079 C   0  0  0  0  0  0  0  0  0  0  0  0
   70.5268   49.8969   58.0018 C   0  0  0  0  0  0  0  0  0  0  0  0
   71.5556   49.7801   58.8458 N   0  0  0  0  0  0  0  0  0  0  0  0
   74.4187   49.2603   60.0194 C   0  0  0  0  0  0  0  0  0  0  0  0
   75.3602   49.1716   61.0724 C   0  0  0  0  0  0  0  0  0  0  0  0
   75.1442   48.4403   62.2084 C   0  0  0  0  0  0  0  0  0  0  0  0
   73.9556   47.7709   62.3068 C   0  0  0  0  0  0  0  0  0  0  0  0
   73.0265   47.8387   61.2966 C   0  0  0  0  0  0  0  0  0  0  0  0
   73.2412   48.5882   60.1204 C   0  0  0  0  0  0  0  0  0  0  0  0
   74.8835   51.5421   59.2031 N   0  0  0  0  0  0  0  0  0  0  0  0
   74.7531   50.1382   58.9094 C   0  0  0  0  0  0  0  0  0  0  0  0
   74.9304   49.7652   57.7484 O   0  0  0  0  0  0  0  0  0  0  0  0
   68.8945   48.9362   56.3464 C   0  0  0  0  0  0  0  0  0  0  0  0
   69.2813   48.8528   54.9354 C   0  0  0  0  0  0  0  0  0  0  0  0
   70.0507   49.8672   54.4353 N   0  0  0  0  0  0  0  0  0  0  0  0
   70.4555   49.9168   53.1986 N   0  0  0  0  0  0  0  0  0  0  0  0
   70.0933   48.9154   52.3779 C   0  0  0  0  0  0  0  0  0  0  0  0
   70.4662   48.9299   51.1781 O   0  0  0  0  0  0  0  0  0  0  0  0
   69.3162   47.8434   52.7853 C   0  0  0  0  0  0  0  0  0  0  0  0
   68.9079   47.8282   54.1158 C   0  0  0  0  0  0  0  0  0  0  0  0
   68.1368   46.6850   54.6127 C   0  0  0  0  0  0  0  0  0  0  0  0
   67.5705   45.7710   53.5959 C   0  0  0  0  0  0  0  0  0  0  0  0
   68.0681   45.8686   52.2342 C   0  0  0  0  0  0  0  0  0  0  0  0
   68.8733   46.8249   51.8516 C   0  0  0  0  0  0  0  0  0  0  0  0
 13 14  1  0
 14 15  2  0
 14  7  1  0
  7  8  2  0
  7 12  1  0
  8  9  1  0
  9 10  2  0
 10 11  1  0
 11 12  2  0
 12  1  1  0
  1  2  2  0
  1  6  1  0
  2  3  1  0
  3  4  2  0
  4 16  1  0
  4  5  1  0
 16 17  1  0
 17 18  2  0
 17 23  1  0
 18 19  1  0
 19 20  1  0
 20 21  2  0
 20 22  1  0
 22 23  2  0
 22 27  1  0
 23 24  1  0
 24 25  1  0
 25 26  1  0
 26 27  2  0
  5  6  2  0
M  END
>  <minimizedAffinity>  (961) 
-8.50450

$$$$
cs_full_output_folder/data/smiles/2934.pdb
     RDKit          3D

 25 27  0  0  0  0  0  0  0  0999 V2000
   69.2369   45.8727   56.9917 N   0  0  0  0  0  0  0  0  0  0  0  0
   70.3138   45.8039   57.9026 C   0  0  0  0  0  0  0  0  0  0  0  0
   70.8669   46.8753   58.2341 O   0  0  0  0  0  0  0  0  0  0  0  0
   70.8052   44.5555   58.4669 C   0  0  0  0  0  0  0  0  0  0  0  0
   71.7466   44.3404   59.4474 C   0  0  0  0  0  0  0  0  0  0  0  0
   71.8585   43.0130   59.6206 N   0  0  0  0  0  0  0  0  0  0  0  0
   71.0470   42.3421   58.8123 N   0  0  0  0  0  0  0  0  0  0  0  0
   70.3972   43.2970   58.1004 C   0  0  0  0  0  0  0  0  0  0  0  0
   69.2007   42.9347   56.8839 Cl  0  0  0  0  0  0  0  0  0  0  0  0
   70.8788   40.9348   58.6994 C   0  0  0  0  0  0  0  0  0  0  0  0
   69.6206   40.3796   58.6884 C   0  0  0  0  0  0  0  0  0  0  0  0
   69.4388   38.9943   58.5787 C   0  0  0  0  0  0  0  0  0  0  0  0
   70.5203   38.1558   58.4795 C   0  0  0  0  0  0  0  0  0  0  0  0
   71.7790   38.7020   58.4907 C   0  0  0  0  0  0  0  0  0  0  0  0
   71.9398   40.0662   58.5996 C   0  0  0  0  0  0  0  0  0  0  0  0
   68.6977   47.0663   56.3904 C   0  0  0  0  0  0  0  0  0  0  0  0
   69.3067   47.8242   52.7464 C   0  0  0  0  0  0  0  0  0  0  0  0
   68.5943   46.7980   52.1228 C   0  0  0  0  0  0  0  0  0  0  0  0
   67.9186   45.8591   52.8688 C   0  0  0  0  0  0  0  0  0  0  0  0
   67.9549   45.9466   54.2477 C   0  0  0  0  0  0  0  0  0  0  0  0
   68.6390   46.9351   54.9121 C   0  0  0  0  0  0  0  0  0  0  0  0
   69.3103   47.8658   54.1272 C   0  0  0  0  0  0  0  0  0  0  0  0
   70.0111   50.0089   52.3697 O   0  0  0  0  0  0  0  0  0  0  0  0
   70.0255   48.8222   51.9616 C   0  0  0  0  0  0  0  0  0  0  0  0
   70.7111   48.5293   50.8103 O   0  0  0  0  0  0  0  0  0  0  0  0
 23 24  2  0
 24 25  1  0
 24 17  1  0
 17 18  2  0
 17 22  1  0
 18 19  1  0
 19 20  2  0
 20 21  1  0
 21 16  1  0
 21 22  2  0
 16  1  1  0
  1  2  1  0
  2  3  2  0
  2  4  1  0
  4  5  1  0
  4  8  2  0
  5  6  2  0
  6  7  1  0
  7 10  1  0
  7  8  1  0
 10 11  2  0
 10 15  1  0
 11 12  1  0
 12 13  2  0
 13 14  1  0
 14 15  2  0
  8  9  1  0
M  END
>  <minimizedAffinity>  (962) 
-8.50312

$$$$
cs_full_output_folder/data/smiles/1347.pdb
     RDKit          3D

 26 29  0  0  0  0  0  0  0  0999 V2000
   69.1575   48.6388   56.6443 C   0  0  0  0  0  0  0  0  0  0  0  0
   68.3497   49.7037   56.9818 C   0  0  0  0  0  0  0  0  0  0  0  0
   68.7534   50.5863   57.9572 C   0  0  0  0  0  0  0  0  0  0  0  0
   69.9727   50.4339   58.6246 C   0  0  0  0  0  0  0  0  0  0  0  0
   70.2833   51.3285   59.5876 F   0  0  0  0  0  0  0  0  0  0  0  0
   70.8016   49.3826   58.3096 C   0  0  0  0  0  0  0  0  0  0  0  0
   70.3706   48.5113   57.3261 C   0  0  0  0  0  0  0  0  0  0  0  0
   67.5373   44.7813   52.8418 N   0  0  0  0  0  0  0  0  0  0  0  0
   67.9693   45.7834   53.7834 C   0  0  0  0  0  0  0  0  0  0  0  0
   67.6647   45.6791   55.0805 N   0  0  0  0  0  0  0  0  0  0  0  0
   68.0443   46.5809   55.9814 N   0  0  0  0  0  0  0  0  0  0  0  0
   68.7644   47.6652   55.6382 C   0  0  0  0  0  0  0  0  0  0  0  0
   69.1022   47.8225   54.3182 C   0  0  0  0  0  0  0  0  0  0  0  0
   69.8187   48.9135   53.8816 C   0  0  0  0  0  0  0  0  0  0  0  0
   70.1195   49.0300   52.5361 C   0  0  0  0  0  0  0  0  0  0  0  0
   69.7187   48.0809   51.6145 C   0  0  0  0  0  0  0  0  0  0  0  0
   69.0007   46.9823   52.0253 C   0  0  0  0  0  0  0  0  0  0  0  0
   68.7027   46.8686   53.3640 C   0  0  0  0  0  0  0  0  0  0  0  0
   72.0652   49.1824   58.9039 N   0  0  0  0  0  0  0  0  0  0  0  0
   73.1788   50.0307   58.6784 C   0  0  0  0  0  0  0  0  0  0  0  0
   73.3335   50.5350   57.5472 O   0  0  0  0  0  0  0  0  0  0  0  0
   74.0938   50.2565   59.8225 C   0  0  0  0  0  0  0  0  0  0  0  0
   74.6047   48.9536   60.3384 C   0  0  0  0  0  0  0  0  0  0  0  0
   73.7732   47.7528   59.9411 C   0  0  0  0  0  0  0  0  0  0  0  0
   72.3287   48.1030   59.8393 C   0  0  0  0  0  0  0  0  0  0  0  0
   71.4086   47.5693   60.4601 O   0  0  0  0  0  0  0  0  0  0  0  0
  8  9  1  0
  9 10  2  0
  9 18  1  0
 10 11  1  0
 11 12  2  0
 12  1  1  0
 12 13  1  0
  1  2  2  0
  1  7  1  0
  2  3  1  0
  3  4  2  0
  4  5  1  0
  4  6  1  0
  6 19  1  0
  6  7  2  0
 19 20  1  0
 19 25  1  0
 20 21  2  0
 20 22  1  0
 22 23  1  0
 23 24  1  0
 24 25  1  0
 25 26  2  0
 13 14  1  0
 13 18  2  0
 14 15  2  0
 15 16  1  0
 16 17  2  0
 17 18  1  0
M  END
>  <minimizedAffinity>  (963) 
-8.50278

$$$$
cs_full_output_folder/data/smiles/2773.pdb
     RDKit          3D

 25 28  0  0  0  0  0  0  0  0999 V2000
   69.2570   48.3859   56.6596 C   0  0  0  0  0  0  0  0  0  0  0  0
   68.3739   49.3858   57.0873 C   0  0  0  0  0  0  0  0  0  0  0  0
   68.7209   50.2486   58.1044 C   0  0  0  0  0  0  0  0  0  0  0  0
   69.9411   50.1698   58.7425 C   0  0  0  0  0  0  0  0  0  0  0  0
   70.8390   49.1860   58.3392 C   0  0  0  0  0  0  0  0  0  0  0  0
   70.4587   48.3393   57.3180 C   0  0  0  0  0  0  0  0  0  0  0  0
   67.4004   44.6719   52.7833 N   0  0  0  0  0  0  0  0  0  0  0  0
   67.9013   45.6522   53.7116 C   0  0  0  0  0  0  0  0  0  0  0  0
   67.7336   45.4750   55.0332 N   0  0  0  0  0  0  0  0  0  0  0  0
   68.1722   46.3417   55.9276 N   0  0  0  0  0  0  0  0  0  0  0  0
   68.8315   47.4891   55.5983 C   0  0  0  0  0  0  0  0  0  0  0  0
   69.0211   47.7048   54.2512 C   0  0  0  0  0  0  0  0  0  0  0  0
   68.5543   46.7820   53.3040 C   0  0  0  0  0  0  0  0  0  0  0  0
   68.9082   47.2750   51.9442 C   0  0  0  0  0  0  0  0  0  0  0  0
   70.0781   48.2241   52.2072 C   0  0  0  0  0  0  0  0  0  0  0  0
   69.6462   48.8262   53.5391 C   0  0  0  0  0  0  0  0  0  0  0  0
   72.1132   49.0733   58.9761 N   0  0  0  0  0  0  0  0  0  0  0  0
   72.6180   47.6688   59.8040 S   0  0  0  0  0  0  0  0  0  0  0  0
   72.2916   47.7849   61.2825 O   0  0  0  0  0  0  0  0  0  0  0  0
   74.1063   47.5249   59.7124 O   0  0  0  0  0  0  0  0  0  0  0  0
   71.9122   46.2154   59.1309 C   0  0  0  0  0  0  0  0  0  0  0  0
   72.4997   45.2816   58.3297 C   0  0  0  0  0  0  0  0  0  0  0  0
   71.5558   44.3170   58.0514 C   0  0  0  0  0  0  0  0  0  0  0  0
   70.4139   44.7328   58.7204 C   0  0  0  0  0  0  0  0  0  0  0  0
   70.6680   45.8631   59.3495 O   0  0  0  0  0  0  0  0  0  0  0  0
  7  8  1  0
  8  9  2  0
  8 13  1  0
  9 10  1  0
 10 11  2  0
 11  1  1  0
 11 12  1  0
  1  2  2  0
  1  6  1  0
  2  3  1  0
  3  4  2  0
  4  5  1  0
  5 17  1  0
  5  6  2  0
 17 18  1  0
 18 19  2  0
 18 20  2  0
 18 21  1  0
 21 22  2  0
 21 25  1  0
 22 23  1  0
 23 24  2  0
 24 25  1  0
 12 13  2  0
 12 16  1  0
 13 14  1  0
 14 15  1  0
 15 16  1  0
M  END
>  <minimizedAffinity>  (964) 
-8.50241

$$$$
