cs_full_output_folder/data/smiles/1.pdb
     RDKit          3D

 22 24  0  0  0  0  0  0  0  0999 V2000
   68.9073   45.4454   56.5443 C   0  0  0  0  0  0  0  0  0  0  0  0
   70.0325   45.9369   57.1097 N   0  0  0  0  0  0  0  0  0  0  0  0
   70.8782   45.1433   57.7788 C   0  0  0  0  0  0  0  0  0  0  0  0
   70.5819   43.8058   57.8817 C   0  0  0  0  0  0  0  0  0  0  0  0
   69.4563   43.2588   57.3267 C   0  0  0  0  0  0  0  0  0  0  0  0
   68.6513   44.1485   56.6632 N   0  0  0  0  0  0  0  0  0  0  0  0
   69.0753   41.8588   57.4166 C   0  0  0  0  0  0  0  0  0  0  0  0
   69.7198   41.0215   58.3083 C   0  0  0  0  0  0  0  0  0  0  0  0
   69.3530   39.6719   58.3859 C   0  0  0  0  0  0  0  0  0  0  0  0
   68.3505   39.1640   57.5799 C   0  0  0  0  0  0  0  0  0  0  0  0
   67.7481   40.0110   56.7268 N   0  0  0  0  0  0  0  0  0  0  0  0
   68.0888   41.3346   56.6316 C   0  0  0  0  0  0  0  0  0  0  0  0
   68.0570   46.3603   55.8649 N   0  0  0  0  0  0  0  0  0  0  0  0
   69.3735   47.7417   52.6504 C   0  0  0  0  0  0  0  0  0  0  0  0
   68.7332   46.8996   51.7375 C   0  0  0  0  0  0  0  0  0  0  0  0
   67.8978   45.9069   52.1900 C   0  0  0  0  0  0  0  0  0  0  0  0
   67.6749   45.7200   53.5612 C   0  0  0  0  0  0  0  0  0  0  0  0
   68.3020   46.5445   54.4681 C   0  0  0  0  0  0  0  0  0  0  0  0
   69.1206   47.5155   53.9805 C   0  0  0  0  0  0  0  0  0  0  0  0
   71.3359   49.0668   52.6871 O   0  0  0  0  0  0  0  0  0  0  0  0
   70.2448   48.7876   52.1428 C   0  0  0  0  0  0  0  0  0  0  0  0
   69.8953   49.5296   51.0130 O   0  0  0  0  0  0  0  0  0  0  0  0
 20 21  2  0
 21 22  1  0
 21 14  1  0
 14 15  2  0
 14 19  1  0
 15 16  1  0
 16 17  2  0
 17 18  1  0
 18 13  1  0
 18 19  2  0
 13  1  1  0
  1  2  2  0
  1  6  1  0
  2  3  1  0
  3  4  2  0
  4  5  1  0
  5  7  1  0
  5  6  2  0
  7  8  2  0
  7 12  1  0
  8  9  1  0
  9 10  2  0
 10 11  1  0
 11 12  2  0
M  END
>  <minimizedAffinity>  (1) 
-9.37032

$$$$
cs_full_output_folder/data/smiles/8819.pdb
     RDKit          3D

 22 24  0  0  0  0  0  0  0  0999 V2000
   69.0219   45.3019   56.5896 C   0  0  0  0  0  0  0  0  0  0  0  0
   70.1290   45.8637   57.1775 N   0  0  0  0  0  0  0  0  0  0  0  0
   70.9954   45.1598   57.9157 C   0  0  0  0  0  0  0  0  0  0  0  0
   70.7735   43.7901   58.1028 C   0  0  0  0  0  0  0  0  0  0  0  0
   69.6713   43.2218   57.5192 C   0  0  0  0  0  0  0  0  0  0  0  0
   68.8703   44.0063   56.8044 N   0  0  0  0  0  0  0  0  0  0  0  0
   69.4478   41.7935   57.7021 C   0  0  0  0  0  0  0  0  0  0  0  0
   68.3282   41.1351   57.3241 C   0  0  0  0  0  0  0  0  0  0  0  0
   68.2530   39.7640   57.5713 C   0  0  0  0  0  0  0  0  0  0  0  0
   69.2679   39.0639   58.1787 C   0  0  0  0  0  0  0  0  0  0  0  0
   70.3993   39.7342   58.5605 C   0  0  0  0  0  0  0  0  0  0  0  0
   70.4780   41.0742   58.3218 C   0  0  0  0  0  0  0  0  0  0  0  0
   68.1844   46.1421   55.8113 N   0  0  0  0  0  0  0  0  0  0  0  0
   69.2890   47.6762   52.6089 C   0  0  0  0  0  0  0  0  0  0  0  0
   68.6340   46.8969   51.6767 C   0  0  0  0  0  0  0  0  0  0  0  0
   67.8295   45.8780   52.1211 C   0  0  0  0  0  0  0  0  0  0  0  0
   67.6881   45.6485   53.4711 C   0  0  0  0  0  0  0  0  0  0  0  0
   68.3288   46.4109   54.4363 C   0  0  0  0  0  0  0  0  0  0  0  0
   69.1274   47.4223   53.9759 C   0  0  0  0  0  0  0  0  0  0  0  0
   69.7964   49.6317   51.0985 N   0  0  0  0  0  0  0  0  0  0  0  0
   70.1444   48.7576   52.1555 C   0  0  0  0  0  0  0  0  0  0  0  0
   71.2515   48.9397   52.7177 O   0  0  0  0  0  0  0  0  0  0  0  0
 20 21  1  0
 21 22  2  0
 21 14  1  0
 14 15  2  0
 14 19  1  0
 15 16  1  0
 16 17  2  0
 17 18  1  0
 18 13  1  0
 18 19  2  0
 13  1  1  0
  1  2  2  0
  1  6  1  0
  2  3  1  0
  3  4  2  0
  4  5  1  0
  5  7  1  0
  5  6  2  0
  7  8  2  0
  7 12  1  0
  8  9  1  0
  9 10  2  0
 10 11  1  0
 11 12  2  0
M  END
>  <minimizedAffinity>  (2) 
-9.36328

$$$$
cs_full_output_folder/data/smiles/5107.pdb
     RDKit          3D

 22 24  0  0  0  0  0  0  0  0999 V2000
   68.8490   47.5250   57.0313 C   0  0  0  0  0  0  0  0  0  0  0  0
   68.2552   48.8572   57.1601 C   0  0  0  0  0  0  0  0  0  0  0  0
   66.9874   49.0267   57.7161 C   0  0  0  0  0  0  0  0  0  0  0  0
   66.3422   47.8685   58.1266 O   0  0  0  0  0  0  0  0  0  0  0  0
   66.4044   50.2649   57.8542 C   0  0  0  0  0  0  0  0  0  0  0  0
   67.0704   51.3875   57.4382 C   0  0  0  0  0  0  0  0  0  0  0  0
   68.3229   51.2535   56.8846 C   0  0  0  0  0  0  0  0  0  0  0  0
   68.9592   52.4098   56.4823 C   0  0  0  0  0  0  0  0  0  0  0  0
   70.2094   52.3072   55.9293 C   0  0  0  0  0  0  0  0  0  0  0  0
   70.8064   51.0705   55.7864 C   0  0  0  0  0  0  0  0  0  0  0  0
   70.1740   49.9181   56.1873 C   0  0  0  0  0  0  0  0  0  0  0  0
   68.9171   49.9858   56.7450 C   0  0  0  0  0  0  0  0  0  0  0  0
   68.1501   46.6928   56.0717 N   0  0  0  0  0  0  0  0  0  0  0  0
   69.3880   47.7839   52.7159 C   0  0  0  0  0  0  0  0  0  0  0  0
   68.7262   46.8743   51.8995 C   0  0  0  0  0  0  0  0  0  0  0  0
   67.8889   45.9220   52.4659 C   0  0  0  0  0  0  0  0  0  0  0  0
   67.7144   45.8793   53.8314 C   0  0  0  0  0  0  0  0  0  0  0  0
   68.3634   46.7774   54.6760 C   0  0  0  0  0  0  0  0  0  0  0  0
   69.1749   47.6934   54.0754 C   0  0  0  0  0  0  0  0  0  0  0  0
   71.3687   49.0029   52.6260 O   0  0  0  0  0  0  0  0  0  0  0  0
   70.2586   48.7692   52.1105 C   0  0  0  0  0  0  0  0  0  0  0  0
   69.8843   49.4532   50.9776 O   0  0  0  0  0  0  0  0  0  0  0  0
 20 21  2  0
 21 22  1  0
 21 14  1  0
 14 15  2  0
 14 19  1  0
 15 16  1  0
 16 17  2  0
 17 18  1  0
 18 13  1  0
 18 19  2  0
 13  1  1  0
  1  2  1  0
  2  3  2  0
  2 12  1  0
  3  4  1  0
  3  5  1  0
  5  6  2  0
  6  7  1  0
  7  8  1  0
  7 12  2  0
  8  9  2  0
  9 10  1  0
 10 11  2  0
 11 12  1  0
M  END
>  <minimizedAffinity>  (3) 
-9.31060

$$$$
cs_full_output_folder/data/smiles/861.pdb
     RDKit          3D

 22 24  0  0  0  0  0  0  0  0999 V2000
   68.9387   45.4111   56.5592 C   0  0  0  0  0  0  0  0  0  0  0  0
   70.0853   45.8728   57.1726 N   0  0  0  0  0  0  0  0  0  0  0  0
   70.8975   45.0800   57.8676 C   0  0  0  0  0  0  0  0  0  0  0  0
   70.5917   43.7380   57.9871 C   0  0  0  0  0  0  0  0  0  0  0  0
   69.4521   43.2347   57.3886 C   0  0  0  0  0  0  0  0  0  0  0  0
   68.7065   44.1193   56.7149 N   0  0  0  0  0  0  0  0  0  0  0  0
   69.1120   41.8266   57.4918 C   0  0  0  0  0  0  0  0  0  0  0  0
   69.7240   40.9470   58.3477 C   0  0  0  0  0  0  0  0  0  0  0  0
   69.3592   39.5915   58.4039 C   0  0  0  0  0  0  0  0  0  0  0  0
   68.3612   39.1168   57.5836 C   0  0  0  0  0  0  0  0  0  0  0  0
   67.7641   39.9787   56.7490 N   0  0  0  0  0  0  0  0  0  0  0  0
   68.1152   41.2924   56.6912 C   0  0  0  0  0  0  0  0  0  0  0  0
   68.1498   46.3334   55.8198 N   0  0  0  0  0  0  0  0  0  0  0  0
   69.3347   47.7534   52.5844 C   0  0  0  0  0  0  0  0  0  0  0  0
   68.6752   46.9171   51.7264 C   0  0  0  0  0  0  0  0  0  0  0  0
   67.8534   45.9122   52.1856 C   0  0  0  0  0  0  0  0  0  0  0  0
   67.7140   45.7727   53.5470 C   0  0  0  0  0  0  0  0  0  0  0  0
   68.3651   46.6001   54.4653 C   0  0  0  0  0  0  0  0  0  0  0  0
   69.1660   47.5774   53.9639 C   0  0  0  0  0  0  0  0  0  0  0  0
   71.2774   49.0678   52.6702 O   0  0  0  0  0  0  0  0  0  0  0  0
   70.2037   48.8141   52.0760 C   0  0  0  0  0  0  0  0  0  0  0  0
   69.8788   49.5495   50.9562 O   0  0  0  0  0  0  0  0  0  0  0  0
 20 21  2  0
 21 22  1  0
 21 14  1  0
 14 15  2  0
 14 19  1  0
 15 16  1  0
 16 17  2  0
 17 18  1  0
 18 13  1  0
 18 19  2  0
 13  1  1  0
  1  2  2  0
  1  6  1  0
  2  3  1  0
  3  4  2  0
  4  5  1  0
  5  7  1  0
  5  6  2  0
  7  8  2  0
  7 12  1  0
  8  9  1  0
  9 10  2  0
 10 11  1  0
 11 12  2  0
M  END
>  <minimizedAffinity>  (4) 
-9.30777

$$$$
cs_full_output_folder/data/smiles/5289.pdb
     RDKit          3D

 21 22  0  0  0  0  0  0  0  0999 V2000
   68.3113   46.5998   56.0866 N   0  0  0  0  0  0  0  0  0  0  0  0
   69.1834   47.6184   52.6218 C   0  0  0  0  0  0  0  0  0  0  0  0
   68.4515   46.7090   51.8560 C   0  0  0  0  0  0  0  0  0  0  0  0
   67.6826   45.7901   52.5328 C   0  0  0  0  0  0  0  0  0  0  0  0
   66.9284   44.8523   51.8356 O   0  0  0  0  0  0  0  0  0  0  0  0
   67.6537   45.7892   53.8843 C   0  0  0  0  0  0  0  0  0  0  0  0
   68.3788   46.6936   54.6850 C   0  0  0  0  0  0  0  0  0  0  0  0
   69.1336   47.5935   53.9891 C   0  0  0  0  0  0  0  0  0  0  0  0
   70.6160   48.2186   50.8891 O   0  0  0  0  0  0  0  0  0  0  0  0
   69.9933   48.5875   51.9120 C   0  0  0  0  0  0  0  0  0  0  0  0
   70.0884   49.8974   52.3383 O   0  0  0  0  0  0  0  0  0  0  0  0
   68.9531   47.4500   57.0277 C   0  0  0  0  0  0  0  0  0  0  0  0
   68.1988   48.7046   57.1847 C   0  0  0  0  0  0  0  0  0  0  0  0
   67.0494   48.8052   57.8868 C   0  0  0  0  0  0  0  0  0  0  0  0
   66.3655   50.0263   58.0372 C   0  0  0  0  0  0  0  0  0  0  0  0
   66.8913   51.1552   57.4431 C   0  0  0  0  0  0  0  0  0  0  0  0
   68.0692   51.0786   56.7156 C   0  0  0  0  0  0  0  0  0  0  0  0
   68.7078   49.8709   56.5930 C   0  0  0  0  0  0  0  0  0  0  0  0
   68.5979   52.2591   56.1075 N   0  0  0  0  0  0  0  0  0  0  0  0
   69.0784   53.1688   56.7952 O   0  0  0  0  0  0  0  0  0  0  0  0
   68.5680   52.3723   54.7544 O   0  0  0  0  0  0  0  0  0  0  0  0
  9 10  2  0
 10 11  1  0
 10  2  1  0
  2  3  2  0
  2  8  1  0
  3  4  1  0
  4  5  1  0
  4  6  2  0
  6  7  1  0
  7  1  1  0
  7  8  2  0
  1 12  1  0
 12 13  1  0
 13 14  2  0
 13 18  1  0
 14 15  1  0
 15 16  2  0
 16 17  1  0
 17 19  1  0
 17 18  2  0
 19 20  2  0
 19 21  1  0
M  CHG  2  19   1  21  -1
M  END
>  <minimizedAffinity>  (5) 
-9.24498

$$$$
cs_full_output_folder/data/smiles/4629.pdb
     RDKit          3D

 22 24  0  0  0  0  0  0  0  0999 V2000
   68.8108   45.6967   56.3660 C   0  0  0  0  0  0  0  0  0  0  0  0
   69.8663   46.2928   56.9740 N   0  0  0  0  0  0  0  0  0  0  0  0
   70.7191   45.6067   57.7277 C   0  0  0  0  0  0  0  0  0  0  0  0
   70.5016   44.2438   57.8836 C   0  0  0  0  0  0  0  0  0  0  0  0
   69.4417   43.6058   57.2820 C   0  0  0  0  0  0  0  0  0  0  0  0
   68.6296   44.3770   56.5363 N   0  0  0  0  0  0  0  0  0  0  0  0
   69.1924   42.1815   57.4281 C   0  0  0  0  0  0  0  0  0  0  0  0
   68.1682   41.5078   56.8403 C   0  0  0  0  0  0  0  0  0  0  0  0
   67.9939   40.1509   57.0254 C   0  0  0  0  0  0  0  0  0  0  0  0
   68.8587   39.4560   57.8115 C   0  0  0  0  0  0  0  0  0  0  0  0
   69.9203   40.0950   58.4342 C   0  0  0  0  0  0  0  0  0  0  0  0
   70.0561   41.4365   58.2249 C   0  0  0  0  0  0  0  0  0  0  0  0
   67.9340   46.4507   55.5800 O   0  0  0  0  0  0  0  0  0  0  0  0
   69.4009   47.7821   52.4888 C   0  0  0  0  0  0  0  0  0  0  0  0
   68.7940   46.9352   51.5827 C   0  0  0  0  0  0  0  0  0  0  0  0
   67.9169   45.9441   51.9980 C   0  0  0  0  0  0  0  0  0  0  0  0
   67.6173   45.7680   53.3307 C   0  0  0  0  0  0  0  0  0  0  0  0
   68.2209   46.6115   54.2396 C   0  0  0  0  0  0  0  0  0  0  0  0
   69.0974   47.6016   53.8222 C   0  0  0  0  0  0  0  0  0  0  0  0
   71.3177   49.0395   52.6866 O   0  0  0  0  0  0  0  0  0  0  0  0
   70.2965   48.7929   52.0543 N   0  0  0  0  0  0  0  0  0  0  0  0
   70.0218   49.5037   50.9180 O   0  0  0  0  0  0  0  0  0  0  0  0
 20 21  2  0
 21 22  1  0
 21 14  1  0
 14 15  2  0
 14 19  1  0
 15 16  1  0
 16 17  2  0
 17 18  1  0
 18 13  1  0
 18 19  2  0
 13  1  1  0
  1  2  2  0
  1  6  1  0
  2  3  1  0
  3  4  2  0
  4  5  1  0
  5  7  1  0
  5  6  2  0
  7  8  2  0
  7 12  1  0
  8  9  1  0
  9 10  2  0
 10 11  1  0
 11 12  2  0
M  CHG  2  21   1  22  -1
M  END
>  <minimizedAffinity>  (6) 
-9.23143

$$$$
cs_full_output_folder/data/smiles/3.pdb
     RDKit          3D

 21 23  0  0  0  0  0  0  0  0999 V2000
   69.5017   48.3025   54.0443 C   0  0  0  0  0  0  0  0  0  0  0  0
   69.2757   48.0851   55.3977 C   0  0  0  0  0  0  0  0  0  0  0  0
   68.3929   47.1361   55.8636 C   0  0  0  0  0  0  0  0  0  0  0  0
   68.2295   46.9872   57.1192 O   0  0  0  0  0  0  0  0  0  0  0  0
   67.7165   46.3823   55.0321 O   0  0  0  0  0  0  0  0  0  0  0  0
   67.8685   46.5147   53.7438 C   0  0  0  0  0  0  0  0  0  0  0  0
   67.1925   45.7471   52.8651 N   0  0  0  0  0  0  0  0  0  0  0  0
   67.3316   45.8490   51.5313 C   0  0  0  0  0  0  0  0  0  0  0  0
   66.6764   45.1095   50.7277 O   0  0  0  0  0  0  0  0  0  0  0  0
   68.1816   46.7535   51.0175 N   0  0  0  0  0  0  0  0  0  0  0  0
   68.8895   47.5556   51.8701 C   0  0  0  0  0  0  0  0  0  0  0  0
   69.6599   48.3608   51.3519 O   0  0  0  0  0  0  0  0  0  0  0  0
   68.7533   47.4651   53.2158 C   0  0  0  0  0  0  0  0  0  0  0  0
   70.3873   49.3572   53.5574 C   0  0  0  0  0  0  0  0  0  0  0  0
   70.2455   50.7166   54.0884 C   0  0  0  0  0  0  0  0  0  0  0  0
   68.9545   51.1497   54.7108 C   0  0  0  0  0  0  0  0  0  0  0  0
   69.0188   51.7978   56.0417 C   0  0  0  0  0  0  0  0  0  0  0  0
   69.1833   50.9408   57.2852 C   0  0  0  0  0  0  0  0  0  0  0  0
   67.8123   51.3934   56.9391 C   0  0  0  0  0  0  0  0  0  0  0  0
   70.6890   53.6420   56.3513 C   0  0  0  0  0  0  0  0  0  0  0  0
   69.2310   53.3031   56.1299 C   0  0  0  0  0  0  0  0  0  0  0  0
 20 21  1  0
 21 17  1  0
 17 16  1  0
 17 18  1  0
 17 19  1  0
 16 15  1  0
 15 14  1  0
 14  1  1  0
  1  2  2  0
  1 13  1  0
  2  3  1  0
  3  4  2  0
  3  5  1  0
  5  6  1  0
  6  7  1  0
  6 13  2  0
  7  8  1  0
  8  9  2  0
  8 10  1  0
 10 11  1  0
 11 12  2  0
 11 13  1  0
 18 19  1  0
M  END
>  <minimizedAffinity>  (7) 
-9.20642

$$$$
cs_full_output_folder/data/smiles/8523.pdb
     RDKit          3D

 22 24  0  0  0  0  0  0  0  0999 V2000
   71.5729   48.1990   58.9744 C   0  0  0  0  0  0  0  0  0  0  0  0
   70.8471   47.0909   58.3016 C   0  0  0  0  0  0  0  0  0  0  0  0
   69.7808   47.3921   57.4562 C   0  0  0  0  0  0  0  0  0  0  0  0
   69.0987   46.3746   56.8263 C   0  0  0  0  0  0  0  0  0  0  0  0
   69.4788   45.1264   57.0429 N   0  0  0  0  0  0  0  0  0  0  0  0
   70.5131   44.7961   57.8611 C   0  0  0  0  0  0  0  0  0  0  0  0
   71.1649   45.7990   58.4650 N   0  0  0  0  0  0  0  0  0  0  0  0
   70.8592   43.3925   58.0389 C   0  0  0  0  0  0  0  0  0  0  0  0
   70.0330   42.3854   58.2717 C   0  0  0  0  0  0  0  0  0  0  0  0
   70.8133   41.1354   58.3835 C   0  0  0  0  0  0  0  0  0  0  0  0
   72.0465   41.5189   58.2020 C   0  0  0  0  0  0  0  0  0  0  0  0
   72.1970   42.8171   57.9943 C   0  0  0  0  0  0  0  0  0  0  0  0
   68.0446   46.6803   55.9902 O   0  0  0  0  0  0  0  0  0  0  0  0
   68.2896   46.7568   54.6275 C   0  0  0  0  0  0  0  0  0  0  0  0
   67.7260   45.8494   53.7541 C   0  0  0  0  0  0  0  0  0  0  0  0
   67.9628   45.9140   52.3919 C   0  0  0  0  0  0  0  0  0  0  0  0
   68.7752   46.8954   51.8610 C   0  0  0  0  0  0  0  0  0  0  0  0
   69.3426   47.8070   52.7246 C   0  0  0  0  0  0  0  0  0  0  0  0
   69.1036   47.7370   54.0811 C   0  0  0  0  0  0  0  0  0  0  0  0
   70.1981   48.8431   52.1843 C   0  0  0  0  0  0  0  0  0  0  0  0
   69.8143   49.6060   51.0305 N   0  0  0  0  0  0  0  0  0  0  0  0
   71.3077   49.1146   52.7001 O   0  0  0  0  0  0  0  0  0  0  0  0
  1  2  1  0
  2  3  2  0
  2  7  1  0
  3  4  1  0
  4 13  1  0
  4  5  2  0
 13 14  1  0
 14 15  2  0
 14 19  1  0
 15 16  1  0
 16 17  2  0
 17 18  1  0
 18 20  1  0
 18 19  2  0
 20 21  1  0
 20 22  2  0
  5  6  1  0
  6  8  1  0
  6  7  2  0
  8  9  2  0
  8 12  1  0
  9 10  1  0
 10 11  2  0
 11 12  2  0
M  END
>  <minimizedAffinity>  (8) 
-9.19208

$$$$
cs_full_output_folder/data/smiles/8042.pdb
     RDKit          3D

 21 23  0  0  0  0  0  0  0  0999 V2000
   70.4055   49.1500   53.9952 C   0  0  0  0  0  0  0  0  0  0  0  0
   71.5407   49.4717   53.3601 N   0  0  0  0  0  0  0  0  0  0  0  0
   72.1130   50.5211   53.9562 N   0  0  0  0  0  0  0  0  0  0  0  0
   71.3559   50.9200   55.0136 C   0  0  0  0  0  0  0  0  0  0  0  0
   70.2672   50.0405   55.0332 C   0  0  0  0  0  0  0  0  0  0  0  0
   66.9321   44.9456   52.5311 O   0  0  0  0  0  0  0  0  0  0  0  0
   67.7948   45.9857   52.9163 C   0  0  0  0  0  0  0  0  0  0  0  0
   68.1506   46.1883   54.2267 C   0  0  0  0  0  0  0  0  0  0  0  0
   68.9867   47.1971   54.5939 C   0  0  0  0  0  0  0  0  0  0  0  0
   69.5209   48.0763   53.6439 C   0  0  0  0  0  0  0  0  0  0  0  0
   69.1644   47.8723   52.3297 C   0  0  0  0  0  0  0  0  0  0  0  0
   69.6670   48.7184   51.3393 O   0  0  0  0  0  0  0  0  0  0  0  0
   68.3134   46.8435   51.9683 C   0  0  0  0  0  0  0  0  0  0  0  0
   67.9787   46.6766   50.6165 O   0  0  0  0  0  0  0  0  0  0  0  0
   69.1765   50.0561   55.9775 C   0  0  0  0  0  0  0  0  0  0  0  0
   68.9580   48.9914   56.8155 C   0  0  0  0  0  0  0  0  0  0  0  0
   67.9384   48.9429   57.7382 C   0  0  0  0  0  0  0  0  0  0  0  0
   67.0821   50.0121   57.8377 C   0  0  0  0  0  0  0  0  0  0  0  0
   66.0473   50.0034   58.7496 F   0  0  0  0  0  0  0  0  0  0  0  0
   67.2697   51.0984   57.0130 C   0  0  0  0  0  0  0  0  0  0  0  0
   68.3165   51.1250   56.0798 C   0  0  0  0  0  0  0  0  0  0  0  0
  6  7  1  0
  7  8  2  0
  7 13  1  0
  8  9  1  0
  9 10  2  0
 10  1  1  0
 10 11  1  0
  1  2  1  0
  1  5  2  0
  2  3  1  0
  3  4  2  0
  4  5  1  0
  5 15  1  0
 15 16  2  0
 15 21  1  0
 16 17  1  0
 17 18  2  0
 18 19  1  0
 18 20  1  0
 20 21  2  0
 11 12  1  0
 11 13  2  0
 13 14  1  0
M  END
>  <minimizedAffinity>  (9) 
-9.18648

$$$$
cs_full_output_folder/data/smiles/3951.pdb
     RDKit          3D

 22 24  0  0  0  0  0  0  0  0999 V2000
   68.7512   45.5999   56.3586 C   0  0  0  0  0  0  0  0  0  0  0  0
   69.8192   46.2050   56.9188 N   0  0  0  0  0  0  0  0  0  0  0  0
   70.7256   45.5625   57.6556 C   0  0  0  0  0  0  0  0  0  0  0  0
   70.5504   44.1873   57.8523 C   0  0  0  0  0  0  0  0  0  0  0  0
   69.4777   43.5336   57.3007 C   0  0  0  0  0  0  0  0  0  0  0  0
   68.6195   44.2825   56.5703 N   0  0  0  0  0  0  0  0  0  0  0  0
   69.2768   42.1078   57.4919 C   0  0  0  0  0  0  0  0  0  0  0  0
   70.2124   41.3672   58.2076 C   0  0  0  0  0  0  0  0  0  0  0  0
   70.0808   40.0114   58.4238 C   0  0  0  0  0  0  0  0  0  0  0  0
   68.9907   39.3315   57.9261 C   0  0  0  0  0  0  0  0  0  0  0  0
   68.0531   40.0423   57.2156 C   0  0  0  0  0  0  0  0  0  0  0  0
   68.1964   41.4233   57.0004 C   0  0  0  0  0  0  0  0  0  0  0  0
   67.8448   46.3339   55.6009 O   0  0  0  0  0  0  0  0  0  0  0  0
   69.2876   47.7003   52.4897 C   0  0  0  0  0  0  0  0  0  0  0  0
   68.7093   46.8605   51.5636 C   0  0  0  0  0  0  0  0  0  0  0  0
   67.8460   45.8483   51.9682 C   0  0  0  0  0  0  0  0  0  0  0  0
   67.5672   45.6879   53.3320 C   0  0  0  0  0  0  0  0  0  0  0  0
   68.1395   46.5197   54.2646 C   0  0  0  0  0  0  0  0  0  0  0  0
   68.9849   47.5036   53.8224 C   0  0  0  0  0  0  0  0  0  0  0  0
   71.2755   49.1512   52.9177 N   0  0  0  0  0  0  0  0  0  0  0  0
   70.1944   48.7655   52.0843 C   0  0  0  0  0  0  0  0  0  0  0  0
   70.0394   49.3641   50.9906 O   0  0  0  0  0  0  0  0  0  0  0  0
 20 21  1  0
 21 22  2  0
 21 14  1  0
 14 15  2  0
 14 19  1  0
 15 16  1  0
 16 17  2  0
 17 18  1  0
 18 13  1  0
 18 19  2  0
 13  1  1  0
  1  2  2  0
  1  6  1  0
  2  3  1  0
  3  4  2  0
  4  5  1  0
  5  7  1  0
  5  6  2  0
  7  8  2  0
  7 12  1  0
  8  9  1  0
  9 10  2  0
 10 11  1  0
 11 12  2  0
M  END
>  <minimizedAffinity>  (10) 
-9.18421

$$$$
cs_full_output_folder/data/smiles/7.pdb
     RDKit          3D

 19 21  0  0  0  0  0  0  0  0999 V2000
   66.8435   45.3784   51.0466 N   0  0  0  0  0  0  0  0  0  0  0  0
   67.7462   46.1769   51.8063 C   0  0  0  0  0  0  0  0  0  0  0  0
   67.7346   46.1298   53.2014 C   0  0  0  0  0  0  0  0  0  0  0  0
   68.5944   46.8881   53.9558 C   0  0  0  0  0  0  0  0  0  0  0  0
   69.4703   47.6997   53.2148 C   0  0  0  0  0  0  0  0  0  0  0  0
   70.4230   48.5514   53.6568 N   0  0  0  0  0  0  0  0  0  0  0  0
   70.9791   49.0832   52.5673 N   0  0  0  0  0  0  0  0  0  0  0  0
   70.4300   48.6139   51.4803 N   0  0  0  0  0  0  0  0  0  0  0  0
   69.4753   47.7399   51.8577 C   0  0  0  0  0  0  0  0  0  0  0  0
   68.6096   46.9738   51.1960 N   0  0  0  0  0  0  0  0  0  0  0  0
   68.6448   46.9007   55.2828 O   0  0  0  0  0  0  0  0  0  0  0  0
   69.2045   47.6232   56.2813 C   0  0  0  0  0  0  0  0  0  0  0  0
   68.4658   48.8114   56.7305 C   0  0  0  0  0  0  0  0  0  0  0  0
   67.3701   48.7429   57.5301 C   0  0  0  0  0  0  0  0  0  0  0  0
   66.7135   49.9066   57.9323 C   0  0  0  0  0  0  0  0  0  0  0  0
   67.1807   51.1273   57.5153 C   0  0  0  0  0  0  0  0  0  0  0  0
   68.2859   51.2153   56.7064 C   0  0  0  0  0  0  0  0  0  0  0  0
   68.8266   52.7987   56.2108 Cl  0  0  0  0  0  0  0  0  0  0  0  0
   68.9266   50.0490   56.3150 C   0  0  0  0  0  0  0  0  0  0  0  0
  1  2  1  0
  2  3  2  0
  2 10  1  0
  3  4  1  0
  4 11  1  0
  4  5  2  0
 11 12  1  0
 12 13  1  0
 13 14  2  0
 13 19  1  0
 14 15  1  0
 15 16  2  0
 16 17  1  0
 17 18  1  0
 17 19  2  0
  5  6  1  0
  5  9  1  0
  6  7  2  0
  7  8  1  0
  8  9  1  0
  9 10  2  0
M  END
>  <minimizedAffinity>  (11) 
-9.17792

$$$$
cs_full_output_folder/data/smiles/4175.pdb
     RDKit          3D

 21 23  0  0  0  0  0  0  0  0999 V2000
   69.6728   48.0685   54.8528 C   0  0  0  0  0  0  0  0  0  0  0  0
   70.5865   48.9991   54.4401 N   0  0  0  0  0  0  0  0  0  0  0  0
   70.8532   49.2101   53.1801 N   0  0  0  0  0  0  0  0  0  0  0  0
   70.2420   48.5241   52.2164 C   0  0  0  0  0  0  0  0  0  0  0  0
   70.5162   48.7429   50.9751 O   0  0  0  0  0  0  0  0  0  0  0  0
   69.3033   47.5646   52.5277 C   0  0  0  0  0  0  0  0  0  0  0  0
   68.6549   46.8703   51.5271 C   0  0  0  0  0  0  0  0  0  0  0  0
   67.7076   45.9442   51.9006 C   0  0  0  0  0  0  0  0  0  0  0  0
   67.4218   45.7222   53.2345 C   0  0  0  0  0  0  0  0  0  0  0  0
   68.0866   46.4291   54.2206 C   0  0  0  0  0  0  0  0  0  0  0  0
   69.0322   47.3533   53.8881 C   0  0  0  0  0  0  0  0  0  0  0  0
   69.4924   47.8345   56.2931 C   0  0  0  0  0  0  0  0  0  0  0  0
   68.1476   51.2903   56.9993 C   0  0  0  0  0  0  0  0  0  0  0  0
   66.9689   51.0162   57.6786 C   0  0  0  0  0  0  0  0  0  0  0  0
   66.5863   49.7163   57.9238 C   0  0  0  0  0  0  0  0  0  0  0  0
   67.3976   48.6740   57.4808 C   0  0  0  0  0  0  0  0  0  0  0  0
   68.5665   48.8834   56.8091 C   0  0  0  0  0  0  0  0  0  0  0  0
   68.8888   50.2376   56.5982 C   0  0  0  0  0  0  0  0  0  0  0  0
   68.4857   52.6101   56.7775 O   0  0  0  0  0  0  0  0  0  0  0  0
   70.5984   53.7630   56.3969 C   0  0  0  0  0  0  0  0  0  0  0  0
   69.3747   53.1040   55.8271 C   0  0  0  0  0  0  0  0  0  0  0  0
 20 21  1  0
 21 19  1  0
 19 13  1  0
 13 14  2  0
 13 18  1  0
 14 15  1  0
 15 16  2  0
 16 17  1  0
 17 12  1  0
 17 18  2  0
 12  1  1  0
  1  2  2  0
  1 11  1  0
  2  3  1  0
  3  4  1  0
  4  5  2  0
  4  6  1  0
  6  7  1  0
  6 11  2  0
  7  8  2  0
  8  9  1  0
  9 10  2  0
 10 11  1  0
M  END
>  <minimizedAffinity>  (12) 
-9.17344

$$$$
cs_full_output_folder/data/smiles/269.pdb
     RDKit          3D

 22 24  0  0  0  0  0  0  0  0999 V2000
   69.5472   48.9016   54.0162 C   0  0  0  0  0  0  0  0  0  0  0  0
   69.8773   49.7002   52.9486 C   0  0  0  0  0  0  0  0  0  0  0  0
   70.4775   50.9629   53.1498 N   0  0  0  0  0  0  0  0  0  0  0  0
   69.6024   49.2287   51.6620 C   0  0  0  0  0  0  0  0  0  0  0  0
   69.9081   49.9673   50.7022 O   0  0  0  0  0  0  0  0  0  0  0  0
   69.0464   48.0612   51.4746 O   0  0  0  0  0  0  0  0  0  0  0  0
   68.7076   47.2490   52.4573 C   0  0  0  0  0  0  0  0  0  0  0  0
   68.1265   46.0358   52.1684 C   0  0  0  0  0  0  0  0  0  0  0  0
   67.7876   45.2183   53.2226 C   0  0  0  0  0  0  0  0  0  0  0  0
   68.0352   45.6291   54.5288 C   0  0  0  0  0  0  0  0  0  0  0  0
   68.6193   46.8532   54.7821 C   0  0  0  0  0  0  0  0  0  0  0  0
   68.9669   47.6864   53.7550 C   0  0  0  0  0  0  0  0  0  0  0  0
   69.8086   49.3365   55.3579 N   0  0  0  0  0  0  0  0  0  0  0  0
   68.3741   50.9990   56.3608 C   0  0  0  0  0  0  0  0  0  0  0  0
   67.3287   51.2752   57.2496 C   0  0  0  0  0  0  0  0  0  0  0  0
   66.7132   50.2820   57.9694 C   0  0  0  0  0  0  0  0  0  0  0  0
   67.1123   48.9708   57.8336 C   0  0  0  0  0  0  0  0  0  0  0  0
   68.1365   48.7103   56.9615 C   0  0  0  0  0  0  0  0  0  0  0  0
   68.7679   49.7007   56.2281 C   0  0  0  0  0  0  0  0  0  0  0  0
   70.1934   52.7171   56.0768 N   0  0  0  0  0  0  0  0  0  0  0  0
   68.9475   52.1319   55.6553 C   0  0  0  0  0  0  0  0  0  0  0  0
   68.4324   52.6747   54.6625 O   0  0  0  0  0  0  0  0  0  0  0  0
 20 21  1  0
 21 22  2  0
 21 14  1  0
 14 15  2  0
 14 19  1  0
 15 16  1  0
 16 17  2  0
 17 18  1  0
 18 19  2  0
 19 13  1  0
 13  1  1  0
  1  2  2  0
  1 12  1  0
  2  3  1  0
  2  4  1  0
  4  5  2  0
  4  6  1  0
  6  7  1  0
  7  8  1  0
  7 12  2  0
  8  9  2  0
  9 10  1  0
 10 11  2  0
 11 12  1  0
M  END
>  <minimizedAffinity>  (13) 
-9.16328

$$$$
cs_full_output_folder/data/smiles/5396.pdb
     RDKit          3D

 22 24  0  0  0  0  0  0  0  0999 V2000
   68.4845   51.3656   56.2721 C   0  0  0  0  0  0  0  0  0  0  0  0
   67.4637   51.2773   57.1821 C   0  0  0  0  0  0  0  0  0  0  0  0
   67.0601   50.0625   57.6931 C   0  0  0  0  0  0  0  0  0  0  0  0
   66.0466   49.9805   58.5969 F   0  0  0  0  0  0  0  0  0  0  0  0
   67.7269   48.9271   57.2517 C   0  0  0  0  0  0  0  0  0  0  0  0
   67.3319   47.8399   57.7405 O   0  0  0  0  0  0  0  0  0  0  0  0
   68.7452   48.9795   56.3475 N   0  0  0  0  0  0  0  0  0  0  0  0
   69.1039   50.1847   55.8789 C   0  0  0  0  0  0  0  0  0  0  0  0
   68.9046   52.6600   55.7337 C   0  0  0  0  0  0  0  0  0  0  0  0
   68.4915   52.9571   54.5560 O   0  0  0  0  0  0  0  0  0  0  0  0
   71.0362   53.5865   56.2574 C   0  0  0  0  0  0  0  0  0  0  0  0
   69.7333   53.6029   56.4224 C   0  0  0  0  0  0  0  0  0  0  0  0
   69.3844   47.7434   55.9547 C   0  0  0  0  0  0  0  0  0  0  0  0
   69.0133   47.3147   54.5934 C   0  0  0  0  0  0  0  0  0  0  0  0
   68.0727   46.2886   54.4005 C   0  0  0  0  0  0  0  0  0  0  0  0
   67.6701   45.8982   53.1520 C   0  0  0  0  0  0  0  0  0  0  0  0
   68.1773   46.4991   52.0329 C   0  0  0  0  0  0  0  0  0  0  0  0
   69.1133   47.5193   52.1595 C   0  0  0  0  0  0  0  0  0  0  0  0
   69.7722   48.2505   51.2292 N   0  0  0  0  0  0  0  0  0  0  0  0
   70.5582   49.0639   51.8954 N   0  0  0  0  0  0  0  0  0  0  0  0
   70.4292   48.8839   53.2238 C   0  0  0  0  0  0  0  0  0  0  0  0
   69.5060   47.8980   53.4394 C   0  0  0  0  0  0  0  0  0  0  0  0
 11 12  2  0
 12  9  1  0
  9 10  2  0
  9  1  1  0
  1  2  1  0
  1  8  2  0
  2  3  2  0
  3  4  1  0
  3  5  1  0
  5  6  2  0
  5  7  1  0
  7 13  1  0
  7  8  1  0
 13 14  1  0
 14 15  2  0
 14 22  1  0
 15 16  1  0
 16 17  2  0
 17 18  1  0
 18 19  1  0
 18 22  2  0
 19 20  1  0
 20 21  2  0
 21 22  1  0
M  END
>  <minimizedAffinity>  (14) 
-9.15263

$$$$
cs_full_output_folder/data/smiles/198.pdb
     RDKit          3D

 21 23  0  0  0  0  0  0  0  0999 V2000
   69.4862   48.3032   54.0072 C   0  0  0  0  0  0  0  0  0  0  0  0
   69.2030   48.0710   55.3771 C   0  0  0  0  0  0  0  0  0  0  0  0
   68.3211   47.1534   55.8216 C   0  0  0  0  0  0  0  0  0  0  0  0
   68.1363   47.0213   57.0778 O   0  0  0  0  0  0  0  0  0  0  0  0
   67.6678   46.4106   54.9612 O   0  0  0  0  0  0  0  0  0  0  0  0
   67.8650   46.5501   53.6716 C   0  0  0  0  0  0  0  0  0  0  0  0
   67.1576   45.7410   52.8512 N   0  0  0  0  0  0  0  0  0  0  0  0
   67.3258   45.8296   51.5138 C   0  0  0  0  0  0  0  0  0  0  0  0
   66.6688   45.0778   50.7347 O   0  0  0  0  0  0  0  0  0  0  0  0
   68.2003   46.7275   51.0316 N   0  0  0  0  0  0  0  0  0  0  0  0
   68.9189   47.5513   51.8419 C   0  0  0  0  0  0  0  0  0  0  0  0
   69.7075   48.3449   51.3358 O   0  0  0  0  0  0  0  0  0  0  0  0
   68.7592   47.4787   53.1864 C   0  0  0  0  0  0  0  0  0  0  0  0
   70.3634   49.4047   53.6247 C   0  0  0  0  0  0  0  0  0  0  0  0
   70.4615   50.5285   54.6090 C   0  0  0  0  0  0  0  0  0  0  0  0
   69.3055   51.4233   54.7903 C   0  0  0  0  0  0  0  0  0  0  0  0
   69.0594   51.9153   56.1844 C   0  0  0  0  0  0  0  0  0  0  0  0
   67.8492   51.3774   56.9380 C   0  0  0  0  0  0  0  0  0  0  0  0
   69.2634   51.1017   57.3929 C   0  0  0  0  0  0  0  0  0  0  0  0
   70.7456   53.6772   56.3806 C   0  0  0  0  0  0  0  0  0  0  0  0
   69.2530   53.4327   56.2921 C   0  0  0  0  0  0  0  0  0  0  0  0
 20 21  1  0
 21 17  1  0
 17 16  1  0
 17 18  1  0
 17 19  1  0
 16 15  1  0
 15 14  1  0
 14  1  1  0
  1  2  2  0
  1 13  1  0
  2  3  1  0
  3  4  2  0
  3  5  1  0
  5  6  1  0
  6  7  1  0
  6 13  2  0
  7  8  1  0
  8  9  2  0
  8 10  1  0
 10 11  1  0
 11 12  2  0
 11 13  1  0
 18 19  1  0
M  END
>  <minimizedAffinity>  (15) 
-9.14837

$$$$
cs_full_output_folder/data/smiles/7255.pdb
     RDKit          3D

 22 24  0  0  0  0  0  0  0  0999 V2000
   71.7222   47.5452   58.8821 C   0  0  0  0  0  0  0  0  0  0  0  0
   70.8510   46.5870   58.1657 C   0  0  0  0  0  0  0  0  0  0  0  0
   69.8382   46.9833   57.2836 C   0  0  0  0  0  0  0  0  0  0  0  0
   69.0622   46.0412   56.6481 C   0  0  0  0  0  0  0  0  0  0  0  0
   69.3014   44.7585   56.8955 N   0  0  0  0  0  0  0  0  0  0  0  0
   70.2682   44.3273   57.7388 C   0  0  0  0  0  0  0  0  0  0  0  0
   71.0087   45.2702   58.3436 N   0  0  0  0  0  0  0  0  0  0  0  0
   70.5098   42.9155   57.9923 C   0  0  0  0  0  0  0  0  0  0  0  0
   69.5799   41.9825   58.0961 C   0  0  0  0  0  0  0  0  0  0  0  0
   70.1461   40.6693   58.3514 C   0  0  0  0  0  0  0  0  0  0  0  0
   71.4544   40.8211   58.4035 C   0  0  0  0  0  0  0  0  0  0  0  0
   71.8139   42.2399   58.1842 C   0  0  0  0  0  0  0  0  0  0  0  0
   68.0729   46.4499   55.7852 O   0  0  0  0  0  0  0  0  0  0  0  0
   68.2806   46.6018   54.4339 C   0  0  0  0  0  0  0  0  0  0  0  0
   67.6978   45.7446   53.5352 C   0  0  0  0  0  0  0  0  0  0  0  0
   67.8955   45.8816   52.1559 C   0  0  0  0  0  0  0  0  0  0  0  0
   68.7119   46.9262   51.7124 C   0  0  0  0  0  0  0  0  0  0  0  0
   69.3021   47.7928   52.5983 C   0  0  0  0  0  0  0  0  0  0  0  0
   69.0762   47.6156   53.9472 C   0  0  0  0  0  0  0  0  0  0  0  0
   70.1396   48.8591   52.0981 C   0  0  0  0  0  0  0  0  0  0  0  0
   69.7860   49.6664   51.0034 N   0  0  0  0  0  0  0  0  0  0  0  0
   71.2601   49.0981   52.6655 O   0  0  0  0  0  0  0  0  0  0  0  0
  1  2  1  0
  2  3  2  0
  2  7  1  0
  3  4  1  0
  4 13  1  0
  4  5  2  0
 13 14  1  0
 14 15  2  0
 14 19  1  0
 15 16  1  0
 16 17  2  0
 17 18  1  0
 18 20  1  0
 18 19  2  0
 20 21  1  0
 20 22  2  0
  5  6  1  0
  6  8  1  0
  6  7  2  0
  8  9  2  0
  8 12  1  0
  9 10  1  0
 10 11  2  0
 11 12  1  0
M  END
>  <minimizedAffinity>  (16) 
-9.13885

$$$$
cs_full_output_folder/data/smiles/5084.pdb
     RDKit          3D

 22 24  0  0  0  0  0  0  0  0999 V2000
   68.9561   46.4730   56.6303 C   0  0  0  0  0  0  0  0  0  0  0  0
   69.6118   47.4757   57.3080 C   0  0  0  0  0  0  0  0  0  0  0  0
   70.6291   47.1394   58.1642 C   0  0  0  0  0  0  0  0  0  0  0  0
   70.9692   45.8416   58.3288 N   0  0  0  0  0  0  0  0  0  0  0  0
   70.3326   44.8610   57.6717 C   0  0  0  0  0  0  0  0  0  0  0  0
   69.3408   45.2056   56.8387 N   0  0  0  0  0  0  0  0  0  0  0  0
   70.7430   43.4776   57.8893 C   0  0  0  0  0  0  0  0  0  0  0  0
   69.8360   42.4444   57.9853 C   0  0  0  0  0  0  0  0  0  0  0  0
   70.2399   41.1299   58.1931 C   0  0  0  0  0  0  0  0  0  0  0  0
   71.5771   40.8135   58.3101 C   0  0  0  0  0  0  0  0  0  0  0  0
   72.4929   41.8406   58.2157 C   0  0  0  0  0  0  0  0  0  0  0  0
   72.0759   43.1417   58.0093 C   0  0  0  0  0  0  0  0  0  0  0  0
   67.9260   46.8174   55.7645 O   0  0  0  0  0  0  0  0  0  0  0  0
   69.4175   47.8006   52.5141 C   0  0  0  0  0  0  0  0  0  0  0  0
   68.8156   46.8842   51.6778 C   0  0  0  0  0  0  0  0  0  0  0  0
   67.9276   45.9517   52.1841 C   0  0  0  0  0  0  0  0  0  0  0  0
   67.6368   45.9363   53.5422 C   0  0  0  0  0  0  0  0  0  0  0  0
   68.2348   46.8514   54.3921 C   0  0  0  0  0  0  0  0  0  0  0  0
   69.1075   47.7597   53.8623 C   0  0  0  0  0  0  0  0  0  0  0  0
   70.1359   49.3218   50.9419 O   0  0  0  0  0  0  0  0  0  0  0  0
   70.3266   48.7628   52.0282 N   0  0  0  0  0  0  0  0  0  0  0  0
   71.4311   49.0799   52.7668 O   0  0  0  0  0  0  0  0  0  0  0  0
 20 21  2  0
 21 22  1  0
 21 14  1  0
 14 15  2  0
 14 19  1  0
 15 16  1  0
 16 17  2  0
 17 18  1  0
 18 13  1  0
 18 19  2  0
 13  1  1  0
  1  2  2  0
  1  6  1  0
  2  3  1  0
  3  4  2  0
  4  5  1  0
  5  7  1  0
  5  6  2  0
  7  8  2  0
  7 12  1  0
  8  9  1  0
  9 10  2  0
 10 11  1  0
 11 12  2  0
M  CHG  2  21   1  22  -1
M  END
>  <minimizedAffinity>  (17) 
-9.12864

$$$$
cs_full_output_folder/data/smiles/8902.pdb
     RDKit          3D

 22 24  0  0  0  0  0  0  0  0999 V2000
   68.9750   46.3083   56.6370 C   0  0  0  0  0  0  0  0  0  0  0  0
   69.6400   47.3474   57.2535 C   0  0  0  0  0  0  0  0  0  0  0  0
   70.7037   47.0433   58.0961 C   0  0  0  0  0  0  0  0  0  0  0  0
   71.0435   45.7429   58.2768 N   0  0  0  0  0  0  0  0  0  0  0  0
   70.3926   44.7317   57.6745 C   0  0  0  0  0  0  0  0  0  0  0  0
   69.3724   45.0394   56.8676 N   0  0  0  0  0  0  0  0  0  0  0  0
   70.8058   43.3306   57.9077 C   0  0  0  0  0  0  0  0  0  0  0  0
   72.1158   42.9698   57.9833 C   0  0  0  0  0  0  0  0  0  0  0  0
   72.4340   41.6490   58.2028 C   0  0  0  0  0  0  0  0  0  0  0  0
   71.4384   40.6864   58.3469 C   0  0  0  0  0  0  0  0  0  0  0  0
   70.1213   41.0704   58.2673 C   0  0  0  0  0  0  0  0  0  0  0  0
   69.8038   42.3933   58.0484 C   0  0  0  0  0  0  0  0  0  0  0  0
   67.9150   46.6298   55.7989 O   0  0  0  0  0  0  0  0  0  0  0  0
   69.2889   47.7760   52.5849 C   0  0  0  0  0  0  0  0  0  0  0  0
   68.7334   46.9028   51.6827 C   0  0  0  0  0  0  0  0  0  0  0  0
   67.8907   45.9271   52.1803 C   0  0  0  0  0  0  0  0  0  0  0  0
   67.6142   45.8261   53.5278 C   0  0  0  0  0  0  0  0  0  0  0  0
   68.1721   46.7023   54.4346 C   0  0  0  0  0  0  0  0  0  0  0  0
   69.0139   47.6777   53.9311 C   0  0  0  0  0  0  0  0  0  0  0  0
   69.8263   49.6523   51.0076 N   0  0  0  0  0  0  0  0  0  0  0  0
   70.1898   48.8303   52.1057 C   0  0  0  0  0  0  0  0  0  0  0  0
   71.2973   49.0206   52.6622 O   0  0  0  0  0  0  0  0  0  0  0  0
 20 21  1  0
 21 22  2  0
 21 14  1  0
 14 15  2  0
 14 19  1  0
 15 16  1  0
 16 17  2  0
 17 18  1  0
 18 13  1  0
 18 19  2  0
 13  1  1  0
  1  2  2  0
  1  6  1  0
  2  3  1  0
  3  4  2  0
  4  5  1  0
  5  7  1  0
  5  6  2  0
  7  8  2  0
  7 12  1  0
  8  9  1  0
  9 10  2  0
 10 11  1  0
 11 12  2  0
M  END
>  <minimizedAffinity>  (18) 
-9.12147

$$$$
cs_full_output_folder/data/smiles/12.pdb
     RDKit          3D

 21 23  0  0  0  0  0  0  0  0999 V2000
   70.3199   50.0640   54.9826 N   0  0  0  0  0  0  0  0  0  0  0  0
   70.3914   49.2285   53.9479 C   0  0  0  0  0  0  0  0  0  0  0  0
   71.6280   49.4430   53.3675 N   0  0  0  0  0  0  0  0  0  0  0  0
   72.2562   50.3718   54.0370 N   0  0  0  0  0  0  0  0  0  0  0  0
   71.4951   50.7865   55.0382 C   0  0  0  0  0  0  0  0  0  0  0  0
   71.7145   51.6457   55.9015 O   0  0  0  0  0  0  0  0  0  0  0  0
   69.5170   48.1987   53.4053 C   0  0  0  0  0  0  0  0  0  0  0  0
   68.7245   47.4926   54.3153 C   0  0  0  0  0  0  0  0  0  0  0  0
   67.9034   46.4826   53.9175 C   0  0  0  0  0  0  0  0  0  0  0  0
   67.8261   46.1151   52.5854 C   0  0  0  0  0  0  0  0  0  0  0  0
   66.9807   45.0812   52.2001 O   0  0  0  0  0  0  0  0  0  0  0  0
   68.5865   46.7825   51.6767 C   0  0  0  0  0  0  0  0  0  0  0  0
   69.4267   47.8215   52.1072 C   0  0  0  0  0  0  0  0  0  0  0  0
   70.1717   48.4447   51.1302 O   0  0  0  0  0  0  0  0  0  0  0  0
   68.4852   52.0955   54.5866 C   0  0  0  0  0  0  0  0  0  0  0  0
   68.3545   51.2095   55.7724 C   0  0  0  0  0  0  0  0  0  0  0  0
   67.3399   51.3901   56.7060 C   0  0  0  0  0  0  0  0  0  0  0  0
   67.2518   50.5455   57.7932 C   0  0  0  0  0  0  0  0  0  0  0  0
   68.1773   49.5236   57.9437 C   0  0  0  0  0  0  0  0  0  0  0  0
   69.1874   49.3353   57.0241 C   0  0  0  0  0  0  0  0  0  0  0  0
   69.2723   50.1931   55.9248 C   0  0  0  0  0  0  0  0  0  0  0  0
 15 16  1  0
 16 17  2  0
 16 21  1  0
 17 18  1  0
 18 19  2  0
 19 20  1  0
 20 21  2  0
 21  1  1  0
  1  2  1  0
  1  5  1  0
  2  7  1  0
  2  3  2  0
  7  8  2  0
  7 13  1  0
  8  9  1  0
  9 10  2  0
 10 11  1  0
 10 12  1  0
 12 13  2  0
 13 14  1  0
  3  4  1  0
  4  5  1  0
  5  6  2  0
M  END
>  <minimizedAffinity>  (19) 
-9.11401

$$$$
cs_full_output_folder/data/smiles/5259.pdb
     RDKit          3D

 22 24  0  0  0  0  0  0  0  0999 V2000
   68.8101   45.5291   56.3753 C   0  0  0  0  0  0  0  0  0  0  0  0
   69.8798   46.1249   56.9649 N   0  0  0  0  0  0  0  0  0  0  0  0
   70.7540   45.4387   57.7077 C   0  0  0  0  0  0  0  0  0  0  0  0
   70.5809   44.1176   57.8851 N   0  0  0  0  0  0  0  0  0  0  0  0
   69.5207   43.4837   57.3106 C   0  0  0  0  0  0  0  0  0  0  0  0
   68.6703   44.2084   56.5747 N   0  0  0  0  0  0  0  0  0  0  0  0
   69.3501   42.0588   57.5125 C   0  0  0  0  0  0  0  0  0  0  0  0
   68.2468   41.4064   57.0080 C   0  0  0  0  0  0  0  0  0  0  0  0
   68.0958   40.0353   57.2099 C   0  0  0  0  0  0  0  0  0  0  0  0
   69.0322   39.3053   57.9105 C   0  0  0  0  0  0  0  0  0  0  0  0
   70.1327   39.9659   58.4109 C   0  0  0  0  0  0  0  0  0  0  0  0
   70.2821   41.3336   58.2093 C   0  0  0  0  0  0  0  0  0  0  0  0
   67.9234   46.2727   55.6112 O   0  0  0  0  0  0  0  0  0  0  0  0
   69.2857   47.7199   52.4917 C   0  0  0  0  0  0  0  0  0  0  0  0
   68.7087   46.9268   51.5262 C   0  0  0  0  0  0  0  0  0  0  0  0
   67.8712   45.9173   51.9513 C   0  0  0  0  0  0  0  0  0  0  0  0
   67.6025   45.6896   53.2858 C   0  0  0  0  0  0  0  0  0  0  0  0
   68.1754   46.4795   54.2616 C   0  0  0  0  0  0  0  0  0  0  0  0
   69.0161   47.4918   53.8462 C   0  0  0  0  0  0  0  0  0  0  0  0
   71.2307   49.1762   52.9236 N   0  0  0  0  0  0  0  0  0  0  0  0
   70.1678   48.7856   52.0868 C   0  0  0  0  0  0  0  0  0  0  0  0
   69.9923   49.3634   50.9970 O   0  0  0  0  0  0  0  0  0  0  0  0
 20 21  1  0
 21 22  2  0
 21 14  1  0
 14 15  2  0
 14 19  1  0
 15 16  1  0
 16 17  2  0
 17 18  1  0
 18 13  1  0
 18 19  2  0
 13  1  1  0
  1  2  2  0
  1  6  1  0
  2  3  1  0
  3  4  2  0
  4  5  1  0
  5  7  1  0
  5  6  2  0
  7  8  2  0
  7 12  1  0
  8  9  1  0
  9 10  2  0
 10 11  1  0
 11 12  2  0
M  END
>  <minimizedAffinity>  (20) 
-9.11349

$$$$
cs_full_output_folder/data/smiles/701.pdb
     RDKit          3D

 21 23  0  0  0  0  0  0  0  0999 V2000
   69.6978   48.0368   54.7994 C   0  0  0  0  0  0  0  0  0  0  0  0
   70.6123   48.9805   54.4083 N   0  0  0  0  0  0  0  0  0  0  0  0
   70.8707   49.2271   53.1448 N   0  0  0  0  0  0  0  0  0  0  0  0
   70.2256   48.5426   52.2011 C   0  0  0  0  0  0  0  0  0  0  0  0
   70.4916   48.7993   50.9921 O   0  0  0  0  0  0  0  0  0  0  0  0
   69.2997   47.5883   52.5335 C   0  0  0  0  0  0  0  0  0  0  0  0
   68.6454   46.8901   51.5393 C   0  0  0  0  0  0  0  0  0  0  0  0
   67.7165   45.9298   51.8774 C   0  0  0  0  0  0  0  0  0  0  0  0
   67.4315   45.6557   53.1976 C   0  0  0  0  0  0  0  0  0  0  0  0
   68.0926   46.3585   54.2135 C   0  0  0  0  0  0  0  0  0  0  0  0
   69.0050   47.3033   53.8671 C   0  0  0  0  0  0  0  0  0  0  0  0
   69.4679   47.8131   56.2566 C   0  0  0  0  0  0  0  0  0  0  0  0
   68.1278   51.2891   57.0560 C   0  0  0  0  0  0  0  0  0  0  0  0
   66.9594   50.9675   57.7240 C   0  0  0  0  0  0  0  0  0  0  0  0
   66.6060   49.6560   57.9151 C   0  0  0  0  0  0  0  0  0  0  0  0
   67.4344   48.6499   57.4338 C   0  0  0  0  0  0  0  0  0  0  0  0
   68.6100   48.9380   56.7616 C   0  0  0  0  0  0  0  0  0  0  0  0
   68.9296   50.2658   56.5876 C   0  0  0  0  0  0  0  0  0  0  0  0
   68.4317   52.6429   56.8939 O   0  0  0  0  0  0  0  0  0  0  0  0
   68.7756   52.8764   54.6230 O   0  0  0  0  0  0  0  0  0  0  0  0
   69.2388   52.9718   55.8005 C   0  0  0  0  0  0  0  0  0  0  0  0
 20 21  2  0
 21 19  1  0
 19 13  1  0
 13 14  2  0
 13 18  1  0
 14 15  1  0
 15 16  2  0
 16 17  1  0
 17 12  1  0
 17 18  2  0
 12  1  1  0
  1  2  2  0
  1 11  1  0
  2  3  1  0
  3  4  1  0
  4  5  2  0
  4  6  1  0
  6  7  1  0
  6 11  2  0
  7  8  2  0
  8  9  1  0
  9 10  2  0
 10 11  1  0
M  END
>  <minimizedAffinity>  (21) 
-9.11040

$$$$
cs_full_output_folder/data/smiles/6.pdb
     RDKit          3D

 22 24  0  0  0  0  0  0  0  0999 V2000
   69.3382   47.5663   56.7760 C   0  0  0  0  0  0  0  0  0  0  0  0
   68.8030   46.8830   55.5609 C   0  0  0  0  0  0  0  0  0  0  0  0
   68.0745   45.7470   55.6928 N   0  0  0  0  0  0  0  0  0  0  0  0
   67.6177   45.0719   54.6662 N   0  0  0  0  0  0  0  0  0  0  0  0
   67.8491   45.4736   53.4087 C   0  0  0  0  0  0  0  0  0  0  0  0
   67.4285   44.8522   52.3989 O   0  0  0  0  0  0  0  0  0  0  0  0
   68.5896   46.6318   53.2173 C   0  0  0  0  0  0  0  0  0  0  0  0
   68.8453   47.0962   51.9357 C   0  0  0  0  0  0  0  0  0  0  0  0
   69.5688   48.2536   51.7413 C   0  0  0  0  0  0  0  0  0  0  0  0
   70.0339   48.9441   52.8411 C   0  0  0  0  0  0  0  0  0  0  0  0
   69.7988   48.5120   54.1204 C   0  0  0  0  0  0  0  0  0  0  0  0
   69.0743   47.3482   54.3178 C   0  0  0  0  0  0  0  0  0  0  0  0
   68.1657   51.1654   57.3377 C   0  0  0  0  0  0  0  0  0  0  0  0
   66.8860   50.9336   57.7907 C   0  0  0  0  0  0  0  0  0  0  0  0
   66.3940   49.6438   57.9298 C   0  0  0  0  0  0  0  0  0  0  0  0
   67.2173   48.5960   57.6024 C   0  0  0  0  0  0  0  0  0  0  0  0
   68.5297   48.7805   57.1351 C   0  0  0  0  0  0  0  0  0  0  0  0
   68.9471   50.0732   57.0233 C   0  0  0  0  0  0  0  0  0  0  0  0
   68.6296   52.4651   57.2085 O   0  0  0  0  0  0  0  0  0  0  0  0
   68.9156   52.4741   54.7044 C   0  0  0  0  0  0  0  0  0  0  0  0
   69.2398   52.9444   56.0700 C   0  0  0  0  0  0  0  0  0  0  0  0
   70.1161   53.8254   56.2128 O   0  0  0  0  0  0  0  0  0  0  0  0
 20 21  1  0
 21 22  2  0
 21 19  1  0
 19 13  1  0
 13 14  2  0
 13 18  1  0
 14 15  1  0
 15 16  2  0
 16 17  1  0
 17  1  1  0
 17 18  2  0
  1  2  1  0
  2  3  2  0
  2 12  1  0
  3  4  1  0
  4  5  1  0
  5  6  2  0
  5  7  1  0
  7  8  1  0
  7 12  2  0
  8  9  2  0
  9 10  1  0
 10 11  2  0
 11 12  1  0
M  END
>  <minimizedAffinity>  (22) 
-9.10757

$$$$
cs_full_output_folder/data/smiles/5262.pdb
     RDKit          3D

 22 23  0  0  0  0  0  0  0  0999 V2000
   68.9073   46.8567   57.4451 N   0  0  0  0  0  0  0  0  0  0  0  0
   68.4201   47.5407   56.5205 C   0  0  0  0  0  0  0  0  0  0  0  0
   68.5790   47.4292   55.0956 C   0  0  0  0  0  0  0  0  0  0  0  0
   67.8428   46.4539   54.4266 C   0  0  0  0  0  0  0  0  0  0  0  0
   67.9118   46.2573   53.0831 C   0  0  0  0  0  0  0  0  0  0  0  0
   68.7586   47.0692   52.3505 C   0  0  0  0  0  0  0  0  0  0  0  0
   68.8611   46.9033   50.9734 O   0  0  0  0  0  0  0  0  0  0  0  0
   69.5144   48.0511   52.9438 C   0  0  0  0  0  0  0  0  0  0  0  0
   69.4090   48.2158   54.3308 C   0  0  0  0  0  0  0  0  0  0  0  0
   70.3821   48.8807   52.1855 N   0  0  0  0  0  0  0  0  0  0  0  0
   71.5623   48.9784   52.5790 O   0  0  0  0  0  0  0  0  0  0  0  0
   69.9013   49.5293   51.0723 O   0  0  0  0  0  0  0  0  0  0  0  0
   70.7378   45.4419   58.3073 C   0  0  0  0  0  0  0  0  0  0  0  0
   70.7961   46.2150   59.3102 O   0  0  0  0  0  0  0  0  0  0  0  0
   69.7491   45.7844   57.3378 N   0  0  0  0  0  0  0  0  0  0  0  0
   71.4112   40.5529   58.4847 C   0  0  0  0  0  0  0  0  0  0  0  0
   71.9607   41.9232   58.3143 C   0  0  0  0  0  0  0  0  0  0  0  0
   73.3096   42.0666   58.0859 C   0  0  0  0  0  0  0  0  0  0  0  0
   73.8315   43.3402   57.9262 C   0  0  0  0  0  0  0  0  0  0  0  0
   72.9857   44.4583   57.9981 C   0  0  0  0  0  0  0  0  0  0  0  0
   71.6409   44.3199   58.2260 C   0  0  0  0  0  0  0  0  0  0  0  0
   71.1722   43.0283   58.3778 C   0  0  0  0  0  0  0  0  0  0  0  0
 16 17  1  0
 17 18  2  0
 17 22  1  0
 18 19  1  0
 19 20  2  0
 20 21  1  0
 21 13  1  0
 21 22  2  0
 13 14  2  0
 13 15  1  0
 15  1  1  0
  1  2  2  0
  2  3  1  0
  3  4  2  0
  3  9  1  0
  4  5  1  0
  5  6  2  0
  6  7  1  0
  6  8  1  0
  8 10  1  0
  8  9  2  0
 10 11  2  0
 10 12  1  0
M  CHG  2  10   1  12  -1
M  END
>  <minimizedAffinity>  (23) 
-9.10468

$$$$
cs_full_output_folder/data/smiles/4676.pdb
     RDKit          3D

 21 23  0  0  0  0  0  0  0  0999 V2000
   69.7182   48.1236   54.7996 C   0  0  0  0  0  0  0  0  0  0  0  0
   70.6235   49.0395   54.3764 N   0  0  0  0  0  0  0  0  0  0  0  0
   70.9131   49.2669   53.1143 N   0  0  0  0  0  0  0  0  0  0  0  0
   70.2818   48.5566   52.1711 C   0  0  0  0  0  0  0  0  0  0  0  0
   70.5160   48.7269   50.9287 O   0  0  0  0  0  0  0  0  0  0  0  0
   69.3453   47.6051   52.5003 C   0  0  0  0  0  0  0  0  0  0  0  0
   68.6738   46.8791   51.5453 C   0  0  0  0  0  0  0  0  0  0  0  0
   67.7253   45.9431   51.8916 C   0  0  0  0  0  0  0  0  0  0  0  0
   67.4353   45.7226   53.2172 C   0  0  0  0  0  0  0  0  0  0  0  0
   68.0938   46.4375   54.1989 C   0  0  0  0  0  0  0  0  0  0  0  0
   69.0554   47.3848   53.8572 C   0  0  0  0  0  0  0  0  0  0  0  0
   69.5157   47.9055   56.2506 C   0  0  0  0  0  0  0  0  0  0  0  0
   67.9769   51.1290   57.3023 C   0  0  0  0  0  0  0  0  0  0  0  0
   66.8014   50.7259   57.8982 C   0  0  0  0  0  0  0  0  0  0  0  0
   66.4535   49.3982   57.9840 C   0  0  0  0  0  0  0  0  0  0  0  0
   67.3341   48.4508   57.4444 C   0  0  0  0  0  0  0  0  0  0  0  0
   68.5106   48.8337   56.8471 C   0  0  0  0  0  0  0  0  0  0  0  0
   68.8333   50.1959   56.7773 C   0  0  0  0  0  0  0  0  0  0  0  0
   68.3276   52.4848   57.2155 O   0  0  0  0  0  0  0  0  0  0  0  0
   68.9305   52.7744   54.5788 N   0  0  0  0  0  0  0  0  0  0  0  0
   69.4116   53.0900   56.0491 S   0  0  0  0  0  0  0  0  0  0  0  0
 20 21  2  0
 21 19  1  0
 19 13  1  0
 13 14  2  0
 13 18  1  0
 14 15  1  0
 15 16  2  0
 16 17  1  0
 17 12  1  0
 17 18  2  0
 12  1  1  0
  1  2  2  0
  1 11  1  0
  2  3  1  0
  3  4  1  0
  4  5  2  0
  4  6  1  0
  6  7  1  0
  6 11  2  0
  7  8  2  0
  8  9  1  0
  9 10  2  0
 10 11  1  0
M  END
>  <minimizedAffinity>  (24) 
-9.09360

$$$$
cs_full_output_folder/data/smiles/5463.pdb
     RDKit          3D

 21 23  0  0  0  0  0  0  0  0999 V2000
   70.0968   49.0114   53.9756 C   0  0  0  0  0  0  0  0  0  0  0  0
   71.2574   49.2743   53.4178 O   0  0  0  0  0  0  0  0  0  0  0  0
   69.7200   49.8371   55.0287 N   0  0  0  0  0  0  0  0  0  0  0  0
   70.3017   51.1821   55.2638 C   0  0  0  0  0  0  0  0  0  0  0  0
   69.0240   51.9632   55.5763 C   0  0  0  0  0  0  0  0  0  0  0  0
   68.2920   50.9678   56.4311 C   0  0  0  0  0  0  0  0  0  0  0  0
   67.3496   51.1576   57.4331 C   0  0  0  0  0  0  0  0  0  0  0  0
   66.8560   50.0405   58.0743 C   0  0  0  0  0  0  0  0  0  0  0  0
   65.9274   50.1159   59.0720 F   0  0  0  0  0  0  0  0  0  0  0  0
   67.2966   48.7820   57.7199 C   0  0  0  0  0  0  0  0  0  0  0  0
   68.2304   48.6223   56.7247 C   0  0  0  0  0  0  0  0  0  0  0  0
   68.7541   49.7299   56.0496 C   0  0  0  0  0  0  0  0  0  0  0  0
   69.7581   48.8570   51.2513 N   0  0  0  0  0  0  0  0  0  0  0  0
   69.1448   47.8448   52.0547 C   0  0  0  0  0  0  0  0  0  0  0  0
   68.3947   46.8637   51.4446 C   0  0  0  0  0  0  0  0  0  0  0  0
   67.7956   45.8740   52.1911 C   0  0  0  0  0  0  0  0  0  0  0  0
   67.9718   45.9026   53.5524 C   0  0  0  0  0  0  0  0  0  0  0  0
   68.7394   46.9120   54.1569 C   0  0  0  0  0  0  0  0  0  0  0  0
   69.3446   47.9011   53.4393 C   0  0  0  0  0  0  0  0  0  0  0  0
   67.0356   44.8789   51.5663 O   0  0  0  0  0  0  0  0  0  0  0  0
   66.2754   45.1308   50.4963 O   0  0  0  0  0  0  0  0  0  0  0  0
 13 14  1  0
 14 15  2  0
 14 19  1  0
 15 16  1  0
 16 20  1  0
 16 17  2  0
 20 21  1  0
 17 18  1  0
 18 19  2  0
 19  1  1  0
  1  2  2  0
  1  3  1  0
  3  4  1  0
  3 12  1  0
  4  5  1  0
  5  6  1  0
  6  7  1  0
  6 12  2  0
  7  8  2  0
  8  9  1  0
  8 10  1  0
 10 11  2  0
 11 12  1  0
M  END
>  <minimizedAffinity>  (25) 
-9.08886

$$$$
cs_full_output_folder/data/smiles/4124.pdb
     RDKit          3D

 21 24  0  0  0  0  0  0  0  0999 V2000
   68.9264   46.2497   56.0417 C   0  0  0  0  0  0  0  0  0  0  0  0
   68.2807   45.0845   56.1890 N   0  0  0  0  0  0  0  0  0  0  0  0
   67.8052   44.6843   55.0486 N   0  0  0  0  0  0  0  0  0  0  0  0
   68.1010   45.5557   54.0649 C   0  0  0  0  0  0  0  0  0  0  0  0
   67.8507   45.6204   52.7120 C   0  0  0  0  0  0  0  0  0  0  0  0
   68.3329   46.7047   52.0046 C   0  0  0  0  0  0  0  0  0  0  0  0
   69.0505   47.7167   52.6072 C   0  0  0  0  0  0  0  0  0  0  0  0
   69.2850   47.6296   53.9610 C   0  0  0  0  0  0  0  0  0  0  0  0
   68.8227   46.5635   54.7071 C   0  0  0  0  0  0  0  0  0  0  0  0
   69.5806   48.8703   51.8887 C   0  0  0  0  0  0  0  0  0  0  0  0
   70.0936   49.5739   50.9520 N   0  0  0  0  0  0  0  0  0  0  0  0
   69.8106   50.2824   52.1011 N   0  0  0  0  0  0  0  0  0  0  0  0
   69.5848   47.0069   57.0790 C   0  0  0  0  0  0  0  0  0  0  0  0
   69.8959   48.4236   56.7794 C   0  0  0  0  0  0  0  0  0  0  0  0
   70.2645   51.2307   55.5532 S   0  0  0  0  0  0  0  0  0  0  0  0
   68.8629   50.6652   56.4995 C   0  0  0  0  0  0  0  0  0  0  0  0
   67.7740   51.4950   56.7709 C   0  0  0  0  0  0  0  0  0  0  0  0
   66.6898   51.0821   57.4985 C   0  0  0  0  0  0  0  0  0  0  0  0
   66.6538   49.7890   57.9972 C   0  0  0  0  0  0  0  0  0  0  0  0
   67.7208   48.9784   57.7314 C   0  0  0  0  0  0  0  0  0  0  0  0
   68.8305   49.3973   56.9871 C   0  0  0  0  0  0  0  0  0  0  0  0
 15 16  1  0
 16 17  2  0
 16 21  1  0
 17 18  1  0
 18 19  2  0
 19 20  1  0
 20 21  2  0
 21 14  1  0
 14 13  1  0
 13  1  1  0
  1  2  2  0
  1  9  1  0
  2  3  1  0
  3  4  1  0
  4  5  1  0
  4  9  2  0
  5  6  2  0
  6  7  1  0
  7 10  1  0
  7  8  2  0
 10 11  2  0
 10 12  1  0
 11 12  1  0
  8  9  1  0
M  CHG  1  11   1
M  END
>  <minimizedAffinity>  (26) 
-9.08109

$$$$
cs_full_output_folder/data/smiles/6454.pdb
     RDKit          3D

 21 23  0  0  0  0  0  0  0  0999 V2000
   70.6207   48.4892   50.8107 O   0  0  0  0  0  0  0  0  0  0  0  0
   70.3423   48.3767   52.0443 C   0  0  0  0  0  0  0  0  0  0  0  0
   70.9708   49.0628   52.9934 N   0  0  0  0  0  0  0  0  0  0  0  0
   70.6587   48.9222   54.2595 N   0  0  0  0  0  0  0  0  0  0  0  0
   69.6989   48.0938   54.7077 C   0  0  0  0  0  0  0  0  0  0  0  0
   69.0281   47.3647   53.7345 C   0  0  0  0  0  0  0  0  0  0  0  0
   68.0408   46.5067   54.1615 C   0  0  0  0  0  0  0  0  0  0  0  0
   67.3626   45.7739   53.2047 C   0  0  0  0  0  0  0  0  0  0  0  0
   67.6774   45.9089   51.8723 C   0  0  0  0  0  0  0  0  0  0  0  0
   68.6638   46.7635   51.4259 C   0  0  0  0  0  0  0  0  0  0  0  0
   69.3411   47.4983   52.4027 C   0  0  0  0  0  0  0  0  0  0  0  0
   69.3641   47.9527   56.1519 C   0  0  0  0  0  0  0  0  0  0  0  0
   68.6584   49.1873   56.5568 C   0  0  0  0  0  0  0  0  0  0  0  0
   67.6279   49.0957   57.4637 C   0  0  0  0  0  0  0  0  0  0  0  0
   66.9292   50.2377   57.8786 C   0  0  0  0  0  0  0  0  0  0  0  0
   67.2996   51.4798   57.3501 C   0  0  0  0  0  0  0  0  0  0  0  0
   68.3304   51.5807   56.4419 C   0  0  0  0  0  0  0  0  0  0  0  0
   68.9794   50.4175   56.0734 C   0  0  0  0  0  0  0  0  0  0  0  0
   68.6646   52.8593   55.9397 N   0  0  0  0  0  0  0  0  0  0  0  0
   69.0716   53.7360   56.7219 O   0  0  0  0  0  0  0  0  0  0  0  0
   68.5627   53.1883   54.6143 O   0  0  0  0  0  0  0  0  0  0  0  0
  1  2  2  0
  2  3  1  0
  2 11  1  0
  3  4  1  0
  4  5  2  0
  5 12  1  0
  5  6  1  0
 12 13  1  0
 13 14  2  0
 13 18  1  0
 14 15  1  0
 15 16  2  0
 16 17  1  0
 17 19  1  0
 17 18  2  0
 19 20  2  0
 19 21  1  0
  6  7  1  0
  6 11  2  0
  7  8  2  0
  8  9  1  0
  9 10  2  0
 10 11  1  0
M  CHG  2  19   1  21  -1
M  END
>  <minimizedAffinity>  (27) 
-9.07546

$$$$
cs_full_output_folder/data/smiles/9.pdb
     RDKit          3D

 21 22  0  0  0  0  0  0  0  0999 V2000
   68.8656   46.8063   54.8630 C   0  0  0  0  0  0  0  0  0  0  0  0
   68.0215   45.8780   54.2221 C   0  0  0  0  0  0  0  0  0  0  0  0
   67.8029   45.8862   52.8652 C   0  0  0  0  0  0  0  0  0  0  0  0
   66.9573   44.9500   52.2531 O   0  0  0  0  0  0  0  0  0  0  0  0
   68.4074   46.8156   52.0613 C   0  0  0  0  0  0  0  0  0  0  0  0
   68.2081   46.8535   50.6785 O   0  0  0  0  0  0  0  0  0  0  0  0
   69.2401   47.7453   52.6278 C   0  0  0  0  0  0  0  0  0  0  0  0
   69.4398   47.7098   54.0058 C   0  0  0  0  0  0  0  0  0  0  0  0
   69.8904   48.7247   51.8359 N   0  0  0  0  0  0  0  0  0  0  0  0
   70.6141   48.3726   50.9029 O   0  0  0  0  0  0  0  0  0  0  0  0
   69.7132   50.0416   52.1099 O   0  0  0  0  0  0  0  0  0  0  0  0
   69.0696   46.7491   56.2912 C   0  0  0  0  0  0  0  0  0  0  0  0
   69.0337   45.5185   56.7541 O   0  0  0  0  0  0  0  0  0  0  0  0
   69.2964   47.7578   57.2803 C   0  0  0  0  0  0  0  0  0  0  0  0
   70.4026   50.3300   56.4574 C   0  0  0  0  0  0  0  0  0  0  0  0
   69.0030   50.2237   56.9506 C   0  0  0  0  0  0  0  0  0  0  0  0
   68.1981   51.3248   57.0477 C   0  0  0  0  0  0  0  0  0  0  0  0
   66.8937   51.2670   57.5037 C   0  0  0  0  0  0  0  0  0  0  0  0
   66.4174   50.0219   57.8669 C   0  0  0  0  0  0  0  0  0  0  0  0
   67.2108   48.9109   57.7747 C   0  0  0  0  0  0  0  0  0  0  0  0
   68.5202   48.9883   57.3136 C   0  0  0  0  0  0  0  0  0  0  0  0
 15 16  1  0
 16 17  2  0
 16 21  1  0
 17 18  1  0
 18 19  2  0
 19 20  1  0
 20 21  2  0
 21 14  1  0
 14 12  1  0
 12 13  2  0
 12  1  1  0
  1  2  2  0
  1  8  1  0
  2  3  1  0
  3  4  1  0
  3  5  2  0
  5  6  1  0
  5  7  1  0
  7  9  1  0
  7  8  2  0
  9 10  2  0
  9 11  1  0
M  CHG  2   9   1  11  -1
M  END
>  <minimizedAffinity>  (28) 
-9.07515

$$$$
cs_full_output_folder/data/smiles/7068.pdb
     RDKit          3D

 20 22  0  0  0  0  0  0  0  0999 V2000
   70.1484   48.9066   53.9628 C   0  0  0  0  0  0  0  0  0  0  0  0
   71.3047   49.1638   53.2824 N   0  0  0  0  0  0  0  0  0  0  0  0
   71.8850   50.1981   53.8353 N   0  0  0  0  0  0  0  0  0  0  0  0
   71.1194   50.6119   54.8648 C   0  0  0  0  0  0  0  0  0  0  0  0
   69.9891   49.7962   54.9733 C   0  0  0  0  0  0  0  0  0  0  0  0
   66.8830   44.6782   52.1682 O   0  0  0  0  0  0  0  0  0  0  0  0
   67.6776   45.7067   52.6502 C   0  0  0  0  0  0  0  0  0  0  0  0
   68.0225   45.8455   53.9838 C   0  0  0  0  0  0  0  0  0  0  0  0
   68.8098   46.8646   54.4580 C   0  0  0  0  0  0  0  0  0  0  0  0
   69.2923   47.8065   53.5794 C   0  0  0  0  0  0  0  0  0  0  0  0
   68.9696   47.7007   52.2434 C   0  0  0  0  0  0  0  0  0  0  0  0
   69.4518   48.6544   51.3165 O   0  0  0  0  0  0  0  0  0  0  0  0
   68.1783   46.6681   51.7944 C   0  0  0  0  0  0  0  0  0  0  0  0
   67.8391   46.5409   50.4496 O   0  0  0  0  0  0  0  0  0  0  0  0
   68.9623   49.9697   55.9613 C   0  0  0  0  0  0  0  0  0  0  0  0
   68.5070   49.0027   56.8044 C   0  0  0  0  0  0  0  0  0  0  0  0
   67.5239   49.2154   57.7421 C   0  0  0  0  0  0  0  0  0  0  0  0
   66.9590   50.4595   57.8482 C   0  0  0  0  0  0  0  0  0  0  0  0
   67.3770   51.4910   57.0181 C   0  0  0  0  0  0  0  0  0  0  0  0
   68.3642   51.2311   56.0959 C   0  0  0  0  0  0  0  0  0  0  0  0
  6  7  1  0
  7  8  2  0
  7 13  1  0
  8  9  1  0
  9 10  2  0
 10  1  1  0
 10 11  1  0
  1  2  1  0
  1  5  2  0
  2  3  1  0
  3  4  2  0
  4  5  1  0
  5 15  1  0
 15 16  2  0
 15 20  1  0
 16 17  1  0
 17 18  2  0
 18 19  1  0
 19 20  2  0
 11 12  1  0
 11 13  2  0
 13 14  1  0
M  END
>  <minimizedAffinity>  (29) 
-9.07147

$$$$
cs_full_output_folder/data/smiles/249.pdb
     RDKit          3D

 22 24  0  0  0  0  0  0  0  0999 V2000
   69.0851   45.5203   56.6916 C   0  0  0  0  0  0  0  0  0  0  0  0
   70.1952   46.0480   57.2790 C   0  0  0  0  0  0  0  0  0  0  0  0
   71.0737   45.2391   57.9998 C   0  0  0  0  0  0  0  0  0  0  0  0
   70.8071   43.9322   58.1046 N   0  0  0  0  0  0  0  0  0  0  0  0
   69.7108   43.4161   57.5239 C   0  0  0  0  0  0  0  0  0  0  0  0
   68.8705   44.1988   56.8323 N   0  0  0  0  0  0  0  0  0  0  0  0
   69.4339   41.9772   57.6497 C   0  0  0  0  0  0  0  0  0  0  0  0
   70.3002   41.1385   58.2996 C   0  0  0  0  0  0  0  0  0  0  0  0
   70.0182   39.8001   58.4032 C   0  0  0  0  0  0  0  0  0  0  0  0
   68.8677   39.2653   57.8618 C   0  0  0  0  0  0  0  0  0  0  0  0
   68.0114   40.1078   57.2163 C   0  0  0  0  0  0  0  0  0  0  0  0
   68.2806   41.4558   57.1041 C   0  0  0  0  0  0  0  0  0  0  0  0
   68.2123   46.3263   55.9748 O   0  0  0  0  0  0  0  0  0  0  0  0
   69.3334   47.6816   52.7273 C   0  0  0  0  0  0  0  0  0  0  0  0
   68.6850   46.8549   51.8346 C   0  0  0  0  0  0  0  0  0  0  0  0
   67.8747   45.8479   52.3403 C   0  0  0  0  0  0  0  0  0  0  0  0
   67.7192   45.6725   53.7051 C   0  0  0  0  0  0  0  0  0  0  0  0
   68.3643   46.4955   54.6049 C   0  0  0  0  0  0  0  0  0  0  0  0
   69.1710   47.4998   54.0741 C   0  0  0  0  0  0  0  0  0  0  0  0
   71.2056   49.2564   53.0100 N   0  0  0  0  0  0  0  0  0  0  0  0
   70.1836   48.7391   52.1919 C   0  0  0  0  0  0  0  0  0  0  0  0
   70.0415   49.2049   51.0384 O   0  0  0  0  0  0  0  0  0  0  0  0
 20 21  1  0
 21 22  2  0
 21 14  1  0
 14 15  2  0
 14 19  1  0
 15 16  1  0
 16 17  2  0
 17 18  1  0
 18 13  1  0
 18 19  2  0
 13  1  1  0
  1  2  2  0
  1  6  1  0
  2  3  1  0
  3  4  2  0
  4  5  1  0
  5  7  1  0
  5  6  2  0
  7  8  2  0
  7 12  1  0
  8  9  1  0
  9 10  2  0
 10 11  1  0
 11 12  2  0
M  END
>  <minimizedAffinity>  (30) 
-9.07075

$$$$
cs_full_output_folder/data/smiles/5124.pdb
     RDKit          3D

 20 22  0  0  0  0  0  0  0  0999 V2000
   69.7188   48.0872   54.8532 C   0  0  0  0  0  0  0  0  0  0  0  0
   70.6402   49.0017   54.4224 N   0  0  0  0  0  0  0  0  0  0  0  0
   70.8987   49.2313   53.1582 N   0  0  0  0  0  0  0  0  0  0  0  0
   70.2563   48.5609   52.1713 C   0  0  0  0  0  0  0  0  0  0  0  0
   70.4808   48.7595   50.9477 O   0  0  0  0  0  0  0  0  0  0  0  0
   69.3135   47.6197   52.5111 C   0  0  0  0  0  0  0  0  0  0  0  0
   68.6274   46.8824   51.5723 C   0  0  0  0  0  0  0  0  0  0  0  0
   67.6879   45.9172   51.9058 C   0  0  0  0  0  0  0  0  0  0  0  0
   67.4548   45.7118   53.2464 C   0  0  0  0  0  0  0  0  0  0  0  0
   68.1520   46.4629   54.2012 C   0  0  0  0  0  0  0  0  0  0  0  0
   69.0683   47.4059   53.8533 C   0  0  0  0  0  0  0  0  0  0  0  0
   69.4878   47.9895   56.2839 C   0  0  0  0  0  0  0  0  0  0  0  0
   68.0766   51.4425   56.8407 C   0  0  0  0  0  0  0  0  0  0  0  0
   66.9591   51.1516   57.5905 C   0  0  0  0  0  0  0  0  0  0  0  0
   66.6130   49.8751   57.9496 C   0  0  0  0  0  0  0  0  0  0  0  0
   67.4391   48.8250   57.5306 C   0  0  0  0  0  0  0  0  0  0  0  0
   68.5557   49.0681   56.7846 C   0  0  0  0  0  0  0  0  0  0  0  0
   68.8514   50.3851   56.4539 C   0  0  0  0  0  0  0  0  0  0  0  0
   69.7400   52.9417   55.9540 C   0  0  0  0  0  0  0  0  0  0  0  0
   68.4295   52.7327   56.4775 O   0  0  0  0  0  0  0  0  0  0  0  0
 19 20  1  0
 20 13  1  0
 13 14  2  0
 13 18  1  0
 14 15  1  0
 15 16  2  0
 16 17  1  0
 17 12  1  0
 17 18  2  0
 12  1  1  0
  1  2  2  0
  1 11  1  0
  2  3  1  0
  3  4  1  0
  4  5  2  0
  4  6  1  0
  6  7  1  0
  6 11  2  0
  7  8  2  0
  8  9  1  0
  9 10  2  0
 10 11  1  0
M  END
>  <minimizedAffinity>  (31) 
-9.05759

$$$$
cs_full_output_folder/data/smiles/5121.pdb
     RDKit          3D

 22 24  0  0  0  0  0  0  0  0999 V2000
   68.7543   45.1333   56.2155 C   0  0  0  0  0  0  0  0  0  0  0  0
   69.7322   45.8785   56.8887 C   0  0  0  0  0  0  0  0  0  0  0  0
   70.5857   45.2866   57.7937 C   0  0  0  0  0  0  0  0  0  0  0  0
   70.4463   43.9601   58.0075 N   0  0  0  0  0  0  0  0  0  0  0  0
   69.5169   43.2239   57.3733 C   0  0  0  0  0  0  0  0  0  0  0  0
   68.7123   43.8357   56.5075 N   0  0  0  0  0  0  0  0  0  0  0  0
   69.4234   41.7816   57.6566 C   0  0  0  0  0  0  0  0  0  0  0  0
   70.4789   41.1263   58.2574 C   0  0  0  0  0  0  0  0  0  0  0  0
   70.4476   39.7748   58.5474 C   0  0  0  0  0  0  0  0  0  0  0  0
   69.3087   39.0758   58.2131 C   0  0  0  0  0  0  0  0  0  0  0  0
   68.2532   39.7070   57.6177 C   0  0  0  0  0  0  0  0  0  0  0  0
   68.3193   41.0496   57.3444 C   0  0  0  0  0  0  0  0  0  0  0  0
   67.9684   45.8293   55.3438 O   0  0  0  0  0  0  0  0  0  0  0  0
   69.2355   47.6563   52.4079 C   0  0  0  0  0  0  0  0  0  0  0  0
   68.5731   46.9193   51.4495 C   0  0  0  0  0  0  0  0  0  0  0  0
   67.7659   45.8922   51.7669 N   0  0  0  0  0  0  0  0  0  0  0  0
   67.5689   45.5360   53.0461 C   0  0  0  0  0  0  0  0  0  0  0  0
   68.2101   46.2401   54.0739 C   0  0  0  0  0  0  0  0  0  0  0  0
   69.0336   47.2902   53.7311 C   0  0  0  0  0  0  0  0  0  0  0  0
   71.2035   49.0775   52.9048 N   0  0  0  0  0  0  0  0  0  0  0  0
   70.1088   48.7677   52.0577 C   0  0  0  0  0  0  0  0  0  0  0  0
   69.9362   49.4698   51.0339 O   0  0  0  0  0  0  0  0  0  0  0  0
 20 21  1  0
 21 22  2  0
 21 14  1  0
 14 15  2  0
 14 19  1  0
 15 16  1  0
 16 17  2  0
 17 18  1  0
 18 13  1  0
 18 19  2  0
 13  1  1  0
  1  2  2  0
  1  6  1  0
  2  3  1  0
  3  4  2  0
  4  5  1  0
  5  7  1  0
  5  6  2  0
  7  8  2  0
  7 12  1  0
  8  9  1  0
  9 10  2  0
 10 11  1  0
 11 12  2  0
M  END
>  <minimizedAffinity>  (32) 
-9.05710

$$$$
cs_full_output_folder/data/smiles/4.pdb
     RDKit          3D

 20 22  0  0  0  0  0  0  0  0999 V2000
   66.6728   44.8458   50.8727 O   0  0  0  0  0  0  0  0  0  0  0  0
   67.3248   45.6686   51.6000 C   0  0  0  0  0  0  0  0  0  0  0  0
   68.1378   46.5771   51.0615 N   0  0  0  0  0  0  0  0  0  0  0  0
   68.8377   47.4584   51.8281 C   0  0  0  0  0  0  0  0  0  0  0  0
   69.5878   48.2995   51.3173 O   0  0  0  0  0  0  0  0  0  0  0  0
   68.7090   47.4166   53.1864 C   0  0  0  0  0  0  0  0  0  0  0  0
   69.4041   48.2975   53.9869 C   0  0  0  0  0  0  0  0  0  0  0  0
   69.1602   48.1338   55.3597 C   0  0  0  0  0  0  0  0  0  0  0  0
   68.3061   47.1775   55.8472 C   0  0  0  0  0  0  0  0  0  0  0  0
   68.1015   47.0466   57.0886 O   0  0  0  0  0  0  0  0  0  0  0  0
   67.6914   46.3851   55.0248 O   0  0  0  0  0  0  0  0  0  0  0  0
   67.8519   46.4602   53.7317 C   0  0  0  0  0  0  0  0  0  0  0  0
   67.1944   45.6250   52.9269 N   0  0  0  0  0  0  0  0  0  0  0  0
   70.3676   49.2905   53.5092 C   0  0  0  0  0  0  0  0  0  0  0  0
   69.7888   50.6750   53.3056 C   0  0  0  0  0  0  0  0  0  0  0  0
   69.9757   51.4986   54.6040 C   0  0  0  0  0  0  0  0  0  0  0  0
   68.5940   52.0082   55.0122 C   0  0  0  0  0  0  0  0  0  0  0  0
   68.5065   52.0677   56.5265 C   0  0  0  0  0  0  0  0  0  0  0  0
   69.2594   51.0850   57.3523 C   0  0  0  0  0  0  0  0  0  0  0  0
   67.7246   51.0864   57.2899 C   0  0  0  0  0  0  0  0  0  0  0  0
  1  2  2  0
  2  3  1  0
  2 13  1  0
  3  4  1  0
  4  5  2  0
  4  6  1  0
  6  7  1  0
  6 12  2  0
  7 14  1  0
  7  8  2  0
 14 15  1  0
 15 16  1  0
 16 17  1  0
 17 18  1  0
 18 19  1  0
 18 20  1  0
 19 20  1  0
  8  9  1  0
  9 10  2  0
  9 11  1  0
 11 12  1  0
 12 13  1  0
M  END
>  <minimizedAffinity>  (33) 
-9.05264

$$$$
cs_full_output_folder/data/smiles/712.pdb
     RDKit          3D

 21 24  0  0  0  0  0  0  0  0999 V2000
   70.1098   49.4270   53.3967 C   0  0  0  0  0  0  0  0  0  0  0  0
   70.1170   49.8975   52.1364 N   0  0  0  0  0  0  0  0  0  0  0  0
   69.5432   49.0395   51.3294 N   0  0  0  0  0  0  0  0  0  0  0  0
   69.1276   47.9610   52.0121 C   0  0  0  0  0  0  0  0  0  0  0  0
   68.4712   46.7812   51.6457 C   0  0  0  0  0  0  0  0  0  0  0  0
   68.1722   45.8363   52.6048 C   0  0  0  0  0  0  0  0  0  0  0  0
   68.5162   46.0564   53.8989 C   0  0  0  0  0  0  0  0  0  0  0  0
   69.1641   47.2253   54.2518 C   0  0  0  0  0  0  0  0  0  0  0  0
   69.4810   48.1953   53.3230 C   0  0  0  0  0  0  0  0  0  0  0  0
   68.2018   45.0629   54.9138 C   0  0  0  0  0  0  0  0  0  0  0  0
   68.4993   44.8914   56.2054 N   0  0  0  0  0  0  0  0  0  0  0  0
   67.8126   43.7819   56.2803 N   0  0  0  0  0  0  0  0  0  0  0  0
   67.5008   43.9196   55.0115 N   0  0  0  0  0  0  0  0  0  0  0  0
   70.6578   50.0795   54.6256 C   0  0  0  0  0  0  0  0  0  0  0  0
   69.7807   51.2265   55.0689 C   0  0  0  0  0  0  0  0  0  0  0  0
   66.9320   49.8081   57.9718 C   0  0  0  0  0  0  0  0  0  0  0  0
   68.0012   49.0322   57.5689 C   0  0  0  0  0  0  0  0  0  0  0  0
   68.8897   49.5217   56.6382 C   0  0  0  0  0  0  0  0  0  0  0  0
   68.7662   50.7860   56.0685 C   0  0  0  0  0  0  0  0  0  0  0  0
   67.7141   51.5378   56.4723 C   0  0  0  0  0  0  0  0  0  0  0  0
   66.8145   51.0731   57.3979 C   0  0  0  0  0  0  0  0  0  0  0  0
 16 17  2  0
 16 21  1  0
 17 18  1  0
 18 19  2  0
 19 15  1  0
 19 20  1  0
 15 14  1  0
 14  1  1  0
  1  2  2  0
  1  9  1  0
  2  3  1  0
  3  4  1  0
  4  5  1  0
  4  9  2  0
  5  6  2  0
  6  7  1  0
  7 10  1  0
  7  8  2  0
 10 11  2  0
 10 13  1  0
 11 12  1  0
 12 13  1  0
  8  9  1  0
 20 21  2  0
M  END
>  <minimizedAffinity>  (34) 
-9.04870

$$$$
cs_full_output_folder/data/smiles/9114.pdb
     RDKit          3D

 21 23  0  0  0  0  0  0  0  0999 V2000
   69.7395   48.0415   54.9097 C   0  0  0  0  0  0  0  0  0  0  0  0
   70.6531   48.9746   54.4932 N   0  0  0  0  0  0  0  0  0  0  0  0
   70.8805   49.2259   53.2171 N   0  0  0  0  0  0  0  0  0  0  0  0
   70.2365   48.5885   52.2350 C   0  0  0  0  0  0  0  0  0  0  0  0
   70.4425   48.8176   51.0206 O   0  0  0  0  0  0  0  0  0  0  0  0
   69.2905   47.6229   52.5602 C   0  0  0  0  0  0  0  0  0  0  0  0
   68.6099   46.9278   51.5926 C   0  0  0  0  0  0  0  0  0  0  0  0
   67.6858   45.9575   51.9358 C   0  0  0  0  0  0  0  0  0  0  0  0
   67.4873   45.7298   53.2715 C   0  0  0  0  0  0  0  0  0  0  0  0
   68.1575   46.4150   54.2672 C   0  0  0  0  0  0  0  0  0  0  0  0
   69.0743   47.3818   53.9118 C   0  0  0  0  0  0  0  0  0  0  0  0
   69.5230   47.9212   56.3566 C   0  0  0  0  0  0  0  0  0  0  0  0
   68.1909   51.4595   56.8566 C   0  0  0  0  0  0  0  0  0  0  0  0
   67.0362   51.1969   57.5526 C   0  0  0  0  0  0  0  0  0  0  0  0
   66.6917   49.8916   57.8621 C   0  0  0  0  0  0  0  0  0  0  0  0
   67.4961   48.8522   57.4788 C   0  0  0  0  0  0  0  0  0  0  0  0
   68.6704   49.0844   56.7728 C   0  0  0  0  0  0  0  0  0  0  0  0
   68.9959   50.3730   56.4744 C   0  0  0  0  0  0  0  0  0  0  0  0
   70.8584   53.2589   55.7154 O   0  0  0  0  0  0  0  0  0  0  0  0
   69.6739   53.0955   56.0300 C   0  0  0  0  0  0  0  0  0  0  0  0
   68.5457   52.7943   56.5366 N   0  0  0  0  0  0  0  0  0  0  0  0
 19 20  2  0
 20 21  2  0
 21 13  1  0
 13 14  2  0
 13 18  1  0
 14 15  1  0
 15 16  2  0
 16 17  1  0
 17 12  1  0
 17 18  2  0
 12  1  1  0
  1  2  2  0
  1 11  1  0
  2  3  1  0
  3  4  1  0
  4  5  2  0
  4  6  1  0
  6  7  1  0
  6 11  2  0
  7  8  2  0
  8  9  1  0
  9 10  2  0
 10 11  1  0
M  END
>  <minimizedAffinity>  (35) 
-9.04669

$$$$
cs_full_output_folder/data/smiles/5831.pdb
     RDKit          3D

 20 23  0  0  0  0  0  0  0  0999 V2000
   68.9149   46.2055   56.0684 C   0  0  0  0  0  0  0  0  0  0  0  0
   68.3002   45.0199   56.1753 N   0  0  0  0  0  0  0  0  0  0  0  0
   67.8385   44.6500   55.0002 N   0  0  0  0  0  0  0  0  0  0  0  0
   68.1194   45.5601   54.0671 C   0  0  0  0  0  0  0  0  0  0  0  0
   67.8922   45.6925   52.7314 C   0  0  0  0  0  0  0  0  0  0  0  0
   68.3277   46.7918   52.0335 C   0  0  0  0  0  0  0  0  0  0  0  0
   69.0240   47.8209   52.6632 C   0  0  0  0  0  0  0  0  0  0  0  0
   69.2387   47.6533   54.0281 C   0  0  0  0  0  0  0  0  0  0  0  0
   68.8145   46.5670   54.7483 C   0  0  0  0  0  0  0  0  0  0  0  0
   69.4926   48.9813   51.9611 C   0  0  0  0  0  0  0  0  0  0  0  0
   70.0157   50.2310   52.2241 N   0  0  0  0  0  0  0  0  0  0  0  0
   69.8321   49.8462   50.8965 N   0  0  0  0  0  0  0  0  0  0  0  0
   69.5392   46.9248   57.1370 C   0  0  0  0  0  0  0  0  0  0  0  0
   69.8713   48.3573   56.9264 C   0  0  0  0  0  0  0  0  0  0  0  0
   66.6908   51.1218   57.4854 C   0  0  0  0  0  0  0  0  0  0  0  0
   66.6032   49.8420   57.9629 C   0  0  0  0  0  0  0  0  0  0  0  0
   67.6147   48.9270   57.7971 C   0  0  0  0  0  0  0  0  0  0  0  0
   68.7550   49.2800   57.1393 C   0  0  0  0  0  0  0  0  0  0  0  0
   68.8529   50.5667   56.6548 C   0  0  0  0  0  0  0  0  0  0  0  0
   67.8354   51.5009   56.8166 C   0  0  0  0  0  0  0  0  0  0  0  0
 15 16  2  0
 15 20  1  0
 16 17  1  0
 17 18  2  0
 18 14  1  0
 18 19  1  0
 14 13  1  0
 13  1  1  0
  1  2  2  0
  1  9  1  0
  2  3  1  0
  3  4  1  0
  4  5  1  0
  4  9  2  0
  5  6  2  0
  6  7  1  0
  7 10  1  0
  7  8  2  0
 10 11  2  0
 10 12  1  0
 11 12  1  0
  8  9  1  0
 19 20  2  0
M  CHG  1  11   1
M  END
>  <minimizedAffinity>  (36) 
-9.04475

$$$$
cs_full_output_folder/data/smiles/1404.pdb
     RDKit          3D

 22 24  0  0  0  0  0  0  0  0999 V2000
   71.4985   51.6406   54.7226 C   0  0  0  0  0  0  0  0  0  0  0  0
   71.1312   52.8165   55.4220 C   0  0  0  0  0  0  0  0  0  0  0  0
   69.8203   53.1267   55.5799 C   0  0  0  0  0  0  0  0  0  0  0  0
   68.8245   52.3164   55.0716 C   0  0  0  0  0  0  0  0  0  0  0  0
   69.1690   51.1860   54.3972 C   0  0  0  0  0  0  0  0  0  0  0  0
   70.5312   50.8412   54.2171 C   0  0  0  0  0  0  0  0  0  0  0  0
   73.6221   51.6800   53.7090 O   0  0  0  0  0  0  0  0  0  0  0  0
   72.9069   51.2959   54.6439 C   0  0  0  0  0  0  0  0  0  0  0  0
   73.5827   50.5008   55.6163 N   0  0  0  0  0  0  0  0  0  0  0  0
   74.9878   50.1865   55.4869 C   0  0  0  0  0  0  0  0  0  0  0  0
   75.5654   49.3920   54.5838 N   0  0  0  0  0  0  0  0  0  0  0  0
   76.8678   49.3711   54.8091 N   0  0  0  0  0  0  0  0  0  0  0  0
   77.1658   50.1541   55.8674 C   0  0  0  0  0  0  0  0  0  0  0  0
   75.9789   50.6496   56.2721 N   0  0  0  0  0  0  0  0  0  0  0  0
   70.7183   49.6677   53.4884 N   0  0  0  0  0  0  0  0  0  0  0  0
   69.9080   48.5640   53.2728 C   0  0  0  0  0  0  0  0  0  0  0  0
   69.1914   47.9416   54.2493 C   0  0  0  0  0  0  0  0  0  0  0  0
   68.3836   46.8293   54.0054 C   0  0  0  0  0  0  0  0  0  0  0  0
   68.3325   46.3675   52.7087 C   0  0  0  0  0  0  0  0  0  0  0  0
   69.0542   46.9839   51.6935 C   0  0  0  0  0  0  0  0  0  0  0  0
   69.8436   48.0806   51.9610 C   0  0  0  0  0  0  0  0  0  0  0  0
   70.5463   48.6635   50.9159 O   0  0  0  0  0  0  0  0  0  0  0  0
  7  8  2  0
  8  9  1  0
  8  1  1  0
  9 10  1  0
 10 11  2  0
 10 14  1  0
 11 12  1  0
 12 13  2  0
 13 14  1  0
  1  2  2  0
  1  6  1  0
  2  3  1  0
  3  4  2  0
  4  5  1  0
  5  6  2  0
  6 15  1  0
 15 16  1  0
 16 17  2  0
 16 21  1  0
 17 18  1  0
 18 19  2  0
 19 20  1  0
 20 21  2  0
 21 22  1  0
M  END
>  <minimizedAffinity>  (37) 
-9.04356

$$$$
cs_full_output_folder/data/smiles/8.pdb
     RDKit          3D

 22 24  0  0  0  0  0  0  0  0999 V2000
   66.6862   44.8799   50.8963 O   0  0  0  0  0  0  0  0  0  0  0  0
   67.3359   45.6825   51.6354 C   0  0  0  0  0  0  0  0  0  0  0  0
   68.1742   46.5760   51.0690 N   0  0  0  0  0  0  0  0  0  0  0  0
   68.8777   47.4404   51.8265 C   0  0  0  0  0  0  0  0  0  0  0  0
   69.6482   48.2663   51.2991 O   0  0  0  0  0  0  0  0  0  0  0  0
   68.7208   47.3897   53.1963 C   0  0  0  0  0  0  0  0  0  0  0  0
   69.3955   48.2391   54.0842 C   0  0  0  0  0  0  0  0  0  0  0  0
   69.1894   48.1452   55.4393 C   0  0  0  0  0  0  0  0  0  0  0  0
   68.3135   47.2006   55.9048 C   0  0  0  0  0  0  0  0  0  0  0  0
   68.1226   47.1116   57.1662 O   0  0  0  0  0  0  0  0  0  0  0  0
   67.6789   46.4010   55.0912 O   0  0  0  0  0  0  0  0  0  0  0  0
   67.8576   46.4727   53.7858 C   0  0  0  0  0  0  0  0  0  0  0  0
   67.1789   45.6302   52.9653 N   0  0  0  0  0  0  0  0  0  0  0  0
   70.3290   49.2176   53.4803 C   0  0  0  0  0  0  0  0  0  0  0  0
   69.7549   50.6066   53.2939 C   0  0  0  0  0  0  0  0  0  0  0  0
   70.2139   51.6444   54.2441 C   0  0  0  0  0  0  0  0  0  0  0  0
   69.6077   51.4644   55.6085 C   0  0  0  0  0  0  0  0  0  0  0  0
   70.4349   51.1905   56.6562 C   0  0  0  0  0  0  0  0  0  0  0  0
   69.9400   51.0026   57.9273 C   0  0  0  0  0  0  0  0  0  0  0  0
   68.5604   51.1008   58.1164 C   0  0  0  0  0  0  0  0  0  0  0  0
   67.7381   51.3766   57.0552 C   0  0  0  0  0  0  0  0  0  0  0  0
   68.2591   51.5605   55.7957 C   0  0  0  0  0  0  0  0  0  0  0  0
  1  2  2  0
  2  3  1  0
  2 13  1  0
  3  4  1  0
  4  5  2  0
  4  6  1  0
  6  7  1  0
  6 12  2  0
  7 14  1  0
  7  8  2  0
 14 15  1  0
 15 16  1  0
 16 17  1  0
 17 18  2  0
 17 22  1  0
 18 19  1  0
 19 20  2  0
 20 21  1  0
 21 22  2  0
  8  9  1  0
  9 10  2  0
  9 11  1  0
 11 12  1  0
 12 13  1  0
M  END
>  <minimizedAffinity>  (38) 
-9.04300

$$$$
cs_full_output_folder/data/smiles/2308.pdb
     RDKit          3D

 22 25  0  0  0  0  0  0  0  0999 V2000
   69.8904   50.3240   53.2324 C   0  0  0  0  0  0  0  0  0  0  0  0
   69.9568   50.7312   51.9576 N   0  0  0  0  0  0  0  0  0  0  0  0
   69.6036   49.7450   51.1557 N   0  0  0  0  0  0  0  0  0  0  0  0
   69.2904   48.6529   51.8721 C   0  0  0  0  0  0  0  0  0  0  0  0
   68.8679   47.3714   51.5593 C   0  0  0  0  0  0  0  0  0  0  0  0
   68.6200   46.4371   52.5686 C   0  0  0  0  0  0  0  0  0  0  0  0
   68.7963   46.7861   53.8888 C   0  0  0  0  0  0  0  0  0  0  0  0
   69.2175   48.0617   54.1880 C   0  0  0  0  0  0  0  0  0  0  0  0
   69.4719   49.0136   53.2036 C   0  0  0  0  0  0  0  0  0  0  0  0
   68.5381   45.8093   54.9363 C   0  0  0  0  0  0  0  0  0  0  0  0
   68.0060   44.5865   54.9891 N   0  0  0  0  0  0  0  0  0  0  0  0
   68.1859   44.5031   56.2933 N   0  0  0  0  0  0  0  0  0  0  0  0
   68.7154   45.7109   56.2620 N   0  0  0  0  0  0  0  0  0  0  0  0
   70.2091   51.1376   54.4301 C   0  0  0  0  0  0  0  0  0  0  0  0
   69.0795   52.0143   54.8342 C   0  0  0  0  0  0  0  0  0  0  0  0
   68.8275   52.1566   56.2886 C   0  0  0  0  0  0  0  0  0  0  0  0
   66.6132   49.0978   58.0734 C   0  0  0  0  0  0  0  0  0  0  0  0
   67.8826   48.8486   57.6172 C   0  0  0  0  0  0  0  0  0  0  0  0
   68.6034   49.8493   57.0345 C   0  0  0  0  0  0  0  0  0  0  0  0
   68.0335   51.0981   56.9172 C   0  0  0  0  0  0  0  0  0  0  0  0
   66.8136   51.3365   57.3557 N   0  0  0  0  0  0  0  0  0  0  0  0
   66.0943   50.3683   57.9283 C   0  0  0  0  0  0  0  0  0  0  0  0
 17 18  2  0
 17 22  1  0
 18 19  1  0
 19 20  2  0
 20 16  1  0
 20 21  1  0
 16 15  1  0
 15 14  1  0
 14  1  1  0
  1  2  2  0
  1  9  1  0
  2  3  1  0
  3  4  1  0
  4  5  1  0
  4  9  2  0
  5  6  2  0
  6  7  1  0
  7 10  1  0
  7  8  2  0
 10 11  2  0
 10 13  1  0
 11 12  1  0
 12 13  1  0
  8  9  1  0
 21 22  2  0
M  END
>  <minimizedAffinity>  (39) 
-9.04297

$$$$
cs_full_output_folder/data/smiles/5237.pdb
     RDKit          3D

 22 24  0  0  0  0  0  0  0  0999 V2000
   69.0257   46.2051   56.6415 C   0  0  0  0  0  0  0  0  0  0  0  0
   69.6928   47.2268   57.2759 C   0  0  0  0  0  0  0  0  0  0  0  0
   70.7577   46.9584   58.1475 C   0  0  0  0  0  0  0  0  0  0  0  0
   71.0833   45.6685   58.3226 N   0  0  0  0  0  0  0  0  0  0  0  0
   70.4422   44.6539   57.7091 C   0  0  0  0  0  0  0  0  0  0  0  0
   69.4081   44.9472   56.8658 N   0  0  0  0  0  0  0  0  0  0  0  0
   70.8431   43.2727   57.9408 C   0  0  0  0  0  0  0  0  0  0  0  0
   72.1579   42.8935   58.0288 C   0  0  0  0  0  0  0  0  0  0  0  0
   72.4962   41.5710   58.2491 C   0  0  0  0  0  0  0  0  0  0  0  0
   71.4881   40.6242   58.3822 C   0  0  0  0  0  0  0  0  0  0  0  0
   70.1749   41.0435   58.2873 C   0  0  0  0  0  0  0  0  0  0  0  0
   69.8711   42.3342   58.0733 N   0  0  0  0  0  0  0  0  0  0  0  0
   67.9822   46.4887   55.7892 O   0  0  0  0  0  0  0  0  0  0  0  0
   69.2937   47.7193   52.5647 C   0  0  0  0  0  0  0  0  0  0  0  0
   68.6780   46.8559   51.6802 C   0  0  0  0  0  0  0  0  0  0  0  0
   67.8281   45.8650   52.1426 C   0  0  0  0  0  0  0  0  0  0  0  0
   67.6186   45.7687   53.5004 C   0  0  0  0  0  0  0  0  0  0  0  0
   68.2071   46.6037   54.4238 C   0  0  0  0  0  0  0  0  0  0  0  0
   69.0492   47.5822   53.9360 C   0  0  0  0  0  0  0  0  0  0  0  0
   71.2688   49.1639   52.9265 N   0  0  0  0  0  0  0  0  0  0  0  0
   70.1842   48.7610   52.0994 C   0  0  0  0  0  0  0  0  0  0  0  0
   70.0261   49.3128   50.9971 O   0  0  0  0  0  0  0  0  0  0  0  0
 20 21  1  0
 21 22  2  0
 21 14  1  0
 14 15  2  0
 14 19  1  0
 15 16  1  0
 16 17  2  0
 17 18  1  0
 18 13  1  0
 18 19  2  0
 13  1  1  0
  1  2  2  0
  1  6  1  0
  2  3  1  0
  3  4  2  0
  4  5  1  0
  5  7  1  0
  5  6  2  0
  7  8  2  0
  7 12  1  0
  8  9  1  0
  9 10  2  0
 10 11  1  0
 11 12  2  0
M  END
>  <minimizedAffinity>  (40) 
-9.03220

$$$$
cs_full_output_folder/data/smiles/5.pdb
     RDKit          3D

 21 23  0  0  0  0  0  0  0  0999 V2000
   68.9835   46.0430   56.6539 N   0  0  0  0  0  0  0  0  0  0  0  0
   68.5898   46.9773   55.9361 C   0  0  0  0  0  0  0  0  0  0  0  0
   68.6458   46.9208   54.4980 C   0  0  0  0  0  0  0  0  0  0  0  0
   67.8429   45.9996   53.8401 C   0  0  0  0  0  0  0  0  0  0  0  0
   67.8466   45.8913   52.4604 C   0  0  0  0  0  0  0  0  0  0  0  0
   68.6543   46.7050   51.7227 C   0  0  0  0  0  0  0  0  0  0  0  0
   69.4508   47.6217   52.4123 C   0  0  0  0  0  0  0  0  0  0  0  0
   69.4160   47.6924   53.7380 N   0  0  0  0  0  0  0  0  0  0  0  0
   68.0560   48.1633   56.6523 C   0  0  0  0  0  0  0  0  0  0  0  0
   68.5422   49.4237   56.5997 C   0  0  0  0  0  0  0  0  0  0  0  0
   67.9801   50.4956   57.3068 C   0  0  0  0  0  0  0  0  0  0  0  0
   66.8886   50.2729   58.0919 C   0  0  0  0  0  0  0  0  0  0  0  0
   66.3966   48.9923   58.1429 C   0  0  0  0  0  0  0  0  0  0  0  0
   66.9568   47.9941   57.4553 N   0  0  0  0  0  0  0  0  0  0  0  0
   69.5083   44.8413   56.6864 N   0  0  0  0  0  0  0  0  0  0  0  0
   67.4492   41.1930   56.4065 C   0  0  0  0  0  0  0  0  0  0  0  0
   68.5835   41.2963   57.1849 C   0  0  0  0  0  0  0  0  0  0  0  0
   69.2543   42.4891   57.2747 C   0  0  0  0  0  0  0  0  0  0  0  0
   68.8073   43.5890   56.5946 C   0  0  0  0  0  0  0  0  0  0  0  0
   67.7076   43.4787   55.8425 N   0  0  0  0  0  0  0  0  0  0  0  0
   67.0310   42.3231   55.7377 C   0  0  0  0  0  0  0  0  0  0  0  0
 16 17  2  0
 16 21  1  0
 17 18  1  0
 18 19  2  0
 19 15  1  0
 19 20  1  0
 15  1  1  0
  1  2  2  0
  2  3  1  0
  2  9  1  0
  3  4  2  0
  3  8  1  0
  4  5  1  0
  5  6  2  0
  6  7  1  0
  7  8  2  0
  9 10  2  0
  9 14  1  0
 10 11  1  0
 11 12  2  0
 12 13  1  0
 13 14  2  0
 20 21  2  0
M  END
>  <minimizedAffinity>  (41) 
-9.03193

$$$$
cs_full_output_folder/data/smiles/2404.pdb
     RDKit          3D

 20 23  0  0  0  0  0  0  0  0999 V2000
   68.9032   46.1786   56.0761 C   0  0  0  0  0  0  0  0  0  0  0  0
   68.3043   44.9796   56.1164 N   0  0  0  0  0  0  0  0  0  0  0  0
   67.8718   44.6369   54.9264 N   0  0  0  0  0  0  0  0  0  0  0  0
   68.1642   45.6020   54.0249 C   0  0  0  0  0  0  0  0  0  0  0  0
   67.9521   45.7611   52.6746 C   0  0  0  0  0  0  0  0  0  0  0  0
   68.3946   46.9070   52.0376 C   0  0  0  0  0  0  0  0  0  0  0  0
   69.0514   47.9051   52.7315 C   0  0  0  0  0  0  0  0  0  0  0  0
   69.2451   47.7085   54.0844 C   0  0  0  0  0  0  0  0  0  0  0  0
   68.8207   46.5810   54.7623 C   0  0  0  0  0  0  0  0  0  0  0  0
   69.5092   49.0899   52.0474 C   0  0  0  0  0  0  0  0  0  0  0  0
   69.8580   49.7045   50.9591 N   0  0  0  0  0  0  0  0  0  0  0  0
   69.9096   50.4461   52.0708 N   0  0  0  0  0  0  0  0  0  0  0  0
   69.5114   46.9052   57.1765 C   0  0  0  0  0  0  0  0  0  0  0  0
   69.9085   48.3192   56.8438 C   0  0  0  0  0  0  0  0  0  0  0  0
   66.6458   51.0465   57.5326 C   0  0  0  0  0  0  0  0  0  0  0  0
   67.7634   51.4504   56.8373 C   0  0  0  0  0  0  0  0  0  0  0  0
   68.8336   50.5924   56.5998 C   0  0  0  0  0  0  0  0  0  0  0  0
   68.8049   49.2866   57.0629 C   0  0  0  0  0  0  0  0  0  0  0  0
   67.6837   48.8859   57.7583 C   0  0  0  0  0  0  0  0  0  0  0  0
   66.6221   49.7496   57.9895 C   0  0  0  0  0  0  0  0  0  0  0  0
 15 16  2  0
 15 20  1  0
 16 17  1  0
 17 18  2  0
 18 14  1  0
 18 19  1  0
 14 13  1  0
 13  1  1  0
  1  2  2  0
  1  9  1  0
  2  3  1  0
  3  4  1  0
  4  5  1  0
  4  9  2  0
  5  6  2  0
  6  7  1  0
  7 10  1  0
  7  8  2  0
 10 11  2  0
 10 12  1  0
 11 12  1  0
  8  9  1  0
 19 20  2  0
M  CHG  1  11   1
M  END
>  <minimizedAffinity>  (42) 
-9.03174

$$$$
cs_full_output_folder/data/smiles/4994.pdb
     RDKit          3D

 21 23  0  0  0  0  0  0  0  0999 V2000
   69.6690   47.9531   54.8387 C   0  0  0  0  0  0  0  0  0  0  0  0
   70.6164   48.8077   54.3107 N   0  0  0  0  0  0  0  0  0  0  0  0
   70.9217   49.1287   53.1459 N   0  0  0  0  0  0  0  0  0  0  0  0
   70.2046   48.5348   52.1034 C   0  0  0  0  0  0  0  0  0  0  0  0
   70.4717   48.8342   50.9324 O   0  0  0  0  0  0  0  0  0  0  0  0
   69.2356   47.6422   52.4507 C   0  0  0  0  0  0  0  0  0  0  0  0
   68.5910   46.8818   51.5206 C   0  0  0  0  0  0  0  0  0  0  0  0
   67.7217   45.8970   51.8705 C   0  0  0  0  0  0  0  0  0  0  0  0
   67.4568   45.6196   53.2189 C   0  0  0  0  0  0  0  0  0  0  0  0
   68.0966   46.3689   54.1902 C   0  0  0  0  0  0  0  0  0  0  0  0
   68.9380   47.3288   53.7967 C   0  0  0  0  0  0  0  0  0  0  0  0
   69.3865   47.9744   56.2685 C   0  0  0  0  0  0  0  0  0  0  0  0
   68.2179   51.5627   56.5339 C   0  0  0  0  0  0  0  0  0  0  0  0
   67.1231   51.3848   57.3881 C   0  0  0  0  0  0  0  0  0  0  0  0
   66.8195   50.1257   57.8732 C   0  0  0  0  0  0  0  0  0  0  0  0
   67.5707   49.0535   57.5365 C   0  0  0  0  0  0  0  0  0  0  0  0
   68.6834   49.2016   56.6545 C   0  0  0  0  0  0  0  0  0  0  0  0
   68.9546   50.5104   56.1884 C   0  0  0  0  0  0  0  0  0  0  0  0
   68.4437   52.9509   56.0728 O   0  0  0  0  0  0  0  0  0  0  0  0
   71.0021   53.4490   56.5483 C   0  0  0  0  0  0  0  0  0  0  0  0
   69.7426   53.1936   56.3085 C   0  0  0  0  0  0  0  0  0  0  0  0
 20 21  3  0
 21 19  1  0
 19 13  1  0
 13 14  2  0
 13 18  1  0
 14 15  1  0
 15 16  2  0
 16 17  1  0
 17 12  1  0
 17 18  2  0
 12  1  1  0
  1  2  2  0
  1 11  1  0
  2  3  1  0
  3  4  1  0
  4  5  2  0
  4  6  1  0
  6  7  1  0
  6 11  2  0
  7  8  2  0
  8  9  1  0
  9 10  2  0
 10 11  1  0
M  END
>  <minimizedAffinity>  (43) 
-9.02985

$$$$
cs_full_output_folder/data/smiles/16.pdb
     RDKit          3D

 21 23  0  0  0  0  0  0  0  0999 V2000
   68.2554   46.7845   55.9724 O   0  0  0  0  0  0  0  0  0  0  0  0
   68.3754   46.7979   54.5955 C   0  0  0  0  0  0  0  0  0  0  0  0
   67.7759   45.7671   53.8609 C   0  0  0  0  0  0  0  0  0  0  0  0
   67.8588   45.7203   52.4855 C   0  0  0  0  0  0  0  0  0  0  0  0
   68.5406   46.6970   51.7842 C   0  0  0  0  0  0  0  0  0  0  0  0
   69.1386   47.7226   52.4792 C   0  0  0  0  0  0  0  0  0  0  0  0
   69.8046   48.6939   51.7674 C   0  0  0  0  0  0  0  0  0  0  0  0
   70.3741   49.6948   52.4512 N   0  0  0  0  0  0  0  0  0  0  0  0
   70.2995   49.7561   53.8080 C   0  0  0  0  0  0  0  0  0  0  0  0
   69.6397   48.7976   54.5421 C   0  0  0  0  0  0  0  0  0  0  0  0
   69.0450   47.7551   53.8678 C   0  0  0  0  0  0  0  0  0  0  0  0
   70.8450   46.4192   58.5110 C   0  0  0  0  0  0  0  0  0  0  0  0
   70.9814   45.0474   58.5324 C   0  0  0  0  0  0  0  0  0  0  0  0
   70.2311   44.2546   57.7217 C   0  0  0  0  0  0  0  0  0  0  0  0
   69.3375   44.8349   56.8834 N   0  0  0  0  0  0  0  0  0  0  0  0
   69.1551   46.1602   56.8136 C   0  0  0  0  0  0  0  0  0  0  0  0
   69.9311   46.9496   57.6485 C   0  0  0  0  0  0  0  0  0  0  0  0
   72.5000   48.2147   58.8249 N   0  0  0  0  0  0  0  0  0  0  0  0
   71.6762   47.2134   59.4016 C   0  0  0  0  0  0  0  0  0  0  0  0
   71.7192   47.0723   60.6811 N   0  0  0  0  0  0  0  0  0  0  0  0
   72.5285   47.8542   61.4842 O   0  0  0  0  0  0  0  0  0  0  0  0
 18 19  1  0
 19 20  2  0
 19 12  1  0
 20 21  1  0
 12 13  2  0
 12 17  1  0
 13 14  1  0
 14 15  2  0
 15 16  1  0
 16  1  1  0
 16 17  2  0
  1  2  1  0
  2  3  2  0
  2 11  1  0
  3  4  1  0
  4  5  2  0
  5  6  1  0
  6  7  1  0
  6 11  2  0
  7  8  2  0
  8  9  1  0
  9 10  2  0
 10 11  1  0
M  CHG  1  20   1
M  END
>  <minimizedAffinity>  (44) 
-9.02592

$$$$
cs_full_output_folder/data/smiles/600.pdb
     RDKit          3D

 21 23  0  0  0  0  0  0  0  0999 V2000
   70.4190   49.2212   54.0234 C   0  0  0  0  0  0  0  0  0  0  0  0
   71.5956   49.5291   53.4005 N   0  0  0  0  0  0  0  0  0  0  0  0
   72.1452   50.5693   53.9973 N   0  0  0  0  0  0  0  0  0  0  0  0
   71.3482   50.9530   55.0057 C   0  0  0  0  0  0  0  0  0  0  0  0
   70.2347   50.1086   55.0481 C   0  0  0  0  0  0  0  0  0  0  0  0
   67.7681   46.0215   53.0420 C   0  0  0  0  0  0  0  0  0  0  0  0
   68.1543   46.2691   54.3407 C   0  0  0  0  0  0  0  0  0  0  0  0
   69.0147   47.3115   54.6411 C   0  0  0  0  0  0  0  0  0  0  0  0
   69.5184   48.1392   53.6612 C   0  0  0  0  0  0  0  0  0  0  0  0
   69.1252   47.8820   52.3679 C   0  0  0  0  0  0  0  0  0  0  0  0
   69.6155   48.6976   51.3624 O   0  0  0  0  0  0  0  0  0  0  0  0
   68.2633   46.8395   52.0542 C   0  0  0  0  0  0  0  0  0  0  0  0
   67.8947   46.6126   50.7616 F   0  0  0  0  0  0  0  0  0  0  0  0
   66.6746   44.5713   51.4894 O   0  0  0  0  0  0  0  0  0  0  0  0
   66.8991   44.9710   52.7233 O   0  0  0  0  0  0  0  0  0  0  0  0
   69.1010   50.1274   55.9608 C   0  0  0  0  0  0  0  0  0  0  0  0
   68.9133   49.0782   56.8359 C   0  0  0  0  0  0  0  0  0  0  0  0
   67.8526   49.0404   57.7267 C   0  0  0  0  0  0  0  0  0  0  0  0
   66.9467   50.0677   57.7581 C   0  0  0  0  0  0  0  0  0  0  0  0
   67.1108   51.1197   56.9007 C   0  0  0  0  0  0  0  0  0  0  0  0
   68.1762   51.1497   56.0103 C   0  0  0  0  0  0  0  0  0  0  0  0
 14 15  1  0
 15  6  1  0
  6  7  2  0
  6 12  1  0
  7  8  1  0
  8  9  2  0
  9  1  1  0
  9 10  1  0
  1  2  2  0
  1  5  1  0
  2  3  1  0
  3  4  1  0
  4  5  2  0
  5 16  1  0
 16 17  2  0
 16 21  1  0
 17 18  1  0
 18 19  2  0
 19 20  1  0
 20 21  2  0
 10 11  1  0
 10 12  2  0
 12 13  1  0
M  END
>  <minimizedAffinity>  (45) 
-9.02387

$$$$
cs_full_output_folder/data/smiles/3094.pdb
     RDKit          3D

 22 24  0  0  0  0  0  0  0  0999 V2000
   67.3530   44.7483   52.4263 O   0  0  0  0  0  0  0  0  0  0  0  0
   67.8002   45.3906   53.4081 C   0  0  0  0  0  0  0  0  0  0  0  0
   67.6043   45.0128   54.6815 N   0  0  0  0  0  0  0  0  0  0  0  0
   68.0735   45.6878   55.7031 N   0  0  0  0  0  0  0  0  0  0  0  0
   68.8066   46.8412   55.5738 C   0  0  0  0  0  0  0  0  0  0  0  0
   69.0429   47.2806   54.3018 C   0  0  0  0  0  0  0  0  0  0  0  0
   69.7816   48.4219   54.1082 C   0  0  0  0  0  0  0  0  0  0  0  0
   70.0217   48.8516   52.8184 C   0  0  0  0  0  0  0  0  0  0  0  0
   69.5288   48.1455   51.7406 C   0  0  0  0  0  0  0  0  0  0  0  0
   68.7891   46.9994   51.9305 C   0  0  0  0  0  0  0  0  0  0  0  0
   68.5349   46.5485   53.2184 C   0  0  0  0  0  0  0  0  0  0  0  0
   69.2402   47.5273   56.7952 C   0  0  0  0  0  0  0  0  0  0  0  0
   68.5109   48.8196   57.0384 C   0  0  0  0  0  0  0  0  0  0  0  0
   67.2488   48.7628   57.6534 C   0  0  0  0  0  0  0  0  0  0  0  0
   66.5434   49.9066   57.9271 C   0  0  0  0  0  0  0  0  0  0  0  0
   67.0839   51.1353   57.5927 C   0  0  0  0  0  0  0  0  0  0  0  0
   68.3089   51.2523   56.9937 C   0  0  0  0  0  0  0  0  0  0  0  0
   68.9976   50.0616   56.7301 C   0  0  0  0  0  0  0  0  0  0  0  0
   68.9382   52.5210   56.6139 C   0  0  0  0  0  0  0  0  0  0  0  0
   69.1276   52.6919   55.1333 C   0  0  0  0  0  0  0  0  0  0  0  0
   70.3800   52.2799   54.7013 O   0  0  0  0  0  0  0  0  0  0  0  0
   68.1022   52.0727   54.4211 O   0  0  0  0  0  0  0  0  0  0  0  0
  1  2  2  0
  2  3  1  0
  2 11  1  0
  3  4  1  0
  4  5  2  0
  5 12  1  0
  5  6  1  0
 12 13  1  0
 13 14  2  0
 13 18  1  0
 14 15  1  0
 15 16  2  0
 16 17  1  0
 17 19  1  0
 17 18  2  0
 19 20  1  0
 20 21  1  0
 20 22  1  0
  6  7  1  0
  6 11  2  0
  7  8  2  0
  8  9  1  0
  9 10  2  0
 10 11  1  0
M  END
>  <minimizedAffinity>  (46) 
-9.02018

$$$$
cs_full_output_folder/data/smiles/3993.pdb
     RDKit          3D

 20 22  0  0  0  0  0  0  0  0999 V2000
   70.4752   49.1464   53.8963 C   0  0  0  0  0  0  0  0  0  0  0  0
   71.6556   49.4623   53.3251 N   0  0  0  0  0  0  0  0  0  0  0  0
   72.2184   50.4744   53.9640 N   0  0  0  0  0  0  0  0  0  0  0  0
   71.4423   50.8753   54.9847 C   0  0  0  0  0  0  0  0  0  0  0  0
   70.3321   50.0329   54.9446 C   0  0  0  0  0  0  0  0  0  0  0  0
   66.8846   45.1243   52.3125 O   0  0  0  0  0  0  0  0  0  0  0  0
   67.7705   46.1170   52.6858 C   0  0  0  0  0  0  0  0  0  0  0  0
   67.9633   46.3350   54.0413 C   0  0  0  0  0  0  0  0  0  0  0  0
   68.8478   47.3262   54.4156 C   0  0  0  0  0  0  0  0  0  0  0  0
   69.5391   48.0992   53.5053 C   0  0  0  0  0  0  0  0  0  0  0  0
   69.3267   47.8594   52.1699 C   0  0  0  0  0  0  0  0  0  0  0  0
   69.9999   48.6133   51.2428 O   0  0  0  0  0  0  0  0  0  0  0  0
   68.4525   46.8798   51.7451 C   0  0  0  0  0  0  0  0  0  0  0  0
   69.2152   50.1020   55.8773 C   0  0  0  0  0  0  0  0  0  0  0  0
   68.9899   49.1294   56.8227 C   0  0  0  0  0  0  0  0  0  0  0  0
   67.9309   49.2227   57.6862 C   0  0  0  0  0  0  0  0  0  0  0  0
   67.0535   50.2920   57.6407 C   0  0  0  0  0  0  0  0  0  0  0  0
   67.2759   51.2628   56.6994 C   0  0  0  0  0  0  0  0  0  0  0  0
   68.3423   51.1662   55.8315 C   0  0  0  0  0  0  0  0  0  0  0  0
   68.5196   52.4696   54.6733 Cl  0  0  0  0  0  0  0  0  0  0  0  0
  6  7  1  0
  7  8  2  0
  7 13  1  0
  8  9  1  0
  9 10  2  0
 10  1  1  0
 10 11  1  0
  1  2  2  0
  1  5  1  0
  2  3  1  0
  3  4  1  0
  4  5  2  0
  5 14  1  0
 14 15  2  0
 14 19  1  0
 15 16  1  0
 16 17  2  0
 17 18  1  0
 18 19  2  0
 19 20  1  0
 11 12  1  0
 11 13  2  0
M  END
>  <minimizedAffinity>  (47) 
-9.01585

$$$$
cs_full_output_folder/data/smiles/8380.pdb
     RDKit          3D

 19 21  0  0  0  0  0  0  0  0999 V2000
   70.5921   48.6737   50.8812 O   0  0  0  0  0  0  0  0  0  0  0  0
   70.3465   48.5669   52.1143 C   0  0  0  0  0  0  0  0  0  0  0  0
   71.0222   49.3499   52.9811 N   0  0  0  0  0  0  0  0  0  0  0  0
   70.7949   49.2675   54.2766 N   0  0  0  0  0  0  0  0  0  0  0  0
   69.8897   48.4154   54.8238 C   0  0  0  0  0  0  0  0  0  0  0  0
   69.1971   47.6192   53.9515 C   0  0  0  0  0  0  0  0  0  0  0  0
   68.2641   46.7603   54.4300 C   0  0  0  0  0  0  0  0  0  0  0  0
   67.5549   45.9668   53.5347 C   0  0  0  0  0  0  0  0  0  0  0  0
   67.7627   46.0172   52.1705 C   0  0  0  0  0  0  0  0  0  0  0  0
   68.7092   46.8895   51.6756 C   0  0  0  0  0  0  0  0  0  0  0  0
   69.4042   47.6689   52.5695 C   0  0  0  0  0  0  0  0  0  0  0  0
   69.7844   48.3895   56.2813 C   0  0  0  0  0  0  0  0  0  0  0  0
   68.7272   49.2767   56.7760 C   0  0  0  0  0  0  0  0  0  0  0  0
   68.6681   50.5698   56.2798 C   0  0  0  0  0  0  0  0  0  0  0  0
   67.6945   51.4594   56.6737 C   0  0  0  0  0  0  0  0  0  0  0  0
   66.7344   51.0907   57.5856 C   0  0  0  0  0  0  0  0  0  0  0  0
   66.7739   49.8135   58.0901 C   0  0  0  0  0  0  0  0  0  0  0  0
   65.8388   49.4534   58.9823 F   0  0  0  0  0  0  0  0  0  0  0  0
   67.7784   48.9195   57.6727 C   0  0  0  0  0  0  0  0  0  0  0  0
  1  2  2  0
  2  3  1  0
  2 11  1  0
  3  4  1  0
  4  5  2  0
  5 12  1  0
  5  6  1  0
 12 13  1  0
 13 14  2  0
 13 19  1  0
 14 15  1  0
 15 16  2  0
 16 17  1  0
 17 18  1  0
 17 19  2  0
  6  7  1  0
  6 11  2  0
  7  8  2  0
  8  9  1  0
  9 10  2  0
 10 11  1  0
M  END
>  <minimizedAffinity>  (48) 
-9.01177

$$$$
cs_full_output_folder/data/smiles/4250.pdb
     RDKit          3D

 21 23  0  0  0  0  0  0  0  0999 V2000
   69.7517   48.1350   54.9194 C   0  0  0  0  0  0  0  0  0  0  0  0
   70.6557   49.0540   54.4447 N   0  0  0  0  0  0  0  0  0  0  0  0
   70.8729   49.2565   53.1634 N   0  0  0  0  0  0  0  0  0  0  0  0
   70.2347   48.5870   52.1925 C   0  0  0  0  0  0  0  0  0  0  0  0
   70.4485   48.7880   50.9669 O   0  0  0  0  0  0  0  0  0  0  0  0
   69.3029   47.6359   52.5719 C   0  0  0  0  0  0  0  0  0  0  0  0
   68.6105   46.8935   51.6289 C   0  0  0  0  0  0  0  0  0  0  0  0
   67.6951   45.9390   52.0226 C   0  0  0  0  0  0  0  0  0  0  0  0
   67.4765   45.7322   53.3635 C   0  0  0  0  0  0  0  0  0  0  0  0
   68.1798   46.4878   54.3063 C   0  0  0  0  0  0  0  0  0  0  0  0
   69.0871   47.4366   53.9409 C   0  0  0  0  0  0  0  0  0  0  0  0
   69.5477   48.0220   56.3577 C   0  0  0  0  0  0  0  0  0  0  0  0
   68.0966   51.3736   57.1062 C   0  0  0  0  0  0  0  0  0  0  0  0
   66.8847   51.0571   57.6782 C   0  0  0  0  0  0  0  0  0  0  0  0
   66.5235   49.7280   57.8320 C   0  0  0  0  0  0  0  0  0  0  0  0
   67.3718   48.6903   57.4164 C   0  0  0  0  0  0  0  0  0  0  0  0
   68.5754   49.0152   56.8487 C   0  0  0  0  0  0  0  0  0  0  0  0
   68.9265   50.3635   56.6995 C   0  0  0  0  0  0  0  0  0  0  0  0
   68.5152   52.6939   56.9247 O   0  0  0  0  0  0  0  0  0  0  0  0
   70.5131   53.7109   56.2650 C   0  0  0  0  0  0  0  0  0  0  0  0
   69.2892   53.0405   55.8391 N   0  0  0  0  0  0  0  0  0  0  0  0
 20 21  1  0
 21 19  1  0
 19 13  1  0
 13 14  2  0
 13 18  1  0
 14 15  1  0
 15 16  2  0
 16 17  1  0
 17 12  1  0
 17 18  2  0
 12  1  1  0
  1  2  2  0
  1 11  1  0
  2  3  1  0
  3  4  1  0
  4  5  2  0
  4  6  1  0
  6  7  1  0
  6 11  2  0
  7  8  2  0
  8  9  1  0
  9 10  2  0
 10 11  1  0
M  END
>  <minimizedAffinity>  (49) 
-9.00678

$$$$
cs_full_output_folder/data/smiles/1498.pdb
     RDKit          3D

 22 24  0  0  0  0  0  0  0  0999 V2000
   68.9687   46.6908   57.2769 O   0  0  0  0  0  0  0  0  0  0  0  0
   68.4685   47.5825   56.5344 C   0  0  0  0  0  0  0  0  0  0  0  0
   68.5220   47.3824   55.0962 C   0  0  0  0  0  0  0  0  0  0  0  0
   67.7584   46.4675   54.4173 C   0  0  0  0  0  0  0  0  0  0  0  0
   67.8636   46.3169   53.0529 C   0  0  0  0  0  0  0  0  0  0  0  0
   67.0670   45.3723   52.3969 O   0  0  0  0  0  0  0  0  0  0  0  0
   68.7377   47.0751   52.2974 C   0  0  0  0  0  0  0  0  0  0  0  0
   68.8417   46.9258   50.9411 O   0  0  0  0  0  0  0  0  0  0  0  0
   69.5120   48.0018   52.9738 C   0  0  0  0  0  0  0  0  0  0  0  0
   69.4066   48.1513   54.3431 C   0  0  0  0  0  0  0  0  0  0  0  0
   70.4103   48.7814   52.2023 N   0  0  0  0  0  0  0  0  0  0  0  0
   70.0167   49.3184   51.1706 O   0  0  0  0  0  0  0  0  0  0  0  0
   71.7008   48.9315   52.6042 O   0  0  0  0  0  0  0  0  0  0  0  0
   67.8589   48.7685   57.1857 C   0  0  0  0  0  0  0  0  0  0  0  0
   68.8263   49.8703   57.3425 C   0  0  0  0  0  0  0  0  0  0  0  0
   69.7534   49.8938   58.3548 C   0  0  0  0  0  0  0  0  0  0  0  0
   70.6490   50.9468   58.4933 C   0  0  0  0  0  0  0  0  0  0  0  0
   70.5952   51.9962   57.5807 C   0  0  0  0  0  0  0  0  0  0  0  0
   69.6571   51.9575   56.5684 C   0  0  0  0  0  0  0  0  0  0  0  0
   68.7784   50.9130   56.4407 C   0  0  0  0  0  0  0  0  0  0  0  0
   68.2139   51.5891   55.2600 C   0  0  0  0  0  0  0  0  0  0  0  0
   69.0620   52.5991   55.3818 C   0  0  0  0  0  0  0  0  0  0  0  0
  1  2  2  0
  2 14  1  0
  2  3  1  0
 14 15  1  0
 15 16  2  0
 15 20  1  0
 16 17  1  0
 17 18  2  0
 18 19  1  0
 19 20  2  0
 19 22  1  0
 20 21  1  0
 21 22  2  0
  3  4  2  0
  3 10  1  0
  4  5  1  0
  5  6  1  0
  5  7  2  0
  7  8  1  0
  7  9  1  0
  9 11  1  0
  9 10  2  0
 11 12  2  0
 11 13  1  0
M  CHG  2  11   1  13  -1
M  END
>  <minimizedAffinity>  (50) 
-8.99935

$$$$
cs_full_output_folder/data/smiles/576.pdb
     RDKit          3D

 22 25  0  0  0  0  0  0  0  0999 V2000
   70.0436   49.3488   53.3989 C   0  0  0  0  0  0  0  0  0  0  0  0
   70.0376   49.8745   52.1757 N   0  0  0  0  0  0  0  0  0  0  0  0
   69.4364   49.0470   51.3456 N   0  0  0  0  0  0  0  0  0  0  0  0
   69.0253   47.9555   51.9820 C   0  0  0  0  0  0  0  0  0  0  0  0
   68.3627   46.7874   51.6304 C   0  0  0  0  0  0  0  0  0  0  0  0
   68.0982   45.8342   52.5753 C   0  0  0  0  0  0  0  0  0  0  0  0
   68.4626   45.9667   53.9075 C   0  0  0  0  0  0  0  0  0  0  0  0
   69.1188   47.1248   54.2585 C   0  0  0  0  0  0  0  0  0  0  0  0
   69.3926   48.1051   53.2973 C   0  0  0  0  0  0  0  0  0  0  0  0
   68.1720   44.9178   54.8785 C   0  0  0  0  0  0  0  0  0  0  0  0
   67.3389   43.8791   54.8226 N   0  0  0  0  0  0  0  0  0  0  0  0
   67.3993   43.1914   55.9406 N   0  0  0  0  0  0  0  0  0  0  0  0
   68.2878   43.7770   56.7655 N   0  0  0  0  0  0  0  0  0  0  0  0
   68.7485   44.8217   56.1092 N   0  0  0  0  0  0  0  0  0  0  0  0
   70.5659   49.8706   54.6670 C   0  0  0  0  0  0  0  0  0  0  0  0
   69.7376   50.9902   55.2200 C   0  0  0  0  0  0  0  0  0  0  0  0
   66.7110   49.8142   58.0431 C   0  0  0  0  0  0  0  0  0  0  0  0
   66.7486   51.0965   57.5079 C   0  0  0  0  0  0  0  0  0  0  0  0
   67.7247   51.4676   56.6137 C   0  0  0  0  0  0  0  0  0  0  0  0
   68.7112   50.5988   56.1986 C   0  0  0  0  0  0  0  0  0  0  0  0
   68.6620   49.3068   56.7439 C   0  0  0  0  0  0  0  0  0  0  0  0
   67.6910   48.9397   57.6353 C   0  0  0  0  0  0  0  0  0  0  0  0
 17 18  2  0
 17 22  1  0
 18 19  1  0
 19 20  2  0
 20 16  1  0
 20 21  1  0
 16 15  1  0
 15  1  1  0
  1  2  2  0
  1  9  1  0
  2  3  1  0
  3  4  1  0
  4  5  1  0
  4  9  2  0
  5  6  2  0
  6  7  1  0
  7 10  1  0
  7  8  2  0
 10 11  2  0
 10 14  1  0
 11 12  1  0
 12 13  2  0
 13 14  1  0
  8  9  1  0
 21 22  2  0
M  END
>  <minimizedAffinity>  (51) 
-8.99877

$$$$
cs_full_output_folder/data/smiles/369.pdb
     RDKit          3D

 20 22  0  0  0  0  0  0  0  0999 V2000
   70.3412   49.1310   53.9868 C   0  0  0  0  0  0  0  0  0  0  0  0
   71.4884   49.4028   53.3307 N   0  0  0  0  0  0  0  0  0  0  0  0
   72.0733   50.4300   53.9349 N   0  0  0  0  0  0  0  0  0  0  0  0
   71.3234   50.8327   54.9765 C   0  0  0  0  0  0  0  0  0  0  0  0
   70.2152   50.0120   55.0215 C   0  0  0  0  0  0  0  0  0  0  0  0
   66.9453   44.9029   52.5251 O   0  0  0  0  0  0  0  0  0  0  0  0
   67.7835   45.9522   52.8548 C   0  0  0  0  0  0  0  0  0  0  0  0
   68.1281   46.1254   54.1793 C   0  0  0  0  0  0  0  0  0  0  0  0
   68.9645   47.1726   54.5100 C   0  0  0  0  0  0  0  0  0  0  0  0
   69.4615   48.0425   53.5643 C   0  0  0  0  0  0  0  0  0  0  0  0
   69.1000   47.8433   52.2534 C   0  0  0  0  0  0  0  0  0  0  0  0
   69.5857   48.7037   51.2898 O   0  0  0  0  0  0  0  0  0  0  0  0
   68.2718   46.8123   51.9022 C   0  0  0  0  0  0  0  0  0  0  0  0
   67.8824   46.5800   50.5702 O   0  0  0  0  0  0  0  0  0  0  0  0
   69.1189   50.0599   55.9722 C   0  0  0  0  0  0  0  0  0  0  0  0
   68.3492   51.2088   56.0592 C   0  0  0  0  0  0  0  0  0  0  0  0
   67.2930   51.3276   56.9353 C   0  0  0  0  0  0  0  0  0  0  0  0
   66.9668   50.2747   57.7692 C   0  0  0  0  0  0  0  0  0  0  0  0
   67.7168   49.1250   57.6997 C   0  0  0  0  0  0  0  0  0  0  0  0
   68.7820   49.0174   56.8107 C   0  0  0  0  0  0  0  0  0  0  0  0
  6  7  1  0
  7  8  2  0
  7 13  1  0
  8  9  1  0
  9 10  2  0
 10  1  1  0
 10 11  1  0
  1  2  2  0
  1  5  1  0
  2  3  1  0
  3  4  1  0
  4  5  2  0
  5 15  1  0
 15 16  2  0
 15 20  1  0
 16 17  1  0
 17 18  2  0
 18 19  1  0
 19 20  2  0
 11 12  1  0
 11 13  2  0
 13 14  1  0
M  END
>  <minimizedAffinity>  (52) 
-8.99377

$$$$
cs_full_output_folder/data/smiles/7172.pdb
     RDKit          3D

 21 23  0  0  0  0  0  0  0  0999 V2000
   68.8561   46.7836   55.5388 C   0  0  0  0  0  0  0  0  0  0  0  0
   68.0600   45.6902   55.6711 N   0  0  0  0  0  0  0  0  0  0  0  0
   67.5085   45.0939   54.6421 N   0  0  0  0  0  0  0  0  0  0  0  0
   67.6923   45.5218   53.3926 C   0  0  0  0  0  0  0  0  0  0  0  0
   67.1441   44.9275   52.3928 O   0  0  0  0  0  0  0  0  0  0  0  0
   68.4830   46.6194   53.1632 C   0  0  0  0  0  0  0  0  0  0  0  0
   68.6910   47.0594   51.8656 C   0  0  0  0  0  0  0  0  0  0  0  0
   69.5076   48.1528   51.7032 C   0  0  0  0  0  0  0  0  0  0  0  0
   70.0970   48.7893   52.7697 C   0  0  0  0  0  0  0  0  0  0  0  0
   69.8751   48.3328   54.0499 C   0  0  0  0  0  0  0  0  0  0  0  0
   69.0729   47.2545   54.2718 C   0  0  0  0  0  0  0  0  0  0  0  0
   69.3824   47.4414   56.7524 C   0  0  0  0  0  0  0  0  0  0  0  0
   68.2640   51.1070   56.6916 C   0  0  0  0  0  0  0  0  0  0  0  0
   67.0942   51.0434   57.4166 C   0  0  0  0  0  0  0  0  0  0  0  0
   66.6939   49.8186   57.9029 C   0  0  0  0  0  0  0  0  0  0  0  0
   67.4299   48.6800   57.6789 C   0  0  0  0  0  0  0  0  0  0  0  0
   68.6319   48.7148   56.9390 C   0  0  0  0  0  0  0  0  0  0  0  0
   69.0053   49.9374   56.4710 C   0  0  0  0  0  0  0  0  0  0  0  0
   69.0326   52.5286   54.6974 C   0  0  0  0  0  0  0  0  0  0  0  0
   68.7528   52.3713   56.1317 C   0  0  0  0  0  0  0  0  0  0  0  0
   68.9385   53.3559   56.8999 O   0  0  0  0  0  0  0  0  0  0  0  0
 19 20  1  0
 20 21  2  0
 20 13  1  0
 13 14  2  0
 13 18  1  0
 14 15  1  0
 15 16  2  0
 16 17  1  0
 17 12  1  0
 17 18  2  0
 12  1  1  0
  1  2  2  0
  1 11  1  0
  2  3  1  0
  3  4  1  0
  4  5  2  0
  4  6  1  0
  6  7  1  0
  6 11  2  0
  7  8  2  0
  8  9  1  0
  9 10  2  0
 10 11  1  0
M  END
>  <minimizedAffinity>  (53) 
-8.99211

$$$$
cs_full_output_folder/data/smiles/402.pdb
     RDKit          3D

 21 22  0  0  0  0  0  0  0  0999 V2000
   68.9032   46.9429   54.8198 C   0  0  0  0  0  0  0  0  0  0  0  0
   68.0541   46.0097   54.2458 C   0  0  0  0  0  0  0  0  0  0  0  0
   67.8004   45.9641   52.8751 C   0  0  0  0  0  0  0  0  0  0  0  0
   66.9679   45.0556   52.2673 O   0  0  0  0  0  0  0  0  0  0  0  0
   68.4514   46.9241   52.0868 C   0  0  0  0  0  0  0  0  0  0  0  0
   68.1972   46.8870   50.6967 O   0  0  0  0  0  0  0  0  0  0  0  0
   69.2808   47.8427   52.6144 C   0  0  0  0  0  0  0  0  0  0  0  0
   69.5173   47.8602   54.0018 C   0  0  0  0  0  0  0  0  0  0  0  0
   69.9236   48.8212   51.7690 N   0  0  0  0  0  0  0  0  0  0  0  0
   70.6755   48.4499   50.8507 O   0  0  0  0  0  0  0  0  0  0  0  0
   69.7086   50.1654   51.9749 O   0  0  0  0  0  0  0  0  0  0  0  0
   69.0992   46.9662   56.2532 C   0  0  0  0  0  0  0  0  0  0  0  0
   68.7670   45.8617   56.8608 O   0  0  0  0  0  0  0  0  0  0  0  0
   69.6196   48.0619   57.0747 C   0  0  0  0  0  0  0  0  0  0  0  0
   70.0804   50.8621   56.1732 C   0  0  0  0  0  0  0  0  0  0  0  0
   68.8136   50.4410   56.7719 C   0  0  0  0  0  0  0  0  0  0  0  0
   67.7969   51.3863   56.8965 C   0  0  0  0  0  0  0  0  0  0  0  0
   66.5846   51.1024   57.4905 C   0  0  0  0  0  0  0  0  0  0  0  0
   66.4230   49.8047   57.9700 C   0  0  0  0  0  0  0  0  0  0  0  0
   67.4370   48.8839   57.8389 C   0  0  0  0  0  0  0  0  0  0  0  0
   68.6575   49.1782   57.2370 C   0  0  0  0  0  0  0  0  0  0  0  0
 15 16  1  0
 16 17  2  0
 16 21  1  0
 17 18  1  0
 18 19  2  0
 19 20  1  0
 20 21  2  0
 21 14  1  0
 14 12  1  0
 12 13  2  0
 12  1  1  0
  1  2  2  0
  1  8  1  0
  2  3  1  0
  3  4  1  0
  3  5  2  0
  5  6  1  0
  5  7  1  0
  7  9  1  0
  7  8  2  0
  9 10  2  0
  9 11  1  0
M  CHG  2   9   1  11  -1
M  END
>  <minimizedAffinity>  (54) 
-8.99183

$$$$
cs_full_output_folder/data/smiles/606.pdb
     RDKit          3D

 22 24  0  0  0  0  0  0  0  0999 V2000
   69.2121   45.4382   56.7704 C   0  0  0  0  0  0  0  0  0  0  0  0
   70.3596   45.8544   57.3301 N   0  0  0  0  0  0  0  0  0  0  0  0
   71.1810   44.9937   57.9603 C   0  0  0  0  0  0  0  0  0  0  0  0
   70.8631   43.6401   58.0513 C   0  0  0  0  0  0  0  0  0  0  0  0
   69.6874   43.1997   57.4826 C   0  0  0  0  0  0  0  0  0  0  0  0
   68.9267   44.1306   56.8714 N   0  0  0  0  0  0  0  0  0  0  0  0
   69.2738   41.8066   57.5509 C   0  0  0  0  0  0  0  0  0  0  0  0
   69.8605   40.8873   58.3647 C   0  0  0  0  0  0  0  0  0  0  0  0
   69.4187   39.5519   58.4044 C   0  0  0  0  0  0  0  0  0  0  0  0
   68.3548   39.1655   57.5903 C   0  0  0  0  0  0  0  0  0  0  0  0
   67.8042   40.0813   56.8087 N   0  0  0  0  0  0  0  0  0  0  0  0
   68.2178   41.3828   56.7555 C   0  0  0  0  0  0  0  0  0  0  0  0
   68.3464   46.3498   56.1027 N   0  0  0  0  0  0  0  0  0  0  0  0
   69.1251   47.7459   52.7197 C   0  0  0  0  0  0  0  0  0  0  0  0
   68.5739   46.7947   51.9118 C   0  0  0  0  0  0  0  0  0  0  0  0
   67.9397   45.7022   52.4788 C   0  0  0  0  0  0  0  0  0  0  0  0
   67.8613   45.5699   53.8614 C   0  0  0  0  0  0  0  0  0  0  0  0
   68.4099   46.5159   54.7037 C   0  0  0  0  0  0  0  0  0  0  0  0
   69.0324   47.5895   54.1064 C   0  0  0  0  0  0  0  0  0  0  0  0
   69.7864   50.1919   52.8861 C   0  0  0  0  0  0  0  0  0  0  0  0
   69.8384   48.9177   52.1719 C   0  0  0  0  0  0  0  0  0  0  0  0
   70.4714   48.7510   51.0851 O   0  0  0  0  0  0  0  0  0  0  0  0
 20 21  1  0
 21 22  2  0
 21 14  1  0
 14 15  2  0
 14 19  1  0
 15 16  1  0
 16 17  2  0
 17 18  1  0
 18 13  1  0
 18 19  2  0
 13  1  1  0
  1  2  2  0
  1  6  1  0
  2  3  1  0
  3  4  2  0
  4  5  1  0
  5  7  1  0
  5  6  2  0
  7  8  2  0
  7 12  1  0
  8  9  1  0
  9 10  2  0
 10 11  1  0
 11 12  2  0
M  END
>  <minimizedAffinity>  (55) 
-8.99154

$$$$
cs_full_output_folder/data/smiles/8136.pdb
     RDKit          3D

 21 23  0  0  0  0  0  0  0  0999 V2000
   68.7762   46.8469   55.5613 C   0  0  0  0  0  0  0  0  0  0  0  0
   68.0470   45.6899   55.6451 N   0  0  0  0  0  0  0  0  0  0  0  0
   67.6072   45.0363   54.5975 N   0  0  0  0  0  0  0  0  0  0  0  0
   67.8277   45.4342   53.3325 C   0  0  0  0  0  0  0  0  0  0  0  0
   67.3764   44.7591   52.3759 O   0  0  0  0  0  0  0  0  0  0  0  0
   68.5590   46.5949   53.1825 C   0  0  0  0  0  0  0  0  0  0  0  0
   68.8113   47.0252   51.8976 C   0  0  0  0  0  0  0  0  0  0  0  0
   69.5516   48.1797   51.7424 C   0  0  0  0  0  0  0  0  0  0  0  0
   70.0268   48.8827   52.8447 C   0  0  0  0  0  0  0  0  0  0  0  0
   69.7747   48.4532   54.1292 C   0  0  0  0  0  0  0  0  0  0  0  0
   69.0352   47.3049   54.2962 C   0  0  0  0  0  0  0  0  0  0  0  0
   69.1748   47.5145   56.8010 C   0  0  0  0  0  0  0  0  0  0  0  0
   68.3069   51.2314   57.1119 C   0  0  0  0  0  0  0  0  0  0  0  0
   67.0565   51.1310   57.6804 C   0  0  0  0  0  0  0  0  0  0  0  0
   66.4987   49.8962   57.9512 C   0  0  0  0  0  0  0  0  0  0  0  0
   67.1978   48.7491   57.6518 C   0  0  0  0  0  0  0  0  0  0  0  0
   68.4764   48.7974   57.0718 C   0  0  0  0  0  0  0  0  0  0  0  0
   68.9689   50.0527   56.8306 C   0  0  0  0  0  0  0  0  0  0  0  0
   68.9247   52.5667   56.8125 C   0  0  0  0  0  0  0  0  0  0  0  0
   68.6155   52.3062   54.3608 C   0  0  0  0  0  0  0  0  0  0  0  0
   69.6168   52.5761   55.4717 C   0  0  0  0  0  0  0  0  0  0  0  0
 20 21  1  0
 21 19  1  0
 19 13  1  0
 13 14  2  0
 13 18  1  0
 14 15  1  0
 15 16  2  0
 16 17  1  0
 17 12  1  0
 17 18  2  0
 12  1  1  0
  1  2  2  0
  1 11  1  0
  2  3  1  0
  3  4  1  0
  4  5  2  0
  4  6  1  0
  6  7  1  0
  6 11  2  0
  7  8  2  0
  8  9  1  0
  9 10  2  0
 10 11  1  0
M  END
>  <minimizedAffinity>  (56) 
-8.98850

$$$$
cs_full_output_folder/data/smiles/1976.pdb
     RDKit          3D

 20 21  0  0  0  0  0  0  0  0999 V2000
   68.5685   47.2922   55.1626 C   0  0  0  0  0  0  0  0  0  0  0  0
   67.7990   46.3886   54.4583 C   0  0  0  0  0  0  0  0  0  0  0  0
   67.8580   46.2665   53.0803 C   0  0  0  0  0  0  0  0  0  0  0  0
   67.0653   45.3400   52.3925 O   0  0  0  0  0  0  0  0  0  0  0  0
   68.7128   47.0702   52.3538 C   0  0  0  0  0  0  0  0  0  0  0  0
   68.8129   46.9904   50.9643 O   0  0  0  0  0  0  0  0  0  0  0  0
   69.4948   47.9863   53.0533 C   0  0  0  0  0  0  0  0  0  0  0  0
   69.4203   48.0913   54.4280 C   0  0  0  0  0  0  0  0  0  0  0  0
   70.3688   48.8055   52.2987 N   0  0  0  0  0  0  0  0  0  0  0  0
   71.5413   48.9761   52.7044 O   0  0  0  0  0  0  0  0  0  0  0  0
   69.9646   49.4173   51.1344 O   0  0  0  0  0  0  0  0  0  0  0  0
   68.4966   47.4109   56.6222 C   0  0  0  0  0  0  0  0  0  0  0  0
   69.1001   46.6357   57.3750 O   0  0  0  0  0  0  0  0  0  0  0  0
   67.6675   48.5025   57.2085 C   0  0  0  0  0  0  0  0  0  0  0  0
   69.4114   53.3760   56.4219 C   0  0  0  0  0  0  0  0  0  0  0  0
   69.2493   51.9521   56.9167 C   0  0  0  0  0  0  0  0  0  0  0  0
   70.0216   51.3307   57.7767 C   0  0  0  0  0  0  0  0  0  0  0  0
   69.5258   49.9855   57.9833 C   0  0  0  0  0  0  0  0  0  0  0  0
   68.4516   49.7845   57.2505 C   0  0  0  0  0  0  0  0  0  0  0  0
   68.1866   51.0248   56.5084 C   0  0  0  0  0  0  0  0  0  0  0  0
 15 16  1  0
 16 17  2  0
 16 20  1  0
 17 18  1  0
 18 19  2  0
 19 14  1  0
 19 20  1  0
 14 12  1  0
 12 13  2  0
 12  1  1  0
  1  2  2  0
  1  8  1  0
  2  3  1  0
  3  4  1  0
  3  5  2  0
  5  6  1  0
  5  7  1  0
  7  9  1  0
  7  8  2  0
  9 10  2  0
  9 11  1  0
M  CHG  2   9   1  11  -1
M  END
>  <minimizedAffinity>  (57) 
-8.97056

$$$$
cs_full_output_folder/data/smiles/7468.pdb
     RDKit          3D

 22 24  0  0  0  0  0  0  0  0999 V2000
   69.6008   50.1055   54.3337 C   0  0  0  0  0  0  0  0  0  0  0  0
   69.2887   49.2415   53.2508 C   0  0  0  0  0  0  0  0  0  0  0  0
   68.8327   47.9482   53.3397 C   0  0  0  0  0  0  0  0  0  0  0  0
   68.7981   47.2951   52.1118 C   0  0  0  0  0  0  0  0  0  0  0  0
   68.3825   45.9855   51.9811 C   0  0  0  0  0  0  0  0  0  0  0  0
   67.9855   45.3035   53.1270 C   0  0  0  0  0  0  0  0  0  0  0  0
   68.0214   45.9565   54.3426 C   0  0  0  0  0  0  0  0  0  0  0  0
   68.4340   47.2553   54.4735 C   0  0  0  0  0  0  0  0  0  0  0  0
   68.3783   47.7100   55.7957 C   0  0  0  0  0  0  0  0  0  0  0  0
   68.2812   46.8696   56.6924 O   0  0  0  0  0  0  0  0  0  0  0  0
   68.4193   49.0462   56.2110 C   0  0  0  0  0  0  0  0  0  0  0  0
   67.8034   49.2576   57.4256 C   0  0  0  0  0  0  0  0  0  0  0  0
   67.7172   50.5494   57.9255 C   0  0  0  0  0  0  0  0  0  0  0  0
   68.2303   51.6542   57.2480 C   0  0  0  0  0  0  0  0  0  0  0  0
   68.8411   51.4225   56.0389 C   0  0  0  0  0  0  0  0  0  0  0  0
   68.9300   50.1356   55.5426 C   0  0  0  0  0  0  0  0  0  0  0  0
   70.7374   50.9510   54.2040 C   0  0  0  0  0  0  0  0  0  0  0  0
   70.6073   51.9783   53.4455 O   0  0  0  0  0  0  0  0  0  0  0  0
   72.3076   51.2064   56.2337 C   0  0  0  0  0  0  0  0  0  0  0  0
   72.0158   50.7864   54.8087 C   0  0  0  0  0  0  0  0  0  0  0  0
   73.0378   50.2972   54.2142 N   0  0  0  0  0  0  0  0  0  0  0  0
   74.0183   50.2019   53.4555 N   0  0  0  0  0  0  0  0  0  0  0  0
 19 20  1  0
 20 21  2  0
 20 17  1  0
 21 22  2  0
 17 18  2  0
 17  1  1  0
  1  2  2  0
  1 16  1  0
  2  3  1  0
  3  4  2  0
  3  8  1  0
  4  5  1  0
  5  6  2  0
  6  7  1  0
  7  8  2  0
  8  9  1  0
  9 10  2  0
  9 11  1  0
 11 12  1  0
 11 16  2  0
 12 13  2  0
 13 14  1  0
 14 15  2  0
 15 16  1  0
M  CHG  2  21   1  22  -1
M  END
>  <minimizedAffinity>  (58) 
-8.96072

$$$$
cs_full_output_folder/data/smiles/1185.pdb
     RDKit          3D

 21 23  0  0  0  0  0  0  0  0999 V2000
   70.3279   49.8079   53.2350 C   0  0  0  0  0  0  0  0  0  0  0  0
   71.6538   49.5316   53.2700 N   0  0  0  0  0  0  0  0  0  0  0  0
   72.5156   50.2148   53.9956 N   0  0  0  0  0  0  0  0  0  0  0  0
   72.1484   51.2435   54.7619 C   0  0  0  0  0  0  0  0  0  0  0  0
   72.9730   51.9040   55.4602 O   0  0  0  0  0  0  0  0  0  0  0  0
   70.8234   51.5941   54.7890 C   0  0  0  0  0  0  0  0  0  0  0  0
   70.4222   52.6392   55.5860 C   0  0  0  0  0  0  0  0  0  0  0  0
   69.0885   52.9563   55.6103 C   0  0  0  0  0  0  0  0  0  0  0  0
   68.1837   52.2448   54.8564 C   0  0  0  0  0  0  0  0  0  0  0  0
   68.6087   51.1886   54.0541 C   0  0  0  0  0  0  0  0  0  0  0  0
   69.9209   50.8595   54.0140 C   0  0  0  0  0  0  0  0  0  0  0  0
   69.4957   49.0162   52.3430 C   0  0  0  0  0  0  0  0  0  0  0  0
   68.4801   46.4133   54.9159 C   0  0  0  0  0  0  0  0  0  0  0  0
   68.9737   47.5977   54.3552 C   0  0  0  0  0  0  0  0  0  0  0  0
   69.0023   47.8090   53.0188 C   0  0  0  0  0  0  0  0  0  0  0  0
   68.5098   46.7799   52.2037 C   0  0  0  0  0  0  0  0  0  0  0  0
   68.0233   45.6119   52.7470 C   0  0  0  0  0  0  0  0  0  0  0  0
   68.0014   45.4119   54.1065 C   0  0  0  0  0  0  0  0  0  0  0  0
   67.5184   44.2494   54.6529 F   0  0  0  0  0  0  0  0  0  0  0  0
   68.0211   47.1495   57.0434 O   0  0  0  0  0  0  0  0  0  0  0  0
   68.4538   46.2037   56.3217 N   0  0  0  0  0  0  0  0  0  0  0  0
 20 21  2  0
 21 13  1  0
 13 14  2  0
 13 18  1  0
 14 15  1  0
 15 12  1  0
 15 16  2  0
 12  1  1  0
  1  2  2  0
  1 11  1  0
  2  3  1  0
  3  4  1  0
  4  5  2  0
  4  6  1  0
  6  7  1  0
  6 11  2  0
  7  8  2  0
  8  9  1  0
  9 10  2  0
 10 11  1  0
 16 17  1  0
 17 18  2  0
 18 19  1  0
M  END
>  <minimizedAffinity>  (59) 
-8.95698

$$$$
cs_full_output_folder/data/smiles/3384.pdb
     RDKit          3D

 20 21  0  0  0  0  0  0  0  0999 V2000
   69.4779   48.3508   55.1091 N   0  0  0  0  0  0  0  0  0  0  0  0
   68.8508   49.3710   55.8377 C   0  0  0  0  0  0  0  0  0  0  0  0
   69.0146   50.7022   55.5264 C   0  0  0  0  0  0  0  0  0  0  0  0
   69.8142   51.0768   54.4611 F   0  0  0  0  0  0  0  0  0  0  0  0
   68.4019   51.7047   56.2429 C   0  0  0  0  0  0  0  0  0  0  0  0
   68.5740   53.0230   55.9210 F   0  0  0  0  0  0  0  0  0  0  0  0
   67.5848   51.4332   57.3186 C   0  0  0  0  0  0  0  0  0  0  0  0
   67.4292   50.0975   57.6200 C   0  0  0  0  0  0  0  0  0  0  0  0
   66.6205   49.7942   58.6874 F   0  0  0  0  0  0  0  0  0  0  0  0
   68.0272   49.0851   56.9239 C   0  0  0  0  0  0  0  0  0  0  0  0
   67.8446   47.7649   57.2586 F   0  0  0  0  0  0  0  0  0  0  0  0
   69.3390   47.7426   52.7310 C   0  0  0  0  0  0  0  0  0  0  0  0
   68.7730   46.8830   51.7611 C   0  0  0  0  0  0  0  0  0  0  0  0
   67.8917   45.8900   52.0773 C   0  0  0  0  0  0  0  0  0  0  0  0
   67.5632   45.7503   53.4082 C   0  0  0  0  0  0  0  0  0  0  0  0
   68.0984   46.5712   54.3590 C   0  0  0  0  0  0  0  0  0  0  0  0
   69.0163   47.6020   54.0259 C   0  0  0  0  0  0  0  0  0  0  0  0
   69.8310   49.6156   51.1901 N   0  0  0  0  0  0  0  0  0  0  0  0
   70.2294   48.7913   52.2769 C   0  0  0  0  0  0  0  0  0  0  0  0
   71.3249   49.0132   52.7806 O   0  0  0  0  0  0  0  0  0  0  0  0
 18 19  1  0
 19 20  2  0
 19 12  1  0
 12 13  2  0
 12 17  1  0
 13 14  1  0
 14 15  2  0
 15 16  1  0
 16 17  2  0
 17  1  1  0
  1  2  1  0
  2  3  2  0
  2 10  1  0
  3  4  1  0
  3  5  1  0
  5  6  1  0
  5  7  2  0
  7  8  1  0
  8  9  1  0
  8 10  2  0
 10 11  1  0
M  END
>  <minimizedAffinity>  (60) 
-8.94997

$$$$
cs_full_output_folder/data/smiles/3808.pdb
     RDKit          3D

 20 22  0  0  0  0  0  0  0  0999 V2000
   70.5101   48.7061   50.9365 O   0  0  0  0  0  0  0  0  0  0  0  0
   70.2827   48.5324   52.1612 C   0  0  0  0  0  0  0  0  0  0  0  0
   70.9263   49.2090   53.1250 N   0  0  0  0  0  0  0  0  0  0  0  0
   70.6886   49.0276   54.4088 N   0  0  0  0  0  0  0  0  0  0  0  0
   69.7539   48.1238   54.8483 C   0  0  0  0  0  0  0  0  0  0  0  0
   69.0909   47.4257   53.8710 C   0  0  0  0  0  0  0  0  0  0  0  0
   68.1413   46.4768   54.1957 C   0  0  0  0  0  0  0  0  0  0  0  0
   67.4591   45.7428   53.2424 C   0  0  0  0  0  0  0  0  0  0  0  0
   67.7024   45.9319   51.9023 C   0  0  0  0  0  0  0  0  0  0  0  0
   68.6433   46.8666   51.5486 C   0  0  0  0  0  0  0  0  0  0  0  0
   69.3169   47.5915   52.5066 C   0  0  0  0  0  0  0  0  0  0  0  0
   69.4827   47.9881   56.3009 C   0  0  0  0  0  0  0  0  0  0  0  0
   68.5603   49.0265   56.8304 C   0  0  0  0  0  0  0  0  0  0  0  0
   67.3722   48.7967   57.4689 C   0  0  0  0  0  0  0  0  0  0  0  0
   66.5532   49.8141   57.9264 C   0  0  0  0  0  0  0  0  0  0  0  0
   66.9069   51.1331   57.7555 C   0  0  0  0  0  0  0  0  0  0  0  0
   68.1048   51.3809   57.1126 C   0  0  0  0  0  0  0  0  0  0  0  0
   68.9093   50.3703   56.6620 C   0  0  0  0  0  0  0  0  0  0  0  0
   68.4689   52.7165   56.9361 O   0  0  0  0  0  0  0  0  0  0  0  0
   68.7141   53.1417   55.6694 F   0  0  0  0  0  0  0  0  0  0  0  0
  1  2  2  0
  2  3  1  0
  2 11  1  0
  3  4  1  0
  4  5  2  0
  5 12  1  0
  5  6  1  0
 12 13  1  0
 13 14  2  0
 13 18  1  0
 14 15  1  0
 15 16  2  0
 16 17  1  0
 17 19  1  0
 17 18  2  0
 19 20  1  0
  6  7  1  0
  6 11  2  0
  7  8  2  0
  8  9  1  0
  9 10  2  0
 10 11  1  0
M  END
>  <minimizedAffinity>  (61) 
-8.93930

$$$$
cs_full_output_folder/data/smiles/419.pdb
     RDKit          3D

 20 22  0  0  0  0  0  0  0  0999 V2000
   69.7547   48.1893   54.7651 C   0  0  0  0  0  0  0  0  0  0  0  0
   70.6971   49.0571   54.3241 N   0  0  0  0  0  0  0  0  0  0  0  0
   70.9651   49.1697   53.0484 N   0  0  0  0  0  0  0  0  0  0  0  0
   70.3470   48.4557   52.0938 C   0  0  0  0  0  0  0  0  0  0  0  0
   70.6225   48.5796   50.8720 O   0  0  0  0  0  0  0  0  0  0  0  0
   69.3791   47.5624   52.5182 C   0  0  0  0  0  0  0  0  0  0  0  0
   68.6876   46.8005   51.5986 C   0  0  0  0  0  0  0  0  0  0  0  0
   67.7233   45.9291   52.0043 C   0  0  0  0  0  0  0  0  0  0  0  0
   67.4122   45.7848   53.3383 C   0  0  0  0  0  0  0  0  0  0  0  0
   68.0939   46.5403   54.2889 C   0  0  0  0  0  0  0  0  0  0  0  0
   69.0730   47.4234   53.8800 C   0  0  0  0  0  0  0  0  0  0  0  0
   69.5606   48.0795   56.2179 C   0  0  0  0  0  0  0  0  0  0  0  0
   68.1072   51.4427   57.0459 C   0  0  0  0  0  0  0  0  0  0  0  0
   66.9456   51.1083   57.7230 C   0  0  0  0  0  0  0  0  0  0  0  0
   66.6094   49.7836   57.9186 C   0  0  0  0  0  0  0  0  0  0  0  0
   67.4798   48.8089   57.4091 C   0  0  0  0  0  0  0  0  0  0  0  0
   68.6156   49.1118   56.7472 C   0  0  0  0  0  0  0  0  0  0  0  0
   68.9320   50.4646   56.5635 C   0  0  0  0  0  0  0  0  0  0  0  0
   69.6452   53.1805   56.2341 C   0  0  0  0  0  0  0  0  0  0  0  0
   68.4566   52.7630   56.8440 O   0  0  0  0  0  0  0  0  0  0  0  0
 19 20  1  0
 20 13  1  0
 13 14  2  0
 13 18  1  0
 14 15  1  0
 15 16  2  0
 16 17  1  0
 17 12  1  0
 17 18  2  0
 12  1  1  0
  1  2  2  0
  1 11  1  0
  2  3  1  0
  3  4  1  0
  4  5  2  0
  4  6  1  0
  6  7  1  0
  6 11  2  0
  7  8  2  0
  8  9  1  0
  9 10  2  0
 10 11  1  0
M  END
>  <minimizedAffinity>  (62) 
-8.92744

$$$$
cs_full_output_folder/data/smiles/5173.pdb
     RDKit          3D

 21 23  0  0  0  0  0  0  0  0999 V2000
   68.2488   46.1302   54.3342 C   0  0  0  0  0  0  0  0  0  0  0  0
   67.7641   45.3788   53.2626 C   0  0  0  0  0  0  0  0  0  0  0  0
   67.9620   45.7556   51.9544 C   0  0  0  0  0  0  0  0  0  0  0  0
   68.6618   46.9142   51.7110 C   0  0  0  0  0  0  0  0  0  0  0  0
   69.1716   47.7111   52.7314 C   0  0  0  0  0  0  0  0  0  0  0  0
   69.8591   48.8707   52.4113 C   0  0  0  0  0  0  0  0  0  0  0  0
   70.0551   49.2418   51.0883 O   0  0  0  0  0  0  0  0  0  0  0  0
   70.3387   49.6388   53.4487 C   0  0  0  0  0  0  0  0  0  0  0  0
   70.1208   49.2350   54.7472 C   0  0  0  0  0  0  0  0  0  0  0  0
   69.4346   48.0761   55.0422 C   0  0  0  0  0  0  0  0  0  0  0  0
   68.9414   47.2809   54.0286 C   0  0  0  0  0  0  0  0  0  0  0  0
   68.0255   45.7198   55.6750 N   0  0  0  0  0  0  0  0  0  0  0  0
   68.6007   42.1689   56.6510 C   0  0  0  0  0  0  0  0  0  0  0  0
   69.7778   42.2955   57.3505 C   0  0  0  0  0  0  0  0  0  0  0  0
   70.3795   43.5252   57.5040 C   0  0  0  0  0  0  0  0  0  0  0  0
   69.7806   44.6303   56.9430 C   0  0  0  0  0  0  0  0  0  0  0  0
   68.6018   44.5514   56.2337 C   0  0  0  0  0  0  0  0  0  0  0  0
   68.0366   43.3009   56.1055 C   0  0  0  0  0  0  0  0  0  0  0  0
   67.8317   40.1068   57.4991 O   0  0  0  0  0  0  0  0  0  0  0  0
   67.9829   40.8573   56.5013 C   0  0  0  0  0  0  0  0  0  0  0  0
   67.5381   40.3785   55.2777 O   0  0  0  0  0  0  0  0  0  0  0  0
 19 20  2  0
 20 21  1  0
 20 13  1  0
 13 14  2  0
 13 18  1  0
 14 15  1  0
 15 16  2  0
 16 17  1  0
 17 12  1  0
 17 18  2  0
 12  1  1  0
  1  2  2  0
  1 11  1  0
  2  3  1  0
  3  4  2  0
  4  5  1  0
  5  6  1  0
  5 11  2  0
  6  7  1  0
  6  8  2  0
  8  9  1  0
  9 10  2  0
 10 11  1  0
M  END
>  <minimizedAffinity>  (63) 
-8.92447

$$$$
cs_full_output_folder/data/smiles/3790.pdb
     RDKit          3D

 22 24  0  0  0  0  0  0  0  0999 V2000
   68.9136   45.5150   56.4484 C   0  0  0  0  0  0  0  0  0  0  0  0
   69.9463   46.1719   57.0052 N   0  0  0  0  0  0  0  0  0  0  0  0
   70.8678   45.5824   57.7657 C   0  0  0  0  0  0  0  0  0  0  0  0
   70.7451   44.2082   57.9899 C   0  0  0  0  0  0  0  0  0  0  0  0
   69.7024   43.4968   57.4388 C   0  0  0  0  0  0  0  0  0  0  0  0
   68.8285   44.1965   56.6864 N   0  0  0  0  0  0  0  0  0  0  0  0
   69.5386   42.0533   57.6497 C   0  0  0  0  0  0  0  0  0  0  0  0
   70.4608   41.2711   58.2563 C   0  0  0  0  0  0  0  0  0  0  0  0
   70.2139   39.9018   58.4118 C   0  0  0  0  0  0  0  0  0  0  0  0
   69.0519   39.3176   57.9648 C   0  0  0  0  0  0  0  0  0  0  0  0
   68.1046   40.1229   57.3416 C   0  0  0  0  0  0  0  0  0  0  0  0
   68.3731   41.4602   57.2025 C   0  0  0  0  0  0  0  0  0  0  0  0
   67.9917   46.1992   55.6678 O   0  0  0  0  0  0  0  0  0  0  0  0
   69.3311   47.7146   52.5517 C   0  0  0  0  0  0  0  0  0  0  0  0
   68.7306   46.8570   51.6550 C   0  0  0  0  0  0  0  0  0  0  0  0
   67.9460   45.8591   52.0510 N   0  0  0  0  0  0  0  0  0  0  0  0
   67.7185   45.6639   53.3754 C   0  0  0  0  0  0  0  0  0  0  0  0
   68.2780   46.4722   54.3388 C   0  0  0  0  0  0  0  0  0  0  0  0
   69.0884   47.5025   53.9146 C   0  0  0  0  0  0  0  0  0  0  0  0
   69.8325   49.6242   51.0406 N   0  0  0  0  0  0  0  0  0  0  0  0
   70.1794   48.7947   52.1205 C   0  0  0  0  0  0  0  0  0  0  0  0
   71.2587   49.0071   52.7188 O   0  0  0  0  0  0  0  0  0  0  0  0
 20 21  1  0
 21 22  2  0
 21 14  1  0
 14 15  2  0
 14 19  1  0
 15 16  1  0
 16 17  2  0
 17 18  1  0
 18 13  1  0
 18 19  2  0
 13  1  1  0
  1  2  2  0
  1  6  1  0
  2  3  1  0
  3  4  2  0
  4  5  1  0
  5  7  1  0
  5  6  2  0
  7  8  2  0
  7 12  1  0
  8  9  1  0
  9 10  2  0
 10 11  1  0
 11 12  2  0
M  END
>  <minimizedAffinity>  (64) 
-8.92384

$$$$
cs_full_output_folder/data/smiles/4425.pdb
     RDKit          3D

 21 23  0  0  0  0  0  0  0  0999 V2000
   69.0039   48.6790   55.7918 C   0  0  0  0  0  0  0  0  0  0  0  0
   68.2560   48.0716   56.7716 C   0  0  0  0  0  0  0  0  0  0  0  0
   68.2718   46.6880   56.8584 O   0  0  0  0  0  0  0  0  0  0  0  0
   67.5076   48.8337   57.6441 C   0  0  0  0  0  0  0  0  0  0  0  0
   67.4852   50.2159   57.5658 C   0  0  0  0  0  0  0  0  0  0  0  0
   68.2385   50.8169   56.5801 C   0  0  0  0  0  0  0  0  0  0  0  0
   68.2271   52.1969   56.4870 C   0  0  0  0  0  0  0  0  0  0  0  0
   68.9915   52.7758   55.4901 C   0  0  0  0  0  0  0  0  0  0  0  0
   69.7475   52.0445   54.6046 C   0  0  0  0  0  0  0  0  0  0  0  0
   69.7374   50.6631   54.7234 C   0  0  0  0  0  0  0  0  0  0  0  0
   68.9829   50.0522   55.7110 C   0  0  0  0  0  0  0  0  0  0  0  0
   69.7988   47.8895   54.8626 N   0  0  0  0  0  0  0  0  0  0  0  0
   69.2965   47.6267   52.5080 C   0  0  0  0  0  0  0  0  0  0  0  0
   68.5792   46.9981   51.4779 C   0  0  0  0  0  0  0  0  0  0  0  0
   67.6678   46.0234   51.7911 C   0  0  0  0  0  0  0  0  0  0  0  0
   67.4351   45.6418   53.0919 C   0  0  0  0  0  0  0  0  0  0  0  0
   68.1539   46.2770   54.0714 C   0  0  0  0  0  0  0  0  0  0  0  0
   69.0981   47.2797   53.8188 C   0  0  0  0  0  0  0  0  0  0  0  0
   71.3715   48.8465   52.5746 O   0  0  0  0  0  0  0  0  0  0  0  0
   70.2353   48.6388   52.1204 C   0  0  0  0  0  0  0  0  0  0  0  0
   69.8852   49.5490   51.0930 O   0  0  0  0  0  0  0  0  0  0  0  0
 19 20  2  0
 20 21  1  0
 20 13  1  0
 13 14  2  0
 13 18  1  0
 14 15  1  0
 15 16  2  0
 16 17  1  0
 17 18  2  0
 18 12  1  0
 12  1  1  0
  1  2  2  0
  1 11  1  0
  2  3  1  0
  2  4  1  0
  4  5  2  0
  5  6  1  0
  6  7  1  0
  6 11  2  0
  7  8  2  0
  8  9  1  0
  9 10  2  0
 10 11  1  0
M  END
>  <minimizedAffinity>  (65) 
-8.92262

$$$$
cs_full_output_folder/data/smiles/7929.pdb
     RDKit          3D

 21 23  0  0  0  0  0  0  0  0999 V2000
   71.5518   48.1308   59.0492 C   0  0  0  0  0  0  0  0  0  0  0  0
   70.8035   47.0931   58.2895 C   0  0  0  0  0  0  0  0  0  0  0  0
   69.7450   47.3851   57.4556 C   0  0  0  0  0  0  0  0  0  0  0  0
   69.0601   46.3907   56.7543 C   0  0  0  0  0  0  0  0  0  0  0  0
   69.4885   45.1334   56.9353 N   0  0  0  0  0  0  0  0  0  0  0  0
   70.5187   44.8121   57.7425 C   0  0  0  0  0  0  0  0  0  0  0  0
   71.1570   45.7855   58.4031 N   0  0  0  0  0  0  0  0  0  0  0  0
   70.9670   43.4333   57.9239 C   0  0  0  0  0  0  0  0  0  0  0  0
   72.0780   42.8812   58.2765 C   0  0  0  0  0  0  0  0  0  0  0  0
   71.5690   41.5353   58.1692 C   0  0  0  0  0  0  0  0  0  0  0  0
   70.3002   42.1494   57.7667 C   0  0  0  0  0  0  0  0  0  0  0  0
   67.9987   46.7276   55.9237 O   0  0  0  0  0  0  0  0  0  0  0  0
   68.2631   46.7732   54.5521 C   0  0  0  0  0  0  0  0  0  0  0  0
   67.6940   45.8375   53.7128 C   0  0  0  0  0  0  0  0  0  0  0  0
   67.9448   45.8668   52.3507 C   0  0  0  0  0  0  0  0  0  0  0  0
   68.7686   46.8367   51.8242 C   0  0  0  0  0  0  0  0  0  0  0  0
   69.3558   47.7912   52.6346 C   0  0  0  0  0  0  0  0  0  0  0  0
   69.0778   47.7239   53.9925 C   0  0  0  0  0  0  0  0  0  0  0  0
   70.2236   48.8162   52.0969 C   0  0  0  0  0  0  0  0  0  0  0  0
   69.7715   49.6280   51.0363 N   0  0  0  0  0  0  0  0  0  0  0  0
   71.3621   48.9679   52.5794 O   0  0  0  0  0  0  0  0  0  0  0  0
  1  2  1  0
  2  3  2  0
  2  7  1  0
  3  4  1  0
  4 12  1  0
  4  5  2  0
 12 13  1  0
 13 14  2  0
 13 18  1  0
 14 15  1  0
 15 16  2  0
 16 17  1  0
 17 19  1  0
 17 18  2  0
 19 20  1  0
 19 21  2  0
  5  6  1  0
  6  8  1  0
  6  7  2  0
  8  9  2  0
  8 11  1  0
  9 10  1  0
 10 11  1  0
M  END
>  <minimizedAffinity>  (66) 
-8.92117

$$$$
cs_full_output_folder/data/smiles/2048.pdb
     RDKit          3D

 22 25  0  0  0  0  0  0  0  0999 V2000
   70.0419   49.6116   53.7355 C   0  0  0  0  0  0  0  0  0  0  0  0
   70.1644   50.2174   52.5339 N   0  0  0  0  0  0  0  0  0  0  0  0
   69.7070   49.4450   51.5667 N   0  0  0  0  0  0  0  0  0  0  0  0
   69.2602   48.2864   52.1070 C   0  0  0  0  0  0  0  0  0  0  0  0
   68.6904   47.1416   51.5875 C   0  0  0  0  0  0  0  0  0  0  0  0
   68.3371   46.1128   52.4459 C   0  0  0  0  0  0  0  0  0  0  0  0
   68.5365   46.1956   53.8011 C   0  0  0  0  0  0  0  0  0  0  0  0
   69.1088   47.3515   54.2965 C   0  0  0  0  0  0  0  0  0  0  0  0
   69.4684   48.3852   53.4729 C   0  0  0  0  0  0  0  0  0  0  0  0
   68.1647   45.1141   54.6989 C   0  0  0  0  0  0  0  0  0  0  0  0
   68.6480   44.9586   55.9580 N   0  0  0  0  0  0  0  0  0  0  0  0
   68.1196   43.8855   56.5113 N   0  0  0  0  0  0  0  0  0  0  0  0
   67.3037   43.3507   55.6232 N   0  0  0  0  0  0  0  0  0  0  0  0
   67.3246   44.0866   54.5246 N   0  0  0  0  0  0  0  0  0  0  0  0
   70.4290   50.1062   55.0701 C   0  0  0  0  0  0  0  0  0  0  0  0
   68.9303   52.4344   55.0631 N   0  0  0  0  0  0  0  0  0  0  0  0
   68.5265   51.3872   55.9610 C   0  0  0  0  0  0  0  0  0  0  0  0
   67.4329   51.5473   56.7770 C   0  0  0  0  0  0  0  0  0  0  0  0
   67.0247   50.5458   57.6526 C   0  0  0  0  0  0  0  0  0  0  0  0
   67.7707   49.3864   57.6621 C   0  0  0  0  0  0  0  0  0  0  0  0
   68.8620   49.2246   56.8490 C   0  0  0  0  0  0  0  0  0  0  0  0
   69.2525   50.2147   55.9933 C   0  0  0  0  0  0  0  0  0  0  0  0
 16 17  1  0
 17 18  2  0
 17 22  1  0
 18 19  1  0
 19 20  2  0
 20 21  1  0
 21 22  2  0
 22 15  1  0
 15  1  1  0
  1  2  2  0
  1  9  1  0
  2  3  1  0
  3  4  1  0
  4  5  1  0
  4  9  2  0
  5  6  2  0
  6  7  1  0
  7 10  1  0
  7  8  2  0
 10 11  2  0
 10 14  1  0
 11 12  1  0
 12 13  2  0
 13 14  1  0
  8  9  1  0
M  END
>  <minimizedAffinity>  (67) 
-8.91698

$$$$
cs_full_output_folder/data/smiles/713.pdb
     RDKit          3D

 22 24  0  0  0  0  0  0  0  0999 V2000
   67.3737   44.8009   52.4800 O   0  0  0  0  0  0  0  0  0  0  0  0
   67.8337   45.4557   53.4617 C   0  0  0  0  0  0  0  0  0  0  0  0
   67.6445   45.1024   54.7431 N   0  0  0  0  0  0  0  0  0  0  0  0
   68.1234   45.7818   55.7697 N   0  0  0  0  0  0  0  0  0  0  0  0
   68.8555   46.9084   55.6016 C   0  0  0  0  0  0  0  0  0  0  0  0
   69.0696   47.3037   54.2822 C   0  0  0  0  0  0  0  0  0  0  0  0
   69.7960   48.4452   54.0743 C   0  0  0  0  0  0  0  0  0  0  0  0
   70.0244   48.8760   52.7785 C   0  0  0  0  0  0  0  0  0  0  0  0
   69.5235   48.1627   51.6991 C   0  0  0  0  0  0  0  0  0  0  0  0
   68.7915   47.0162   51.8902 C   0  0  0  0  0  0  0  0  0  0  0  0
   68.5714   46.5971   53.2008 C   0  0  0  0  0  0  0  0  0  0  0  0
   69.3840   47.5907   56.7575 C   0  0  0  0  0  0  0  0  0  0  0  0
   68.5863   48.8217   57.0385 C   0  0  0  0  0  0  0  0  0  0  0  0
   67.3104   48.6975   57.5786 C   0  0  0  0  0  0  0  0  0  0  0  0
   66.5034   49.7604   57.8856 C   0  0  0  0  0  0  0  0  0  0  0  0
   66.9692   51.0520   57.6501 C   0  0  0  0  0  0  0  0  0  0  0  0
   68.2218   51.1979   57.1182 C   0  0  0  0  0  0  0  0  0  0  0  0
   69.0198   50.1034   56.8168 C   0  0  0  0  0  0  0  0  0  0  0  0
   68.7780   52.5561   56.8406 C   0  0  0  0  0  0  0  0  0  0  0  0
   69.5269   52.4969   55.5169 C   0  0  0  0  0  0  0  0  0  0  0  0
   68.6355   52.7705   54.4921 O   0  0  0  0  0  0  0  0  0  0  0  0
   70.5388   53.4257   55.4898 O   0  0  0  0  0  0  0  0  0  0  0  0
  1  2  2  0
  2  3  1  0
  2 11  1  0
  3  4  1  0
  4  5  2  0
  5 12  1  0
  5  6  1  0
 12 13  1  0
 13 14  2  0
 13 18  1  0
 14 15  1  0
 15 16  2  0
 16 17  1  0
 17 19  1  0
 17 18  2  0
 19 20  1  0
 20 21  1  0
 20 22  1  0
  6  7  1  0
  6 11  2  0
  7  8  2  0
  8  9  1  0
  9 10  2  0
 10 11  1  0
M  END
>  <minimizedAffinity>  (68) 
-8.91268

$$$$
cs_full_output_folder/data/smiles/1645.pdb
     RDKit          3D

 20 22  0  0  0  0  0  0  0  0999 V2000
   69.7085   48.0667   54.8511 C   0  0  0  0  0  0  0  0  0  0  0  0
   70.6329   48.9768   54.4120 N   0  0  0  0  0  0  0  0  0  0  0  0
   70.8828   49.1997   53.1376 N   0  0  0  0  0  0  0  0  0  0  0  0
   70.2359   48.5357   52.1700 C   0  0  0  0  0  0  0  0  0  0  0  0
   70.4742   48.7484   50.9548 O   0  0  0  0  0  0  0  0  0  0  0  0
   69.2806   47.5894   52.5017 C   0  0  0  0  0  0  0  0  0  0  0  0
   68.6218   46.8803   51.5102 C   0  0  0  0  0  0  0  0  0  0  0  0
   67.6875   45.9203   51.9046 C   0  0  0  0  0  0  0  0  0  0  0  0
   67.4664   45.7253   53.2470 C   0  0  0  0  0  0  0  0  0  0  0  0
   68.1342   46.4446   54.2268 C   0  0  0  0  0  0  0  0  0  0  0  0
   69.0536   47.3916   53.8461 C   0  0  0  0  0  0  0  0  0  0  0  0
   69.5008   47.9831   56.2712 C   0  0  0  0  0  0  0  0  0  0  0  0
   68.1616   51.4509   57.1003 C   0  0  0  0  0  0  0  0  0  0  0  0
   66.9931   51.0931   57.7238 C   0  0  0  0  0  0  0  0  0  0  0  0
   66.6317   49.7822   57.8869 C   0  0  0  0  0  0  0  0  0  0  0  0
   67.4846   48.8184   57.4035 C   0  0  0  0  0  0  0  0  0  0  0  0
   68.6928   49.1224   56.7573 C   0  0  0  0  0  0  0  0  0  0  0  0
   68.9904   50.4364   56.6275 C   0  0  0  0  0  0  0  0  0  0  0  0
   69.6083   53.1420   56.2217 C   0  0  0  0  0  0  0  0  0  0  0  0
   68.4595   52.7949   56.9734 O   0  0  0  0  0  0  0  0  0  0  0  0
 19 20  1  0
 20 13  1  0
 13 14  2  0
 13 18  1  0
 14 15  1  0
 15 16  2  0
 16 17  1  0
 17 12  1  0
 17 18  2  0
 12  1  1  0
  1  2  2  0
  1 11  1  0
  2  3  1  0
  3  4  1  0
  4  5  2  0
  4  6  1  0
  6  7  1  0
  6 11  2  0
  7  8  2  0
  8  9  1  0
  9 10  2  0
 10 11  1  0
M  END
>  <minimizedAffinity>  (69) 
-8.91223

$$$$
cs_full_output_folder/data/smiles/615.pdb
     RDKit          3D

 20 22  0  0  0  0  0  0  0  0999 V2000
   70.3477   49.1414   53.9946 C   0  0  0  0  0  0  0  0  0  0  0  0
   71.5244   49.4671   53.3796 N   0  0  0  0  0  0  0  0  0  0  0  0
   72.0689   50.5245   53.9547 N   0  0  0  0  0  0  0  0  0  0  0  0
   71.2477   50.8979   54.9549 C   0  0  0  0  0  0  0  0  0  0  0  0
   70.1426   50.0417   55.0088 C   0  0  0  0  0  0  0  0  0  0  0  0
   66.9134   44.8714   52.4781 O   0  0  0  0  0  0  0  0  0  0  0  0
   67.7541   45.9102   52.8764 C   0  0  0  0  0  0  0  0  0  0  0  0
   68.1042   46.1111   54.1945 C   0  0  0  0  0  0  0  0  0  0  0  0
   68.9397   47.1490   54.5631 C   0  0  0  0  0  0  0  0  0  0  0  0
   69.4655   48.0315   53.6465 C   0  0  0  0  0  0  0  0  0  0  0  0
   69.1056   47.8207   52.3161 C   0  0  0  0  0  0  0  0  0  0  0  0
   69.6310   48.7093   51.3796 O   0  0  0  0  0  0  0  0  0  0  0  0
   68.2713   46.7862   51.9456 C   0  0  0  0  0  0  0  0  0  0  0  0
   67.9357   46.6117   50.6041 O   0  0  0  0  0  0  0  0  0  0  0  0
   69.0264   50.1303   55.9621 C   0  0  0  0  0  0  0  0  0  0  0  0
   68.2645   51.2467   56.1497 C   0  0  0  0  0  0  0  0  0  0  0  0
   67.2281   51.2606   57.0778 C   0  0  0  0  0  0  0  0  0  0  0  0
   66.9901   50.1123   57.8053 C   0  0  0  0  0  0  0  0  0  0  0  0
   67.7645   48.9886   57.6104 C   0  0  0  0  0  0  0  0  0  0  0  0
   68.7447   49.0232   56.7110 N   0  0  0  0  0  0  0  0  0  0  0  0
  6  7  1  0
  7  8  2  0
  7 13  1  0
  8  9  1  0
  9 10  2  0
 10  1  1  0
 10 11  1  0
  1  2  2  0
  1  5  1  0
  2  3  1  0
  3  4  1  0
  4  5  2  0
  5 15  1  0
 15 16  2  0
 15 20  1  0
 16 17  1  0
 17 18  2  0
 18 19  1  0
 19 20  2  0
 11 12  1  0
 11 13  2  0
 13 14  1  0
M  END
>  <minimizedAffinity>  (70) 
-8.90793

$$$$
cs_full_output_folder/data/smiles/103.pdb
     RDKit          3D

 21 23  0  0  0  0  0  0  0  0999 V2000
   70.5529   50.8118   53.2561 N   0  0  0  0  0  0  0  0  0  0  0  0
   69.9074   49.5675   53.0062 C   0  0  0  0  0  0  0  0  0  0  0  0
   69.5306   48.7070   54.0286 C   0  0  0  0  0  0  0  0  0  0  0  0
   68.9073   47.5102   53.7295 C   0  0  0  0  0  0  0  0  0  0  0  0
   68.5134   46.6201   54.7114 C   0  0  0  0  0  0  0  0  0  0  0  0
   67.8909   45.4293   54.3844 C   0  0  0  0  0  0  0  0  0  0  0  0
   67.6332   45.0725   53.0767 C   0  0  0  0  0  0  0  0  0  0  0  0
   68.0253   45.9585   52.0949 C   0  0  0  0  0  0  0  0  0  0  0  0
   68.6483   47.1498   52.4231 C   0  0  0  0  0  0  0  0  0  0  0  0
   69.0188   47.9902   51.4820 O   0  0  0  0  0  0  0  0  0  0  0  0
   69.6127   49.1342   51.7277 C   0  0  0  0  0  0  0  0  0  0  0  0
   69.9545   49.9177   50.7888 O   0  0  0  0  0  0  0  0  0  0  0  0
   69.7943   49.0711   55.3679 N   0  0  0  0  0  0  0  0  0  0  0  0
   68.7526   49.4648   56.2671 C   0  0  0  0  0  0  0  0  0  0  0  0
   67.9915   48.5228   56.9400 C   0  0  0  0  0  0  0  0  0  0  0  0
   66.9769   48.8449   57.8158 C   0  0  0  0  0  0  0  0  0  0  0  0
   66.6999   50.1776   58.0397 C   0  0  0  0  0  0  0  0  0  0  0  0
   67.4414   51.1388   57.3837 C   0  0  0  0  0  0  0  0  0  0  0  0
   68.4628   50.7910   56.5015 C   0  0  0  0  0  0  0  0  0  0  0  0
   69.2539   51.8357   55.8014 C   0  0  0  0  0  0  0  0  0  0  0  0
   68.4524   52.4925   54.8759 O   0  0  0  0  0  0  0  0  0  0  0  0
  1  2  1  0
  2  3  2  0
  2 11  1  0
  3 13  1  0
  3  4  1  0
 13 14  1  0
 14 15  2  0
 14 19  1  0
 15 16  1  0
 16 17  2  0
 17 18  1  0
 18 19  2  0
 19 20  1  0
 20 21  1  0
  4  5  2  0
  4  9  1  0
  5  6  1  0
  6  7  2  0
  7  8  1  0
  8  9  2  0
  9 10  1  0
 10 11  1  0
 11 12  2  0
M  END
>  <minimizedAffinity>  (71) 
-8.90402

$$$$
cs_full_output_folder/data/smiles/372.pdb
     RDKit          3D

 20 22  0  0  0  0  0  0  0  0999 V2000
   69.4665   48.3173   54.0437 C   0  0  0  0  0  0  0  0  0  0  0  0
   69.2230   48.0560   55.4043 C   0  0  0  0  0  0  0  0  0  0  0  0
   68.3750   47.0874   55.8484 C   0  0  0  0  0  0  0  0  0  0  0  0
   68.2528   46.9671   57.1140 O   0  0  0  0  0  0  0  0  0  0  0  0
   67.7364   46.3410   55.0186 O   0  0  0  0  0  0  0  0  0  0  0  0
   67.8892   46.4968   53.7331 C   0  0  0  0  0  0  0  0  0  0  0  0
   67.2225   45.7110   52.8503 N   0  0  0  0  0  0  0  0  0  0  0  0
   67.3686   45.8510   51.5273 C   0  0  0  0  0  0  0  0  0  0  0  0
   66.7001   45.0656   50.7693 O   0  0  0  0  0  0  0  0  0  0  0  0
   68.1867   46.7796   51.0154 N   0  0  0  0  0  0  0  0  0  0  0  0
   68.8616   47.5753   51.8811 C   0  0  0  0  0  0  0  0  0  0  0  0
   69.6177   48.4277   51.3838 O   0  0  0  0  0  0  0  0  0  0  0  0
   68.7347   47.4609   53.2181 C   0  0  0  0  0  0  0  0  0  0  0  0
   70.3381   49.3935   53.5960 C   0  0  0  0  0  0  0  0  0  0  0  0
   70.5833   50.5150   54.5551 C   0  0  0  0  0  0  0  0  0  0  0  0
   69.3115   51.3282   54.6466 C   0  0  0  0  0  0  0  0  0  0  0  0
   69.4796   53.3395   56.1190 C   0  0  0  0  0  0  0  0  0  0  0  0
   69.0199   51.8751   56.0094 C   0  0  0  0  0  0  0  0  0  0  0  0
   69.2473   51.0872   57.2399 C   0  0  0  0  0  0  0  0  0  0  0  0
   67.8558   51.4006   56.7584 C   0  0  0  0  0  0  0  0  0  0  0  0
 17 18  1  0
 18 16  1  0
 18 19  1  0
 18 20  1  0
 16 15  1  0
 15 14  1  0
 14  1  1  0
  1  2  2  0
  1 13  1  0
  2  3  1  0
  3  4  2  0
  3  5  1  0
  5  6  1  0
  6  7  1  0
  6 13  2  0
  7  8  1  0
  8  9  2  0
  8 10  1  0
 10 11  1  0
 11 12  2  0
 11 13  1  0
 19 20  1  0
M  END
>  <minimizedAffinity>  (72) 
-8.90336

$$$$
cs_full_output_folder/data/smiles/229.pdb
     RDKit          3D

 22 25  0  0  0  0  0  0  0  0999 V2000
   70.0135   49.5136   53.4970 C   0  0  0  0  0  0  0  0  0  0  0  0
   70.0686   50.0698   52.2700 N   0  0  0  0  0  0  0  0  0  0  0  0
   69.5537   49.2360   51.3755 N   0  0  0  0  0  0  0  0  0  0  0  0
   69.1610   48.1272   52.0320 C   0  0  0  0  0  0  0  0  0  0  0  0
   68.5615   46.9495   51.6400 C   0  0  0  0  0  0  0  0  0  0  0  0
   68.2345   45.9350   52.5171 C   0  0  0  0  0  0  0  0  0  0  0  0
   68.5086   46.0725   53.8699 C   0  0  0  0  0  0  0  0  0  0  0  0
   69.1082   47.2524   54.2578 C   0  0  0  0  0  0  0  0  0  0  0  0
   69.4390   48.2719   53.3899 C   0  0  0  0  0  0  0  0  0  0  0  0
   68.1771   45.0189   54.8203 C   0  0  0  0  0  0  0  0  0  0  0  0
   68.6096   44.8070   56.0703 N   0  0  0  0  0  0  0  0  0  0  0  0
   68.0425   43.7253   56.5748 N   0  0  0  0  0  0  0  0  0  0  0  0
   67.2374   43.2336   55.6452 N   0  0  0  0  0  0  0  0  0  0  0  0
   67.3172   44.0161   54.5810 N   0  0  0  0  0  0  0  0  0  0  0  0
   70.5183   50.1391   54.7335 C   0  0  0  0  0  0  0  0  0  0  0  0
   69.6396   51.1864   55.3133 C   0  0  0  0  0  0  0  0  0  0  0  0
   67.6770   49.0250   57.6517 C   0  0  0  0  0  0  0  0  0  0  0  0
   66.6798   49.8832   58.0553 C   0  0  0  0  0  0  0  0  0  0  0  0
   66.6911   51.1245   57.5500 N   0  0  0  0  0  0  0  0  0  0  0  0
   67.6098   51.5605   56.6898 C   0  0  0  0  0  0  0  0  0  0  0  0
   68.6180   50.7262   56.2704 C   0  0  0  0  0  0  0  0  0  0  0  0
   68.6545   49.4269   56.7606 C   0  0  0  0  0  0  0  0  0  0  0  0
 17 18  2  0
 17 22  1  0
 18 19  1  0
 19 20  2  0
 20 21  1  0
 21 16  1  0
 21 22  2  0
 16 15  1  0
 15  1  1  0
  1  2  2  0
  1  9  1  0
  2  3  1  0
  3  4  1  0
  4  5  1  0
  4  9  2  0
  5  6  2  0
  6  7  1  0
  7 10  1  0
  7  8  2  0
 10 11  2  0
 10 14  1  0
 11 12  1  0
 12 13  2  0
 13 14  1  0
  8  9  1  0
M  END
>  <minimizedAffinity>  (73) 
-8.90261

$$$$
cs_full_output_folder/data/smiles/7868.pdb
     RDKit          3D

 21 23  0  0  0  0  0  0  0  0999 V2000
   69.5598   47.3030   56.8998 C   0  0  0  0  0  0  0  0  0  0  0  0
   69.8226   45.3754   59.1010 O   0  0  0  0  0  0  0  0  0  0  0  0
   70.0872   45.0641   57.9187 C   0  0  0  0  0  0  0  0  0  0  0  0
   69.9769   45.9707   56.8392 N   0  0  0  0  0  0  0  0  0  0  0  0
   70.5415   43.6593   57.6556 C   0  0  0  0  0  0  0  0  0  0  0  0
   69.3802   42.8099   57.2149 C   0  0  0  0  0  0  0  0  0  0  0  0
   69.1977   41.5219   57.6613 C   0  0  0  0  0  0  0  0  0  0  0  0
   68.0977   40.8102   57.1717 C   0  0  0  0  0  0  0  0  0  0  0  0
   67.1996   41.3330   56.2738 C   0  0  0  0  0  0  0  0  0  0  0  0
   67.3868   42.6324   55.8259 C   0  0  0  0  0  0  0  0  0  0  0  0
   68.4632   43.3335   56.3036 C   0  0  0  0  0  0  0  0  0  0  0  0
   68.7998   47.9619   55.8380 C   0  0  0  0  0  0  0  0  0  0  0  0
   68.6895   47.3631   54.5087 C   0  0  0  0  0  0  0  0  0  0  0  0
   67.8754   46.2617   54.3023 C   0  0  0  0  0  0  0  0  0  0  0  0
   67.7428   45.6576   53.0993 C   0  0  0  0  0  0  0  0  0  0  0  0
   68.4447   46.1511   52.0155 C   0  0  0  0  0  0  0  0  0  0  0  0
   69.2794   47.2502   52.1362 C   0  0  0  0  0  0  0  0  0  0  0  0
   70.0582   47.9160   51.2561 N   0  0  0  0  0  0  0  0  0  0  0  0
   70.6297   48.8816   51.9292 N   0  0  0  0  0  0  0  0  0  0  0  0
   70.2593   48.8824   53.2199 C   0  0  0  0  0  0  0  0  0  0  0  0
   69.3809   47.8298   53.3831 C   0  0  0  0  0  0  0  0  0  0  0  0
  2  3  2  0
  3  5  1  0
  3  4  1  0
  5  6  1  0
  6  7  2  0
  6 11  1  0
  7  8  1  0
  8  9  2  0
  9 10  1  0
 10 11  2  0
  4  1  1  0
  1 12  1  0
 12 13  1  0
 13 14  2  0
 13 21  1  0
 14 15  1  0
 15 16  2  0
 16 17  1  0
 17 18  1  0
 17 21  2  0
 18 19  1  0
 19 20  2  0
 20 21  1  0
M  END
>  <minimizedAffinity>  (74) 
-8.90182

$$$$
cs_full_output_folder/data/smiles/3755.pdb
     RDKit          3D

 19 20  0  0  0  0  0  0  0  0999 V2000
   69.2598   47.7749   52.6211 C   0  0  0  0  0  0  0  0  0  0  0  0
   69.4315   47.7590   54.0035 C   0  0  0  0  0  0  0  0  0  0  0  0
   68.8059   46.8301   54.8145 C   0  0  0  0  0  0  0  0  0  0  0  0
   67.9925   45.9046   54.2009 C   0  0  0  0  0  0  0  0  0  0  0  0
   67.7838   45.8698   52.8410 C   0  0  0  0  0  0  0  0  0  0  0  0
   66.9558   44.9209   52.2590 O   0  0  0  0  0  0  0  0  0  0  0  0
   68.4331   46.8225   52.0680 C   0  0  0  0  0  0  0  0  0  0  0  0
   68.2619   46.8374   50.6966 O   0  0  0  0  0  0  0  0  0  0  0  0
   70.6545   48.4420   50.8724 O   0  0  0  0  0  0  0  0  0  0  0  0
   69.9318   48.7592   51.8363 N   0  0  0  0  0  0  0  0  0  0  0  0
   69.8065   50.0875   52.1153 O   0  0  0  0  0  0  0  0  0  0  0  0
   68.9880   46.8076   56.2888 C   0  0  0  0  0  0  0  0  0  0  0  0
   69.6316   48.1059   56.7745 C   0  0  0  0  0  0  0  0  0  0  0  0
   68.6292   49.1653   57.0269 C   0  0  0  0  0  0  0  0  0  0  0  0
   68.7691   50.4708   56.6024 C   0  0  0  0  0  0  0  0  0  0  0  0
   67.8123   51.4334   56.8571 C   0  0  0  0  0  0  0  0  0  0  0  0
   66.6776   51.1235   57.5469 C   0  0  0  0  0  0  0  0  0  0  0  0
   66.5149   49.8188   57.9831 C   0  0  0  0  0  0  0  0  0  0  0  0
   67.4832   48.8500   57.7239 C   0  0  0  0  0  0  0  0  0  0  0  0
  9 10  2  0
 10 11  1  0
 10  1  1  0
  1  2  2  0
  1  7  1  0
  2  3  1  0
  3 12  1  0
  3  4  2  0
 12 13  1  0
 13 14  1  0
 14 15  2  0
 14 19  1  0
 15 16  1  0
 16 17  2  0
 17 18  1  0
 18 19  2  0
  4  5  1  0
  5  6  1  0
  5  7  2  0
  7  8  1  0
M  CHG  2  10   1  11  -1
M  END
>  <minimizedAffinity>  (75) 
-8.89947

$$$$
cs_full_output_folder/data/smiles/328.pdb
     RDKit          3D

 21 23  0  0  0  0  0  0  0  0999 V2000
   69.4964   48.3287   54.0824 C   0  0  0  0  0  0  0  0  0  0  0  0
   69.2181   48.1413   55.4410 C   0  0  0  0  0  0  0  0  0  0  0  0
   68.3322   47.2233   55.9118 C   0  0  0  0  0  0  0  0  0  0  0  0
   68.1272   47.1044   57.1633 O   0  0  0  0  0  0  0  0  0  0  0  0
   67.6863   46.4565   55.0938 O   0  0  0  0  0  0  0  0  0  0  0  0
   67.8890   46.5721   53.8095 C   0  0  0  0  0  0  0  0  0  0  0  0
   67.2086   45.7718   52.9512 N   0  0  0  0  0  0  0  0  0  0  0  0
   67.3634   45.8396   51.6335 C   0  0  0  0  0  0  0  0  0  0  0  0
   66.7204   45.0851   50.8359 O   0  0  0  0  0  0  0  0  0  0  0  0
   68.2078   46.7114   51.0798 N   0  0  0  0  0  0  0  0  0  0  0  0
   68.9028   47.5230   51.9038 C   0  0  0  0  0  0  0  0  0  0  0  0
   69.6857   48.3656   51.3900 N   0  0  0  0  0  0  0  0  0  0  0  0
   68.7730   47.4820   53.2648 C   0  0  0  0  0  0  0  0  0  0  0  0
   70.5007   49.2827   53.6155 C   0  0  0  0  0  0  0  0  0  0  0  0
   70.9688   50.2576   54.6721 C   0  0  0  0  0  0  0  0  0  0  0  0
   70.2228   51.5824   54.4619 C   0  0  0  0  0  0  0  0  0  0  0  0
   69.5638   52.1015   55.6739 C   0  0  0  0  0  0  0  0  0  0  0  0
   69.8709   53.4396   56.2769 C   0  0  0  0  0  0  0  0  0  0  0  0
   70.2328   52.1688   56.9970 C   0  0  0  0  0  0  0  0  0  0  0  0
   67.7272   51.2321   57.1481 C   0  0  0  0  0  0  0  0  0  0  0  0
   68.0882   51.6920   55.7607 C   0  0  0  0  0  0  0  0  0  0  0  0
 20 21  1  0
 21 17  1  0
 17 16  1  0
 17 18  1  0
 17 19  1  0
 16 15  1  0
 15 14  1  0
 14  1  1  0
  1  2  2  0
  1 13  1  0
  2  3  1  0
  3  4  2  0
  3  5  1  0
  5  6  1  0
  6  7  1  0
  6 13  2  0
  7  8  1  0
  8  9  2  0
  8 10  1  0
 10 11  1  0
 11 12  2  0
 11 13  1  0
 18 19  1  0
M  END
>  <minimizedAffinity>  (76) 
-8.89725

$$$$
cs_full_output_folder/data/smiles/177.pdb
     RDKit          3D

 22 24  0  0  0  0  0  0  0  0999 V2000
   68.3811   46.4047   56.4643 N   0  0  0  0  0  0  0  0  0  0  0  0
   68.3513   46.0751   55.2768 C   0  0  0  0  0  0  0  0  0  0  0  0
   68.8201   46.8345   54.1072 C   0  0  0  0  0  0  0  0  0  0  0  0
   68.4808   46.4032   52.8489 C   0  0  0  0  0  0  0  0  0  0  0  0
   68.9022   47.0777   51.6993 C   0  0  0  0  0  0  0  0  0  0  0  0
   69.6825   48.2118   51.8163 C   0  0  0  0  0  0  0  0  0  0  0  0
   69.9996   48.6128   53.1010 C   0  0  0  0  0  0  0  0  0  0  0  0
   69.5783   47.9397   54.1974 N   0  0  0  0  0  0  0  0  0  0  0  0
   68.7413   47.3599   57.2979 N   0  0  0  0  0  0  0  0  0  0  0  0
   67.0579   51.1013   57.4960 C   0  0  0  0  0  0  0  0  0  0  0  0
   68.3230   50.9924   56.9659 C   0  0  0  0  0  0  0  0  0  0  0  0
   68.8997   49.7411   56.8911 C   0  0  0  0  0  0  0  0  0  0  0  0
   68.1922   48.6633   57.3450 C   0  0  0  0  0  0  0  0  0  0  0  0
   66.9459   48.7692   57.8675 N   0  0  0  0  0  0  0  0  0  0  0  0
   66.3907   49.9795   57.9384 C   0  0  0  0  0  0  0  0  0  0  0  0
   67.7619   44.7593   55.0455 N   0  0  0  0  0  0  0  0  0  0  0  0
   68.1150   43.6668   55.8844 C   0  0  0  0  0  0  0  0  0  0  0  0
   67.3212   42.5414   55.8160 C   0  0  0  0  0  0  0  0  0  0  0  0
   67.5331   41.4253   56.5902 C   0  0  0  0  0  0  0  0  0  0  0  0
   68.5957   41.4400   57.4782 C   0  0  0  0  0  0  0  0  0  0  0  0
   69.3699   42.5836   57.5196 C   0  0  0  0  0  0  0  0  0  0  0  0
   69.1250   43.6542   56.7413 N   0  0  0  0  0  0  0  0  0  0  0  0
 10 11  2  0
 10 15  1  0
 11 12  1  0
 12 13  2  0
 13  9  1  0
 13 14  1  0
  9  1  1  0
  1  2  2  0
  2 16  1  0
  2  3  1  0
 16 17  1  0
 17 18  2  0
 17 22  1  0
 18 19  1  0
 19 20  2  0
 20 21  1  0
 21 22  2  0
  3  4  2  0
  3  8  1  0
  4  5  1  0
  5  6  2  0
  6  7  1  0
  7  8  2  0
 14 15  2  0
M  CHG  1   1   1
M  END
>  <minimizedAffinity>  (77) 
-8.88912

$$$$
cs_full_output_folder/data/smiles/20.pdb
     RDKit          3D

 22 23  0  0  0  0  0  0  0  0999 V2000
   67.8283   43.8869   55.2826 N   0  0  0  0  0  0  0  0  0  0  0  0
   68.1956   45.2442   55.1233 C   0  0  0  0  0  0  0  0  0  0  0  0
   68.4137   45.8914   56.1774 O   0  0  0  0  0  0  0  0  0  0  0  0
   68.3335   45.9229   53.8424 C   0  0  0  0  0  0  0  0  0  0  0  0
   67.5996   45.5044   52.7473 C   0  0  0  0  0  0  0  0  0  0  0  0
   67.6664   46.0791   51.5163 C   0  0  0  0  0  0  0  0  0  0  0  0
   68.5022   47.1423   51.3138 C   0  0  0  0  0  0  0  0  0  0  0  0
   69.2530   47.5975   52.3703 C   0  0  0  0  0  0  0  0  0  0  0  0
   69.1720   46.9934   53.6299 C   0  0  0  0  0  0  0  0  0  0  0  0
   70.1227   48.6927   52.1845 N   0  0  0  0  0  0  0  0  0  0  0  0
   71.1085   48.8825   52.9129 O   0  0  0  0  0  0  0  0  0  0  0  0
   69.8787   49.5800   51.1718 O   0  0  0  0  0  0  0  0  0  0  0  0
   67.5234   41.8480   56.6573 C   0  0  0  0  0  0  0  0  0  0  0  0
   67.4908   41.1691   55.5745 O   0  0  0  0  0  0  0  0  0  0  0  0
   67.6955   43.2339   56.5024 N   0  0  0  0  0  0  0  0  0  0  0  0
   65.6572   41.6686   61.2586 C   0  0  0  0  0  0  0  0  0  0  0  0
   66.4729   41.0634   60.1731 C   0  0  0  0  0  0  0  0  0  0  0  0
   67.0860   39.8484   60.3834 C   0  0  0  0  0  0  0  0  0  0  0  0
   67.8433   39.2743   59.3923 C   0  0  0  0  0  0  0  0  0  0  0  0
   67.9769   39.9454   58.1710 C   0  0  0  0  0  0  0  0  0  0  0  0
   67.3825   41.1511   57.9303 C   0  0  0  0  0  0  0  0  0  0  0  0
   66.6274   41.7063   58.9408 C   0  0  0  0  0  0  0  0  0  0  0  0
 16 17  1  0
 17 18  2  0
 17 22  1  0
 18 19  1  0
 19 20  2  0
 20 21  1  0
 21 13  1  0
 21 22  2  0
 13 14  2  0
 13 15  1  0
 15  1  1  0
  1  2  1  0
  2  3  2  0
  2  4  1  0
  4  5  2  0
  4  9  1  0
  5  6  1  0
  6  7  2  0
  7  8  1  0
  8 10  1  0
  8  9  2  0
 10 11  2  0
 10 12  1  0
M  CHG  2  10   1  12  -1
M  END
>  <minimizedAffinity>  (78) 
-8.88736

$$$$
cs_full_output_folder/data/smiles/5968.pdb
     RDKit          3D

 21 23  0  0  0  0  0  0  0  0999 V2000
   69.5284   49.0131   53.9689 C   0  0  0  0  0  0  0  0  0  0  0  0
   69.8220   49.7915   52.9217 C   0  0  0  0  0  0  0  0  0  0  0  0
   70.3811   51.0726   53.0436 N   0  0  0  0  0  0  0  0  0  0  0  0
   69.5557   49.2967   51.6250 C   0  0  0  0  0  0  0  0  0  0  0  0
   69.8522   50.0759   50.6683 O   0  0  0  0  0  0  0  0  0  0  0  0
   69.0401   48.1202   51.4342 O   0  0  0  0  0  0  0  0  0  0  0  0
   68.7372   47.3199   52.4559 C   0  0  0  0  0  0  0  0  0  0  0  0
   68.1953   46.0783   52.2184 C   0  0  0  0  0  0  0  0  0  0  0  0
   67.8923   45.2633   53.2762 C   0  0  0  0  0  0  0  0  0  0  0  0
   68.1064   45.6332   54.5737 C   0  0  0  0  0  0  0  0  0  0  0  0
   68.6603   46.9074   54.7776 C   0  0  0  0  0  0  0  0  0  0  0  0
   68.9650   47.7274   53.7321 C   0  0  0  0  0  0  0  0  0  0  0  0
   69.7074   49.2795   55.3406 N   0  0  0  0  0  0  0  0  0  0  0  0
   68.2263   50.8747   56.4542 C   0  0  0  0  0  0  0  0  0  0  0  0
   67.2313   51.1905   57.3870 C   0  0  0  0  0  0  0  0  0  0  0  0
   66.6191   50.2048   58.1011 C   0  0  0  0  0  0  0  0  0  0  0  0
   67.0206   48.9087   57.8644 C   0  0  0  0  0  0  0  0  0  0  0  0
   67.9948   48.5949   56.9492 C   0  0  0  0  0  0  0  0  0  0  0  0
   68.6382   49.6013   56.1985 C   0  0  0  0  0  0  0  0  0  0  0  0
   69.4243   52.9436   55.4004 N   0  0  0  0  0  0  0  0  0  0  0  0
   68.8976   52.0158   55.8638 C   0  0  0  0  0  0  0  0  0  0  0  0
 20 21  3  0
 21 14  1  0
 14 15  2  0
 14 19  1  0
 15 16  1  0
 16 17  2  0
 17 18  1  0
 18 19  2  0
 19 13  1  0
 13  1  1  0
  1  2  2  0
  1 12  1  0
  2  3  1  0
  2  4  1  0
  4  5  2  0
  4  6  1  0
  6  7  1  0
  7  8  1  0
  7 12  2  0
  8  9  2  0
  9 10  1  0
 10 11  2  0
 11 12  1  0
M  END
>  <minimizedAffinity>  (79) 
-8.88591

$$$$
cs_full_output_folder/data/smiles/6502.pdb
     RDKit          3D

 20 22  0  0  0  0  0  0  0  0999 V2000
   69.6695   47.9917   54.8082 C   0  0  0  0  0  0  0  0  0  0  0  0
   70.6089   48.9013   54.4231 N   0  0  0  0  0  0  0  0  0  0  0  0
   70.8739   49.1363   53.1659 N   0  0  0  0  0  0  0  0  0  0  0  0
   70.2545   48.5115   52.1547 C   0  0  0  0  0  0  0  0  0  0  0  0
   70.4982   48.7302   50.9377 O   0  0  0  0  0  0  0  0  0  0  0  0
   69.2931   47.5759   52.4516 C   0  0  0  0  0  0  0  0  0  0  0  0
   68.6307   46.8810   51.4569 C   0  0  0  0  0  0  0  0  0  0  0  0
   67.6859   45.9293   51.7644 C   0  0  0  0  0  0  0  0  0  0  0  0
   67.4197   45.6926   53.0970 C   0  0  0  0  0  0  0  0  0  0  0  0
   68.0764   46.3833   54.0817 C   0  0  0  0  0  0  0  0  0  0  0  0
   69.0141   47.3299   53.8019 C   0  0  0  0  0  0  0  0  0  0  0  0
   69.3541   47.8266   56.2542 C   0  0  0  0  0  0  0  0  0  0  0  0
   68.3525   51.3916   56.8612 C   0  0  0  0  0  0  0  0  0  0  0  0
   67.1876   51.2545   57.5991 C   0  0  0  0  0  0  0  0  0  0  0  0
   66.7167   50.0028   57.9113 C   0  0  0  0  0  0  0  0  0  0  0  0
   67.4197   48.8966   57.4799 C   0  0  0  0  0  0  0  0  0  0  0  0
   68.5585   49.0064   56.7580 C   0  0  0  0  0  0  0  0  0  0  0  0
   69.0442   50.2841   56.4359 C   0  0  0  0  0  0  0  0  0  0  0  0
   68.9258   53.0551   55.3333 O   0  0  0  0  0  0  0  0  0  0  0  0
   68.8470   52.7256   56.5374 C   0  0  0  0  0  0  0  0  0  0  0  0
 19 20  2  0
 20 13  1  0
 13 14  2  0
 13 18  1  0
 14 15  1  0
 15 16  2  0
 16 17  1  0
 17 12  1  0
 17 18  2  0
 12  1  1  0
  1  2  2  0
  1 11  1  0
  2  3  1  0
  3  4  1  0
  4  5  2  0
  4  6  1  0
  6  7  1  0
  6 11  2  0
  7  8  2  0
  8  9  1  0
  9 10  2  0
 10 11  1  0
M  END
>  <minimizedAffinity>  (80) 
-8.88462

$$$$
cs_full_output_folder/data/smiles/5457.pdb
     RDKit          3D

 21 23  0  0  0  0  0  0  0  0999 V2000
   67.3678   44.9047   52.6111 O   0  0  0  0  0  0  0  0  0  0  0  0
   67.8666   45.6035   53.5683 C   0  0  0  0  0  0  0  0  0  0  0  0
   67.6891   45.2467   54.8446 N   0  0  0  0  0  0  0  0  0  0  0  0
   68.1851   45.9364   55.8369 N   0  0  0  0  0  0  0  0  0  0  0  0
   68.9219   47.0766   55.6742 C   0  0  0  0  0  0  0  0  0  0  0  0
   69.1079   47.4487   54.3675 C   0  0  0  0  0  0  0  0  0  0  0  0
   69.8732   48.5682   54.0903 C   0  0  0  0  0  0  0  0  0  0  0  0
   70.1263   48.9746   52.7865 C   0  0  0  0  0  0  0  0  0  0  0  0
   69.5923   48.2332   51.7489 C   0  0  0  0  0  0  0  0  0  0  0  0
   68.8208   47.1063   51.9854 C   0  0  0  0  0  0  0  0  0  0  0  0
   68.5961   46.7370   53.2895 C   0  0  0  0  0  0  0  0  0  0  0  0
   69.3818   47.7981   56.8621 C   0  0  0  0  0  0  0  0  0  0  0  0
   68.5106   48.9583   57.1293 C   0  0  0  0  0  0  0  0  0  0  0  0
   67.2679   48.7788   57.7509 C   0  0  0  0  0  0  0  0  0  0  0  0
   66.4645   49.8618   57.9496 C   0  0  0  0  0  0  0  0  0  0  0  0
   66.8434   51.1327   57.5544 C   0  0  0  0  0  0  0  0  0  0  0  0
   68.0520   51.3355   56.9430 C   0  0  0  0  0  0  0  0  0  0  0  0
   68.8648   50.2125   56.7465 C   0  0  0  0  0  0  0  0  0  0  0  0
   68.4710   52.5930   56.5299 O   0  0  0  0  0  0  0  0  0  0  0  0
   68.9023   52.7514   55.2284 N   0  0  0  0  0  0  0  0  0  0  0  0
   68.0241   52.2047   54.3509 F   0  0  0  0  0  0  0  0  0  0  0  0
  1  2  2  0
  2  3  1  0
  2 11  1  0
  3  4  1  0
  4  5  2  0
  5 12  1  0
  5  6  1  0
 12 13  1  0
 13 14  2  0
 13 18  1  0
 14 15  1  0
 15 16  2  0
 16 17  1  0
 17 19  1  0
 17 18  2  0
 19 20  1  0
 20 21  1  0
  6  7  1  0
  6 11  2  0
  7  8  2  0
  8  9  1  0
  9 10  2  0
 10 11  1  0
M  END
>  <minimizedAffinity>  (81) 
-8.87910

$$$$
cs_full_output_folder/data/smiles/9460.pdb
     RDKit          3D

 22 23  0  0  0  0  0  0  0  0999 V2000
   68.3442   50.5702   56.1633 C   0  0  0  0  0  0  0  0  0  0  0  0
   67.4173   51.0755   57.0521 C   0  0  0  0  0  0  0  0  0  0  0  0
   66.7081   50.3067   57.9355 C   0  0  0  0  0  0  0  0  0  0  0  0
   66.9349   48.9636   57.9344 C   0  0  0  0  0  0  0  0  0  0  0  0
   67.8778   48.4227   57.0420 C   0  0  0  0  0  0  0  0  0  0  0  0
   68.6000   49.1844   56.1485 C   0  0  0  0  0  0  0  0  0  0  0  0
   69.6979   52.3835   55.2194 C   0  0  0  0  0  0  0  0  0  0  0  0
   68.9302   51.3741   55.1375 C   0  0  0  0  0  0  0  0  0  0  0  0
   69.6509   54.2311   56.6941 O   0  0  0  0  0  0  0  0  0  0  0  0
   70.3640   53.2558   56.1258 C   0  0  0  0  0  0  0  0  0  0  0  0
   71.6992   53.2879   56.5731 N   0  0  0  0  0  0  0  0  0  0  0  0
   72.1232   54.2464   57.4691 O   0  0  0  0  0  0  0  0  0  0  0  0
   69.6468   48.6331   55.2838 C   0  0  0  0  0  0  0  0  0  0  0  0
   69.1174   47.6911   54.2623 C   0  0  0  0  0  0  0  0  0  0  0  0
   68.2857   46.6591   54.6199 C   0  0  0  0  0  0  0  0  0  0  0  0
   67.6772   45.7893   53.6957 C   0  0  0  0  0  0  0  0  0  0  0  0
   67.9209   45.9764   52.3641 C   0  0  0  0  0  0  0  0  0  0  0  0
   68.7400   46.9892   51.9915 C   0  0  0  0  0  0  0  0  0  0  0  0
   69.3630   47.8698   52.8860 C   0  0  0  0  0  0  0  0  0  0  0  0
   70.3066   48.8380   52.3771 C   0  0  0  0  0  0  0  0  0  0  0  0
   71.3928   49.1553   52.8429 O   0  0  0  0  0  0  0  0  0  0  0  0
   69.9504   49.5172   51.1854 O   0  0  0  0  0  0  0  0  0  0  0  0
  9 10  2  0
 10  7  1  0
 10 11  1  0
  7  8  2  0
  8  1  1  0
  1  2  2  0
  1  6  1  0
  2  3  1  0
  3  4  2  0
  4  5  1  0
  5  6  2  0
  6 13  1  0
 13 14  1  0
 14 15  2  0
 14 19  1  0
 15 16  1  0
 16 17  2  0
 17 18  1  0
 18 19  2  0
 19 20  1  0
 20 21  2  0
 20 22  1  0
 11 12  1  0
M  END
>  <minimizedAffinity>  (82) 
-8.87408

$$$$
cs_full_output_folder/data/smiles/356.pdb
     RDKit          3D

 22 24  0  0  0  0  0  0  0  0999 V2000
   68.9919   45.2891   56.5767 C   0  0  0  0  0  0  0  0  0  0  0  0
   70.0537   45.9475   57.1256 N   0  0  0  0  0  0  0  0  0  0  0  0
   70.9601   45.3032   57.8734 C   0  0  0  0  0  0  0  0  0  0  0  0
   70.8364   43.9431   58.1073 C   0  0  0  0  0  0  0  0  0  0  0  0
   69.7713   43.2746   57.5578 C   0  0  0  0  0  0  0  0  0  0  0  0
   68.9002   43.9814   56.8189 N   0  0  0  0  0  0  0  0  0  0  0  0
   69.5509   41.8434   57.7377 C   0  0  0  0  0  0  0  0  0  0  0  0
   68.3909   41.2099   57.3472 C   0  0  0  0  0  0  0  0  0  0  0  0
   68.1989   39.8527   57.5295 C   0  0  0  0  0  0  0  0  0  0  0  0
   69.1866   39.0740   58.1230 C   0  0  0  0  0  0  0  0  0  0  0  0
   70.3462   39.6971   58.5175 C   0  0  0  0  0  0  0  0  0  0  0  0
   70.5127   41.0488   58.3238 C   0  0  0  0  0  0  0  0  0  0  0  0
   68.0488   46.0213   55.7800 N   0  0  0  0  0  0  0  0  0  0  0  0
   69.2824   47.7461   52.7359 C   0  0  0  0  0  0  0  0  0  0  0  0
   68.7188   46.9432   51.7618 C   0  0  0  0  0  0  0  0  0  0  0  0
   67.9384   45.8471   52.1240 C   0  0  0  0  0  0  0  0  0  0  0  0
   67.7022   45.5242   53.4438 C   0  0  0  0  0  0  0  0  0  0  0  0
   68.2644   46.3266   54.4104 C   0  0  0  0  0  0  0  0  0  0  0  0
   69.0363   47.4108   54.0534 C   0  0  0  0  0  0  0  0  0  0  0  0
   69.7643   50.1217   53.2539 C   0  0  0  0  0  0  0  0  0  0  0  0
   70.1350   48.9335   52.3925 C   0  0  2  0  0  0  0  0  0  0  0  0
   70.0337   49.1847   51.0462 O   0  0  0  0  0  0  0  0  0  0  0  0
 21 20  1  1
 21 22  1  0
 21 14  1  0
 14 15  2  0
 14 19  1  0
 15 16  1  0
 16 17  2  0
 17 18  1  0
 18 13  1  0
 18 19  2  0
 13  1  1  0
  1  2  2  0
  1  6  1  0
  2  3  1  0
  3  4  2  0
  4  5  1  0
  5  7  1  0
  5  6  2  0
  7  8  2  0
  7 12  1  0
  8  9  1  0
  9 10  2  0
 10 11  1  0
 11 12  2  0
M  END
>  <minimizedAffinity>  (83) 
-8.86972

$$$$
cs_full_output_folder/data/smiles/2436.pdb
     RDKit          3D

 19 20  0  0  0  0  0  0  0  0999 V2000
   69.5076   48.2851   54.0828 C   0  0  0  0  0  0  0  0  0  0  0  0
   69.2306   48.1457   55.4694 C   0  0  0  0  0  0  0  0  0  0  0  0
   68.2940   47.2448   55.9128 C   0  0  0  0  0  0  0  0  0  0  0  0
   68.0908   47.1641   57.1501 O   0  0  0  0  0  0  0  0  0  0  0  0
   67.6438   46.5034   55.0618 O   0  0  0  0  0  0  0  0  0  0  0  0
   67.8719   46.6014   53.7721 C   0  0  0  0  0  0  0  0  0  0  0  0
   67.1969   45.8257   52.8959 N   0  0  0  0  0  0  0  0  0  0  0  0
   67.3830   45.8699   51.5709 C   0  0  0  0  0  0  0  0  0  0  0  0
   66.6847   45.0875   50.8396 O   0  0  0  0  0  0  0  0  0  0  0  0
   68.2781   46.7131   51.0406 N   0  0  0  0  0  0  0  0  0  0  0  0
   69.0020   47.5342   51.8594 C   0  0  0  0  0  0  0  0  0  0  0  0
   69.8838   48.3174   51.3528 N   0  0  0  0  0  0  0  0  0  0  0  0
   68.8108   47.4928   53.2215 C   0  0  0  0  0  0  0  0  0  0  0  0
   70.4693   49.3124   53.6605 C   0  0  0  0  0  0  0  0  0  0  0  0
   70.4032   50.5574   54.5443 C   0  0  0  0  0  0  0  0  0  0  0  0
   69.3653   51.5320   54.1555 C   0  0  0  0  0  0  0  0  0  0  0  0
   68.3842   52.0256   55.1169 C   0  0  0  0  0  0  0  0  0  0  0  0
   67.4803   51.0893   57.2494 C   0  0  0  0  0  0  0  0  0  0  0  0
   68.6261   51.8432   56.5641 C   0  0  0  0  0  0  0  0  0  0  0  0
 18 19  1  0
 19 17  1  0
 17 16  1  0
 16 15  1  0
 15 14  1  0
 14  1  1  0
  1  2  2  0
  1 13  1  0
  2  3  1  0
  3  4  2  0
  3  5  1  0
  5  6  1  0
  6  7  1  0
  6 13  2  0
  7  8  1  0
  8  9  2  0
  8 10  1  0
 10 11  1  0
 11 12  2  0
 11 13  1  0
M  END
>  <minimizedAffinity>  (84) 
-8.86953

$$$$
cs_full_output_folder/data/smiles/8597.pdb
     RDKit          3D

 19 21  0  0  0  0  0  0  0  0999 V2000
   69.6587   47.9837   54.8174 C   0  0  0  0  0  0  0  0  0  0  0  0
   70.5935   48.8964   54.4187 N   0  0  0  0  0  0  0  0  0  0  0  0
   70.8717   49.1454   53.1537 N   0  0  0  0  0  0  0  0  0  0  0  0
   70.2397   48.5041   52.1655 C   0  0  0  0  0  0  0  0  0  0  0  0
   70.5016   48.7394   50.9360 O   0  0  0  0  0  0  0  0  0  0  0  0
   69.2816   47.5641   52.4648 C   0  0  0  0  0  0  0  0  0  0  0  0
   68.6308   46.8783   51.4659 C   0  0  0  0  0  0  0  0  0  0  0  0
   67.6960   45.9359   51.8108 C   0  0  0  0  0  0  0  0  0  0  0  0
   67.4201   45.6870   53.1454 C   0  0  0  0  0  0  0  0  0  0  0  0
   68.0718   46.3753   54.1429 C   0  0  0  0  0  0  0  0  0  0  0  0
   69.0008   47.3134   53.8179 C   0  0  0  0  0  0  0  0  0  0  0  0
   69.4296   47.8770   56.2315 C   0  0  0  0  0  0  0  0  0  0  0  0
   68.8869   52.8170   56.5266 C   0  0  0  0  0  0  0  0  0  0  0  0
   68.4129   51.4479   56.8341 C   0  0  0  0  0  0  0  0  0  0  0  0
   67.2490   51.3142   57.5591 C   0  0  0  0  0  0  0  0  0  0  0  0
   66.7837   50.0474   57.8623 C   0  0  0  0  0  0  0  0  0  0  0  0
   67.5039   48.9252   57.4262 C   0  0  0  0  0  0  0  0  0  0  0  0
   68.6569   49.0427   56.7082 C   0  0  0  0  0  0  0  0  0  0  0  0
   69.0965   50.3288   56.4208 C   0  0  0  0  0  0  0  0  0  0  0  0
 13 14  1  0
 14 15  2  0
 14 19  1  0
 15 16  1  0
 16 17  2  0
 17 18  1  0
 18 12  1  0
 18 19  2  0
 12  1  1  0
  1  2  2  0
  1 11  1  0
  2  3  1  0
  3  4  1  0
  4  5  2  0
  4  6  1  0
  6  7  1  0
  6 11  2  0
  7  8  2  0
  8  9  1  0
  9 10  2  0
 10 11  1  0
M  END
>  <minimizedAffinity>  (85) 
-8.86681

$$$$
cs_full_output_folder/data/smiles/6730.pdb
     RDKit          3D

 20 21  0  0  0  0  0  0  0  0999 V2000
   67.9941   44.1278   55.3708 N   0  0  0  0  0  0  0  0  0  0  0  0
   68.1859   45.5221   55.2233 C   0  0  0  0  0  0  0  0  0  0  0  0
   68.2069   46.2757   56.2483 O   0  0  0  0  0  0  0  0  0  0  0  0
   68.3594   46.1120   53.9237 C   0  0  0  0  0  0  0  0  0  0  0  0
   67.6231   45.5918   52.8614 C   0  0  0  0  0  0  0  0  0  0  0  0
   67.7117   46.0784   51.5839 C   0  0  0  0  0  0  0  0  0  0  0  0
   68.5498   47.1164   51.3079 C   0  0  0  0  0  0  0  0  0  0  0  0
   69.2879   47.6505   52.3283 C   0  0  0  0  0  0  0  0  0  0  0  0
   69.1944   47.1513   53.6320 C   0  0  0  0  0  0  0  0  0  0  0  0
   70.1637   48.7309   52.0527 N   0  0  0  0  0  0  0  0  0  0  0  0
   71.1950   48.9132   52.7256 O   0  0  0  0  0  0  0  0  0  0  0  0
   69.9284   49.6315   51.0362 O   0  0  0  0  0  0  0  0  0  0  0  0
   67.8304   43.5714   56.6117 O   0  0  0  0  0  0  0  0  0  0  0  0
   67.5209   42.1974   56.4682 C   0  0  0  0  0  0  0  0  0  0  0  0
   69.7384   38.3020   59.1079 C   0  0  0  0  0  0  0  0  0  0  0  0
   69.4925   39.6504   58.4881 C   0  0  0  0  0  0  0  0  0  0  0  0
   70.2578   40.7152   58.5371 C   0  0  0  0  0  0  0  0  0  0  0  0
   69.6366   41.7996   57.8002 C   0  0  0  0  0  0  0  0  0  0  0  0
   68.4905   41.3904   57.3018 C   0  0  0  0  0  0  0  0  0  0  0  0
   68.2992   39.9865   57.6966 C   0  0  0  0  0  0  0  0  0  0  0  0
 15 16  1  0
 16 17  2  0
 16 20  1  0
 17 18  1  0
 18 19  2  0
 19 14  1  0
 19 20  1  0
 14 13  1  0
 13  1  1  0
  1  2  1  0
  2  3  2  0
  2  4  1  0
  4  5  2  0
  4  9  1  0
  5  6  1  0
  6  7  2  0
  7  8  1  0
  8 10  1  0
  8  9  2  0
 10 11  2  0
 10 12  1  0
M  CHG  2  10   1  12  -1
M  END
>  <minimizedAffinity>  (86) 
-8.86446

$$$$
cs_full_output_folder/data/smiles/618.pdb
     RDKit          3D

 21 24  0  0  0  0  0  0  0  0999 V2000
   69.8715   47.2656   50.9947 O   0  0  0  0  0  0  0  0  0  0  0  0
   69.7875   48.3045   51.6508 C   0  0  0  0  0  0  0  0  0  0  0  0
   70.0616   49.5331   51.1903 N   0  0  0  0  0  0  0  0  0  0  0  0
   69.8738   50.4326   52.1611 N   0  0  0  0  0  0  0  0  0  0  0  0
   69.4783   49.7812   53.2502 C   0  0  0  0  0  0  0  0  0  0  0  0
   69.4269   48.4708   52.9233 N   0  0  0  0  0  0  0  0  0  0  0  0
   69.0346   47.4428   53.8266 C   0  0  0  0  0  0  0  0  0  0  0  0
   68.5304   46.3716   53.1399 C   0  0  0  0  0  0  0  0  0  0  0  0
   68.1136   45.2432   53.8649 C   0  0  0  0  0  0  0  0  0  0  0  0
   68.1775   45.1471   55.2282 C   0  0  0  0  0  0  0  0  0  0  0  0
   68.7032   46.2794   55.8882 C   0  0  0  0  0  0  0  0  0  0  0  0
   69.1219   47.3985   55.2152 C   0  0  0  0  0  0  0  0  0  0  0  0
   69.5842   48.4027   56.1755 C   0  0  0  0  0  0  0  0  0  0  0  0
   70.1141   49.6694   55.6120 C   0  0  0  0  0  0  0  0  0  0  0  0
   69.1868   50.3529   54.6200 C   0  0  0  0  0  0  0  0  0  0  0  0
   67.7816   44.0818   55.9762 O   0  0  0  0  0  0  0  0  0  0  0  0
   68.4509   43.0022   56.4673 C   0  0  0  0  0  0  0  0  0  0  0  0
   67.6624   41.7629   56.6671 C   0  0  1  0  0  0  0  0  0  0  0  0
   68.0674   40.5809   57.4366 C   0  0  0  0  0  0  0  0  0  0  0  0
   67.1378   41.4470   57.9957 C   0  0  0  0  0  0  0  0  0  0  0  0
   66.3444   41.7290   59.0493 F   0  0  0  0  0  0  0  0  0  0  0  0
  1  2  2  0
  2  3  1  0
  2  6  1  0
  3  4  1  0
  4  5  2  0
  5  6  1  0
  5 15  1  0
  6  7  1  0
  7  8  2  0
  7 12  1  0
  8  9  1  0
  9 10  2  0
 10 16  1  0
 10 11  1  0
 16 17  1  0
 18 17  1  1
 18 19  1  0
 18 20  1  0
 19 20  2  0
 20 21  1  0
 11 12  2  0
 12 13  1  0
 13 14  1  0
 14 15  1  0
M  END
>  <minimizedAffinity>  (87) 
-8.86377

$$$$
cs_full_output_folder/data/smiles/467.pdb
     RDKit          3D

 21 23  0  0  0  0  0  0  0  0999 V2000
   69.5196   48.3211   54.0678 C   0  0  0  0  0  0  0  0  0  0  0  0
   69.2985   48.1979   55.4194 C   0  0  0  0  0  0  0  0  0  0  0  0
   68.3888   47.2616   55.8397 C   0  0  0  0  0  0  0  0  0  0  0  0
   68.1767   47.1372   57.0892 N   0  0  0  0  0  0  0  0  0  0  0  0
   67.7254   46.4871   55.0298 O   0  0  0  0  0  0  0  0  0  0  0  0
   67.9100   46.5813   53.7547 C   0  0  0  0  0  0  0  0  0  0  0  0
   67.2135   45.7776   52.9230 N   0  0  0  0  0  0  0  0  0  0  0  0
   67.3400   45.8137   51.6070 C   0  0  0  0  0  0  0  0  0  0  0  0
   66.6908   45.0634   50.8390 O   0  0  0  0  0  0  0  0  0  0  0  0
   68.1936   46.6830   51.0380 N   0  0  0  0  0  0  0  0  0  0  0  0
   68.9000   47.4946   51.8480 C   0  0  0  0  0  0  0  0  0  0  0  0
   69.6814   48.2933   51.2862 O   0  0  0  0  0  0  0  0  0  0  0  0
   68.8198   47.5084   53.2157 C   0  0  0  0  0  0  0  0  0  0  0  0
   70.4974   49.2839   53.4882 C   0  0  0  0  0  0  0  0  0  0  0  0
   70.8433   50.3879   54.4586 C   0  0  0  0  0  0  0  0  0  0  0  0
   69.9716   51.5542   54.5698 C   0  0  0  0  0  0  0  0  0  0  0  0
   69.2926   51.9963   55.8086 C   0  0  0  0  0  0  0  0  0  0  0  0
   70.2710   52.3058   56.9291 C   0  0  0  0  0  0  0  0  0  0  0  0
   69.6624   53.4619   56.2417 C   0  0  0  0  0  0  0  0  0  0  0  0
   67.9185   50.7564   57.5025 C   0  0  0  0  0  0  0  0  0  0  0  0
   67.9375   51.6485   56.3118 C   0  0  0  0  0  0  0  0  0  0  0  0
 20 21  1  0
 21 17  1  0
 17 16  1  0
 17 18  1  0
 17 19  1  0
 16 15  1  0
 15 14  1  0
 14  1  1  0
  1  2  2  0
  1 13  1  0
  2  3  1  0
  3  4  2  0
  3  5  1  0
  5  6  1  0
  6  7  1  0
  6 13  2  0
  7  8  1  0
  8  9  2  0
  8 10  1  0
 10 11  1  0
 11 12  2  0
 11 13  1  0
 18 19  1  0
M  END
>  <minimizedAffinity>  (88) 
-8.86295

$$$$
cs_full_output_folder/data/smiles/7417.pdb
     RDKit          3D

 21 23  0  0  0  0  0  0  0  0999 V2000
   69.6875   48.1548   54.7672 C   0  0  0  0  0  0  0  0  0  0  0  0
   70.6104   49.0061   54.3296 N   0  0  0  0  0  0  0  0  0  0  0  0
   70.9506   49.1726   53.0333 N   0  0  0  0  0  0  0  0  0  0  0  0
   70.3281   48.4306   52.1049 C   0  0  0  0  0  0  0  0  0  0  0  0
   70.6401   48.5648   50.8652 O   0  0  0  0  0  0  0  0  0  0  0  0
   69.3597   47.5302   52.4782 C   0  0  0  0  0  0  0  0  0  0  0  0
   68.7306   46.8085   51.4705 C   0  0  0  0  0  0  0  0  0  0  0  0
   67.7026   45.8972   51.8390 C   0  0  0  0  0  0  0  0  0  0  0  0
   67.3949   45.7871   53.1252 C   0  0  0  0  0  0  0  0  0  0  0  0
   68.0237   46.5040   54.1533 C   0  0  0  0  0  0  0  0  0  0  0  0
   67.6607   46.3989   55.4192 F   0  0  0  0  0  0  0  0  0  0  0  0
   69.0401   47.4004   53.8161 C   0  0  0  0  0  0  0  0  0  0  0  0
   69.5767   47.8604   56.2280 C   0  0  0  0  0  0  0  0  0  0  0  0
   68.6031   51.4524   57.0695 C   0  0  0  0  0  0  0  0  0  0  0  0
   67.3627   51.3201   57.6338 C   0  0  0  0  0  0  0  0  0  0  0  0
   66.8661   50.0327   57.7755 C   0  0  0  0  0  0  0  0  0  0  0  0
   67.6356   48.9648   57.3477 C   0  0  0  0  0  0  0  0  0  0  0  0
   68.9112   49.1117   56.7702 C   0  0  0  0  0  0  0  0  0  0  0  0
   69.3474   50.3807   56.6584 C   0  0  0  0  0  0  0  0  0  0  0  0
   69.3464   53.9081   56.4581 N   0  0  0  0  0  0  0  0  0  0  0  0
   69.0121   52.8378   56.7203 C   0  0  0  0  0  0  0  0  0  0  0  0
 20 21  3  0
 21 14  1  0
 14 15  2  0
 14 19  1  0
 15 16  1  0
 16 17  2  0
 17 18  1  0
 18 13  1  0
 18 19  2  0
 13  1  1  0
  1  2  2  0
  1 12  1  0
  2  3  1  0
  3  4  1  0
  4  5  2  0
  4  6  1  0
  6  7  1  0
  6 12  2  0
  7  8  2  0
  8  9  1  0
  9 10  2  0
 10 11  1  0
 10 12  1  0
M  END
>  <minimizedAffinity>  (89) 
-8.85533

$$$$
cs_full_output_folder/data/smiles/7040.pdb
     RDKit          3D

 19 21  0  0  0  0  0  0  0  0999 V2000
   69.8884   48.4557   54.7797 C   0  0  0  0  0  0  0  0  0  0  0  0
   70.8302   49.2706   54.2078 N   0  0  0  0  0  0  0  0  0  0  0  0
   71.0893   49.2891   52.9188 N   0  0  0  0  0  0  0  0  0  0  0  0
   70.4233   48.4871   52.0712 C   0  0  0  0  0  0  0  0  0  0  0  0
   70.6505   48.4840   50.8324 O   0  0  0  0  0  0  0  0  0  0  0  0
   69.4512   47.6263   52.5339 C   0  0  0  0  0  0  0  0  0  0  0  0
   68.7578   46.8120   51.6626 C   0  0  0  0  0  0  0  0  0  0  0  0
   67.7824   45.9758   52.1624 C   0  0  0  0  0  0  0  0  0  0  0  0
   67.5428   45.9919   53.5196 C   0  0  0  0  0  0  0  0  0  0  0  0
   68.2285   46.7994   54.4047 C   0  0  0  0  0  0  0  0  0  0  0  0
   69.2077   47.6386   53.9105 C   0  0  0  0  0  0  0  0  0  0  0  0
   69.7239   48.4761   56.2542 C   0  0  0  0  0  0  0  0  0  0  0  0
   67.3993   47.6739   57.5397 N   0  0  0  0  0  0  0  0  0  0  0  0
   67.5916   49.0912   57.3527 C   0  0  0  0  0  0  0  0  0  0  0  0
   66.6846   50.0079   57.7951 C   0  0  0  0  0  0  0  0  0  0  0  0
   66.9032   51.3723   57.6048 C   0  0  0  0  0  0  0  0  0  0  0  0
   68.0407   51.7835   56.9667 C   0  0  0  0  0  0  0  0  0  0  0  0
   68.9661   50.8464   56.5147 C   0  0  0  0  0  0  0  0  0  0  0  0
   68.7604   49.5115   56.6973 C   0  0  0  0  0  0  0  0  0  0  0  0
 13 14  1  0
 14 15  2  0
 14 19  1  0
 15 16  1  0
 16 17  2  0
 17 18  1  0
 18 19  2  0
 19 12  1  0
 12  1  1  0
  1  2  2  0
  1 11  1  0
  2  3  1  0
  3  4  1  0
  4  5  2  0
  4  6  1  0
  6  7  1  0
  6 11  2  0
  7  8  2  0
  8  9  1  0
  9 10  2  0
 10 11  1  0
M  END
>  <minimizedAffinity>  (90) 
-8.85422

$$$$
cs_full_output_folder/data/smiles/4534.pdb
     RDKit          3D

 20 22  0  0  0  0  0  0  0  0999 V2000
   70.5293   48.6847   50.9270 O   0  0  0  0  0  0  0  0  0  0  0  0
   70.3008   48.5178   52.1486 C   0  0  0  0  0  0  0  0  0  0  0  0
   70.9306   49.1737   53.1285 N   0  0  0  0  0  0  0  0  0  0  0  0
   70.6701   48.9783   54.4077 N   0  0  0  0  0  0  0  0  0  0  0  0
   69.7285   48.0831   54.8295 C   0  0  0  0  0  0  0  0  0  0  0  0
   69.0643   47.3917   53.8545 C   0  0  0  0  0  0  0  0  0  0  0  0
   68.1037   46.4465   54.1676 C   0  0  0  0  0  0  0  0  0  0  0  0
   67.4377   45.7363   53.1925 C   0  0  0  0  0  0  0  0  0  0  0  0
   67.7232   45.9573   51.8650 C   0  0  0  0  0  0  0  0  0  0  0  0
   68.6724   46.8848   51.4984 C   0  0  0  0  0  0  0  0  0  0  0  0
   69.3251   47.5830   52.4975 C   0  0  0  0  0  0  0  0  0  0  0  0
   69.4254   47.9289   56.2679 C   0  0  0  0  0  0  0  0  0  0  0  0
   68.5362   48.9799   56.8107 C   0  0  0  0  0  0  0  0  0  0  0  0
   67.3669   48.7968   57.4947 C   0  0  0  0  0  0  0  0  0  0  0  0
   66.5728   49.8408   57.9631 C   0  0  0  0  0  0  0  0  0  0  0  0
   66.9748   51.1360   57.7324 C   0  0  0  0  0  0  0  0  0  0  0  0
   68.1533   51.3737   57.0429 C   0  0  0  0  0  0  0  0  0  0  0  0
   68.9105   50.3162   56.5967 C   0  0  0  0  0  0  0  0  0  0  0  0
   68.5326   52.7302   56.8261 N   0  0  0  0  0  0  0  0  0  0  0  0
   68.9912   53.1125   55.6173 O   0  0  0  0  0  0  0  0  0  0  0  0
  1  2  2  0
  2  3  1  0
  2 11  1  0
  3  4  1  0
  4  5  2  0
  5 12  1  0
  5  6  1  0
 12 13  1  0
 13 14  2  0
 13 18  1  0
 14 15  1  0
 15 16  2  0
 16 17  1  0
 17 19  1  0
 17 18  2  0
 19 20  1  0
  6  7  1  0
  6 11  2  0
  7  8  2  0
  8  9  1  0
  9 10  2  0
 10 11  1  0
M  END
>  <minimizedAffinity>  (91) 
-8.84639

$$$$
cs_full_output_folder/data/smiles/8330.pdb
     RDKit          3D

 21 23  0  0  0  0  0  0  0  0999 V2000
   69.9605   48.5454   54.8802 C   0  0  0  0  0  0  0  0  0  0  0  0
   70.8976   49.3378   54.2438 N   0  0  0  0  0  0  0  0  0  0  0  0
   71.1006   49.3110   52.9452 N   0  0  0  0  0  0  0  0  0  0  0  0
   70.4148   48.5109   52.1205 C   0  0  0  0  0  0  0  0  0  0  0  0
   70.6074   48.4868   50.8770 O   0  0  0  0  0  0  0  0  0  0  0  0
   69.4723   47.6988   52.6799 C   0  0  0  0  0  0  0  0  0  0  0  0
   68.7717   46.8626   51.8548 C   0  0  0  0  0  0  0  0  0  0  0  0
   67.8259   46.0190   52.3926 C   0  0  0  0  0  0  0  0  0  0  0  0
   67.6237   46.0556   53.7725 C   0  0  0  0  0  0  0  0  0  0  0  0
   68.3293   46.8947   54.5859 C   0  0  0  0  0  0  0  0  0  0  0  0
   69.2644   47.7324   54.0576 C   0  0  0  0  0  0  0  0  0  0  0  0
   69.8448   48.7789   56.3247 C   0  0  0  0  0  0  0  0  0  0  0  0
   68.2707   50.7616   56.7138 C   0  0  0  0  0  0  0  0  0  0  0  0
   67.1048   51.2552   57.3284 C   0  0  0  0  0  0  0  0  0  0  0  0
   66.2244   50.4182   57.9921 C   0  0  0  0  0  0  0  0  0  0  0  0
   66.5281   49.0835   58.0285 C   0  0  0  0  0  0  0  0  0  0  0  0
   67.6581   48.6281   57.4323 C   0  0  0  0  0  0  0  0  0  0  0  0
   68.5881   49.4564   56.7456 C   0  0  0  0  0  0  0  0  0  0  0  0
   68.7717   51.9684   54.6200 N   0  0  0  0  0  0  0  0  0  0  0  0
   69.0258   51.7320   55.9870 C   0  0  0  0  0  0  0  0  0  0  0  0
   69.9265   52.4016   56.5266 O   0  0  0  0  0  0  0  0  0  0  0  0
 19 20  1  0
 20 21  2  0
 20 13  1  0
 13 14  2  0
 13 18  1  0
 14 15  1  0
 15 16  2  0
 16 17  1  0
 17 18  2  0
 18 12  1  0
 12  1  1  0
  1  2  2  0
  1 11  1  0
  2  3  1  0
  3  4  1  0
  4  5  2  0
  4  6  1  0
  6  7  1  0
  6 11  2  0
  7  8  2  0
  8  9  1  0
  9 10  2  0
 10 11  1  0
M  END
>  <minimizedAffinity>  (92) 
-8.84590

$$$$
cs_full_output_folder/data/smiles/4830.pdb
     RDKit          3D

 20 22  0  0  0  0  0  0  0  0999 V2000
   70.9770   43.8980   58.7416 O   0  0  0  0  0  0  0  0  0  0  0  0
   70.3594   44.7261   58.0362 C   0  0  0  0  0  0  0  0  0  0  0  0
   69.4410   44.3144   57.1613 N   0  0  0  0  0  0  0  0  0  0  0  0
   68.8206   45.2249   56.4460 N   0  0  0  0  0  0  0  0  0  0  0  0
   69.0692   46.5674   56.5526 C   0  0  0  0  0  0  0  0  0  0  0  0
   70.0124   47.0219   57.4468 C   0  0  0  0  0  0  0  0  0  0  0  0
   70.6723   46.0905   58.2051 C   0  0  0  0  0  0  0  0  0  0  0  0
   71.6898   46.4827   59.1939 C   0  0  0  0  0  0  0  0  0  0  0  0
   71.8022   47.9614   59.3644 C   0  0  0  0  0  0  0  0  0  0  0  0
   71.7554   48.6206   57.9775 C   0  0  0  0  0  0  0  0  0  0  0  0
   70.2929   48.4628   57.5517 C   0  0  0  0  0  0  0  0  0  0  0  0
   68.3083   47.5351   55.7296 C   0  0  0  0  0  0  0  0  0  0  0  0
   68.4506   47.2541   54.2769 C   0  0  0  0  0  0  0  0  0  0  0  0
   67.8538   46.2306   53.5988 C   0  0  0  0  0  0  0  0  0  0  0  0
   68.0344   46.0110   52.2509 C   0  0  0  0  0  0  0  0  0  0  0  0
   68.8530   46.8443   51.5143 C   0  0  0  0  0  0  0  0  0  0  0  0
   69.4586   47.8826   52.2002 C   0  0  0  0  0  0  0  0  0  0  0  0
   69.2723   48.0946   53.5471 C   0  0  0  0  0  0  0  0  0  0  0  0
   70.3049   48.7530   51.4610 N   0  0  0  0  0  0  0  0  0  0  0  0
   69.8089   49.8509   50.8493 O   0  0  0  0  0  0  0  0  0  0  0  0
  1  2  2  0
  2  3  1  0
  2  7  1  0
  3  4  1  0
  4  5  2  0
  5 12  1  0
  5  6  1  0
 12 13  1  0
 13 14  2  0
 13 18  1  0
 14 15  1  0
 15 16  2  0
 16 17  1  0
 17 19  1  0
 17 18  2  0
 19 20  1  0
  6  7  2  0
  6 11  1  0
  7  8  1  0
  8  9  1  0
  9 10  1  0
 10 11  1  0
M  END
>  <minimizedAffinity>  (93) 
-8.84338

$$$$
cs_full_output_folder/data/smiles/4306.pdb
     RDKit          3D

 21 24  0  0  0  0  0  0  0  0999 V2000
   68.9315   46.3168   56.1021 C   0  0  0  0  0  0  0  0  0  0  0  0
   68.2996   45.1057   56.2111 N   0  0  0  0  0  0  0  0  0  0  0  0
   67.8508   44.7089   55.0659 N   0  0  0  0  0  0  0  0  0  0  0  0
   68.1546   45.6306   54.1367 C   0  0  0  0  0  0  0  0  0  0  0  0
   67.9302   45.7147   52.7700 C   0  0  0  0  0  0  0  0  0  0  0  0
   68.3783   46.8010   52.0574 C   0  0  0  0  0  0  0  0  0  0  0  0
   69.0619   47.8440   52.6474 C   0  0  0  0  0  0  0  0  0  0  0  0
   69.2635   47.7117   54.0215 C   0  0  0  0  0  0  0  0  0  0  0  0
   68.8375   46.6515   54.7735 C   0  0  0  0  0  0  0  0  0  0  0  0
   69.5760   48.9802   51.8988 C   0  0  0  0  0  0  0  0  0  0  0  0
   70.0756   49.6486   50.9135 N   0  0  0  0  0  0  0  0  0  0  0  0
   69.8347   50.3878   52.0230 N   0  0  0  0  0  0  0  0  0  0  0  0
   69.5946   46.9990   57.1864 C   0  0  0  0  0  0  0  0  0  0  0  0
   70.0112   48.4046   57.1193 C   0  0  0  0  0  0  0  0  0  0  0  0
   70.1562   51.0613   55.9465 N   0  0  0  0  0  0  0  0  0  0  0  0
   68.9778   50.6316   56.6247 C   0  0  0  0  0  0  0  0  0  0  0  0
   67.8963   51.5196   56.6694 C   0  0  0  0  0  0  0  0  0  0  0  0
   66.7435   51.1525   57.3620 C   0  0  0  0  0  0  0  0  0  0  0  0
   66.6840   49.9223   57.9898 C   0  0  0  0  0  0  0  0  0  0  0  0
   67.7599   49.0663   57.9296 C   0  0  0  0  0  0  0  0  0  0  0  0
   68.9168   49.3998   57.2547 C   0  0  0  0  0  0  0  0  0  0  0  0
 15 16  1  0
 16 17  2  0
 16 21  1  0
 17 18  1  0
 18 19  2  0
 19 20  1  0
 20 21  2  0
 21 14  1  0
 14 13  1  0
 13  1  1  0
  1  2  2  0
  1  9  1  0
  2  3  1  0
  3  4  1  0
  4  5  1  0
  4  9  2  0
  5  6  2  0
  6  7  1  0
  7 10  1  0
  7  8  2  0
 10 11  2  0
 10 12  1  0
 11 12  1  0
  8  9  1  0
M  CHG  1  11   1
M  END
>  <minimizedAffinity>  (94) 
-8.84105

$$$$
cs_full_output_folder/data/smiles/2332.pdb
     RDKit          3D

 22 25  0  0  0  0  0  0  0  0999 V2000
   69.8450   50.3415   53.2000 C   0  0  0  0  0  0  0  0  0  0  0  0
   69.9302   50.6983   51.8843 N   0  0  0  0  0  0  0  0  0  0  0  0
   69.6165   49.6733   51.1270 N   0  0  0  0  0  0  0  0  0  0  0  0
   69.3114   48.6030   51.8813 C   0  0  0  0  0  0  0  0  0  0  0  0
   68.9212   47.3019   51.5729 C   0  0  0  0  0  0  0  0  0  0  0  0
   68.6672   46.3932   52.5698 C   0  0  0  0  0  0  0  0  0  0  0  0
   68.8012   46.7798   53.8986 C   0  0  0  0  0  0  0  0  0  0  0  0
   69.1847   48.0612   54.1741 C   0  0  0  0  0  0  0  0  0  0  0  0
   69.4475   48.9981   53.1909 C   0  0  0  0  0  0  0  0  0  0  0  0
   68.5237   45.7842   54.9280 C   0  0  0  0  0  0  0  0  0  0  0  0
   68.6879   45.7848   56.2071 N   0  0  0  0  0  0  0  0  0  0  0  0
   68.1594   44.4795   56.2651 N   0  0  0  0  0  0  0  0  0  0  0  0
   67.9954   44.4699   55.0095 N   0  0  0  0  0  0  0  0  0  0  0  0
   70.0832   51.1686   54.3632 C   0  0  0  0  0  0  0  0  0  0  0  0
   69.0669   52.1045   54.8599 C   0  0  0  0  0  0  0  0  0  0  0  0
   68.7280   52.1780   56.2815 C   0  0  0  0  0  0  0  0  0  0  0  0
   66.6367   49.0035   58.1180 C   0  0  0  0  0  0  0  0  0  0  0  0
   67.9406   48.8677   57.6325 C   0  0  0  0  0  0  0  0  0  0  0  0
   68.6241   49.8921   57.0365 C   0  0  0  0  0  0  0  0  0  0  0  0
   67.9496   51.1227   56.9263 C   0  0  0  0  0  0  0  0  0  0  0  0
   66.7026   51.2357   57.3961 N   0  0  0  0  0  0  0  0  0  0  0  0
   66.0213   50.2379   57.9823 C   0  0  0  0  0  0  0  0  0  0  0  0
 17 18  2  0
 17 22  1  0
 18 19  1  0
 19 20  2  0
 20 16  1  0
 20 21  1  0
 16 15  1  0
 15 14  1  0
 14  1  1  0
  1  2  2  0
  1  9  1  0
  2  3  1  0
  3  4  1  0
  4  5  1  0
  4  9  2  0
  5  6  2  0
  6  7  1  0
  7 10  1  0
  7  8  2  0
 10 11  2  0
 10 13  1  0
 11 12  1  0
 12 13  2  0
  8  9  1  0
 21 22  2  0
M  CHG  1  11   1
M  END
>  <minimizedAffinity>  (95) 
-8.83742

$$$$
cs_full_output_folder/data/smiles/3395.pdb
     RDKit          3D

 20 22  0  0  0  0  0  0  0  0999 V2000
   70.4216   49.2811   53.9582 C   0  0  0  0  0  0  0  0  0  0  0  0
   71.5820   49.3940   53.4084 O   0  0  0  0  0  0  0  0  0  0  0  0
   70.1377   50.2619   54.9146 N   0  0  0  0  0  0  0  0  0  0  0  0
   70.8570   51.5584   54.9342 C   0  0  0  0  0  0  0  0  0  0  0  0
   69.8436   52.6367   54.7826 C   0  0  0  0  0  0  0  0  0  0  0  0
   68.5691   52.4864   55.5271 C   0  0  0  0  0  0  0  0  0  0  0  0
   68.3534   51.2024   56.1990 C   0  0  0  0  0  0  0  0  0  0  0  0
   67.3791   51.0753   57.1555 C   0  0  0  0  0  0  0  0  0  0  0  0
   67.1898   49.8398   57.7944 C   0  0  0  0  0  0  0  0  0  0  0  0
   66.2428   49.6785   58.7391 F   0  0  0  0  0  0  0  0  0  0  0  0
   67.9880   48.7444   57.4606 C   0  0  0  0  0  0  0  0  0  0  0  0
   68.9583   48.8783   56.5041 C   0  0  0  0  0  0  0  0  0  0  0  0
   69.1209   50.1159   55.8894 C   0  0  0  0  0  0  0  0  0  0  0  0
   70.1120   48.8625   51.2413 N   0  0  0  0  0  0  0  0  0  0  0  0
   69.4279   47.9912   52.1335 C   0  0  0  0  0  0  0  0  0  0  0  0
   68.6275   47.0105   51.6067 C   0  0  0  0  0  0  0  0  0  0  0  0
   67.9513   46.1483   52.4354 C   0  0  0  0  0  0  0  0  0  0  0  0
   68.1178   46.3197   53.7885 C   0  0  0  0  0  0  0  0  0  0  0  0
   68.9218   47.3069   54.3224 C   0  0  0  0  0  0  0  0  0  0  0  0
   69.6086   48.1800   53.5072 C   0  0  0  0  0  0  0  0  0  0  0  0
 14 15  1  0
 15 16  2  0
 15 20  1  0
 16 17  1  0
 17 18  2  0
 18 19  1  0
 19 20  2  0
 20  1  1  0
  1  2  2  0
  1  3  1  0
  3  4  1  0
  3 13  1  0
  4  5  1  0
  5  6  1  0
  6  7  1  0
  7  8  2  0
  7 13  1  0
  8  9  1  0
  9 10  1  0
  9 11  2  0
 11 12  1  0
 12 13  2  0
M  END
>  <minimizedAffinity>  (96) 
-8.83433

$$$$
cs_full_output_folder/data/smiles/7589.pdb
     RDKit          3D

 21 23  0  0  0  0  0  0  0  0999 V2000
   67.8716   47.9984   56.8092 C   0  0  0  0  0  0  0  0  0  0  0  0
   66.7547   48.0671   57.5634 N   0  0  0  0  0  0  0  0  0  0  0  0
   66.4134   49.1970   58.2049 C   0  0  0  0  0  0  0  0  0  0  0  0
   67.2202   50.3299   58.0986 C   0  0  0  0  0  0  0  0  0  0  0  0
   68.3543   50.2812   57.3401 C   0  0  0  0  0  0  0  0  0  0  0  0
   68.6107   49.0875   56.7291 N   0  0  0  0  0  0  0  0  0  0  0  0
   69.2518   51.4007   57.1728 C   0  0  0  0  0  0  0  0  0  0  0  0
   68.8855   52.5291   56.4705 C   0  0  0  0  0  0  0  0  0  0  0  0
   69.7379   53.6146   56.2875 C   0  0  0  0  0  0  0  0  0  0  0  0
   71.0028   53.5886   56.8192 C   0  0  0  0  0  0  0  0  0  0  0  0
   71.3817   52.4667   57.5251 C   0  0  0  0  0  0  0  0  0  0  0  0
   70.5225   51.3975   57.6968 C   0  0  0  0  0  0  0  0  0  0  0  0
   68.1725   46.7716   56.1657 N   0  0  0  0  0  0  0  0  0  0  0  0
   69.3018   47.6264   52.7065 C   0  0  0  0  0  0  0  0  0  0  0  0
   68.6632   46.6712   51.9786 C   0  0  0  0  0  0  0  0  0  0  0  0
   67.8644   45.7360   52.6300 C   0  0  0  0  0  0  0  0  0  0  0  0
   67.7333   45.7936   54.0011 C   0  0  0  0  0  0  0  0  0  0  0  0
   68.3810   46.7736   54.7725 C   0  0  0  0  0  0  0  0  0  0  0  0
   69.1635   47.6819   54.0989 C   0  0  0  0  0  0  0  0  0  0  0  0
   70.6102   48.5046   50.8910 O   0  0  0  0  0  0  0  0  0  0  0  0
   70.1418   48.6223   52.0715 C   0  0  0  0  0  0  0  0  0  0  0  0
 20 21  2  0
 21 14  1  0
 14 15  2  0
 14 19  1  0
 15 16  1  0
 16 17  2  0
 17 18  1  0
 18 13  1  0
 18 19  2  0
 13  1  1  0
  1  2  2  0
  1  6  1  0
  2  3  1  0
  3  4  2  0
  4  5  1  0
  5  7  1  0
  5  6  2  0
  7  8  2  0
  7 12  1  0
  8  9  1  0
  9 10  2  0
 10 11  1  0
 11 12  2  0
M  END
>  <minimizedAffinity>  (97) 
-8.82814

$$$$
cs_full_output_folder/data/smiles/810.pdb
     RDKit          3D

 22 24  0  0  0  0  0  0  0  0999 V2000
   67.4217   44.6408   52.2717 O   0  0  0  0  0  0  0  0  0  0  0  0
   67.8300   45.3591   53.2477 C   0  0  0  0  0  0  0  0  0  0  0  0
   67.5876   44.9876   54.5147 N   0  0  0  0  0  0  0  0  0  0  0  0
   67.9863   45.6886   55.5541 N   0  0  0  0  0  0  0  0  0  0  0  0
   68.6879   46.8665   55.4275 C   0  0  0  0  0  0  0  0  0  0  0  0
   68.9513   47.2751   54.1469 C   0  0  0  0  0  0  0  0  0  0  0  0
   69.6279   48.4396   53.9228 C   0  0  0  0  0  0  0  0  0  0  0  0
   69.8741   48.8430   52.6323 C   0  0  0  0  0  0  0  0  0  0  0  0
   69.4544   48.0988   51.5537 C   0  0  0  0  0  0  0  0  0  0  0  0
   68.7684   46.9213   51.7418 C   0  0  0  0  0  0  0  0  0  0  0  0
   68.5284   46.5291   53.0373 C   0  0  0  0  0  0  0  0  0  0  0  0
   69.1281   47.5445   56.6409 C   0  0  0  0  0  0  0  0  0  0  0  0
   68.4416   48.7789   57.0006 C   0  0  0  0  0  0  0  0  0  0  0  0
   67.2513   48.7647   57.6712 C   0  0  0  0  0  0  0  0  0  0  0  0
   66.5590   49.9317   58.0202 C   0  0  0  0  0  0  0  0  0  0  0  0
   67.0864   51.1526   57.6824 C   0  0  0  0  0  0  0  0  0  0  0  0
   68.2825   51.1913   57.0094 C   0  0  0  0  0  0  0  0  0  0  0  0
   68.9438   50.0385   56.6755 C   0  0  0  0  0  0  0  0  0  0  0  0
   68.8514   52.5067   56.6457 C   0  0  0  0  0  0  0  0  0  0  0  0
   69.3677   52.3775   55.2141 C   0  0  0  0  0  0  0  0  0  0  0  0
   68.5197   53.0415   54.3596 O   0  0  0  0  0  0  0  0  0  0  0  0
   70.6634   52.8659   55.1227 O   0  0  0  0  0  0  0  0  0  0  0  0
  1  2  2  0
  2  3  1  0
  2 11  1  0
  3  4  1  0
  4  5  2  0
  5 12  1  0
  5  6  1  0
 12 13  1  0
 13 14  2  0
 13 18  1  0
 14 15  1  0
 15 16  2  0
 16 17  1  0
 17 19  1  0
 17 18  2  0
 19 20  1  0
 20 21  1  0
 20 22  1  0
  6  7  1  0
  6 11  2  0
  7  8  2  0
  8  9  1  0
  9 10  2  0
 10 11  1  0
M  END
>  <minimizedAffinity>  (98) 
-8.82593

$$$$
cs_full_output_folder/data/smiles/22.pdb
     RDKit          3D

 20 22  0  0  0  0  0  0  0  0999 V2000
   66.6948   44.7905   50.8780 O   0  0  0  0  0  0  0  0  0  0  0  0
   67.3158   45.6082   51.6263 C   0  0  0  0  0  0  0  0  0  0  0  0
   68.1262   46.5110   51.0560 N   0  0  0  0  0  0  0  0  0  0  0  0
   68.7975   47.3893   51.8257 C   0  0  0  0  0  0  0  0  0  0  0  0
   69.5605   48.2482   51.3149 O   0  0  0  0  0  0  0  0  0  0  0  0
   68.6623   47.3692   53.1884 C   0  0  0  0  0  0  0  0  0  0  0  0
   69.3681   48.2920   53.9767 C   0  0  0  0  0  0  0  0  0  0  0  0
   69.1360   48.1679   55.3481 C   0  0  0  0  0  0  0  0  0  0  0  0
   68.2940   47.2236   55.8463 C   0  0  0  0  0  0  0  0  0  0  0  0
   68.1147   47.1486   57.1097 O   0  0  0  0  0  0  0  0  0  0  0  0
   67.6590   46.3849   55.0857 O   0  0  0  0  0  0  0  0  0  0  0  0
   67.8184   46.4319   53.7863 C   0  0  0  0  0  0  0  0  0  0  0  0
   67.1747   45.5809   52.9634 N   0  0  0  0  0  0  0  0  0  0  0  0
   70.3108   49.2712   53.4417 C   0  0  0  0  0  0  0  0  0  0  0  0
   69.6625   50.5940   53.0842 C   0  0  0  0  0  0  0  0  0  0  0  0
   69.6416   51.5014   54.2544 C   0  0  0  0  0  0  0  0  0  0  0  0
   68.6869   52.1001   54.9764 C   0  0  0  0  0  0  0  0  0  0  0  0
   69.0027   52.8902   56.0015 C   0  0  0  0  0  0  0  0  0  0  0  0
   70.2885   53.1213   56.3541 C   0  0  0  0  0  0  0  0  0  0  0  0
   71.1892   52.0994   55.0890 S   0  0  0  0  0  0  0  0  0  0  0  0
  1  2  2  0
  2  3  1  0
  2 13  1  0
  3  4  1  0
  4  5  2  0
  4  6  1  0
  6  7  1  0
  6 12  2  0
  7 14  1  0
  7  8  2  0
 14 15  1  0
 15 16  1  0
 16 17  2  0
 16 20  1  0
 17 18  1  0
 18 19  2  0
 19 20  1  0
  8  9  1  0
  9 10  2  0
  9 11  1  0
 11 12  1  0
 12 13  1  0
M  END
>  <minimizedAffinity>  (99) 
-8.82530

$$$$
cs_full_output_folder/data/smiles/3878.pdb
     RDKit          3D

 21 23  0  0  0  0  0  0  0  0999 V2000
   69.4332   48.3609   53.9930 C   0  0  0  0  0  0  0  0  0  0  0  0
   69.1927   48.2366   55.3887 C   0  0  0  0  0  0  0  0  0  0  0  0
   68.3225   47.2839   55.8344 C   0  0  0  0  0  0  0  0  0  0  0  0
   68.1238   47.1910   57.1021 N   0  0  0  0  0  0  0  0  0  0  0  0
   67.7019   46.4826   55.0164 O   0  0  0  0  0  0  0  0  0  0  0  0
   67.8575   46.5215   53.7122 C   0  0  0  0  0  0  0  0  0  0  0  0
   67.1676   45.6594   52.9432 N   0  0  0  0  0  0  0  0  0  0  0  0
   67.3291   45.7220   51.6118 C   0  0  0  0  0  0  0  0  0  0  0  0
   66.6943   44.9236   50.8442 O   0  0  0  0  0  0  0  0  0  0  0  0
   68.1651   46.6335   51.0883 N   0  0  0  0  0  0  0  0  0  0  0  0
   68.8767   47.5172   51.8440 C   0  0  0  0  0  0  0  0  0  0  0  0
   69.6372   48.3402   51.3058 O   0  0  0  0  0  0  0  0  0  0  0  0
   68.7391   47.4784   53.1969 C   0  0  0  0  0  0  0  0  0  0  0  0
   70.4144   49.3488   53.5406 C   0  0  0  0  0  0  0  0  0  0  0  0
   69.9858   50.7465   53.6423 C   0  0  0  0  0  0  0  0  0  0  0  0
   70.5205   51.7907   54.4997 C   0  0  0  0  0  0  0  0  0  0  0  0
   69.9201   52.0747   55.8299 C   0  0  0  0  0  0  0  0  0  0  0  0
   70.7779   52.2771   57.0479 C   0  0  0  0  0  0  0  0  0  0  0  0
   70.3492   53.4913   56.3035 C   0  0  0  0  0  0  0  0  0  0  0  0
   67.9636   51.1598   57.1216 C   0  0  0  0  0  0  0  0  0  0  0  0
   68.3953   52.0189   55.9572 C   0  0  0  0  0  0  0  0  0  0  0  0
 20 21  1  0
 21 17  1  0
 17 16  1  0
 17 18  1  0
 17 19  1  0
 16 15  1  0
 15 14  1  0
 14  1  1  0
  1  2  2  0
  1 13  1  0
  2  3  1  0
  3  4  2  0
  3  5  1  0
  5  6  1  0
  6  7  1  0
  6 13  2  0
  7  8  1  0
  8  9  2  0
  8 10  1  0
 10 11  1  0
 11 12  2  0
 11 13  1  0
 18 19  1  0
M  END
>  <minimizedAffinity>  (100) 
-8.82271

$$$$
cs_full_output_folder/data/smiles/4853.pdb
     RDKit          3D

 21 22  0  0  0  0  0  0  0  0999 V2000
   68.8769   46.8865   54.9060 C   0  0  0  0  0  0  0  0  0  0  0  0
   68.0386   45.9869   54.3025 C   0  0  0  0  0  0  0  0  0  0  0  0
   67.8134   45.9723   52.9251 C   0  0  0  0  0  0  0  0  0  0  0  0
   66.9634   45.0498   52.3662 O   0  0  0  0  0  0  0  0  0  0  0  0
   68.4376   46.8792   52.1007 C   0  0  0  0  0  0  0  0  0  0  0  0
   68.2231   46.8817   50.7114 O   0  0  0  0  0  0  0  0  0  0  0  0
   69.2877   47.7962   52.6827 C   0  0  0  0  0  0  0  0  0  0  0  0
   69.5055   47.8067   54.0384 C   0  0  0  0  0  0  0  0  0  0  0  0
   69.9345   48.7260   51.8108 N   0  0  0  0  0  0  0  0  0  0  0  0
   70.6304   48.3085   50.8841 O   0  0  0  0  0  0  0  0  0  0  0  0
   69.7334   50.0829   52.0510 O   0  0  0  0  0  0  0  0  0  0  0  0
   69.1325   46.9575   56.3273 C   0  0  0  0  0  0  0  0  0  0  0  0
   68.6186   46.0693   57.0906 O   0  0  0  0  0  0  0  0  0  0  0  0
   69.9686   48.0232   56.9090 C   0  0  0  0  0  0  0  0  0  0  0  0
   69.0084   52.8841   56.1384 C   0  0  0  0  0  0  0  0  0  0  0  0
   68.5960   51.5431   56.6562 C   0  0  0  0  0  0  0  0  0  0  0  0
   67.3536   51.3647   57.2335 C   0  0  0  0  0  0  0  0  0  0  0  0
   66.9418   50.1423   57.7164 C   0  0  0  0  0  0  0  0  0  0  0  0
   67.7902   49.0404   57.6292 C   0  0  0  0  0  0  0  0  0  0  0  0
   69.0298   49.2001   57.0584 C   0  0  0  0  0  0  0  0  0  0  0  0
   69.4211   50.4368   56.5804 C   0  0  0  0  0  0  0  0  0  0  0  0
 15 16  1  0
 16 17  2  0
 16 21  1  0
 17 18  1  0
 18 19  2  0
 19 20  1  0
 20 14  1  0
 20 21  2  0
 14 12  1  0
 12 13  2  0
 12  1  1  0
  1  2  2  0
  1  8  1  0
  2  3  1  0
  3  4  1  0
  3  5  2  0
  5  6  1  0
  5  7  1  0
  7  9  1  0
  7  8  2  0
  9 10  2  0
  9 11  1  0
M  CHG  2   9   1  11  -1
M  END
>  <minimizedAffinity>  (101) 
-8.82256

$$$$
cs_full_output_folder/data/smiles/3075.pdb
     RDKit          3D

 22 24  0  0  0  0  0  0  0  0999 V2000
   69.1397   45.4582   56.7376 C   0  0  0  0  0  0  0  0  0  0  0  0
   70.3255   45.8207   57.3439 C   0  0  0  0  0  0  0  0  0  0  0  0
   71.0979   44.8756   57.9700 C   0  0  0  0  0  0  0  0  0  0  0  0
   70.6871   43.5851   57.9885 N   0  0  0  0  0  0  0  0  0  0  0  0
   69.5378   43.2030   57.4066 C   0  0  0  0  0  0  0  0  0  0  0  0
   68.7989   44.1386   56.8013 N   0  0  0  0  0  0  0  0  0  0  0  0
   69.1665   41.8039   57.4636 C   0  0  0  0  0  0  0  0  0  0  0  0
   69.7564   40.9152   58.3324 C   0  0  0  0  0  0  0  0  0  0  0  0
   69.3847   39.5781   58.3938 C   0  0  0  0  0  0  0  0  0  0  0  0
   68.3817   39.1126   57.5497 C   0  0  0  0  0  0  0  0  0  0  0  0
   67.8136   39.9888   56.7055 N   0  0  0  0  0  0  0  0  0  0  0  0
   68.1826   41.3038   56.6490 C   0  0  0  0  0  0  0  0  0  0  0  0
   68.3103   46.3886   56.0734 N   0  0  0  0  0  0  0  0  0  0  0  0
   69.1451   47.7234   52.7392 C   0  0  0  0  0  0  0  0  0  0  0  0
   68.5548   46.7530   51.9311 C   0  0  0  0  0  0  0  0  0  0  0  0
   67.8951   45.6854   52.4827 C   0  0  0  0  0  0  0  0  0  0  0  0
   67.8016   45.5496   53.8297 C   0  0  0  0  0  0  0  0  0  0  0  0
   68.3728   46.4912   54.6691 C   0  0  0  0  0  0  0  0  0  0  0  0
   69.0334   47.5605   54.0997 C   0  0  0  0  0  0  0  0  0  0  0  0
   69.7891   50.1760   52.8146 C   0  0  0  0  0  0  0  0  0  0  0  0
   69.8493   48.8607   52.1547 C   0  0  0  0  0  0  0  0  0  0  0  0
   70.5012   48.7245   51.1057 O   0  0  0  0  0  0  0  0  0  0  0  0
 20 21  1  0
 21 22  2  0
 21 14  1  0
 14 15  2  0
 14 19  1  0
 15 16  1  0
 16 17  2  0
 17 18  1  0
 18 13  1  0
 18 19  2  0
 13  1  1  0
  1  2  2  0
  1  6  1  0
  2  3  1  0
  3  4  2  0
  4  5  1  0
  5  7  1  0
  5  6  2  0
  7  8  2  0
  7 12  1  0
  8  9  1  0
  9 10  2  0
 10 11  1  0
 11 12  2  0
M  END
>  <minimizedAffinity>  (102) 
-8.82016

$$$$
cs_full_output_folder/data/smiles/4120.pdb
     RDKit          3D

 22 24  0  0  0  0  0  0  0  0999 V2000
   69.5113   49.0034   52.4100 C   0  0  0  0  0  0  0  0  0  0  0  0
   70.3391   49.7980   53.3128 C   0  0  0  0  0  0  0  0  0  0  0  0
   71.6808   49.5235   53.3471 N   0  0  0  0  0  0  0  0  0  0  0  0
   72.5297   50.2273   54.0759 N   0  0  0  0  0  0  0  0  0  0  0  0
   72.1396   51.2621   54.8358 C   0  0  0  0  0  0  0  0  0  0  0  0
   73.0003   51.9147   55.5224 O   0  0  0  0  0  0  0  0  0  0  0  0
   70.8071   51.6208   54.8732 C   0  0  0  0  0  0  0  0  0  0  0  0
   70.3554   52.6624   55.6486 C   0  0  0  0  0  0  0  0  0  0  0  0
   69.0207   52.9810   55.6790 C   0  0  0  0  0  0  0  0  0  0  0  0
   68.1530   52.2313   54.9154 C   0  0  0  0  0  0  0  0  0  0  0  0
   68.6083   51.1744   54.1260 C   0  0  0  0  0  0  0  0  0  0  0  0
   69.9322   50.8546   54.0896 C   0  0  0  0  0  0  0  0  0  0  0  0
   68.5190   46.5154   55.0856 C   0  0  0  0  0  0  0  0  0  0  0  0
   67.9704   45.5308   54.3032 C   0  0  0  0  0  0  0  0  0  0  0  0
   67.9200   45.6689   52.9347 C   0  0  0  0  0  0  0  0  0  0  0  0
   68.4287   46.8090   52.3786 C   0  0  0  0  0  0  0  0  0  0  0  0
   68.9911   47.8294   53.1216 C   0  0  0  0  0  0  0  0  0  0  0  0
   69.0312   47.6717   54.4718 C   0  0  0  0  0  0  0  0  0  0  0  0
   68.5545   46.3659   56.4926 N   0  0  0  0  0  0  0  0  0  0  0  0
   69.5970   47.0156   57.2613 C   0  0  0  0  0  0  0  0  0  0  0  0
   69.9185   45.5837   59.0611 O   0  0  0  0  0  0  0  0  0  0  0  0
   70.3923   46.0531   58.0467 C   0  0  0  0  0  0  0  0  0  0  0  0
 21 22  2  0
 22 20  1  0
 20 19  1  0
 19 13  1  0
 13 14  2  0
 13 18  1  0
 14 15  1  0
 15 16  2  0
 16 17  1  0
 17  1  1  0
 17 18  2  0
  1  2  1  0
  2  3  2  0
  2 12  1  0
  3  4  1  0
  4  5  1  0
  5  6  2  0
  5  7  1  0
  7  8  1  0
  7 12  2  0
  8  9  2  0
  9 10  1  0
 10 11  2  0
 11 12  1  0
M  END
>  <minimizedAffinity>  (103) 
-8.81231

$$$$
cs_full_output_folder/data/smiles/4775.pdb
     RDKit          3D

 20 22  0  0  0  0  0  0  0  0999 V2000
   69.0490   47.6630   52.7751 C   0  0  0  0  0  0  0  0  0  0  0  0
   68.5255   47.0232   51.6854 C   0  0  0  0  0  0  0  0  0  0  0  0
   67.8487   45.8535   51.8883 C   0  0  0  0  0  0  0  0  0  0  0  0
   67.6960   45.3273   53.1777 C   0  0  0  0  0  0  0  0  0  0  0  0
   68.2052   45.9398   54.2854 C   0  0  0  0  0  0  0  0  0  0  0  0
   68.8927   47.1355   54.0423 C   0  0  0  0  0  0  0  0  0  0  0  0
   69.7443   49.7614   50.9939 N   0  0  0  0  0  0  0  0  0  0  0  0
   69.9241   49.1562   52.5950 S   0  0  0  0  0  0  0  0  0  0  0  0
   69.3135   50.1582   53.5368 O   0  0  0  0  0  0  0  0  0  0  0  0
   71.3698   49.0274   52.9472 O   0  0  0  0  0  0  0  0  0  0  0  0
   68.1154   45.4819   55.5903 N   0  0  0  0  0  0  0  0  0  0  0  0
   68.2545   44.1408   56.0215 C   0  0  0  0  0  0  0  0  0  0  0  0
   67.3019   43.2163   55.7537 N   0  0  0  0  0  0  0  0  0  0  0  0
   67.4433   41.9577   56.1780 C   0  0  0  0  0  0  0  0  0  0  0  0
   68.5423   41.5268   56.8995 C   0  0  0  0  0  0  0  0  0  0  0  0
   69.5159   42.4736   57.1724 C   0  0  0  0  0  0  0  0  0  0  0  0
   69.3044   43.6979   56.7187 N   0  0  0  0  0  0  0  0  0  0  0  0
   70.7226   42.1632   57.9203 C   0  0  0  0  0  0  0  0  0  0  0  0
   71.5503   41.1886   58.4562 C   0  0  0  0  0  0  0  0  0  0  0  0
   71.9376   42.5926   58.6499 C   0  0  0  0  0  0  0  0  0  0  0  0
  7  8  1  0
  8  9  2  0
  8 10  2  0
  8  1  1  0
  1  2  2  0
  1  6  1  0
  2  3  1  0
  3  4  2  0
  4  5  1  0
  5 11  1  0
  5  6  2  0
 11 12  1  0
 12 13  2  0
 12 17  1  0
 13 14  1  0
 14 15  2  0
 15 16  1  0
 16 18  1  0
 16 17  2  0
 18 19  2  0
 18 20  1  0
 19 20  1  0
M  END
>  <minimizedAffinity>  (104) 
-8.80757

$$$$
cs_full_output_folder/data/smiles/1764.pdb
     RDKit          3D

 21 22  0  0  0  0  0  0  0  0999 V2000
   68.6244   46.4397   56.8480 N   0  0  0  0  0  0  0  0  0  0  0  0
   68.0921   47.1349   55.9694 C   0  0  0  0  0  0  0  0  0  0  0  0
   68.3876   47.1098   54.5639 C   0  0  0  0  0  0  0  0  0  0  0  0
   67.7372   46.1425   53.7721 C   0  0  0  0  0  0  0  0  0  0  0  0
   67.9613   46.0489   52.4187 C   0  0  0  0  0  0  0  0  0  0  0  0
   68.8360   46.9100   51.8073 C   0  0  0  0  0  0  0  0  0  0  0  0
   69.4879   47.8597   52.5243 C   0  0  0  0  0  0  0  0  0  0  0  0
   69.2391   47.9316   53.9069 C   0  0  0  0  0  0  0  0  0  0  0  0
   70.3943   48.7679   51.9546 N   0  0  0  0  0  0  0  0  0  0  0  0
   70.1519   49.3712   50.9021 O   0  0  0  0  0  0  0  0  0  0  0  0
   71.5914   48.9859   52.6000 O   0  0  0  0  0  0  0  0  0  0  0  0
   70.0361   45.6632   59.0672 O   0  0  0  0  0  0  0  0  0  0  0  0
   70.3250   45.0851   57.9838 C   0  0  0  0  0  0  0  0  0  0  0  0
   69.5892   45.4895   56.8265 N   0  0  0  0  0  0  0  0  0  0  0  0
   71.3616   44.0800   58.0152 C   0  0  0  0  0  0  0  0  0  0  0  0
   72.7114   44.4350   58.0137 C   0  0  0  0  0  0  0  0  0  0  0  0
   73.6968   43.4848   58.0439 C   0  0  0  0  0  0  0  0  0  0  0  0
   73.4035   42.1432   58.0771 C   0  0  0  0  0  0  0  0  0  0  0  0
   72.0933   41.7516   58.0802 C   0  0  0  0  0  0  0  0  0  0  0  0
   71.7101   40.4239   58.1126 O   0  0  0  0  0  0  0  0  0  0  0  0
   71.0904   42.7336   58.0492 C   0  0  0  0  0  0  0  0  0  0  0  0
 12 13  2  0
 13 14  1  0
 13 15  1  0
 14  1  1  0
  1  2  2  0
  2  3  1  0
  3  4  2  0
  3  8  1  0
  4  5  1  0
  5  6  2  0
  6  7  1  0
  7  9  1  0
  7  8  2  0
  9 10  2  0
  9 11  1  0
 15 16  2  0
 15 21  1  0
 16 17  1  0
 17 18  2  0
 18 19  1  0
 19 20  1  0
 19 21  2  0
M  CHG  2   9   1  11  -1
M  END
>  <minimizedAffinity>  (105) 
-8.80449

$$$$
cs_full_output_folder/data/smiles/8185.pdb
     RDKit          3D

 21 23  0  0  0  0  0  0  0  0999 V2000
   70.3209   49.9820   55.0390 C   0  0  0  0  0  0  0  0  0  0  0  0
   71.4035   50.8385   55.0244 C   0  0  0  0  0  0  0  0  0  0  0  0
   72.1233   50.4688   53.9488 N   0  0  0  0  0  0  0  0  0  0  0  0
   71.5295   49.4506   53.3350 N   0  0  0  0  0  0  0  0  0  0  0  0
   70.4017   49.1122   53.9777 C   0  0  0  0  0  0  0  0  0  0  0  0
   69.5074   48.0387   53.5753 C   0  0  0  0  0  0  0  0  0  0  0  0
   68.9880   47.1600   54.5080 C   0  0  0  0  0  0  0  0  0  0  0  0
   68.1326   46.1276   54.1551 C   0  0  0  0  0  0  0  0  0  0  0  0
   67.7629   45.9373   52.8405 C   0  0  0  0  0  0  0  0  0  0  0  0
   66.9044   44.9111   52.4491 O   0  0  0  0  0  0  0  0  0  0  0  0
   68.2789   46.8123   51.9087 C   0  0  0  0  0  0  0  0  0  0  0  0
   67.8908   46.6011   50.5802 O   0  0  0  0  0  0  0  0  0  0  0  0
   69.1291   47.8382   52.2619 C   0  0  0  0  0  0  0  0  0  0  0  0
   69.6328   48.7001   51.3047 O   0  0  0  0  0  0  0  0  0  0  0  0
   66.0683   49.9199   58.7498 O   0  0  0  0  0  0  0  0  0  0  0  0
   67.1137   49.9334   57.8377 C   0  0  0  0  0  0  0  0  0  0  0  0
   67.9520   48.8564   57.7123 C   0  0  0  0  0  0  0  0  0  0  0  0
   68.9910   48.8612   56.8129 C   0  0  0  0  0  0  0  0  0  0  0  0
   69.2179   49.9519   56.0099 C   0  0  0  0  0  0  0  0  0  0  0  0
   68.3832   51.0404   56.1256 C   0  0  0  0  0  0  0  0  0  0  0  0
   67.3477   51.0261   57.0287 C   0  0  0  0  0  0  0  0  0  0  0  0
 15 16  1  0
 16 17  2  0
 16 21  1  0
 17 18  1  0
 18 19  2  0
 19  1  1  0
 19 20  1  0
  1  2  1  0
  1  5  2  0
  2  3  2  0
  3  4  1  0
  4  5  1  0
  5  6  1  0
  6  7  2  0
  6 13  1  0
  7  8  1  0
  8  9  2  0
  9 10  1  0
  9 11  1  0
 11 12  1  0
 11 13  2  0
 13 14  1  0
 20 21  2  0
M  END
>  <minimizedAffinity>  (106) 
-8.80250

$$$$
cs_full_output_folder/data/smiles/537.pdb
     RDKit          3D

 20 22  0  0  0  0  0  0  0  0999 V2000
   66.6404   44.9815   50.7853 O   0  0  0  0  0  0  0  0  0  0  0  0
   67.2869   45.7345   51.5728 C   0  0  0  0  0  0  0  0  0  0  0  0
   68.1617   46.6068   51.0364 N   0  0  0  0  0  0  0  0  0  0  0  0
   68.8750   47.4328   51.8193 C   0  0  0  0  0  0  0  0  0  0  0  0
   69.6941   48.2387   51.2934 O   0  0  0  0  0  0  0  0  0  0  0  0
   68.7421   47.4218   53.1834 C   0  0  0  0  0  0  0  0  0  0  0  0
   69.4438   48.2247   54.0469 C   0  0  0  0  0  0  0  0  0  0  0  0
   69.2317   48.1034   55.4375 C   0  0  0  0  0  0  0  0  0  0  0  0
   68.3289   47.1903   55.8573 C   0  0  0  0  0  0  0  0  0  0  0  0
   68.1393   47.0863   57.1243 O   0  0  0  0  0  0  0  0  0  0  0  0
   67.6753   46.4412   55.0171 O   0  0  0  0  0  0  0  0  0  0  0  0
   67.8224   46.4948   53.7174 C   0  0  0  0  0  0  0  0  0  0  0  0
   67.1225   45.6822   52.9066 N   0  0  0  0  0  0  0  0  0  0  0  0
   70.2774   49.3491   53.5862 C   0  0  0  0  0  0  0  0  0  0  0  0
   69.4567   50.6547   53.5655 C   0  0  0  0  0  0  0  0  0  0  0  0
   69.9150   51.7765   54.3531 C   0  0  0  0  0  0  0  0  0  0  0  0
   70.2272   51.6485   55.7873 C   0  0  0  0  0  0  0  0  0  0  0  0
   69.1159   52.1069   56.7414 C   0  0  0  0  0  0  0  0  0  0  0  0
   68.8602   51.0537   57.8525 C   0  0  0  0  0  0  0  0  0  0  0  0
   67.8389   51.3479   56.7760 C   0  0  0  0  0  0  0  0  0  0  0  0
  1  2  2  0
  2  3  1  0
  2 13  1  0
  3  4  1  0
  4  5  2  0
  4  6  1  0
  6  7  1  0
  6 12  2  0
  7 14  1  0
  7  8  2  0
 14 15  1  0
 15 16  1  0
 16 17  1  0
 17 18  1  0
 18 19  1  0
 18 20  1  0
 19 20  1  0
  8  9  1  0
  9 10  2  0
  9 11  1  0
 11 12  1  0
 12 13  1  0
M  END
>  <minimizedAffinity>  (107) 
-8.80114

$$$$
cs_full_output_folder/data/smiles/7232.pdb
     RDKit          3D

 21 23  0  0  0  0  0  0  0  0999 V2000
   68.9059   46.9141   55.5346 C   0  0  0  0  0  0  0  0  0  0  0  0
   68.0839   45.8326   55.7213 N   0  0  0  0  0  0  0  0  0  0  0  0
   67.5098   45.2032   54.7192 N   0  0  0  0  0  0  0  0  0  0  0  0
   67.6928   45.5808   53.4583 C   0  0  0  0  0  0  0  0  0  0  0  0
   67.1227   44.9559   52.4872 O   0  0  0  0  0  0  0  0  0  0  0  0
   68.4982   46.6507   53.1731 C   0  0  0  0  0  0  0  0  0  0  0  0
   68.7091   47.0387   51.8815 C   0  0  0  0  0  0  0  0  0  0  0  0
   69.5459   48.1122   51.6415 C   0  0  0  0  0  0  0  0  0  0  0  0
   70.1657   48.7924   52.6659 C   0  0  0  0  0  0  0  0  0  0  0  0
   69.9305   48.3730   53.9699 C   0  0  0  0  0  0  0  0  0  0  0  0
   69.1098   47.3176   54.2455 C   0  0  0  0  0  0  0  0  0  0  0  0
   69.4597   47.6223   56.7121 C   0  0  0  0  0  0  0  0  0  0  0  0
   68.3295   51.2628   56.5953 C   0  0  0  0  0  0  0  0  0  0  0  0
   67.1696   51.2187   57.3216 C   0  0  0  0  0  0  0  0  0  0  0  0
   66.7626   49.9980   57.8418 C   0  0  0  0  0  0  0  0  0  0  0  0
   67.5213   48.8763   57.6184 C   0  0  0  0  0  0  0  0  0  0  0  0
   68.7145   48.8923   56.8773 C   0  0  0  0  0  0  0  0  0  0  0  0
   69.0844   50.1036   56.3827 C   0  0  0  0  0  0  0  0  0  0  0  0
   68.8343   52.7037   54.6303 N   0  0  0  0  0  0  0  0  0  0  0  0
   68.7716   52.5185   56.0325 C   0  0  0  0  0  0  0  0  0  0  0  0
   69.1065   53.4611   56.7861 O   0  0  0  0  0  0  0  0  0  0  0  0
 19 20  1  0
 20 21  2  0
 20 13  1  0
 13 14  2  0
 13 18  1  0
 14 15  1  0
 15 16  2  0
 16 17  1  0
 17 12  1  0
 17 18  2  0
 12  1  1  0
  1  2  2  0
  1 11  1  0
  2  3  1  0
  3  4  1  0
  4  5  2  0
  4  6  1  0
  6  7  1  0
  6 11  2  0
  7  8  2  0
  8  9  1  0
  9 10  2  0
 10 11  1  0
M  END
>  <minimizedAffinity>  (108) 
-8.79604

$$$$
cs_full_output_folder/data/smiles/214.pdb
     RDKit          3D

 21 23  0  0  0  0  0  0  0  0999 V2000
   70.4028   49.1818   53.9962 C   0  0  0  0  0  0  0  0  0  0  0  0
   71.5755   49.4952   53.3835 N   0  0  0  0  0  0  0  0  0  0  0  0
   72.1084   50.5558   53.9646 N   0  0  0  0  0  0  0  0  0  0  0  0
   71.3330   50.9900   54.9721 C   0  0  0  0  0  0  0  0  0  0  0  0
   70.2602   50.1253   54.9904 C   0  0  0  0  0  0  0  0  0  0  0  0
   66.9128   44.9385   52.5867 O   0  0  0  0  0  0  0  0  0  0  0  0
   67.7724   45.9857   52.9355 C   0  0  0  0  0  0  0  0  0  0  0  0
   68.1231   46.2275   54.2586 C   0  0  0  0  0  0  0  0  0  0  0  0
   68.9673   47.2531   54.6230 C   0  0  0  0  0  0  0  0  0  0  0  0
   69.4994   48.0832   53.6633 C   0  0  0  0  0  0  0  0  0  0  0  0
   69.1722   47.8727   52.3400 C   0  0  0  0  0  0  0  0  0  0  0  0
   69.7117   48.7150   51.3756 O   0  0  0  0  0  0  0  0  0  0  0  0
   68.3145   46.8312   51.9750 C   0  0  0  0  0  0  0  0  0  0  0  0
   67.9814   46.6148   50.6307 O   0  0  0  0  0  0  0  0  0  0  0  0
   69.1444   50.2325   55.9563 C   0  0  0  0  0  0  0  0  0  0  0  0
   69.0277   49.3828   57.0255 C   0  0  0  0  0  0  0  0  0  0  0  0
   67.9787   49.5177   57.8986 C   0  0  0  0  0  0  0  0  0  0  0  0
   67.0027   50.4884   57.7600 C   0  0  0  0  0  0  0  0  0  0  0  0
   67.1133   51.3506   56.6822 C   0  0  0  0  0  0  0  0  0  0  0  0
   68.1720   51.2089   55.8068 C   0  0  0  0  0  0  0  0  0  0  0  0
   68.2755   52.0560   54.7533 F   0  0  0  0  0  0  0  0  0  0  0  0
  6  7  1  0
  7  8  2  0
  7 13  1  0
  8  9  1  0
  9 10  2  0
 10  1  1  0
 10 11  1  0
  1  2  2  0
  1  5  1  0
  2  3  1  0
  3  4  1  0
  4  5  2  0
  5 15  1  0
 15 16  2  0
 15 20  1  0
 16 17  1  0
 17 18  2  0
 18 19  1  0
 19 20  2  0
 20 21  1  0
 11 12  1  0
 11 13  2  0
 13 14  1  0
M  END
>  <minimizedAffinity>  (109) 
-8.79511

$$$$
cs_full_output_folder/data/smiles/1303.pdb
     RDKit          3D

 21 23  0  0  0  0  0  0  0  0999 V2000
   70.3398   49.2156   54.0948 C   0  0  0  0  0  0  0  0  0  0  0  0
   71.5173   49.5043   53.4720 N   0  0  0  0  0  0  0  0  0  0  0  0
   72.0811   50.5721   53.9794 N   0  0  0  0  0  0  0  0  0  0  0  0
   71.2759   51.0121   54.9587 C   0  0  0  0  0  0  0  0  0  0  0  0
   70.1649   50.1787   55.0595 C   0  0  0  0  0  0  0  0  0  0  0  0
   67.9290   46.6755   50.6642 N   0  0  0  0  0  0  0  0  0  0  0  0
   68.2944   46.8505   52.0266 C   0  0  0  0  0  0  0  0  0  0  0  0
   67.8133   45.9425   52.9437 C   0  0  0  0  0  0  0  0  0  0  0  0
   68.1758   46.1216   54.2602 C   0  0  0  0  0  0  0  0  0  0  0  0
   68.9998   47.1808   54.6633 C   0  0  0  0  0  0  0  0  0  0  0  0
   69.4758   48.0834   53.7426 C   0  0  0  0  0  0  0  0  0  0  0  0
   69.1047   47.8919   52.4224 C   0  0  0  0  0  0  0  0  0  0  0  0
   69.5821   48.7940   51.5106 F   0  0  0  0  0  0  0  0  0  0  0  0
   66.9911   44.8793   52.5604 O   0  0  0  0  0  0  0  0  0  0  0  0
   66.6311   44.7388   51.2806 O   0  0  0  0  0  0  0  0  0  0  0  0
   69.0523   50.2922   55.9920 C   0  0  0  0  0  0  0  0  0  0  0  0
   68.2299   51.3947   55.9837 C   0  0  0  0  0  0  0  0  0  0  0  0
   67.1771   51.5246   56.8598 C   0  0  0  0  0  0  0  0  0  0  0  0
   66.9131   50.5428   57.7802 C   0  0  0  0  0  0  0  0  0  0  0  0
   67.7258   49.4296   57.8047 C   0  0  0  0  0  0  0  0  0  0  0  0
   68.7669   49.3123   56.9311 C   0  0  0  0  0  0  0  0  0  0  0  0
  6  7  1  0
  7  8  2  0
  7 12  1  0
  8 14  1  0
  8  9  1  0
 14 15  1  0
  9 10  2  0
 10 11  1  0
 11  1  1  0
 11 12  2  0
  1  2  2  0
  1  5  1  0
  2  3  1  0
  3  4  1  0
  4  5  2  0
  5 16  1  0
 16 17  2  0
 16 21  1  0
 17 18  1  0
 18 19  2  0
 19 20  1  0
 20 21  2  0
 12 13  1  0
M  END
>  <minimizedAffinity>  (110) 
-8.79455

$$$$
cs_full_output_folder/data/smiles/4849.pdb
     RDKit          3D

 20 22  0  0  0  0  0  0  0  0999 V2000
   68.1548   46.7592   56.1728 N   0  0  0  0  0  0  0  0  0  0  0  0
   69.3518   47.4947   52.7381 C   0  0  0  0  0  0  0  0  0  0  0  0
   68.5709   46.6037   52.0337 C   0  0  0  0  0  0  0  0  0  0  0  0
   67.6737   45.7735   52.6878 C   0  0  0  0  0  0  0  0  0  0  0  0
   67.5058   45.7840   54.0511 C   0  0  0  0  0  0  0  0  0  0  0  0
   68.3017   46.6919   54.7674 C   0  0  0  0  0  0  0  0  0  0  0  0
   69.1869   47.5079   54.1097 C   0  0  0  0  0  0  0  0  0  0  0  0
   71.5232   49.2991   53.0582 O   0  0  0  0  0  0  0  0  0  0  0  0
   70.4949   48.5716   51.9493 S   0  0  0  0  0  0  0  0  0  0  0  0
   69.6728   49.7813   51.1317 O   0  0  0  0  0  0  0  0  0  0  0  0
   67.7405   47.9822   56.7622 C   0  0  0  0  0  0  0  0  0  0  0  0
   66.7572   48.0981   57.6714 N   0  0  0  0  0  0  0  0  0  0  0  0
   66.4241   49.2923   58.2103 C   0  0  0  0  0  0  0  0  0  0  0  0
   67.1081   50.4523   57.8256 C   0  0  0  0  0  0  0  0  0  0  0  0
   68.1168   50.3329   56.8924 C   0  0  0  0  0  0  0  0  0  0  0  0
   68.3813   49.1097   56.4096 N   0  0  0  0  0  0  0  0  0  0  0  0
   68.8979   51.5287   56.4438 C   0  0  0  0  0  0  0  0  0  0  0  0
   69.8310   52.2697   56.9248 C   0  0  0  0  0  0  0  0  0  0  0  0
   69.8942   53.1185   55.7628 C   0  0  0  0  0  0  0  0  0  0  0  0
   68.8168   52.2971   55.2169 C   0  0  0  0  0  0  0  0  0  0  0  0
  9  8  1  1
  9 10  1  0
  9  2  1  0
  2  3  2  0
  2  7  1  0
  3  4  1  0
  4  5  2  0
  5  6  1  0
  6  1  1  0
  6  7  2  0
  1 11  1  0
 11 12  2  0
 11 16  1  0
 12 13  1  0
 13 14  2  0
 14 15  1  0
 15 17  1  0
 15 16  2  0
 17 18  2  0
 17 20  1  0
 18 19  1  0
 19 20  1  0
M  CHG  2   8  -1   9   1
M  END
>  <minimizedAffinity>  (111) 
-8.79379

$$$$
cs_full_output_folder/data/smiles/1189.pdb
     RDKit          3D

 21 23  0  0  0  0  0  0  0  0999 V2000
   72.0327   50.1546   53.7556 O   0  0  0  0  0  0  0  0  0  0  0  0
   70.7408   50.0587   53.5876 C   0  0  0  0  0  0  0  0  0  0  0  0
   69.9886   51.1153   54.1307 N   0  0  0  0  0  0  0  0  0  0  0  0
   70.2107   48.9181   52.8898 C   0  0  0  0  0  0  0  0  0  0  0  0
   70.5120   48.6917   51.5679 N   0  0  0  0  0  0  0  0  0  0  0  0
   69.9020   47.6176   51.1227 N   0  0  0  0  0  0  0  0  0  0  0  0
   69.1588   47.0550   52.0953 C   0  0  0  0  0  0  0  0  0  0  0  0
   68.3317   45.9568   52.1720 C   0  0  0  0  0  0  0  0  0  0  0  0
   67.6787   45.6412   53.3378 C   0  0  0  0  0  0  0  0  0  0  0  0
   67.8760   46.4579   54.4255 C   0  0  0  0  0  0  0  0  0  0  0  0
   68.7080   47.5625   54.3480 C   0  0  0  0  0  0  0  0  0  0  0  0
   69.3676   47.8913   53.1984 C   0  0  0  0  0  0  0  0  0  0  0  0
   70.6401   52.2050   54.7968 N   0  0  0  0  0  0  0  0  0  0  0  0
   70.6272   52.0357   56.2232 C   0  0  0  0  0  0  0  0  0  0  0  0
   69.5018   51.2535   56.7539 C   0  0  0  0  0  0  0  0  0  0  0  0
   68.2642   51.8344   56.8828 C   0  0  0  0  0  0  0  0  0  0  0  0
   67.1750   51.1134   57.3865 C   0  0  0  0  0  0  0  0  0  0  0  0
   67.3494   49.7959   57.7601 C   0  0  0  0  0  0  0  0  0  0  0  0
   66.3091   49.1069   58.2410 F   0  0  0  0  0  0  0  0  0  0  0  0
   68.5726   49.2063   57.6380 C   0  0  0  0  0  0  0  0  0  0  0  0
   69.6507   49.9431   57.1308 C   0  0  0  0  0  0  0  0  0  0  0  0
  1  2  2  0
  2  3  1  0
  2  4  1  0
  3 13  1  0
 13 14  1  0
 14 15  1  0
 15 16  2  0
 15 21  1  0
 16 17  1  0
 17 18  2  0
 18 19  1  0
 18 20  1  0
 20 21  2  0
  4  5  1  0
  4 12  2  0
  5  6  1  0
  6  7  2  0
  7  8  1  0
  7 12  1  0
  8  9  2  0
  9 10  1  0
 10 11  2  0
 11 12  1  0
M  END
>  <minimizedAffinity>  (112) 
-8.78485

$$$$
cs_full_output_folder/data/smiles/116.pdb
     RDKit          3D

 22 24  0  0  0  0  0  0  0  0999 V2000
   71.8342   49.8872   54.4814 O   0  0  0  0  0  0  0  0  0  0  0  0
   70.8240   49.9669   53.5220 C   0  0  0  0  0  0  0  0  0  0  0  0
   70.3992   51.1611   53.3357 O   0  0  0  0  0  0  0  0  0  0  0  0
   70.2647   48.8641   52.7750 C   0  0  0  0  0  0  0  0  0  0  0  0
   70.5358   48.6325   51.4518 N   0  0  0  0  0  0  0  0  0  0  0  0
   69.8723   47.5725   51.0324 N   0  0  0  0  0  0  0  0  0  0  0  0
   69.1413   47.0445   52.0111 C   0  0  0  0  0  0  0  0  0  0  0  0
   68.2941   45.9622   52.0553 C   0  0  0  0  0  0  0  0  0  0  0  0
   67.6843   45.7131   53.2636 C   0  0  0  0  0  0  0  0  0  0  0  0
   67.9048   46.4999   54.3696 C   0  0  0  0  0  0  0  0  0  0  0  0
   68.7577   47.5787   54.3025 C   0  0  0  0  0  0  0  0  0  0  0  0
   69.3879   47.8606   53.1146 C   0  0  0  0  0  0  0  0  0  0  0  0
   71.6919   50.4679   55.7449 C   0  0  0  0  0  0  0  0  0  0  0  0
   71.3964   48.6908   57.1948 O   0  0  0  0  0  0  0  0  0  0  0  0
   70.8522   49.7045   56.6337 C   0  0  0  0  0  0  0  0  0  0  0  0
   69.4736   49.9770   56.9378 C   0  0  0  0  0  0  0  0  0  0  0  0
   68.9900   51.2961   56.7777 C   0  0  0  0  0  0  0  0  0  0  0  0
   67.7182   51.6491   57.0830 C   0  0  0  0  0  0  0  0  0  0  0  0
   66.8247   50.7332   57.5698 C   0  0  0  0  0  0  0  0  0  0  0  0
   67.2477   49.4406   57.7422 C   0  0  0  0  0  0  0  0  0  0  0  0
   66.3605   48.5377   58.2237 F   0  0  0  0  0  0  0  0  0  0  0  0
   68.5516   49.0906   57.4267 C   0  0  0  0  0  0  0  0  0  0  0  0
 14 15  2  0
 15 13  1  0
 15 16  1  0
 13  1  1  0
  1  2  1  0
  2  3  2  0
  2  4  1  0
  4  5  1  0
  4 12  2  0
  5  6  1  0
  6  7  2  0
  7  8  1  0
  7 12  1  0
  8  9  2  0
  9 10  1  0
 10 11  2  0
 11 12  1  0
 16 17  2  0
 16 22  1  0
 17 18  1  0
 18 19  2  0
 19 20  1  0
 20 21  1  0
 20 22  2  0
M  END
>  <minimizedAffinity>  (113) 
-8.78258

$$$$
cs_full_output_folder/data/smiles/325.pdb
     RDKit          3D

 21 24  0  0  0  0  0  0  0  0999 V2000
   70.0554   49.4560   53.4215 C   0  0  0  0  0  0  0  0  0  0  0  0
   70.0671   49.9073   52.1472 N   0  0  0  0  0  0  0  0  0  0  0  0
   69.5093   49.0334   51.3326 N   0  0  0  0  0  0  0  0  0  0  0  0
   69.0906   47.9399   52.0357 C   0  0  0  0  0  0  0  0  0  0  0  0
   68.4670   46.7641   51.6707 C   0  0  0  0  0  0  0  0  0  0  0  0
   68.1843   45.8292   52.6613 C   0  0  0  0  0  0  0  0  0  0  0  0
   68.5094   46.0509   53.9773 C   0  0  0  0  0  0  0  0  0  0  0  0
   69.1344   47.2482   54.2936 C   0  0  0  0  0  0  0  0  0  0  0  0
   69.4429   48.2224   53.3480 C   0  0  0  0  0  0  0  0  0  0  0  0
   68.2179   45.0694   55.0205 C   0  0  0  0  0  0  0  0  0  0  0  0
   68.4537   44.8826   56.2545 N   0  0  0  0  0  0  0  0  0  0  0  0
   67.7450   43.6833   56.2772 N   0  0  0  0  0  0  0  0  0  0  0  0
   67.4923   43.8339   55.0612 N   0  0  0  0  0  0  0  0  0  0  0  0
   70.5543   50.1385   54.6421 C   0  0  0  0  0  0  0  0  0  0  0  0
   70.2349   49.4167   55.9227 C   0  0  0  0  0  0  0  0  0  0  0  0
   66.5626   50.4224   57.8328 C   0  0  0  0  0  0  0  0  0  0  0  0
   67.0212   49.1251   57.8291 C   0  0  0  0  0  0  0  0  0  0  0  0
   68.2257   48.7831   57.1998 C   0  0  0  0  0  0  0  0  0  0  0  0
   68.9799   49.7459   56.5684 C   0  0  0  0  0  0  0  0  0  0  0  0
   68.5107   51.0394   56.5797 C   0  0  0  0  0  0  0  0  0  0  0  0
   67.3129   51.3796   57.2053 C   0  0  0  0  0  0  0  0  0  0  0  0
 16 17  2  0
 16 21  1  0
 17 18  1  0
 18 19  2  0
 19 15  1  0
 19 20  1  0
 15 14  1  0
 14  1  1  0
  1  2  2  0
  1  9  1  0
  2  3  1  0
  3  4  1  0
  4  5  1  0
  4  9  2  0
  5  6  2  0
  6  7  1  0
  7 10  1  0
  7  8  2  0
 10 11  2  0
 10 13  1  0
 11 12  1  0
 12 13  2  0
  8  9  1  0
 20 21  2  0
M  CHG  1  11   1
M  END
>  <minimizedAffinity>  (114) 
-8.77972

$$$$
cs_full_output_folder/data/smiles/9148.pdb
     RDKit          3D

 21 23  0  0  0  0  0  0  0  0999 V2000
   70.4045   50.8850   53.1959 N   0  0  0  0  0  0  0  0  0  0  0  0
   69.8324   49.6407   52.8886 C   0  0  0  0  0  0  0  0  0  0  0  0
   69.3992   48.8300   53.9448 C   0  0  0  0  0  0  0  0  0  0  0  0
   68.8447   47.6191   53.6015 C   0  0  0  0  0  0  0  0  0  0  0  0
   68.3967   46.7665   54.6031 C   0  0  0  0  0  0  0  0  0  0  0  0
   67.8339   45.5412   54.2976 C   0  0  0  0  0  0  0  0  0  0  0  0
   67.7315   45.1898   52.9707 C   0  0  0  0  0  0  0  0  0  0  0  0
   68.1743   46.0319   51.9792 C   0  0  0  0  0  0  0  0  0  0  0  0
   68.7390   47.2620   52.2947 C   0  0  0  0  0  0  0  0  0  0  0  0
   69.1598   48.0581   51.3355 O   0  0  0  0  0  0  0  0  0  0  0  0
   69.6945   49.2211   51.6155 C   0  0  0  0  0  0  0  0  0  0  0  0
   70.0654   49.9040   50.6001 O   0  0  0  0  0  0  0  0  0  0  0  0
   69.5934   49.2296   55.2816 N   0  0  0  0  0  0  0  0  0  0  0  0
   68.6285   49.6374   56.2155 C   0  0  0  0  0  0  0  0  0  0  0  0
   68.0080   48.6179   56.9806 C   0  0  0  0  0  0  0  0  0  0  0  0
   67.0624   48.8696   57.9202 C   0  0  0  0  0  0  0  0  0  0  0  0
   66.6860   50.1839   58.1407 C   0  0  0  0  0  0  0  0  0  0  0  0
   67.2541   51.1827   57.4311 C   0  0  0  0  0  0  0  0  0  0  0  0
   68.2387   50.9107   56.4536 C   0  0  0  0  0  0  0  0  0  0  0  0
   68.7715   52.0328   55.7202 C   0  0  0  0  0  0  0  0  0  0  0  0
   68.2835   52.4381   54.6738 O   0  0  0  0  0  0  0  0  0  0  0  0
  1  2  1  0
  2  3  2  0
  2 11  1  0
  3 13  1  0
  3  4  1  0
 13 14  1  0
 14 15  2  0
 14 19  1  0
 15 16  1  0
 16 17  2  0
 17 18  1  0
 18 19  2  0
 19 20  1  0
 20 21  2  0
  4  5  2  0
  4  9  1  0
  5  6  1  0
  6  7  2  0
  7  8  1  0
  8  9  2  0
  9 10  1  0
 10 11  1  0
 11 12  2  0
M  END
>  <minimizedAffinity>  (115) 
-8.77889

$$$$
cs_full_output_folder/data/smiles/5864.pdb
     RDKit          3D

 20 22  0  0  0  0  0  0  0  0999 V2000
   70.6573   50.5067   53.8279 C   0  0  0  0  0  0  0  0  0  0  0  0
   71.8756   49.9255   53.7296 N   0  0  0  0  0  0  0  0  0  0  0  0
   72.9481   50.3959   54.3182 N   0  0  0  0  0  0  0  0  0  0  0  0
   72.9166   51.4941   55.0659 C   0  0  0  0  0  0  0  0  0  0  0  0
   73.9519   51.9425   55.6298 O   0  0  0  0  0  0  0  0  0  0  0  0
   71.6946   52.1637   55.2226 C   0  0  0  0  0  0  0  0  0  0  0  0
   70.5645   51.6489   54.5881 C   0  0  0  0  0  0  0  0  0  0  0  0
   69.3245   52.4111   54.7697 C   0  0  0  0  0  0  0  0  0  0  0  0
   69.3063   52.9334   56.2148 C   0  0  0  0  0  0  0  0  0  0  0  0
   70.3820   53.9505   56.4071 C   0  0  0  0  0  0  0  0  0  0  0  0
   71.7182   53.3759   56.0567 C   0  0  0  0  0  0  0  0  0  0  0  0
   69.4949   49.8969   53.1569 C   0  0  0  0  0  0  0  0  0  0  0  0
   69.7840   48.6990   52.3264 C   0  0  0  0  0  0  0  0  0  0  0  0
   68.1903   45.7285   55.9006 N   0  0  0  0  0  0  0  0  0  0  0  0
   68.2675   46.0740   54.5106 C   0  0  0  0  0  0  0  0  0  0  0  0
   67.5957   45.2334   53.6383 C   0  0  0  0  0  0  0  0  0  0  0  0
   67.6709   45.5745   52.2992 C   0  0  0  0  0  0  0  0  0  0  0  0
   68.3710   46.6793   51.8681 C   0  0  0  0  0  0  0  0  0  0  0  0
   69.0259   47.4939   52.7576 C   0  0  0  0  0  0  0  0  0  0  0  0
   68.9698   47.1807   54.0949 C   0  0  0  0  0  0  0  0  0  0  0  0
 14 15  1  0
 15 16  2  0
 15 20  1  0
 16 17  1  0
 17 18  2  0
 18 19  1  0
 19 13  1  0
 19 20  2  0
 13 12  1  0
 12  1  1  0
  1  2  2  0
  1  7  1  0
  2  3  1  0
  3  4  1  0
  4  5  2  0
  4  6  1  0
  6  7  2  0
  6 11  1  0
  7  8  1  0
  8  9  1  0
  9 10  1  0
 10 11  1  0
M  END
>  <minimizedAffinity>  (116) 
-8.77282

$$$$
cs_full_output_folder/data/smiles/8394.pdb
     RDKit          3D

 21 23  0  0  0  0  0  0  0  0999 V2000
   68.8918   46.9130   55.6726 C   0  0  0  0  0  0  0  0  0  0  0  0
   68.1562   45.7624   55.8032 N   0  0  0  0  0  0  0  0  0  0  0  0
   67.6627   45.1015   54.7759 N   0  0  0  0  0  0  0  0  0  0  0  0
   67.8512   45.5185   53.5172 C   0  0  0  0  0  0  0  0  0  0  0  0
   67.3945   44.9128   52.5223 O   0  0  0  0  0  0  0  0  0  0  0  0
   68.5838   46.6723   53.3053 C   0  0  0  0  0  0  0  0  0  0  0  0
   68.7923   47.0975   52.0215 C   0  0  0  0  0  0  0  0  0  0  0  0
   69.5406   48.2447   51.8521 C   0  0  0  0  0  0  0  0  0  0  0  0
   70.0638   48.9429   52.9165 C   0  0  0  0  0  0  0  0  0  0  0  0
   69.8390   48.4921   54.1990 C   0  0  0  0  0  0  0  0  0  0  0  0
   69.0929   47.3495   54.3996 C   0  0  0  0  0  0  0  0  0  0  0  0
   69.3262   47.5546   56.9197 C   0  0  0  0  0  0  0  0  0  0  0  0
   68.2836   51.1887   57.2086 C   0  0  0  0  0  0  0  0  0  0  0  0
   66.9822   51.0827   57.6388 C   0  0  0  0  0  0  0  0  0  0  0  0
   66.4078   49.8486   57.8413 C   0  0  0  0  0  0  0  0  0  0  0  0
   67.1605   48.6967   57.6045 C   0  0  0  0  0  0  0  0  0  0  0  0
   68.4499   48.7505   57.1796 C   0  0  0  0  0  0  0  0  0  0  0  0
   68.9915   50.0311   56.9876 C   0  0  0  0  0  0  0  0  0  0  0  0
   68.8126   52.3323   54.6889 O   0  0  0  0  0  0  0  0  0  0  0  0
   69.1242   52.9975   55.7174 C   0  0  0  0  0  0  0  0  0  0  0  0
   68.8758   52.4591   57.0039 N   0  0  0  0  0  0  0  0  0  0  0  0
 19 20  2  0
 20 21  1  0
 21 13  1  0
 13 14  2  0
 13 18  1  0
 14 15  1  0
 15 16  2  0
 16 17  1  0
 17 12  1  0
 17 18  2  0
 12  1  1  0
  1  2  2  0
  1 11  1  0
  2  3  1  0
  3  4  1  0
  4  5  2  0
  4  6  1  0
  6  7  1  0
  6 11  2  0
  7  8  2  0
  8  9  1  0
  9 10  2  0
 10 11  1  0
M  END
>  <minimizedAffinity>  (117) 
-8.75996

$$$$
cs_full_output_folder/data/smiles/4215.pdb
     RDKit          3D

 22 24  0  0  0  0  0  0  0  0999 V2000
   67.4802   47.5861   56.7652 O   0  0  0  0  0  0  0  0  0  0  0  0
   68.6913   47.7308   56.4118 C   0  0  0  0  0  0  0  0  0  0  0  0
   69.0986   48.0078   55.0524 C   0  0  0  0  0  0  0  0  0  0  0  0
   69.9115   49.1214   54.8589 C   0  0  0  0  0  0  0  0  0  0  0  0
   70.2965   49.4744   53.5793 C   0  0  0  0  0  0  0  0  0  0  0  0
   69.8719   48.7169   52.4931 C   0  0  0  0  0  0  0  0  0  0  0  0
   70.2943   49.1257   51.2249 O   0  0  0  0  0  0  0  0  0  0  0  0
   69.0693   47.6137   52.6802 C   0  0  0  0  0  0  0  0  0  0  0  0
   68.6873   46.8923   51.5832 C   0  0  0  0  0  0  0  0  0  0  0  0
   67.8909   45.7687   51.7684 C   0  0  0  0  0  0  0  0  0  0  0  0
   67.4930   45.3946   53.0521 C   0  0  0  0  0  0  0  0  0  0  0  0
   67.9005   46.1531   54.1343 C   0  0  0  0  0  0  0  0  0  0  0  0
   68.6902   47.2702   53.9704 C   0  0  0  0  0  0  0  0  0  0  0  0
   69.7202   47.6057   57.4362 C   0  0  0  0  0  0  0  0  0  0  0  0
   70.2318   48.6809   58.1125 C   0  0  0  0  0  0  0  0  0  0  0  0
   71.1844   48.4829   59.0770 C   0  0  0  0  0  0  0  0  0  0  0  0
   71.6755   47.2412   59.4225 C   0  0  0  0  0  0  0  0  0  0  0  0
   71.1393   46.1750   58.7210 C   0  0  0  0  0  0  0  0  0  0  0  0
   70.1851   46.3398   57.7493 C   0  0  0  0  0  0  0  0  0  0  0  0
   72.6590   47.0492   60.4202 N   0  0  0  0  0  0  0  0  0  0  0  0
   73.5465   46.2167   60.2611 O   0  0  0  0  0  0  0  0  0  0  0  0
   72.6041   47.8027   61.5584 O   0  0  0  0  0  0  0  0  0  0  0  0
  1  2  2  0
  2 14  1  0
  2  3  1  0
 14 15  2  0
 14 19  1  0
 15 16  1  0
 16 17  2  0
 17 20  1  0
 17 18  1  0
 20 21  2  0
 20 22  1  0
 18 19  2  0
  3  4  2  0
  3 13  1  0
  4  5  1  0
  5  6  2  0
  6  7  1  0
  6  8  1  0
  8  9  1  0
  8 13  2  0
  9 10  2  0
 10 11  1  0
 11 12  2  0
 12 13  1  0
M  CHG  2  20   1  22  -1
M  END
>  <minimizedAffinity>  (118) 
-8.75465

$$$$
cs_full_output_folder/data/smiles/2521.pdb
     RDKit          3D

 22 25  0  0  0  0  0  0  0  0999 V2000
   69.9611   49.9794   53.4484 C   0  0  0  0  0  0  0  0  0  0  0  0
   69.9908   50.4477   52.1761 N   0  0  0  0  0  0  0  0  0  0  0  0
   69.5513   49.5060   51.3605 N   0  0  0  0  0  0  0  0  0  0  0  0
   69.2236   48.4019   52.0597 C   0  0  0  0  0  0  0  0  0  0  0  0
   68.7198   47.1545   51.6756 C   0  0  0  0  0  0  0  0  0  0  0  0
   68.4659   46.1790   52.6074 C   0  0  0  0  0  0  0  0  0  0  0  0
   68.7191   46.4583   53.9401 C   0  0  0  0  0  0  0  0  0  0  0  0
   69.2118   47.6825   54.3052 C   0  0  0  0  0  0  0  0  0  0  0  0
   69.4784   48.6893   53.3809 C   0  0  0  0  0  0  0  0  0  0  0  0
   68.4503   45.4240   54.9322 C   0  0  0  0  0  0  0  0  0  0  0  0
   68.9815   45.3327   56.1788 N   0  0  0  0  0  0  0  0  0  0  0  0
   68.4527   44.2450   56.7113 N   0  0  0  0  0  0  0  0  0  0  0  0
   67.6317   43.6829   55.8428 N   0  0  0  0  0  0  0  0  0  0  0  0
   67.6112   44.3872   54.7416 N   0  0  0  0  0  0  0  0  0  0  0  0
   70.3561   50.6666   54.6960 C   0  0  0  0  0  0  0  0  0  0  0  0
   69.2569   51.6041   55.1857 C   0  0  0  0  0  0  0  0  0  0  0  0
   66.7922   49.6515   58.1412 C   0  0  0  0  0  0  0  0  0  0  0  0
   66.4429   50.8739   57.6067 C   0  0  0  0  0  0  0  0  0  0  0  0
   67.2389   51.4891   56.6622 C   0  0  0  0  0  0  0  0  0  0  0  0
   68.4160   50.9214   56.2049 C   0  0  0  0  0  0  0  0  0  0  0  0
   68.7622   49.6989   56.7425 C   0  0  0  0  0  0  0  0  0  0  0  0
   67.9660   49.0847   57.6868 C   0  0  0  0  0  0  0  0  0  0  0  0
 17 18  2  0
 17 22  1  0
 18 19  1  0
 19 20  2  0
 20 16  1  0
 20 21  1  0
 16 15  1  0
 15  1  1  0
  1  2  2  0
  1  9  1  0
  2  3  1  0
  3  4  1  0
  4  5  1  0
  4  9  2  0
  5  6  2  0
  6  7  1  0
  7 10  1  0
  7  8  2  0
 10 11  2  0
 10 14  1  0
 11 12  1  0
 12 13  2  0
 13 14  1  0
  8  9  1  0
 21 22  2  0
M  END
>  <minimizedAffinity>  (119) 
-8.75293

$$$$
cs_full_output_folder/data/smiles/9336.pdb
     RDKit          3D

 20 22  0  0  0  0  0  0  0  0999 V2000
   69.2484   48.2398   52.7558 C   0  0  0  0  0  0  0  0  0  0  0  0
   68.7213   47.1944   51.9938 C   0  0  0  0  0  0  0  0  0  0  0  0
   68.2676   46.0352   52.5702 C   0  0  0  0  0  0  0  0  0  0  0  0
   68.3286   45.8844   53.9383 C   0  0  0  0  0  0  0  0  0  0  0  0
   67.9676   44.8965   54.7899 N   0  0  0  0  0  0  0  0  0  0  0  0
   68.2334   45.2492   56.0287 N   0  0  0  0  0  0  0  0  0  0  0  0
   68.7820   46.4858   56.0550 C   0  0  0  0  0  0  0  0  0  0  0  0
   68.8427   46.8874   54.7424 C   0  0  0  0  0  0  0  0  0  0  0  0
   69.2923   48.0509   54.1144 C   0  0  0  0  0  0  0  0  0  0  0  0
   69.9973   49.5012   50.9087 O   0  0  0  0  0  0  0  0  0  0  0  0
   69.7179   49.4632   52.1343 C   0  0  0  0  0  0  0  0  0  0  0  0
   69.8853   50.6609   52.8581 N   0  0  0  0  0  0  0  0  0  0  0  0
   70.3317   51.8120   52.2400 O   0  0  0  0  0  0  0  0  0  0  0  0
   69.2455   47.2374   57.2363 C   0  0  0  0  0  0  0  0  0  0  0  0
   68.5409   48.5288   57.3802 C   0  0  0  0  0  0  0  0  0  0  0  0
   67.2100   48.7044   57.6494 C   0  0  0  0  0  0  0  0  0  0  0  0
   66.6249   49.9562   57.7644 C   0  0  0  0  0  0  0  0  0  0  0  0
   67.3973   51.1093   57.6045 C   0  0  0  0  0  0  0  0  0  0  0  0
   68.7388   50.9574   57.3333 C   0  0  0  0  0  0  0  0  0  0  0  0
   69.2911   49.6997   57.2253 C   0  0  0  0  0  0  0  0  0  0  0  0
 10 11  2  0
 11 12  1  0
 11  1  1  0
 12 13  1  0
  1  2  2  0
  1  9  1  0
  2  3  1  0
  3  4  2  0
  4  5  1  0
  4  8  1  0
  5  6  1  0
  6  7  2  0
  7 14  1  0
  7  8  1  0
 14 15  1  0
 15 16  2  0
 15 20  1  0
 16 17  1  0
 17 18  2  0
 18 19  1  0
 19 20  2  0
  8  9  2  0
M  END
>  <minimizedAffinity>  (120) 
-8.74693

$$$$
cs_full_output_folder/data/smiles/4704.pdb
     RDKit          3D

 21 23  0  0  0  0  0  0  0  0999 V2000
   68.8755   46.9291   55.5632 C   0  0  0  0  0  0  0  0  0  0  0  0
   68.0743   45.8309   55.7433 N   0  0  0  0  0  0  0  0  0  0  0  0
   67.5276   45.1991   54.7431 N   0  0  0  0  0  0  0  0  0  0  0  0
   67.7094   45.5746   53.4716 C   0  0  0  0  0  0  0  0  0  0  0  0
   67.1921   44.9805   52.4962 O   0  0  0  0  0  0  0  0  0  0  0  0
   68.5020   46.6662   53.1785 C   0  0  0  0  0  0  0  0  0  0  0  0
   68.7317   47.0561   51.8720 C   0  0  0  0  0  0  0  0  0  0  0  0
   69.5619   48.1330   51.6679 C   0  0  0  0  0  0  0  0  0  0  0  0
   70.1531   48.8139   52.7210 C   0  0  0  0  0  0  0  0  0  0  0  0
   69.9103   48.4138   54.0202 C   0  0  0  0  0  0  0  0  0  0  0  0
   69.0811   47.3344   54.2682 C   0  0  0  0  0  0  0  0  0  0  0  0
   69.4003   47.6084   56.7499 C   0  0  0  0  0  0  0  0  0  0  0  0
   68.2556   51.2101   56.6837 C   0  0  0  0  0  0  0  0  0  0  0  0
   67.0788   51.1138   57.3892 C   0  0  0  0  0  0  0  0  0  0  0  0
   66.6791   49.8965   57.8887 C   0  0  0  0  0  0  0  0  0  0  0  0
   67.4126   48.7541   57.7121 C   0  0  0  0  0  0  0  0  0  0  0  0
   68.6018   48.8349   57.0025 C   0  0  0  0  0  0  0  0  0  0  0  0
   68.9982   50.0486   56.5053 C   0  0  0  0  0  0  0  0  0  0  0  0
   68.9360   52.5465   54.7255 C   0  0  0  0  0  0  0  0  0  0  0  0
   68.6986   52.4428   56.1638 N   0  0  0  0  0  0  0  0  0  0  0  0
   68.9034   53.4900   56.9492 O   0  0  0  0  0  0  0  0  0  0  0  0
 19 20  1  0
 20 21  1  0
 20 13  1  0
 13 14  2  0
 13 18  1  0
 14 15  1  0
 15 16  2  0
 16 17  1  0
 17 12  1  0
 17 18  2  0
 12  1  1  0
  1  2  2  0
  1 11  1  0
  2  3  1  0
  3  4  1  0
  4  5  2  0
  4  6  1  0
  6  7  1  0
  6 11  2  0
  7  8  2  0
  8  9  1  0
  9 10  2  0
 10 11  1  0
M  END
>  <minimizedAffinity>  (121) 
-8.74385

$$$$
cs_full_output_folder/data/smiles/4012.pdb
     RDKit          3D

 22 23  0  0  0  0  0  0  0  0999 V2000
   68.2289   48.3927   56.7106 C   0  0  0  0  0  0  0  0  0  0  0  0
   68.6370   47.2524   56.1743 C   0  0  0  0  0  0  0  0  0  0  0  0
   68.6410   47.1396   54.7337 C   0  0  0  0  0  0  0  0  0  0  0  0
   67.9804   46.1038   54.0777 C   0  0  0  0  0  0  0  0  0  0  0  0
   67.9782   45.9756   52.7064 C   0  0  0  0  0  0  0  0  0  0  0  0
   68.6441   46.8926   51.9228 C   0  0  0  0  0  0  0  0  0  0  0  0
   69.3142   47.9377   52.5157 C   0  0  0  0  0  0  0  0  0  0  0  0
   69.2887   48.0265   53.9173 C   0  0  0  0  0  0  0  0  0  0  0  0
   70.0115   48.9007   51.7313 N   0  0  0  0  0  0  0  0  0  0  0  0
   70.7384   48.5124   50.7955 O   0  0  0  0  0  0  0  0  0  0  0  0
   69.8901   50.2285   51.9944 O   0  0  0  0  0  0  0  0  0  0  0  0
   69.0284   46.2714   57.0522 N   0  0  0  0  0  0  0  0  0  0  0  0
   70.1953   45.5526   57.0401 N   0  0  0  0  0  0  0  0  0  0  0  0
   70.6916   44.9284   58.2046 C   0  0  0  0  0  0  0  0  0  0  0  0
   70.0195   45.0594   59.2575 O   0  0  0  0  0  0  0  0  0  0  0  0
   71.9239   44.1744   58.1695 C   0  0  0  0  0  0  0  0  0  0  0  0
   73.1322   44.8686   58.3386 C   0  0  0  0  0  0  0  0  0  0  0  0
   74.3246   44.2013   58.3140 C   0  0  0  0  0  0  0  0  0  0  0  0
   74.4162   42.8437   58.1266 C   0  0  0  0  0  0  0  0  0  0  0  0
   75.6546   42.2010   58.1082 O   0  0  0  0  0  0  0  0  0  0  0  0
   73.2393   42.1512   57.9593 C   0  0  0  0  0  0  0  0  0  0  0  0
   72.0075   42.8204   57.9822 C   0  0  0  0  0  0  0  0  0  0  0  0
  1  2  2  0
  2 12  1  0
  2  3  1  0
 12 13  1  0
 13 14  1  0
 14 15  2  0
 14 16  1  0
 16 17  2  0
 16 22  1  0
 17 18  1  0
 18 19  2  0
 19 20  1  0
 19 21  1  0
 21 22  2  0
  3  4  2  0
  3  8  1  0
  4  5  1  0
  5  6  2  0
  6  7  1  0
  7  9  1  0
  7  8  2  0
  9 10  2  0
  9 11  1  0
M  CHG  2   9   1  11  -1
M  END
>  <minimizedAffinity>  (122) 
-8.74101

$$$$
cs_full_output_folder/data/smiles/2580.pdb
     RDKit          3D

 21 23  0  0  0  0  0  0  0  0999 V2000
   70.6071   50.8572   53.2730 N   0  0  0  0  0  0  0  0  0  0  0  0
   69.9627   49.6180   53.0015 C   0  0  0  0  0  0  0  0  0  0  0  0
   69.6722   48.8392   54.1122 C   0  0  0  0  0  0  0  0  0  0  0  0
   69.0500   47.6443   53.8750 C   0  0  0  0  0  0  0  0  0  0  0  0
   68.7189   46.7934   54.9236 C   0  0  0  0  0  0  0  0  0  0  0  0
   68.0882   45.5813   54.6898 C   0  0  0  0  0  0  0  0  0  0  0  0
   67.7939   45.2341   53.3859 C   0  0  0  0  0  0  0  0  0  0  0  0
   68.1177   46.0684   52.3406 C   0  0  0  0  0  0  0  0  0  0  0  0
   68.7444   47.2753   52.5601 C   0  0  0  0  0  0  0  0  0  0  0  0
   69.0386   48.0441   51.5323 O   0  0  0  0  0  0  0  0  0  0  0  0
   69.6310   49.1870   51.7346 C   0  0  0  0  0  0  0  0  0  0  0  0
   69.9101   49.9211   50.7440 O   0  0  0  0  0  0  0  0  0  0  0  0
   70.0039   49.2751   55.4113 N   0  0  0  0  0  0  0  0  0  0  0  0
   68.9701   49.8102   56.2661 C   0  0  0  0  0  0  0  0  0  0  0  0
   68.3095   49.0913   57.1505 C   0  0  0  0  0  0  0  0  0  0  0  0
   67.3127   49.9491   57.8622 C   0  0  0  0  0  0  0  0  0  0  0  0
   67.4968   51.2628   57.2530 C   0  0  0  0  0  0  0  0  0  0  0  0
   68.4534   51.1658   56.3370 C   0  0  0  0  0  0  0  0  0  0  0  0
   68.8977   52.2857   55.5260 C   0  0  0  0  0  0  0  0  0  0  0  0
   68.2960   52.5568   54.4423 O   0  0  0  0  0  0  0  0  0  0  0  0
   69.9683   53.1120   55.8632 O   0  0  0  0  0  0  0  0  0  0  0  0
  1  2  1  0
  2  3  2  0
  2 11  1  0
  3 13  1  0
  3  4  1  0
 13 14  1  0
 14 15  2  0
 14 18  1  0
 15 16  1  0
 16 17  1  0
 17 18  2  0
 18 19  1  0
 19 20  2  0
 19 21  1  0
  4  5  2  0
  4  9  1  0
  5  6  1  0
  6  7  2  0
  7  8  1  0
  8  9  2  0
  9 10  1  0
 10 11  1  0
 11 12  2  0
M  END
>  <minimizedAffinity>  (123) 
-8.73815

$$$$
cs_full_output_folder/data/smiles/246.pdb
     RDKit          3D

 21 22  0  0  0  0  0  0  0  0999 V2000
   68.5028   47.4411   55.2597 C   0  0  0  0  0  0  0  0  0  0  0  0
   67.7697   46.5298   54.5558 C   0  0  0  0  0  0  0  0  0  0  0  0
   67.8829   46.3615   53.1824 C   0  0  0  0  0  0  0  0  0  0  0  0
   67.1196   45.4243   52.5047 O   0  0  0  0  0  0  0  0  0  0  0  0
   68.7652   47.1262   52.4481 C   0  0  0  0  0  0  0  0  0  0  0  0
   68.8969   46.9711   51.0683 O   0  0  0  0  0  0  0  0  0  0  0  0
   69.5196   48.0562   53.1363 C   0  0  0  0  0  0  0  0  0  0  0  0
   69.3957   48.2123   54.5003 C   0  0  0  0  0  0  0  0  0  0  0  0
   70.4070   48.8320   52.3481 N   0  0  0  0  0  0  0  0  0  0  0  0
   71.6030   48.9369   52.6477 O   0  0  0  0  0  0  0  0  0  0  0  0
   69.9413   49.4765   51.2407 O   0  0  0  0  0  0  0  0  0  0  0  0
   68.4387   47.6626   56.6971 C   0  0  0  0  0  0  0  0  0  0  0  0
   69.0192   46.8952   57.5119 O   0  0  0  0  0  0  0  0  0  0  0  0
   67.6884   48.7948   57.2850 C   0  0  0  0  0  0  0  0  0  0  0  0
   70.5409   53.7544   56.4836 C   0  0  0  0  0  0  0  0  0  0  0  0
   69.8030   52.4757   56.7159 C   0  0  0  0  0  0  0  0  0  0  0  0
   70.3192   51.4790   57.5168 C   0  0  0  0  0  0  0  0  0  0  0  0
   69.6400   50.2988   57.7040 C   0  0  0  0  0  0  0  0  0  0  0  0
   68.4022   50.0821   57.0807 C   0  0  0  0  0  0  0  0  0  0  0  0
   67.9025   51.0634   56.2988 C   0  0  0  0  0  0  0  0  0  0  0  0
   68.5868   52.2678   56.1042 C   0  0  0  0  0  0  0  0  0  0  0  0
 15 16  1  0
 16 17  2  0
 16 21  1  0
 17 18  1  0
 18 19  2  0
 19 14  1  0
 19 20  1  0
 14 12  1  0
 12 13  2  0
 12  1  1  0
  1  2  2  0
  1  8  1  0
  2  3  1  0
  3  4  1  0
  3  5  2  0
  5  6  1  0
  5  7  1  0
  7  9  1  0
  7  8  2  0
  9 10  2  0
  9 11  1  0
 20 21  2  0
M  CHG  2   9   1  11  -1
M  END
>  <minimizedAffinity>  (124) 
-8.73120

$$$$
cs_full_output_folder/data/smiles/6629.pdb
     RDKit          3D

 22 24  0  0  0  0  0  0  0  0999 V2000
   69.2486   47.2912   56.4518 C   0  0  0  0  0  0  0  0  0  0  0  0
   68.7429   46.6413   55.2386 C   0  0  0  0  0  0  0  0  0  0  0  0
   67.9546   45.5369   55.3546 N   0  0  0  0  0  0  0  0  0  0  0  0
   67.4248   44.9435   54.3032 N   0  0  0  0  0  0  0  0  0  0  0  0
   67.6107   45.3670   53.0384 C   0  0  0  0  0  0  0  0  0  0  0  0
   67.0734   44.7577   52.0559 O   0  0  0  0  0  0  0  0  0  0  0  0
   68.3963   46.4780   52.8541 C   0  0  0  0  0  0  0  0  0  0  0  0
   68.6166   46.9215   51.5738 C   0  0  0  0  0  0  0  0  0  0  0  0
   69.4276   48.0296   51.3988 C   0  0  0  0  0  0  0  0  0  0  0  0
   69.9985   48.6685   52.4949 C   0  0  0  0  0  0  0  0  0  0  0  0
   69.7544   48.1958   53.7632 C   0  0  0  0  0  0  0  0  0  0  0  0
   68.9586   47.1067   53.9722 C   0  0  0  0  0  0  0  0  0  0  0  0
   68.1607   50.8650   56.7579 C   0  0  0  0  0  0  0  0  0  0  0  0
   68.8372   49.7041   56.4544 C   0  0  0  0  0  0  0  0  0  0  0  0
   68.4166   48.4387   56.8725 C   0  0  0  0  0  0  0  0  0  0  0  0
   67.2736   48.4005   57.6145 C   0  0  0  0  0  0  0  0  0  0  0  0
   66.5807   49.5808   57.9258 C   0  0  0  0  0  0  0  0  0  0  0  0
   67.0060   50.8207   57.5083 C   0  0  0  0  0  0  0  0  0  0  0  0
   66.3160   51.9582   57.8241 F   0  0  0  0  0  0  0  0  0  0  0  0
   68.6759   52.2462   54.7611 C   0  0  0  0  0  0  0  0  0  0  0  0
   68.6781   52.1664   56.2662 C   0  0  0  0  0  0  0  0  0  0  0  0
   70.1352   52.2540   56.6991 C   0  0  0  0  0  0  0  0  0  0  0  0
 20 21  1  0
 21 22  1  0
 21 13  1  0
 13 14  2  0
 13 18  1  0
 14 15  1  0
 15  1  1  0
 15 16  2  0
  1  2  1  0
  2  3  2  0
  2 12  1  0
  3  4  1  0
  4  5  1  0
  5  6  2  0
  5  7  1  0
  7  8  1  0
  7 12  2  0
  8  9  2  0
  9 10  1  0
 10 11  2  0
 11 12  1  0
 16 17  1  0
 17 18  2  0
 18 19  1  0
M  END
>  <minimizedAffinity>  (125) 
-8.72895

$$$$
cs_full_output_folder/data/smiles/7636.pdb
     RDKit          3D

 22 24  0  0  0  0  0  0  0  0999 V2000
   69.7158   50.4984   53.6749 C   0  0  0  0  0  0  0  0  0  0  0  0
   71.0511   50.8441   54.1882 C   0  0  0  0  0  0  0  0  0  0  0  0
   72.1451   50.1180   53.8152 N   0  0  0  0  0  0  0  0  0  0  0  0
   73.3363   50.3840   54.2845 N   0  0  0  0  0  0  0  0  0  0  0  0
   73.5646   51.3658   55.1464 C   0  0  0  0  0  0  0  0  0  0  0  0
   74.7261   51.5855   55.5732 O   0  0  0  0  0  0  0  0  0  0  0  0
   72.5094   52.1634   55.5860 C   0  0  0  0  0  0  0  0  0  0  0  0
   72.7448   53.1837   56.4683 C   0  0  0  0  0  0  0  0  0  0  0  0
   71.6776   53.9533   56.8676 C   0  0  0  0  0  0  0  0  0  0  0  0
   70.3964   53.7095   56.3946 C   0  0  0  0  0  0  0  0  0  0  0  0
   70.2089   52.6709   55.5082 C   0  0  0  0  0  0  0  0  0  0  0  0
   71.2479   51.8596   55.0706 C   0  0  0  0  0  0  0  0  0  0  0  0
   68.6906   47.0918   54.7573 C   0  0  0  0  0  0  0  0  0  0  0  0
   69.3231   48.2622   54.6468 C   0  0  0  0  0  0  0  0  0  0  0  0
   69.5488   49.0574   53.4190 C   0  0  0  0  0  0  0  0  0  0  0  0
   69.5964   48.5436   52.2129 C   0  0  0  0  0  0  0  0  0  0  0  0
   69.4584   47.1540   51.7067 C   0  0  0  0  0  0  0  0  0  0  0  0
   68.4141   46.3685   52.4027 C   0  0  0  0  0  0  0  0  0  0  0  0
   68.0680   46.3209   53.6823 C   0  0  0  0  0  0  0  0  0  0  0  0
   68.5919   47.2216   57.1346 O   0  0  0  0  0  0  0  0  0  0  0  0
   68.6130   46.5234   56.0960 C   0  0  0  0  0  0  0  0  0  0  0  0
   68.5575   45.1459   56.2391 O   0  0  0  0  0  0  0  0  0  0  0  0
 20 21  2  0
 21 22  1  0
 21 13  1  0
 13 14  2  0
 13 19  1  0
 14 15  1  0
 15  1  1  0
 15 16  2  0
  1  2  1  0
  2  3  2  0
  2 12  1  0
  3  4  1  0
  4  5  1  0
  5  6  2  0
  5  7  1  0
  7  8  1  0
  7 12  2  0
  8  9  2  0
  9 10  1  0
 10 11  2  0
 11 12  1  0
 16 17  1  0
 17 18  1  0
 18 19  2  0
M  END
>  <minimizedAffinity>  (126) 
-8.72895

$$$$
cs_full_output_folder/data/smiles/2966.pdb
     RDKit          3D

 19 21  0  0  0  0  0  0  0  0999 V2000
   71.9623   49.9245   53.7703 O   0  0  0  0  0  0  0  0  0  0  0  0
   70.6190   49.7753   53.9094 C   0  0  0  0  0  0  0  0  0  0  0  0
   70.0867   48.7392   53.0760 C   0  0  0  0  0  0  0  0  0  0  0  0
   70.3870   48.6425   51.6738 C   0  0  0  0  0  0  0  0  0  0  0  0
   69.7322   47.6074   51.1494 N   0  0  0  0  0  0  0  0  0  0  0  0
   69.0040   46.9815   52.0745 C   0  0  0  0  0  0  0  0  0  0  0  0
   68.1838   45.8759   51.9736 C   0  0  0  0  0  0  0  0  0  0  0  0
   67.5448   45.4310   53.1100 C   0  0  0  0  0  0  0  0  0  0  0  0
   67.7518   46.1073   54.3012 C   0  0  0  0  0  0  0  0  0  0  0  0
   68.5764   47.2113   54.3659 C   0  0  0  0  0  0  0  0  0  0  0  0
   69.2271   47.6808   53.2540 C   0  0  0  0  0  0  0  0  0  0  0  0
   70.1660   50.7305   54.8661 C   0  0  0  0  0  0  0  0  0  0  0  0
   69.1334   50.5270   55.8545 C   0  0  0  0  0  0  0  0  0  0  0  0
   68.1549   51.4550   56.1753 C   0  0  0  0  0  0  0  0  0  0  0  0
   67.2137   51.2401   57.1448 C   0  0  0  0  0  0  0  0  0  0  0  0
   67.1824   50.0494   57.8806 C   0  0  0  0  0  0  0  0  0  0  0  0
   66.2626   49.8162   58.8422 F   0  0  0  0  0  0  0  0  0  0  0  0
   68.1407   49.1328   57.5725 C   0  0  0  0  0  0  0  0  0  0  0  0
   69.0823   49.3271   56.6155 C   0  0  0  0  0  0  0  0  0  0  0  0
  1  2  2  0
  2 12  1  0
  2  3  1  0
 12 13  1  0
 13 14  2  0
 13 19  1  0
 14 15  1  0
 15 16  2  0
 16 17  1  0
 16 18  1  0
 18 19  2  0
  3  4  2  0
  3 11  1  0
  4  5  1  0
  5  6  1  0
  6  7  1  0
  6 11  2  0
  7  8  2  0
  8  9  1  0
  9 10  2  0
 10 11  1  0
M  END
>  <minimizedAffinity>  (127) 
-8.72797

$$$$
cs_full_output_folder/data/smiles/736.pdb
     RDKit          3D

 20 22  0  0  0  0  0  0  0  0999 V2000
   68.9830   45.7825   56.2811 N   0  0  0  0  0  0  0  0  0  0  0  0
   68.5785   46.8040   55.7342 C   0  0  0  0  0  0  0  0  0  0  0  0
   68.5249   46.7404   54.2701 C   0  0  0  0  0  0  0  0  0  0  0  0
   67.7916   45.9062   53.4957 C   0  0  0  0  0  0  0  0  0  0  0  0
   67.8054   45.9351   52.0875 C   0  0  0  0  0  0  0  0  0  0  0  0
   68.6099   46.8641   51.4869 C   0  0  0  0  0  0  0  0  0  0  0  0
   69.3743   47.7321   52.2655 C   0  0  0  0  0  0  0  0  0  0  0  0
   69.3032   47.6382   53.5726 N   0  0  0  0  0  0  0  0  0  0  0  0
   68.2104   47.9323   56.5783 C   0  0  0  0  0  0  0  0  0  0  0  0
   68.7457   49.1422   56.8682 C   0  0  0  0  0  0  0  0  0  0  0  0
   67.9331   49.8786   57.7519 C   0  0  0  0  0  0  0  0  0  0  0  0
   66.8783   49.0503   57.9816 C   0  0  0  0  0  0  0  0  0  0  0  0
   67.0344   47.9168   57.3028 N   0  0  0  0  0  0  0  0  0  0  0  0
   69.3644   44.8563   57.0583 N   0  0  0  0  0  0  0  0  0  0  0  0
   67.8795   40.9522   56.6443 C   0  0  0  0  0  0  0  0  0  0  0  0
   69.0013   41.1500   57.3998 C   0  0  0  0  0  0  0  0  0  0  0  0
   69.4791   42.4562   57.5247 C   0  0  0  0  0  0  0  0  0  0  0  0
   68.8337   43.5028   56.9038 C   0  0  0  0  0  0  0  0  0  0  0  0
   67.7490   43.3155   56.1715 N   0  0  0  0  0  0  0  0  0  0  0  0
   67.2685   42.0395   56.0394 C   0  0  0  0  0  0  0  0  0  0  0  0
 15 16  2  0
 15 20  1  0
 16 17  1  0
 17 18  2  0
 18 14  1  0
 18 19  1  0
 14  1  1  0
  1  2  2  0
  2  3  1  0
  2  9  1  0
  3  4  2  0
  3  8  1  0
  4  5  1  0
  5  6  2  0
  6  7  1  0
  7  8  2  0
  9 10  2  0
  9 13  1  0
 10 11  1  0
 11 12  2  0
 12 13  1  0
 19 20  2  0
M  END
>  <minimizedAffinity>  (128) 
-8.72238

$$$$
cs_full_output_folder/data/smiles/5060.pdb
     RDKit          3D

 19 21  0  0  0  0  0  0  0  0999 V2000
   69.5786   47.9086   55.7392 C   0  0  0  0  0  0  0  0  0  0  0  0
   68.9647   52.7772   55.9243 C   0  0  0  0  0  0  0  0  0  0  0  0
   68.5302   51.3945   56.3661 C   0  0  0  0  0  0  0  0  0  0  0  0
   67.5180   51.2550   57.2790 C   0  0  0  0  0  0  0  0  0  0  0  0
   67.1571   49.9814   57.6809 C   0  0  0  0  0  0  0  0  0  0  0  0
   66.1414   49.8159   58.5876 F   0  0  0  0  0  0  0  0  0  0  0  0
   67.8196   48.8636   57.1614 C   0  0  0  0  0  0  0  0  0  0  0  0
   67.4146   47.7540   57.6009 O   0  0  0  0  0  0  0  0  0  0  0  0
   68.7939   48.9881   56.2868 N   0  0  0  0  0  0  0  0  0  0  0  0
   69.1444   50.2743   55.8895 C   0  0  0  0  0  0  0  0  0  0  0  0
   69.0343   47.3723   54.4879 C   0  0  0  0  0  0  0  0  0  0  0  0
   68.0569   46.3897   54.4880 C   0  0  0  0  0  0  0  0  0  0  0  0
   67.5715   45.8404   53.3374 C   0  0  0  0  0  0  0  0  0  0  0  0
   68.0570   46.2602   52.1055 C   0  0  0  0  0  0  0  0  0  0  0  0
   69.0214   47.2268   52.0649 C   0  0  0  0  0  0  0  0  0  0  0  0
   69.6428   47.8450   51.0238 N   0  0  0  0  0  0  0  0  0  0  0  0
   70.4607   48.7323   51.5163 N   0  0  0  0  0  0  0  0  0  0  0  0
   70.4076   48.7253   52.8585 C   0  0  0  0  0  0  0  0  0  0  0  0
   69.4941   47.7686   53.2380 C   0  0  0  0  0  0  0  0  0  0  0  0
  2  3  1  0
  3  4  1  0
  3 10  2  0
  4  5  2  0
  5  6  1  0
  5  7  1  0
  7  8  2  0
  7  9  1  0
  9  1  1  0
  9 10  1  0
  1 11  1  0
 11 12  2  0
 11 19  1  0
 12 13  1  0
 13 14  2  0
 14 15  1  0
 15 16  1  0
 15 19  2  0
 16 17  1  0
 17 18  2  0
 18 19  1  0
M  END
>  <minimizedAffinity>  (129) 
-8.72217

$$$$
cs_full_output_folder/data/smiles/8955.pdb
     RDKit          3D

 19 21  0  0  0  0  0  0  0  0999 V2000
   70.0322   48.6366   54.8194 C   0  0  0  0  0  0  0  0  0  0  0  0
   70.9265   49.4060   54.1045 N   0  0  0  0  0  0  0  0  0  0  0  0
   71.0345   49.2407   52.8171 N   0  0  0  0  0  0  0  0  0  0  0  0
   70.3329   48.3652   52.1077 C   0  0  0  0  0  0  0  0  0  0  0  0
   70.4514   48.2170   50.8589 O   0  0  0  0  0  0  0  0  0  0  0  0
   69.4085   47.5501   52.7428 C   0  0  0  0  0  0  0  0  0  0  0  0
   68.6621   46.6470   51.9974 C   0  0  0  0  0  0  0  0  0  0  0  0
   67.7455   45.8806   52.6874 C   0  0  0  0  0  0  0  0  0  0  0  0
   67.5943   46.0247   54.0551 C   0  0  0  0  0  0  0  0  0  0  0  0
   68.3432   46.9194   54.7528 C   0  0  0  0  0  0  0  0  0  0  0  0
   69.2760   47.7100   54.1222 C   0  0  0  0  0  0  0  0  0  0  0  0
   69.9446   48.7830   56.2676 C   0  0  0  0  0  0  0  0  0  0  0  0
   69.5318   51.6008   56.1600 C   0  0  0  0  0  0  0  0  0  0  0  0
   68.5225   50.7192   56.7754 C   0  0  0  0  0  0  0  0  0  0  0  0
   67.3775   51.3154   57.2742 C   0  0  0  0  0  0  0  0  0  0  0  0
   66.3847   50.5546   57.8448 C   0  0  0  0  0  0  0  0  0  0  0  0
   66.5820   49.1858   57.8960 C   0  0  0  0  0  0  0  0  0  0  0  0
   67.7095   48.5829   57.4066 C   0  0  0  0  0  0  0  0  0  0  0  0
   68.7097   49.3388   56.8342 C   0  0  0  0  0  0  0  0  0  0  0  0
 13 14  1  0
 14 15  2  0
 14 19  1  0
 15 16  1  0
 16 17  2  0
 17 18  1  0
 18 19  2  0
 19 12  1  0
 12  1  1  0
  1  2  2  0
  1 11  1  0
  2  3  1  0
  3  4  1  0
  4  5  2  0
  4  6  1  0
  6  7  1  0
  6 11  2  0
  7  8  2  0
  8  9  1  0
  9 10  2  0
 10 11  1  0
M  END
>  <minimizedAffinity>  (130) 
-8.72011

$$$$
cs_full_output_folder/data/smiles/4504.pdb
     RDKit          3D

 22 24  0  0  0  0  0  0  0  0999 V2000
   69.5317   49.0293   52.3193 C   0  0  0  0  0  0  0  0  0  0  0  0
   70.3097   49.8053   53.2804 C   0  0  0  0  0  0  0  0  0  0  0  0
   71.6517   49.5237   53.3489 N   0  0  0  0  0  0  0  0  0  0  0  0
   72.4853   50.1542   54.1308 N   0  0  0  0  0  0  0  0  0  0  0  0
   72.0593   51.1362   54.9281 C   0  0  0  0  0  0  0  0  0  0  0  0
   72.8592   51.7396   55.6769 O   0  0  0  0  0  0  0  0  0  0  0  0
   70.7128   51.4949   54.9317 C   0  0  0  0  0  0  0  0  0  0  0  0
   70.2740   52.4905   55.7530 C   0  0  0  0  0  0  0  0  0  0  0  0
   68.9355   52.8250   55.7498 C   0  0  0  0  0  0  0  0  0  0  0  0
   68.0790   52.1393   54.9144 C   0  0  0  0  0  0  0  0  0  0  0  0
   68.5453   51.1322   54.0891 C   0  0  0  0  0  0  0  0  0  0  0  0
   69.8681   50.8064   54.0938 C   0  0  0  0  0  0  0  0  0  0  0  0
   68.3132   46.4527   54.8512 C   0  0  0  0  0  0  0  0  0  0  0  0
   67.8966   45.4757   53.9797 C   0  0  0  0  0  0  0  0  0  0  0  0
   68.0025   45.6524   52.6135 C   0  0  0  0  0  0  0  0  0  0  0  0
   68.5264   46.8113   52.0862 C   0  0  0  0  0  0  0  0  0  0  0  0
   68.9557   47.8184   52.9466 C   0  0  0  0  0  0  0  0  0  0  0  0
   68.8435   47.6217   54.2921 C   0  0  0  0  0  0  0  0  0  0  0  0
   68.2235   46.3085   56.2030 O   0  0  0  0  0  0  0  0  0  0  0  0
   68.3024   47.2569   57.1547 N   0  0  0  0  0  0  0  0  0  0  0  0
   67.3715   49.3826   57.6260 C   0  0  0  0  0  0  0  0  0  0  0  0
   67.1548   47.9762   57.3940 N   0  0  0  0  0  0  0  0  0  0  0  0
 21 22  1  0
 22 20  1  0
 20 19  1  0
 19 13  1  0
 13 14  2  0
 13 18  1  0
 14 15  1  0
 15 16  2  0
 16 17  1  0
 17  1  1  0
 17 18  2  0
  1  2  1  0
  2  3  2  0
  2 12  1  0
  3  4  1  0
  4  5  1  0
  5  6  2  0
  5  7  1  0
  7  8  1  0
  7 12  2  0
  8  9  2  0
  9 10  1  0
 10 11  2  0
 11 12  1  0
M  END
>  <minimizedAffinity>  (131) 
-8.72010

$$$$
cs_full_output_folder/data/smiles/3853.pdb
     RDKit          3D

 22 24  0  0  0  0  0  0  0  0999 V2000
   69.2151   47.4638   56.8077 C   0  0  0  0  0  0  0  0  0  0  0  0
   68.7666   46.8642   55.5563 C   0  0  0  0  0  0  0  0  0  0  0  0
   68.0294   45.7119   55.6227 N   0  0  0  0  0  0  0  0  0  0  0  0
   67.6017   45.0696   54.5587 N   0  0  0  0  0  0  0  0  0  0  0  0
   67.8408   45.4717   53.3095 C   0  0  0  0  0  0  0  0  0  0  0  0
   67.4149   44.8295   52.3356 O   0  0  0  0  0  0  0  0  0  0  0  0
   68.5770   46.6245   53.1560 C   0  0  0  0  0  0  0  0  0  0  0  0
   68.8305   47.0696   51.8772 C   0  0  0  0  0  0  0  0  0  0  0  0
   69.5552   48.2251   51.6991 C   0  0  0  0  0  0  0  0  0  0  0  0
   69.9944   48.8865   52.8249 C   0  0  0  0  0  0  0  0  0  0  0  0
   69.7435   48.4477   54.1055 C   0  0  0  0  0  0  0  0  0  0  0  0
   69.0282   47.3037   54.2870 C   0  0  0  0  0  0  0  0  0  0  0  0
   68.3402   51.1379   57.4244 C   0  0  0  0  0  0  0  0  0  0  0  0
   67.0144   51.0203   57.7801 C   0  0  0  0  0  0  0  0  0  0  0  0
   66.4413   49.7507   57.8169 C   0  0  0  0  0  0  0  0  0  0  0  0
   67.1671   48.6280   57.5097 C   0  0  0  0  0  0  0  0  0  0  0  0
   68.4991   48.7181   57.1495 C   0  0  0  0  0  0  0  0  0  0  0  0
   69.0465   49.9781   57.1187 C   0  0  0  0  0  0  0  0  0  0  0  0
   68.9947   52.4724   55.0561 O   0  0  0  0  0  0  0  0  0  0  0  0
   69.2874   53.0374   56.1366 C   0  0  0  0  0  0  0  0  0  0  0  0
   69.8965   54.2494   56.0635 F   0  0  0  0  0  0  0  0  0  0  0  0
   68.9783   52.4058   57.3670 N   0  0  0  0  0  0  0  0  0  0  0  0
 19 20  2  0
 20 21  1  0
 20 22  1  0
 22 13  1  0
 13 14  2  0
 13 18  1  0
 14 15  1  0
 15 16  2  0
 16 17  1  0
 17  1  1  0
 17 18  2  0
  1  2  1  0
  2  3  2  0
  2 12  1  0
  3  4  1  0
  4  5  1  0
  5  6  2  0
  5  7  1  0
  7  8  1  0
  7 12  2  0
  8  9  2  0
  9 10  1  0
 10 11  2  0
 11 12  1  0
M  END
>  <minimizedAffinity>  (132) 
-8.71776

$$$$
cs_full_output_folder/data/smiles/401.pdb
     RDKit          3D

 21 22  0  0  0  0  0  0  0  0999 V2000
   69.0086   46.7078   57.0988 N   0  0  0  0  0  0  0  0  0  0  0  0
   68.2720   47.1785   56.2312 C   0  0  0  0  0  0  0  0  0  0  0  0
   68.4311   47.0758   54.8044 C   0  0  0  0  0  0  0  0  0  0  0  0
   67.7745   46.1618   54.0202 C   0  0  0  0  0  0  0  0  0  0  0  0
   67.9369   46.0696   52.6334 C   0  0  0  0  0  0  0  0  0  0  0  0
   68.8036   46.9475   52.0281 C   0  0  0  0  0  0  0  0  0  0  0  0
   69.4812   47.8815   52.7954 C   0  0  0  0  0  0  0  0  0  0  0  0
   69.3148   47.9620   54.1528 C   0  0  0  0  0  0  0  0  0  0  0  0
   70.3670   48.7698   52.1363 N   0  0  0  0  0  0  0  0  0  0  0  0
   71.4724   49.0008   52.6441 O   0  0  0  0  0  0  0  0  0  0  0  0
   70.0348   49.3788   50.9565 O   0  0  0  0  0  0  0  0  0  0  0  0
   69.7915   44.9748   59.0960 O   0  0  0  0  0  0  0  0  0  0  0  0
   70.5617   45.0805   58.1101 C   0  0  0  0  0  0  0  0  0  0  0  0
   70.1603   45.9711   57.0830 N   0  0  0  0  0  0  0  0  0  0  0  0
   71.7987   44.2898   58.0932 C   0  0  0  0  0  0  0  0  0  0  0  0
   73.0180   44.9273   58.2521 C   0  0  0  0  0  0  0  0  0  0  0  0
   74.2119   44.2659   58.2480 C   0  0  0  0  0  0  0  0  0  0  0  0
   74.2330   42.8939   58.0800 C   0  0  0  0  0  0  0  0  0  0  0  0
   75.4453   42.2146   58.0755 O   0  0  0  0  0  0  0  0  0  0  0  0
   73.0375   42.2434   57.9211 C   0  0  0  0  0  0  0  0  0  0  0  0
   71.8253   42.9286   57.9266 C   0  0  0  0  0  0  0  0  0  0  0  0
 12 13  2  0
 13 14  1  0
 13 15  1  0
 14  1  1  0
  1  2  2  0
  2  3  1  0
  3  4  2  0
  3  8  1  0
  4  5  1  0
  5  6  2  0
  6  7  1  0
  7  9  1  0
  7  8  2  0
  9 10  2  0
  9 11  1  0
 15 16  2  0
 15 21  1  0
 16 17  1  0
 17 18  2  0
 18 19  1  0
 18 20  1  0
 20 21  2  0
M  CHG  2   9   1  11  -1
M  END
>  <minimizedAffinity>  (133) 
-8.71769

$$$$
cs_full_output_folder/data/smiles/8689.pdb
     RDKit          3D

 21 23  0  0  0  0  0  0  0  0999 V2000
   68.7070   46.7571   55.5210 C   0  0  0  0  0  0  0  0  0  0  0  0
   68.0982   45.5494   55.7101 N   0  0  0  0  0  0  0  0  0  0  0  0
   67.6310   44.8178   54.7140 N   0  0  0  0  0  0  0  0  0  0  0  0
   67.7036   45.1756   53.4313 C   0  0  0  0  0  0  0  0  0  0  0  0
   67.2597   44.4798   52.4869 O   0  0  0  0  0  0  0  0  0  0  0  0
   68.3049   46.3847   53.1594 C   0  0  0  0  0  0  0  0  0  0  0  0
   68.7950   47.1553   54.1943 C   0  0  0  0  0  0  0  0  0  0  0  0
   69.3913   48.4128   53.9455 N   0  0  0  0  0  0  0  0  0  0  0  0
   70.1026   48.6177   52.7103 C   0  0  0  0  0  0  0  0  0  0  0  0
   69.8593   47.5527   51.6994 C   0  0  0  0  0  0  0  0  0  0  0  0
   68.4781   46.9431   51.7922 C   0  0  0  0  0  0  0  0  0  0  0  0
   69.2258   47.5080   56.6671 C   0  0  0  0  0  0  0  0  0  0  0  0
   68.3115   51.1309   56.7058 C   0  0  0  0  0  0  0  0  0  0  0  0
   67.1622   51.1384   57.4824 C   0  0  0  0  0  0  0  0  0  0  0  0
   66.6711   49.9604   58.0052 C   0  0  0  0  0  0  0  0  0  0  0  0
   67.3388   48.7984   57.7416 C   0  0  0  0  0  0  0  0  0  0  0  0
   68.4672   48.7565   56.9855 C   0  0  0  0  0  0  0  0  0  0  0  0
   68.9559   49.9484   56.4617 C   0  0  0  0  0  0  0  0  0  0  0  0
   69.1554   52.5136   54.7279 C   0  0  0  0  0  0  0  0  0  0  0  0
   68.8118   52.3955   56.1646 C   0  0  0  0  0  0  0  0  0  0  0  0
   68.9535   53.3942   56.9113 O   0  0  0  0  0  0  0  0  0  0  0  0
 19 20  1  0
 20 21  2  0
 20 13  1  0
 13 14  2  0
 13 18  1  0
 14 15  1  0
 15 16  2  0
 16 17  1  0
 17 12  1  0
 17 18  2  0
 12  1  1  0
  1  2  2  0
  1  7  1  0
  2  3  1  0
  3  4  1  0
  4  5  2  0
  4  6  1  0
  6  7  2  0
  6 11  1  0
  7  8  1  0
  8  9  1  0
  9 10  1  0
 10 11  1  0
M  END
>  <minimizedAffinity>  (134) 
-8.71322

$$$$
cs_full_output_folder/data/smiles/6040.pdb
     RDKit          3D

 22 23  0  0  0  0  0  0  0  0999 V2000
   67.5758   48.3242   57.0090 C   0  0  0  0  0  0  0  0  0  0  0  0
   68.5498   47.3179   56.4355 C   0  0  0  0  0  0  0  0  0  0  0  0
   69.2169   46.6906   57.2899 N   0  0  0  0  0  0  0  0  0  0  0  0
   68.5931   47.1972   54.9951 C   0  0  0  0  0  0  0  0  0  0  0  0
   67.8177   46.2967   54.3113 C   0  0  0  0  0  0  0  0  0  0  0  0
   67.8773   46.1881   52.9147 C   0  0  0  0  0  0  0  0  0  0  0  0
   68.7282   46.9977   52.1998 C   0  0  0  0  0  0  0  0  0  0  0  0
   69.5215   47.9166   52.8618 C   0  0  0  0  0  0  0  0  0  0  0  0
   69.4522   48.0107   54.2335 C   0  0  0  0  0  0  0  0  0  0  0  0
   70.4030   48.7546   52.1397 N   0  0  0  0  0  0  0  0  0  0  0  0
   70.1140   49.1762   51.0108 O   0  0  0  0  0  0  0  0  0  0  0  0
   71.5971   49.1070   52.6954 O   0  0  0  0  0  0  0  0  0  0  0  0
   70.1670   45.7364   57.2655 N   0  0  0  0  0  0  0  0  0  0  0  0
   70.9609   45.3325   58.3894 C   0  0  0  0  0  0  0  0  0  0  0  0
   70.7485   45.9190   59.4844 O   0  0  0  0  0  0  0  0  0  0  0  0
   71.9594   44.2871   58.2342 C   0  0  0  0  0  0  0  0  0  0  0  0
   73.2884   44.6334   58.3179 C   0  0  0  0  0  0  0  0  0  0  0  0
   74.2956   43.6747   58.1735 C   0  0  0  0  0  0  0  0  0  0  0  0
   73.9365   42.3507   57.9421 C   0  0  0  0  0  0  0  0  0  0  0  0
   72.6155   42.0036   57.8585 C   0  0  0  0  0  0  0  0  0  0  0  0
   71.6217   42.9736   58.0047 C   0  0  0  0  0  0  0  0  0  0  0  0
   70.2033   42.5485   57.9041 C   0  0  0  0  0  0  0  0  0  0  0  0
  1  2  1  0
  2  3  2  0
  2  4  1  0
  3 13  1  0
 13 14  1  0
 14 15  2  0
 14 16  1  0
 16 17  2  0
 16 21  1  0
 17 18  1  0
 18 19  2  0
 19 20  1  0
 20 21  2  0
 21 22  1  0
  4  5  2  0
  4  9  1  0
  5  6  1  0
  6  7  2  0
  7  8  1  0
  8 10  1  0
  8  9  2  0
 10 11  2  0
 10 12  1  0
M  CHG  2  10   1  12  -1
M  END
>  <minimizedAffinity>  (135) 
-8.71103

$$$$
cs_full_output_folder/data/smiles/7879.pdb
     RDKit          3D

 19 21  0  0  0  0  0  0  0  0999 V2000
   69.7518   48.1580   54.7798 C   0  0  0  0  0  0  0  0  0  0  0  0
   70.6984   48.9987   54.3078 N   0  0  0  0  0  0  0  0  0  0  0  0
   70.9754   49.1235   53.0251 N   0  0  0  0  0  0  0  0  0  0  0  0
   70.3295   48.4168   52.0784 C   0  0  0  0  0  0  0  0  0  0  0  0
   70.6281   48.5698   50.8683 O   0  0  0  0  0  0  0  0  0  0  0  0
   69.3473   47.5347   52.4719 C   0  0  0  0  0  0  0  0  0  0  0  0
   68.6550   46.7819   51.5520 C   0  0  0  0  0  0  0  0  0  0  0  0
   67.6729   45.8922   51.9204 C   0  0  0  0  0  0  0  0  0  0  0  0
   67.4091   45.7905   53.2902 C   0  0  0  0  0  0  0  0  0  0  0  0
   68.0990   46.5416   54.2169 C   0  0  0  0  0  0  0  0  0  0  0  0
   69.0737   47.4201   53.8336 C   0  0  0  0  0  0  0  0  0  0  0  0
   69.4976   48.0723   56.2336 C   0  0  0  0  0  0  0  0  0  0  0  0
   68.5920   52.8413   56.8105 N   0  0  0  0  0  0  0  0  0  0  0  0
   68.2121   51.5019   57.0205 C   0  0  0  0  0  0  0  0  0  0  0  0
   67.0360   51.1944   57.7069 C   0  0  0  0  0  0  0  0  0  0  0  0
   66.6736   49.8877   57.9045 C   0  0  0  0  0  0  0  0  0  0  0  0
   67.4906   48.8694   57.4148 C   0  0  0  0  0  0  0  0  0  0  0  0
   68.6509   49.1807   56.7364 C   0  0  0  0  0  0  0  0  0  0  0  0
   69.0210   50.4911   56.5347 C   0  0  0  0  0  0  0  0  0  0  0  0
 13 14  1  0
 14 15  2  0
 14 19  1  0
 15 16  1  0
 16 17  2  0
 17 18  1  0
 18 12  1  0
 18 19  2  0
 12  1  1  0
  1  2  2  0
  1 11  1  0
  2  3  1  0
  3  4  1  0
  4  5  2  0
  4  6  1  0
  6  7  1  0
  6 11  2  0
  7  8  2  0
  8  9  1  0
  9 10  2  0
 10 11  1  0
M  END
>  <minimizedAffinity>  (136) 
-8.70684

$$$$
cs_full_output_folder/data/smiles/3827.pdb
     RDKit          3D

 22 24  0  0  0  0  0  0  0  0999 V2000
   69.2827   45.5571   56.8815 C   0  0  0  0  0  0  0  0  0  0  0  0
   70.4109   46.0808   57.4540 C   0  0  0  0  0  0  0  0  0  0  0  0
   71.2532   45.2045   58.1219 C   0  0  0  0  0  0  0  0  0  0  0  0
   70.9762   43.8680   58.2115 N   0  0  0  0  0  0  0  0  0  0  0  0
   69.8824   43.3878   57.6513 C   0  0  0  0  0  0  0  0  0  0  0  0
   69.0761   44.2420   57.0091 N   0  0  0  0  0  0  0  0  0  0  0  0
   69.4545   41.9725   57.6768 C   0  0  0  0  0  0  0  0  0  0  0  0
   68.2974   41.5814   57.0232 C   0  0  0  0  0  0  0  0  0  0  0  0
   67.8779   40.2933   57.0329 C   0  0  0  0  0  0  0  0  0  0  0  0
   68.5919   39.3129   57.6962 C   0  0  0  0  0  0  0  0  0  0  0  0
   69.7419   39.7246   58.3403 C   0  0  0  0  0  0  0  0  0  0  0  0
   70.1751   41.0274   58.3377 C   0  0  0  0  0  0  0  0  0  0  0  0
   68.3150   46.3136   56.1570 N   0  0  0  0  0  0  0  0  0  0  0  0
   69.3359   47.7963   52.8941 C   0  0  0  0  0  0  0  0  0  0  0  0
   68.7062   46.9146   52.0419 C   0  0  0  0  0  0  0  0  0  0  0  0
   67.9547   45.8566   52.5316 C   0  0  0  0  0  0  0  0  0  0  0  0
   67.8092   45.6448   53.8754 C   0  0  0  0  0  0  0  0  0  0  0  0
   68.4207   46.4996   54.7524 C   0  0  0  0  0  0  0  0  0  0  0  0
   69.1612   47.5414   54.2512 C   0  0  0  0  0  0  0  0  0  0  0  0
   69.5892   50.2655   52.9247 C   0  0  0  0  0  0  0  0  0  0  0  0
   70.1372   48.9358   52.4337 C   0  0  2  0  0  0  0  0  0  0  0  0
   70.2244   48.9507   51.0194 O   0  0  0  0  0  0  0  0  0  0  0  0
 21 20  1  6
 21 22  1  0
 21 14  1  0
 14 15  2  0
 14 19  1  0
 15 16  1  0
 16 17  2  0
 17 18  1  0
 18 13  1  0
 18 19  2  0
 13  1  1  0
  1  2  2  0
  1  6  1  0
  2  3  1  0
  3  4  2  0
  4  5  1  0
  5  7  1  0
  5  6  2  0
  7  8  2  0
  7 12  1  0
  8  9  1  0
  9 10  2  0
 10 11  1  0
 11 12  2  0
M  END
>  <minimizedAffinity>  (137) 
-8.70517

$$$$
cs_full_output_folder/data/smiles/8340.pdb
     RDKit          3D

 22 24  0  0  0  0  0  0  0  0999 V2000
   67.4409   43.0643   55.5166 C   0  0  0  0  0  0  0  0  0  0  0  0
   68.4854   43.0474   56.4291 N   0  0  0  0  0  0  0  0  0  0  0  0
   68.8194   41.9463   57.0987 C   0  0  0  0  0  0  0  0  0  0  0  0
   69.8771   41.9558   58.0170 C   0  0  0  0  0  0  0  0  0  0  0  0
   70.2245   40.8178   58.7132 C   0  0  0  0  0  0  0  0  0  0  0  0
   69.5570   39.6224   58.5459 C   0  0  0  0  0  0  0  0  0  0  0  0
   68.5199   39.6159   57.6438 C   0  0  0  0  0  0  0  0  0  0  0  0
   68.1624   40.7475   56.9415 C   0  0  0  0  0  0  0  0  0  0  0  0
   67.1525   40.7412   56.0672 N   0  0  0  0  0  0  0  0  0  0  0  0
   66.7914   41.8666   55.3666 C   0  0  0  0  0  0  0  0  0  0  0  0
   65.6214   41.7750   54.4432 C   0  0  0  0  0  0  0  0  0  0  0  0
   65.7335   40.5837   53.6900 O   0  0  0  0  0  0  0  0  0  0  0  0
   67.1850   44.2323   54.8873 O   0  0  0  0  0  0  0  0  0  0  0  0
   69.2070   47.3567   53.0303 C   0  0  0  0  0  0  0  0  0  0  0  0
   69.1699   47.2767   54.4060 C   0  0  0  0  0  0  0  0  0  0  0  0
   68.5082   46.2519   55.0362 C   0  0  0  0  0  0  0  0  0  0  0  0
   67.8375   45.2351   54.3337 C   0  0  0  0  0  0  0  0  0  0  0  0
   67.9024   45.3560   52.9543 C   0  0  0  0  0  0  0  0  0  0  0  0
   68.5624   46.3790   52.3120 C   0  0  0  0  0  0  0  0  0  0  0  0
   69.4469   48.9179   51.2712 O   0  0  0  0  0  0  0  0  0  0  0  0
   69.8984   48.4310   52.3318 C   0  0  0  0  0  0  0  0  0  0  0  0
   71.0910   48.9458   52.8378 O   0  0  0  0  0  0  0  0  0  0  0  0
 20 21  2  0
 21 22  1  0
 21 14  1  0
 14 15  2  0
 14 19  1  0
 15 16  1  0
 16 17  2  0
 17 13  1  0
 17 18  1  0
 13  1  1  0
  1  2  2  0
  1 10  1  0
  2  3  1  0
  3  4  2  0
  3  8  1  0
  4  5  1  0
  5  6  2  0
  6  7  1  0
  7  8  2  0
  8  9  1  0
  9 10  2  0
 10 11  1  0
 11 12  1  0
 18 19  2  0
M  END
>  <minimizedAffinity>  (138) 
-8.70052

$$$$
cs_full_output_folder/data/smiles/158.pdb
     RDKit          3D

 21 23  0  0  0  0  0  0  0  0999 V2000
   67.4986   47.5760   57.1238 N   0  0  0  0  0  0  0  0  0  0  0  0
   67.8994   48.9184   56.9434 C   0  0  0  0  0  0  0  0  0  0  0  0
   68.8437   49.2161   55.9376 C   0  0  0  0  0  0  0  0  0  0  0  0
   69.1544   50.5470   55.8497 C   0  0  0  0  0  0  0  0  0  0  0  0
   70.0587   50.9720   54.9018 C   0  0  0  0  0  0  0  0  0  0  0  0
   70.3423   52.3250   54.8476 C   0  0  0  0  0  0  0  0  0  0  0  0
   69.7564   53.2407   55.6968 C   0  0  0  0  0  0  0  0  0  0  0  0
   68.8462   52.8195   56.6496 C   0  0  0  0  0  0  0  0  0  0  0  0
   68.5521   51.4771   56.7172 C   0  0  0  0  0  0  0  0  0  0  0  0
   67.6805   51.1208   57.6324 O   0  0  0  0  0  0  0  0  0  0  0  0
   67.3495   49.8752   57.7567 C   0  0  0  0  0  0  0  0  0  0  0  0
   66.5001   49.5852   58.6595 O   0  0  0  0  0  0  0  0  0  0  0  0
   69.3453   48.1807   55.1687 N   0  0  0  0  0  0  0  0  0  0  0  0
   68.9043   47.4621   54.0592 C   0  0  0  0  0  0  0  0  0  0  0  0
   68.0540   46.4442   54.0980 C   0  0  0  0  0  0  0  0  0  0  0  0
   67.8181   45.9259   52.7327 C   0  0  0  0  0  0  0  0  0  0  0  0
   68.6733   46.7896   51.8937 C   0  0  0  0  0  0  0  0  0  0  0  0
   69.2862   47.6591   52.6394 C   0  0  0  0  0  0  0  0  0  0  0  0
   70.2158   48.7106   52.2527 C   0  0  0  0  0  0  0  0  0  0  0  0
   71.3075   48.9173   52.8100 O   0  0  0  0  0  0  0  0  0  0  0  0
   69.8775   49.5579   51.1818 O   0  0  0  0  0  0  0  0  0  0  0  0
  1  2  1  0
  2  3  2  0
  2 11  1  0
  3 13  1  0
  3  4  1  0
 13 14  1  0
 14 15  2  0
 14 18  1  0
 15 16  1  0
 16 17  1  0
 17 18  2  0
 18 19  1  0
 19 20  2  0
 19 21  1  0
  4  5  2  0
  4  9  1  0
  5  6  1  0
  6  7  2  0
  7  8  1  0
  8  9  2  0
  9 10  1  0
 10 11  1  0
 11 12  2  0
M  END
>  <minimizedAffinity>  (139) 
-8.69873

$$$$
cs_full_output_folder/data/smiles/990.pdb
     RDKit          3D

 19 21  0  0  0  0  0  0  0  0999 V2000
   70.2704   49.0219   54.0023 C   0  0  0  0  0  0  0  0  0  0  0  0
   71.4093   49.3418   53.3698 N   0  0  0  0  0  0  0  0  0  0  0  0
   71.9686   50.4072   53.9082 N   0  0  0  0  0  0  0  0  0  0  0  0
   71.1826   50.7983   54.9173 C   0  0  0  0  0  0  0  0  0  0  0  0
   70.0793   49.9539   55.0299 C   0  0  0  0  0  0  0  0  0  0  0  0
   69.4709   48.5583   51.3421 O   0  0  0  0  0  0  0  0  0  0  0  0
   69.0236   47.7224   52.3640 C   0  0  0  0  0  0  0  0  0  0  0  0
   68.1876   46.6656   52.0830 C   0  0  0  0  0  0  0  0  0  0  0  0
   67.8363   46.4944   50.7690 F   0  0  0  0  0  0  0  0  0  0  0  0
   67.7258   45.8198   53.0660 C   0  0  0  0  0  0  0  0  0  0  0  0
   68.0857   45.9972   54.3943 C   0  0  0  0  0  0  0  0  0  0  0  0
   68.9236   47.0579   54.6725 C   0  0  0  0  0  0  0  0  0  0  0  0
   69.3864   47.9077   53.6816 C   0  0  0  0  0  0  0  0  0  0  0  0
   68.9937   50.0202   55.9811 C   0  0  0  0  0  0  0  0  0  0  0  0
   68.2741   51.1780   56.1081 C   0  0  0  0  0  0  0  0  0  0  0  0
   67.2358   51.2845   56.9989 C   0  0  0  0  0  0  0  0  0  0  0  0
   66.9027   50.2055   57.7859 C   0  0  0  0  0  0  0  0  0  0  0  0
   67.6066   49.0281   57.6807 C   0  0  0  0  0  0  0  0  0  0  0  0
   68.6602   48.9477   56.7647 C   0  0  0  0  0  0  0  0  0  0  0  0
  6  7  1  0
  7  8  2  0
  7 13  1  0
  8  9  1  0
  8 10  1  0
 10 11  2  0
 11 12  1  0
 12 13  2  0
 13  1  1  0
  1  2  2  0
  1  5  1  0
  2  3  1  0
  3  4  1  0
  4  5  2  0
  5 14  1  0
 14 15  2  0
 14 19  1  0
 15 16  1  0
 16 17  2  0
 17 18  1  0
 18 19  2  0
M  END
>  <minimizedAffinity>  (140) 
-8.69689

$$$$
cs_full_output_folder/data/smiles/5043.pdb
     RDKit          3D

 19 20  0  0  0  0  0  0  0  0999 V2000
   69.2910   47.9859   52.6851 C   0  0  0  0  0  0  0  0  0  0  0  0
   69.4302   48.1418   54.0285 C   0  0  0  0  0  0  0  0  0  0  0  0
   68.7993   47.2878   54.9359 C   0  0  0  0  0  0  0  0  0  0  0  0
   68.0332   46.2859   54.4220 C   0  0  0  0  0  0  0  0  0  0  0  0
   67.8821   46.1142   53.0604 C   0  0  0  0  0  0  0  0  0  0  0  0
   67.1047   45.0961   52.5453 O   0  0  0  0  0  0  0  0  0  0  0  0
   68.5203   46.9782   52.1644 C   0  0  0  0  0  0  0  0  0  0  0  0
   68.3783   46.8235   50.7718 O   0  0  0  0  0  0  0  0  0  0  0  0
   70.6524   48.3359   50.8914 O   0  0  0  0  0  0  0  0  0  0  0  0
   69.9478   48.8626   51.7573 N   0  0  0  0  0  0  0  0  0  0  0  0
   69.7889   50.2079   51.8441 O   0  0  0  0  0  0  0  0  0  0  0  0
   69.0167   47.5546   56.3573 C   0  0  0  0  0  0  0  0  0  0  0  0
   68.6322   48.9293   56.7854 C   0  0  0  0  0  0  0  0  0  0  0  0
   69.5280   49.9852   56.6368 C   0  0  0  0  0  0  0  0  0  0  0  0
   69.2266   51.2751   57.0294 C   0  0  0  0  0  0  0  0  0  0  0  0
   68.0091   51.5727   57.5931 C   0  0  0  0  0  0  0  0  0  0  0  0
   67.1097   50.5414   57.7480 C   0  0  0  0  0  0  0  0  0  0  0  0
   67.4139   49.2411   57.3532 C   0  0  0  0  0  0  0  0  0  0  0  0
   66.5068   48.2392   57.5134 F   0  0  0  0  0  0  0  0  0  0  0  0
  9 10  2  0
 10 11  1  0
 10  1  1  0
  1  2  2  0
  1  7  1  0
  2  3  1  0
  3 12  1  0
  3  4  2  0
 12 13  1  0
 13 14  2  0
 13 18  1  0
 14 15  1  0
 15 16  2  0
 16 17  1  0
 17 18  2  0
 18 19  1  0
  4  5  1  0
  5  6  1  0
  5  7  2  0
  7  8  1  0
M  CHG  2  10   1  11  -1
M  END
>  <minimizedAffinity>  (141) 
-8.69341

$$$$
cs_full_output_folder/data/smiles/8433.pdb
     RDKit          3D

 20 22  0  0  0  0  0  0  0  0999 V2000
   68.8525   46.8560   55.5771 C   0  0  0  0  0  0  0  0  0  0  0  0
   68.2745   45.6601   55.9148 N   0  0  0  0  0  0  0  0  0  0  0  0
   67.7444   44.8945   54.9723 N   0  0  0  0  0  0  0  0  0  0  0  0
   67.7304   45.2133   53.6731 C   0  0  0  0  0  0  0  0  0  0  0  0
   67.2220   44.4781   52.7863 O   0  0  0  0  0  0  0  0  0  0  0  0
   68.3020   46.4069   53.2907 C   0  0  0  0  0  0  0  0  0  0  0  0
   68.8622   47.2196   54.2691 C   0  0  0  0  0  0  0  0  0  0  0  0
   69.4842   48.4847   53.8596 C   0  0  0  0  0  0  0  0  0  0  0  0
   70.0338   48.5221   52.4752 C   0  0  0  0  0  0  0  0  0  0  0  0
   69.7425   47.3393   51.6212 C   0  0  0  0  0  0  0  0  0  0  0  0
   68.3378   46.8437   51.8682 C   0  0  0  0  0  0  0  0  0  0  0  0
   69.3859   47.6628   56.6567 C   0  0  0  0  0  0  0  0  0  0  0  0
   68.3823   51.3278   57.0062 C   0  0  0  0  0  0  0  0  0  0  0  0
   67.1445   51.1485   57.6112 C   0  0  0  0  0  0  0  0  0  0  0  0
   66.6260   49.9042   57.9016 C   0  0  0  0  0  0  0  0  0  0  0  0
   67.3630   48.7879   57.5802 C   0  0  0  0  0  0  0  0  0  0  0  0
   68.6157   48.8968   56.9701 C   0  0  0  0  0  0  0  0  0  0  0  0
   69.0762   50.1492   56.7077 C   0  0  0  0  0  0  0  0  0  0  0  0
   69.3560   53.7082   56.4940 N   0  0  0  0  0  0  0  0  0  0  0  0
   68.9000   52.6030   56.7215 C   0  0  0  0  0  0  0  0  0  0  0  0
 19 20  3  0
 20 13  1  0
 13 14  2  0
 13 18  1  0
 14 15  1  0
 15 16  2  0
 16 17  1  0
 17 12  1  0
 17 18  2  0
 12  1  1  0
  1  2  2  0
  1  7  1  0
  2  3  1  0
  3  4  1  0
  4  5  2  0
  4  6  1  0
  6  7  2  0
  6 11  1  0
  7  8  1  0
  8  9  1  0
  9 10  1  0
 10 11  1  0
M  END
>  <minimizedAffinity>  (142) 
-8.69298

$$$$
cs_full_output_folder/data/smiles/2005.pdb
     RDKit          3D

 21 23  0  0  0  0  0  0  0  0999 V2000
   70.2687   48.9906   55.5750 N   0  0  0  0  0  0  0  0  0  0  0  0
   68.6649   47.1875   57.5836 N   0  0  0  0  0  0  0  0  0  0  0  0
   68.6480   47.1092   56.1542 C   0  0  0  0  0  0  0  0  0  0  0  0
   67.9639   46.2706   55.4495 O   0  0  0  0  0  0  0  0  0  0  0  0
   68.1414   46.4311   54.1773 C   0  0  0  0  0  0  0  0  0  0  0  0
   67.6425   45.7958   53.0354 C   0  0  0  0  0  0  0  0  0  0  0  0
   68.0273   46.2009   51.7773 C   0  0  0  0  0  0  0  0  0  0  0  0
   68.9116   47.2441   51.6456 C   0  0  0  0  0  0  0  0  0  0  0  0
   69.3986   47.8660   52.7757 C   0  0  0  0  0  0  0  0  0  0  0  0
   69.0205   47.4656   54.0263 C   0  0  0  0  0  0  0  0  0  0  0  0
   69.3770   47.9390   55.3006 C   0  0  0  0  0  0  0  0  0  0  0  0
   69.9963   50.3783   55.6899 C   0  0  0  0  0  0  0  0  0  0  0  0
   68.6914   50.7313   56.1232 C   0  0  0  0  0  0  0  0  0  0  0  0
   68.3044   52.0185   56.2653 C   0  0  0  0  0  0  0  0  0  0  0  0
   69.1443   53.0749   56.0026 C   0  0  0  0  0  0  0  0  0  0  0  0
   70.4225   52.7246   55.5796 C   0  0  0  0  0  0  0  0  0  0  0  0
   70.8388   51.4153   55.4276 C   0  0  0  0  0  0  0  0  0  0  0  0
   72.2165   51.1669   55.0387 C   0  0  0  0  0  0  0  0  0  0  0  0
   73.2128   51.6205   55.6563 O   0  0  0  0  0  0  0  0  0  0  0  0
   72.5712   50.3649   53.8959 N   0  0  0  0  0  0  0  0  0  0  0  0
   73.8910   50.1555   53.5622 O   0  0  0  0  0  0  0  0  0  0  0  0
  2  3  1  0
  3  4  1  0
  3 11  2  0
  4  5  1  0
  5  6  2  0
  5 10  1  0
  6  7  1  0
  7  8  2  0
  8  9  1  0
  9 10  2  0
 10 11  1  0
 11  1  1  0
  1 12  1  0
 12 13  2  0
 12 17  1  0
 13 14  1  0
 14 15  2  0
 15 16  1  0
 16 17  2  0
 17 18  1  0
 18 19  2  0
 18 20  1  0
 20 21  1  0
M  END
>  <minimizedAffinity>  (143) 
-8.69224

$$$$
cs_full_output_folder/data/smiles/670.pdb
     RDKit          3D

 19 20  0  0  0  0  0  0  0  0999 V2000
   69.4149   48.3547   54.0386 C   0  0  0  0  0  0  0  0  0  0  0  0
   69.1451   48.1730   55.3970 C   0  0  0  0  0  0  0  0  0  0  0  0
   68.2862   47.2321   55.8943 C   0  0  0  0  0  0  0  0  0  0  0  0
   68.0788   47.1093   57.1519 O   0  0  0  0  0  0  0  0  0  0  0  0
   67.6755   46.4512   55.0500 O   0  0  0  0  0  0  0  0  0  0  0  0
   67.8775   46.5641   53.7362 C   0  0  0  0  0  0  0  0  0  0  0  0
   67.2095   45.7325   52.9005 N   0  0  0  0  0  0  0  0  0  0  0  0
   67.3588   45.7986   51.5679 C   0  0  0  0  0  0  0  0  0  0  0  0
   66.6960   44.9784   50.8465 O   0  0  0  0  0  0  0  0  0  0  0  0
   68.1915   46.7144   51.0472 N   0  0  0  0  0  0  0  0  0  0  0  0
   68.8755   47.5601   51.8324 C   0  0  0  0  0  0  0  0  0  0  0  0
   69.6206   48.3857   51.3130 O   0  0  0  0  0  0  0  0  0  0  0  0
   68.7304   47.4943   53.1870 C   0  0  0  0  0  0  0  0  0  0  0  0
   70.4361   49.2857   53.5714 C   0  0  0  0  0  0  0  0  0  0  0  0
   70.5633   50.5510   54.3419 C   0  0  0  0  0  0  0  0  0  0  0  0
   69.7930   51.7538   53.9325 C   0  0  0  0  0  0  0  0  0  0  0  0
   68.5221   51.9072   54.7892 C   0  0  0  0  0  0  0  0  0  0  0  0
   67.7835   51.2854   57.0762 C   0  0  0  0  0  0  0  0  0  0  0  0
   68.8462   51.9501   56.2585 C   0  0  0  0  0  0  0  0  0  0  0  0
 18 19  1  0
 19 17  1  0
 17 16  1  0
 16 15  1  0
 15 14  1  0
 14  1  1  0
  1  2  2  0
  1 13  1  0
  2  3  1  0
  3  4  2  0
  3  5  1  0
  5  6  1  0
  6  7  1  0
  6 13  2  0
  7  8  1  0
  8  9  2  0
  8 10  1  0
 10 11  1  0
 11 12  2  0
 11 13  1  0
M  END
>  <minimizedAffinity>  (144) 
-8.69151

$$$$
cs_full_output_folder/data/smiles/114.pdb
     RDKit          3D

 21 22  0  0  0  0  0  0  0  0999 V2000
   69.6179   46.1163   56.8029 N   0  0  0  0  0  0  0  0  0  0  0  0
   68.6347   46.7914   56.0459 C   0  0  0  0  0  0  0  0  0  0  0  0
   67.7067   47.3833   56.6763 O   0  0  0  0  0  0  0  0  0  0  0  0
   68.6284   46.8421   54.5974 C   0  0  0  0  0  0  0  0  0  0  0  0
   67.9225   45.8854   53.8581 C   0  0  0  0  0  0  0  0  0  0  0  0
   67.8809   45.8835   52.4929 C   0  0  0  0  0  0  0  0  0  0  0  0
   68.5619   46.8632   51.7713 C   0  0  0  0  0  0  0  0  0  0  0  0
   69.2678   47.8220   52.4626 C   0  0  0  0  0  0  0  0  0  0  0  0
   69.2906   47.7968   53.8650 C   0  0  0  0  0  0  0  0  0  0  0  0
   69.9866   48.8519   51.7581 N   0  0  0  0  0  0  0  0  0  0  0  0
   70.7247   48.5287   50.8135 O   0  0  0  0  0  0  0  0  0  0  0  0
   69.8354   50.1417   52.1493 O   0  0  0  0  0  0  0  0  0  0  0  0
   69.5679   46.1033   58.1684 O   0  0  0  0  0  0  0  0  0  0  0  0
   70.8032   45.8918   58.7277 C   0  0  0  0  0  0  0  0  0  0  0  0
   73.5930   45.9263   58.3932 C   0  0  0  0  0  0  0  0  0  0  0  0
   72.8537   44.6885   58.1480 C   0  0  0  0  0  0  0  0  0  0  0  0
   73.5642   43.5689   57.7571 C   0  0  0  0  0  0  0  0  0  0  0  0
   72.9293   42.3712   57.5072 C   0  0  0  0  0  0  0  0  0  0  0  0
   71.5526   42.3339   57.6635 C   0  0  0  0  0  0  0  0  0  0  0  0
   70.8427   43.4682   58.0587 C   0  0  0  0  0  0  0  0  0  0  0  0
   71.4888   44.6617   58.3055 C   0  0  0  0  0  0  0  0  0  0  0  0
 15 16  1  0
 16 17  2  0
 16 21  1  0
 17 18  1  0
 18 19  2  0
 19 20  1  0
 20 21  2  0
 21 14  1  0
 14 13  1  0
 13  1  1  0
  1  2  1  0
  2  3  2  0
  2  4  1  0
  4  5  2  0
  4  9  1  0
  5  6  1  0
  6  7  2  0
  7  8  1  0
  8 10  1  0
  8  9  2  0
 10 11  2  0
 10 12  1  0
M  CHG  2  10   1  12  -1
M  END
>  <minimizedAffinity>  (145) 
-8.69121

$$$$
cs_full_output_folder/data/smiles/626.pdb
     RDKit          3D

 22 25  0  0  0  0  0  0  0  0999 V2000
   69.9474   47.1565   51.0276 O   0  0  0  0  0  0  0  0  0  0  0  0
   69.8178   48.2493   51.6204 C   0  0  0  0  0  0  0  0  0  0  0  0
   70.0633   49.4475   51.0658 N   0  0  0  0  0  0  0  0  0  0  0  0
   69.8320   50.4150   51.9726 N   0  0  0  0  0  0  0  0  0  0  0  0
   69.4430   49.8591   53.0976 C   0  0  0  0  0  0  0  0  0  0  0  0
   69.4343   48.5123   52.8748 N   0  0  0  0  0  0  0  0  0  0  0  0
   69.0742   47.5416   53.8233 C   0  0  0  0  0  0  0  0  0  0  0  0
   68.5559   46.4230   53.2229 C   0  0  0  0  0  0  0  0  0  0  0  0
   68.1752   45.3560   54.0299 C   0  0  0  0  0  0  0  0  0  0  0  0
   68.2887   45.3603   55.4045 C   0  0  0  0  0  0  0  0  0  0  0  0
   68.8089   46.4959   55.9823 C   0  0  0  0  0  0  0  0  0  0  0  0
   69.2069   47.5946   55.2109 C   0  0  0  0  0  0  0  0  0  0  0  0
   69.6973   48.6693   56.0645 C   0  0  0  0  0  0  0  0  0  0  0  0
   70.0884   49.9278   55.4130 C   0  0  0  0  0  0  0  0  0  0  0  0
   69.1049   50.5150   54.4203 C   0  0  0  0  0  0  0  0  0  0  0  0
   67.8886   44.2580   56.1475 O   0  0  0  0  0  0  0  0  0  0  0  0
   68.5269   43.0631   56.3427 C   0  0  0  0  0  0  0  0  0  0  0  0
   69.6726   43.0363   57.2464 C   0  0  0  0  0  0  0  0  0  0  0  0
   70.4593   42.1059   57.6947 C   0  0  0  0  0  0  0  0  0  0  0  0
   71.4151   42.9084   58.0225 C   0  0  0  0  0  0  0  0  0  0  0  0
   72.7461   42.7890   58.2624 F   0  0  0  0  0  0  0  0  0  0  0  0
   70.4376   44.0396   58.0267 C   0  0  0  0  0  0  0  0  0  0  0  0
  1  2  2  0
  2  3  1  0
  2  6  1  0
  3  4  1  0
  4  5  2  0
  5  6  1  0
  5 15  1  0
  6  7  1  0
  7  8  2  0
  7 12  1  0
  8  9  1  0
  9 10  2  0
 10 16  1  0
 10 11  1  0
 16 17  1  0
 17 18  1  0
 18 19  2  0
 18 22  1  0
 19 20  2  0
 20 21  1  0
 20 22  1  0
 11 12  2  0
 12 13  1  0
 13 14  1  0
 14 15  1  0
M  END
>  <minimizedAffinity>  (146) 
-8.68817

$$$$
cs_full_output_folder/data/smiles/8989.pdb
     RDKit          3D

 21 23  0  0  0  0  0  0  0  0999 V2000
   70.5536   48.6303   50.9730 O   0  0  0  0  0  0  0  0  0  0  0  0
   70.2214   48.6575   52.1838 C   0  0  0  0  0  0  0  0  0  0  0  0
   70.7300   49.5442   53.0548 N   0  0  0  0  0  0  0  0  0  0  0  0
   70.3444   49.5295   54.3177 N   0  0  0  0  0  0  0  0  0  0  0  0
   69.4418   48.6580   54.8291 C   0  0  0  0  0  0  0  0  0  0  0  0
   68.9156   47.7419   53.9424 C   0  0  0  0  0  0  0  0  0  0  0  0
   68.0014   46.7853   54.3524 C   0  0  0  0  0  0  0  0  0  0  0  0
   67.5041   45.8753   53.4571 C   0  0  0  0  0  0  0  0  0  0  0  0
   67.8687   45.8468   52.1262 C   0  0  0  0  0  0  0  0  0  0  0  0
   68.7794   46.7895   51.7001 C   0  0  0  0  0  0  0  0  0  0  0  0
   69.2858   47.7177   52.6158 C   0  0  0  0  0  0  0  0  0  0  0  0
   69.0164   48.7451   56.2295 C   0  0  0  0  0  0  0  0  0  0  0  0
   69.7803   47.9670   57.1981 C   0  0  0  0  0  0  0  0  0  0  0  0
   70.7567   48.6934   57.9242 C   0  0  0  0  0  0  0  0  0  0  0  0
   71.5533   48.0835   58.8583 C   0  0  0  0  0  0  0  0  0  0  0  0
   71.4231   46.7406   59.1157 C   0  0  0  0  0  0  0  0  0  0  0  0
   72.2159   46.1146   60.0490 F   0  0  0  0  0  0  0  0  0  0  0  0
   70.4762   46.0208   58.4158 C   0  0  0  0  0  0  0  0  0  0  0  0
   69.6637   46.6380   57.4630 C   0  0  0  0  0  0  0  0  0  0  0  0
   70.2676   44.6372   58.6112 N   0  0  0  0  0  0  0  0  0  0  0  0
   69.4807   44.2144   59.6106 O   0  0  0  0  0  0  0  0  0  0  0  0
  1  2  2  0
  2  3  1  0
  2 11  1  0
  3  4  1  0
  4  5  2  0
  5 12  1  0
  5  6  1  0
 12 13  1  0
 13 14  2  0
 13 19  1  0
 14 15  1  0
 15 16  2  0
 16 17  1  0
 16 18  1  0
 18 20  1  0
 18 19  2  0
 20 21  1  0
  6  7  1  0
  6 11  2  0
  7  8  2  0
  8  9  1  0
  9 10  2  0
 10 11  1  0
M  END
>  <minimizedAffinity>  (147) 
-8.68532

$$$$
cs_full_output_folder/data/smiles/1648.pdb
     RDKit          3D

 21 23  0  0  0  0  0  0  0  0999 V2000
   68.1728   45.8511   55.9195 N   0  0  0  0  0  0  0  0  0  0  0  0
   69.2093   47.7865   52.8898 C   0  0  0  0  0  0  0  0  0  0  0  0
   68.6736   47.0040   51.8992 C   0  0  0  0  0  0  0  0  0  0  0  0
   67.9944   45.8632   52.2588 C   0  0  0  0  0  0  0  0  0  0  0  0
   67.8251   45.4685   53.5496 C   0  0  0  0  0  0  0  0  0  0  0  0
   68.3668   46.2551   54.5925 C   0  0  0  0  0  0  0  0  0  0  0  0
   69.0400   47.3878   54.2097 C   0  0  0  0  0  0  0  0  0  0  0  0
   69.3226   50.6391   53.1651 N   0  0  0  0  0  0  0  0  0  0  0  0
   70.0675   49.2362   52.4854 S   0  0  0  0  0  0  0  0  0  0  0  0
   69.9847   49.4055   50.9739 O   0  0  0  0  0  0  0  0  0  0  0  0
   71.4968   49.0949   52.8437 O   0  0  0  0  0  0  0  0  0  0  0  0
   68.9532   44.9260   56.6288 C   0  0  0  0  0  0  0  0  0  0  0  0
   70.1640   45.3507   57.2186 C   0  0  0  0  0  0  0  0  0  0  0  0
   70.9462   44.4830   57.9243 C   0  0  0  0  0  0  0  0  0  0  0  0
   70.5720   43.1682   58.0788 C   0  0  0  0  0  0  0  0  0  0  0  0
   69.3817   42.7400   57.5014 C   0  0  0  0  0  0  0  0  0  0  0  0
   68.6555   43.6323   56.8218 N   0  0  0  0  0  0  0  0  0  0  0  0
   68.9817   41.3435   57.6616 C   0  0  0  0  0  0  0  0  0  0  0  0
   67.9967   40.6289   57.1449 C   0  0  0  0  0  0  0  0  0  0  0  0
   68.3912   39.4346   57.8474 C   0  0  0  0  0  0  0  0  0  0  0  0
   69.3916   40.1521   58.3748 C   0  0  0  0  0  0  0  0  0  0  0  0
  8  9  1  0
  9 10  2  0
  9 11  2  0
  9  2  1  0
  2  3  2  0
  2  7  1  0
  3  4  1  0
  4  5  2  0
  5  6  1  0
  6  1  1  0
  6  7  2  0
  1 12  1  0
 12 13  2  0
 12 17  1  0
 13 14  1  0
 14 15  2  0
 15 16  1  0
 16 18  1  0
 16 17  2  0
 18 19  2  0
 18 21  1  0
 19 20  1  0
 20 21  2  0
M  END
>  <minimizedAffinity>  (148) 
-8.68427

$$$$
cs_full_output_folder/data/smiles/3899.pdb
     RDKit          3D

 21 23  0  0  0  0  0  0  0  0999 V2000
   69.1332   45.2647   56.6746 C   0  0  0  0  0  0  0  0  0  0  0  0
   70.2083   45.8038   57.2704 N   0  0  0  0  0  0  0  0  0  0  0  0
   71.0915   45.1483   58.0153 C   0  0  0  0  0  0  0  0  0  0  0  0
   70.8696   43.7791   58.1838 C   0  0  0  0  0  0  0  0  0  0  0  0
   69.7844   43.1675   57.5978 C   0  0  0  0  0  0  0  0  0  0  0  0
   68.9600   43.9336   56.8666 N   0  0  0  0  0  0  0  0  0  0  0  0
   69.5610   41.7432   57.7788 C   0  0  0  0  0  0  0  0  0  0  0  0
   68.4125   41.0917   57.4346 C   0  0  0  0  0  0  0  0  0  0  0  0
   68.2394   39.7308   57.6229 C   0  0  0  0  0  0  0  0  0  0  0  0
   69.2813   39.0270   58.1813 C   0  0  0  0  0  0  0  0  0  0  0  0
   70.4711   39.6398   58.5500 C   0  0  0  0  0  0  0  0  0  0  0  0
   70.5788   40.9972   58.3354 C   0  0  0  0  0  0  0  0  0  0  0  0
   68.2254   45.9956   55.8958 N   0  0  0  0  0  0  0  0  0  0  0  0
   69.1242   47.5427   52.6569 C   0  0  0  0  0  0  0  0  0  0  0  0
   68.4722   46.7686   51.7261 C   0  0  0  0  0  0  0  0  0  0  0  0
   67.7227   45.7204   52.1885 C   0  0  0  0  0  0  0  0  0  0  0  0
   67.6346   45.4606   53.5632 C   0  0  0  0  0  0  0  0  0  0  0  0
   68.2746   46.2175   54.5132 C   0  0  0  0  0  0  0  0  0  0  0  0
   69.0343   47.2844   53.9970 C   0  0  0  0  0  0  0  0  0  0  0  0
   70.5378   48.2208   50.9428 O   0  0  0  0  0  0  0  0  0  0  0  0
   69.9468   48.6936   52.1334 C   0  0  0  0  0  0  0  0  0  0  0  0
 20 21  1  0
 21 14  1  0
 14 15  2  0
 14 19  1  0
 15 16  1  0
 16 17  2  0
 17 18  1  0
 18 13  1  0
 18 19  2  0
 13  1  1  0
  1  2  2  0
  1  6  1  0
  2  3  1  0
  3  4  2  0
  4  5  1  0
  5  7  1  0
  5  6  2  0
  7  8  2  0
  7 12  1  0
  8  9  1  0
  9 10  2  0
 10 11  1  0
 11 12  2  0
M  END
>  <minimizedAffinity>  (149) 
-8.68342

$$$$
cs_full_output_folder/data/smiles/4422.pdb
     RDKit          3D

 22 24  0  0  0  0  0  0  0  0999 V2000
   68.6867   44.4305   56.4039 C   0  0  0  0  0  0  0  0  0  0  0  0
   69.9109   44.0490   56.9053 C   0  0  0  0  0  0  0  0  0  0  0  0
   70.2129   42.7557   57.2544 C   0  0  0  0  0  0  0  0  0  0  0  0
   69.2489   41.8312   57.0908 N   0  0  0  0  0  0  0  0  0  0  0  0
   68.0315   42.1671   56.6010 C   0  0  0  0  0  0  0  0  0  0  0  0
   67.7578   43.4334   56.2670 N   0  0  0  0  0  0  0  0  0  0  0  0
   71.4978   42.3179   57.7906 C   0  0  0  0  0  0  0  0  0  0  0  0
   71.6353   41.2049   58.5861 C   0  0  0  0  0  0  0  0  0  0  0  0
   72.8860   40.8128   59.0794 C   0  0  0  0  0  0  0  0  0  0  0  0
   74.0262   41.5241   58.7897 C   0  0  0  0  0  0  0  0  0  0  0  0
   73.8981   42.6419   57.9924 C   0  0  0  0  0  0  0  0  0  0  0  0
   72.6628   43.0173   57.5127 C   0  0  0  0  0  0  0  0  0  0  0  0
   68.3567   45.7613   56.0370 N   0  0  0  0  0  0  0  0  0  0  0  0
   69.1813   47.7709   53.0169 C   0  0  0  0  0  0  0  0  0  0  0  0
   68.6015   47.0037   52.0216 C   0  0  0  0  0  0  0  0  0  0  0  0
   67.9373   45.8439   52.3263 C   0  0  0  0  0  0  0  0  0  0  0  0
   67.8471   45.4360   53.6541 C   0  0  0  0  0  0  0  0  0  0  0  0
   68.4068   46.1609   54.6804 C   0  0  0  0  0  0  0  0  0  0  0  0
   69.0680   47.3333   54.3013 C   0  0  0  0  0  0  0  0  0  0  0  0
   69.4179   50.1869   53.5168 C   0  0  0  0  0  0  0  0  0  0  0  0
   69.9225   49.0347   52.6753 C   0  0  1  0  0  0  0  0  0  0  0  0
   71.2943   48.8831   52.7920 O   0  0  0  0  0  0  0  0  0  0  0  0
 21 20  1  1
 21 22  1  0
 21 14  1  0
 14 15  2  0
 14 19  1  0
 15 16  1  0
 16 17  2  0
 17 18  1  0
 18 13  1  0
 18 19  2  0
 13  1  1  0
  1  2  2  0
  1  6  1  0
  2  3  1  0
  3  7  1  0
  3  4  2  0
  7  8  2  0
  7 12  1  0
  8  9  1  0
  9 10  2  0
 10 11  1  0
 11 12  2  0
  4  5  1  0
  5  6  2  0
M  END
>  <minimizedAffinity>  (150) 
-8.68241

$$$$
cs_full_output_folder/data/smiles/131.pdb
     RDKit          3D

 20 21  0  0  0  0  0  0  0  0999 V2000
   68.1395   44.1198   55.4648 N   0  0  0  0  0  0  0  0  0  0  0  0
   68.2200   45.5061   55.2196 C   0  0  0  0  0  0  0  0  0  0  0  0
   68.1719   46.2795   56.2200 O   0  0  0  0  0  0  0  0  0  0  0  0
   68.3540   46.0709   53.8850 C   0  0  0  0  0  0  0  0  0  0  0  0
   67.5867   45.5330   52.8412 C   0  0  0  0  0  0  0  0  0  0  0  0
   67.6693   46.0251   51.5593 C   0  0  0  0  0  0  0  0  0  0  0  0
   68.5239   47.0694   51.2844 C   0  0  0  0  0  0  0  0  0  0  0  0
   69.3087   47.6430   52.2783 C   0  0  0  0  0  0  0  0  0  0  0  0
   69.1854   47.1084   53.5532 C   0  0  0  0  0  0  0  0  0  0  0  0
   70.1901   48.7161   52.0139 N   0  0  0  0  0  0  0  0  0  0  0  0
   69.9991   49.4271   51.0301 O   0  0  0  0  0  0  0  0  0  0  0  0
   71.2362   48.9486   52.8449 O   0  0  0  0  0  0  0  0  0  0  0  0
   68.0110   43.6163   56.7655 O   0  0  0  0  0  0  0  0  0  0  0  0
   71.5998   39.7333   58.7512 C   0  0  0  0  0  0  0  0  0  0  0  0
   70.6119   40.7166   58.2313 C   0  0  0  0  0  0  0  0  0  0  0  0
   71.0847   41.9800   57.9354 C   0  0  0  0  0  0  0  0  0  0  0  0
   70.1857   42.9107   57.4510 C   0  0  0  0  0  0  0  0  0  0  0  0
   68.8548   42.6352   57.2540 C   0  0  0  0  0  0  0  0  0  0  0  0
   68.4052   41.3560   57.5608 C   0  0  0  0  0  0  0  0  0  0  0  0
   69.2704   40.3932   58.0470 C   0  0  0  0  0  0  0  0  0  0  0  0
 14 15  1  0
 15 16  2  0
 15 20  1  0
 16 17  1  0
 17 18  2  0
 18 13  1  0
 18 19  1  0
 13  1  1  0
  1  2  1  0
  2  3  2  0
  2  4  1  0
  4  5  2  0
  4  9  1  0
  5  6  1  0
  6  7  2  0
  7  8  1  0
  8 10  1  0
  8  9  2  0
 10 11  2  0
 10 12  1  0
 19 20  2  0
M  CHG  2  10   1  12  -1
M  END
>  <minimizedAffinity>  (151) 
-8.68092

$$$$
cs_full_output_folder/data/smiles/672.pdb
     RDKit          3D

 22 24  0  0  0  0  0  0  0  0999 V2000
   69.4971   48.8634   52.4021 C   0  0  0  0  0  0  0  0  0  0  0  0
   70.3601   49.7306   53.1950 C   0  0  0  0  0  0  0  0  0  0  0  0
   71.7154   49.5069   53.2138 N   0  0  0  0  0  0  0  0  0  0  0  0
   72.5351   50.2023   53.9695 N   0  0  0  0  0  0  0  0  0  0  0  0
   72.1305   51.1834   54.7797 C   0  0  0  0  0  0  0  0  0  0  0  0
   72.9302   51.8592   55.5141 O   0  0  0  0  0  0  0  0  0  0  0  0
   70.7856   51.4781   54.8229 C   0  0  0  0  0  0  0  0  0  0  0  0
   70.3067   52.4963   55.6182 C   0  0  0  0  0  0  0  0  0  0  0  0
   68.9674   52.8020   55.6335 C   0  0  0  0  0  0  0  0  0  0  0  0
   68.1167   52.0671   54.8328 C   0  0  0  0  0  0  0  0  0  0  0  0
   68.6045   51.0533   54.0444 C   0  0  0  0  0  0  0  0  0  0  0  0
   69.9247   50.7419   54.0242 C   0  0  0  0  0  0  0  0  0  0  0  0
   68.5025   46.4166   55.1184 C   0  0  0  0  0  0  0  0  0  0  0  0
   67.9241   45.4334   54.3642 C   0  0  0  0  0  0  0  0  0  0  0  0
   67.8392   45.5231   52.9795 C   0  0  0  0  0  0  0  0  0  0  0  0
   68.3578   46.6401   52.3811 C   0  0  0  0  0  0  0  0  0  0  0  0
   68.9636   47.6793   53.1236 C   0  0  0  0  0  0  0  0  0  0  0  0
   69.0249   47.5502   54.4660 C   0  0  0  0  0  0  0  0  0  0  0  0
   68.6047   46.3606   56.5081 O   0  0  0  0  0  0  0  0  0  0  0  0
   69.5101   47.1839   57.2044 C   0  0  0  0  0  0  0  0  0  0  0  0
   69.7821   45.5554   58.8784 O   0  0  0  0  0  0  0  0  0  0  0  0
   70.3429   46.2939   58.0807 C   0  0  0  0  0  0  0  0  0  0  0  0
 21 22  2  0
 22 20  1  0
 20 19  1  0
 19 13  1  0
 13 14  2  0
 13 18  1  0
 14 15  1  0
 15 16  2  0
 16 17  1  0
 17  1  1  0
 17 18  2  0
  1  2  1  0
  2  3  2  0
  2 12  1  0
  3  4  1  0
  4  5  1  0
  5  6  2  0
  5  7  1  0
  7  8  1  0
  7 12  2  0
  8  9  2  0
  9 10  1  0
 10 11  2  0
 11 12  1  0
M  END
>  <minimizedAffinity>  (152) 
-8.68012

$$$$
cs_full_output_folder/data/smiles/13.pdb
     RDKit          3D

 21 23  0  0  0  0  0  0  0  0999 V2000
   70.4270   51.1456   53.3299 O   0  0  0  0  0  0  0  0  0  0  0  0
   70.7670   49.9478   53.6692 C   0  0  0  0  0  0  0  0  0  0  0  0
   71.6321   49.9013   54.7714 N   0  0  0  0  0  0  0  0  0  0  0  0
   70.2292   48.8630   52.8870 C   0  0  0  0  0  0  0  0  0  0  0  0
   70.5101   48.6690   51.5584 N   0  0  0  0  0  0  0  0  0  0  0  0
   69.8743   47.6344   51.0942 N   0  0  0  0  0  0  0  0  0  0  0  0
   69.1241   47.0506   52.0440 C   0  0  0  0  0  0  0  0  0  0  0  0
   68.2806   45.9596   52.0538 C   0  0  0  0  0  0  0  0  0  0  0  0
   67.6277   45.6111   53.2081 C   0  0  0  0  0  0  0  0  0  0  0  0
   67.8453   46.3756   54.3233 C   0  0  0  0  0  0  0  0  0  0  0  0
   68.6932   47.4726   54.3116 C   0  0  0  0  0  0  0  0  0  0  0  0
   69.3538   47.8385   53.1824 C   0  0  0  0  0  0  0  0  0  0  0  0
   72.0915   51.0808   55.4736 C   0  0  0  0  0  0  0  0  0  0  0  0
   71.6748   51.0335   56.9146 C   0  0  0  0  0  0  0  0  0  0  0  0
   70.2034   51.0231   57.0922 C   0  0  0  0  0  0  0  0  0  0  0  0
   69.3781   52.0696   56.7465 C   0  0  0  0  0  0  0  0  0  0  0  0
   67.9930   51.9830   56.9272 C   0  0  0  0  0  0  0  0  0  0  0  0
   67.4119   50.8602   57.4525 C   0  0  0  0  0  0  0  0  0  0  0  0
   66.0665   50.7503   57.6383 F   0  0  0  0  0  0  0  0  0  0  0  0
   68.2335   49.8091   57.8008 C   0  0  0  0  0  0  0  0  0  0  0  0
   69.5919   49.8909   57.6245 C   0  0  0  0  0  0  0  0  0  0  0  0
  1  2  2  0
  2  3  1  0
  2  4  1  0
  3 13  1  0
 13 14  1  0
 14 15  1  0
 15 16  2  0
 15 21  1  0
 16 17  1  0
 17 18  2  0
 18 19  1  0
 18 20  1  0
 20 21  2  0
  4  5  1  0
  4 12  2  0
  5  6  1  0
  6  7  2  0
  7  8  1  0
  7 12  1  0
  8  9  2  0
  9 10  1  0
 10 11  2  0
 11 12  1  0
M  END
>  <minimizedAffinity>  (153) 
-8.67692

$$$$
cs_full_output_folder/data/smiles/7979.pdb
     RDKit          3D

 22 24  0  0  0  0  0  0  0  0999 V2000
   69.8532   51.0222   54.0766 O   0  0  0  0  0  0  0  0  0  0  0  0
   70.7272   50.0268   53.6389 C   0  0  0  0  0  0  0  0  0  0  0  0
   71.9158   50.1150   53.9823 O   0  0  0  0  0  0  0  0  0  0  0  0
   70.2308   48.9363   52.8082 C   0  0  0  0  0  0  0  0  0  0  0  0
   70.4783   48.6807   51.5139 N   0  0  0  0  0  0  0  0  0  0  0  0
   69.8384   47.5948   51.1231 N   0  0  0  0  0  0  0  0  0  0  0  0
   69.1301   47.0747   52.1483 C   0  0  0  0  0  0  0  0  0  0  0  0
   68.3068   45.9752   52.2821 C   0  0  0  0  0  0  0  0  0  0  0  0
   67.7251   45.7273   53.5078 C   0  0  0  0  0  0  0  0  0  0  0  0
   67.9739   46.5764   54.5692 C   0  0  0  0  0  0  0  0  0  0  0  0
   68.7918   47.6663   54.4334 C   0  0  0  0  0  0  0  0  0  0  0  0
   69.3784   47.9257   53.2192 C   0  0  0  0  0  0  0  0  0  0  0  0
   70.2829   52.2930   54.4603 C   0  0  0  0  0  0  0  0  0  0  0  0
   69.7874   52.6202   55.8091 C   0  0  0  0  0  0  0  0  0  0  0  0
   69.9809   53.8483   56.1813 O   0  0  0  0  0  0  0  0  0  0  0  0
   66.4768   49.5601   58.1991 C   0  0  0  0  0  0  0  0  0  0  0  0
   67.7139   50.3030   57.8437 C   0  0  0  0  0  0  0  0  0  0  0  0
   67.8553   51.2008   56.7728 C   0  0  0  0  0  0  0  0  0  0  0  0
   69.1258   51.7120   56.7277 C   0  0  0  0  0  0  0  0  0  0  0  0
   69.7704   51.0992   57.8077 C   0  0  0  0  0  0  0  0  0  0  0  0
   71.1887   51.3184   58.2012 C   0  0  0  0  0  0  0  0  0  0  0  0
   68.9139   50.2789   58.4404 N   0  0  0  0  0  0  0  0  0  0  0  0
 16 17  1  0
 17 18  2  0
 17 22  1  0
 18 19  1  0
 19 14  1  0
 19 20  2  0
 14 15  2  0
 14 13  1  0
 13  1  1  0
  1  2  1  0
  2  3  2  0
  2  4  1  0
  4  5  2  0
  4 12  1  0
  5  6  1  0
  6  7  1  0
  7  8  1  0
  7 12  2  0
  8  9  2  0
  9 10  1  0
 10 11  2  0
 11 12  1  0
 20 21  1  0
 20 22  1  0
M  END
>  <minimizedAffinity>  (154) 
-8.67656

$$$$
cs_full_output_folder/data/smiles/1577.pdb
     RDKit          3D

 20 21  0  0  0  0  0  0  0  0999 V2000
   68.0685   44.1553   55.4751 N   0  0  0  0  0  0  0  0  0  0  0  0
   68.2241   45.5389   55.2145 C   0  0  0  0  0  0  0  0  0  0  0  0
   68.2285   46.2873   56.2393 O   0  0  0  0  0  0  0  0  0  0  0  0
   68.3734   46.1027   53.8762 C   0  0  0  0  0  0  0  0  0  0  0  0
   67.6430   45.5411   52.8451 C   0  0  0  0  0  0  0  0  0  0  0  0
   67.7213   46.0083   51.5491 C   0  0  0  0  0  0  0  0  0  0  0  0
   68.5571   47.0732   51.2662 C   0  0  0  0  0  0  0  0  0  0  0  0
   69.2974   47.6521   52.2755 C   0  0  0  0  0  0  0  0  0  0  0  0
   69.1854   47.1451   53.5763 C   0  0  0  0  0  0  0  0  0  0  0  0
   70.1702   48.7493   52.0360 N   0  0  0  0  0  0  0  0  0  0  0  0
   69.9736   49.5060   51.0686 O   0  0  0  0  0  0  0  0  0  0  0  0
   71.2297   48.9725   52.8774 O   0  0  0  0  0  0  0  0  0  0  0  0
   67.9284   43.6160   56.7274 O   0  0  0  0  0  0  0  0  0  0  0  0
   71.8462   39.9852   58.7350 C   0  0  0  0  0  0  0  0  0  0  0  0
   70.8385   40.9510   58.2084 C   0  0  0  0  0  0  0  0  0  0  0  0
   71.1693   42.2471   57.8721 C   0  0  0  0  0  0  0  0  0  0  0  0
   70.2114   43.1160   57.3874 C   0  0  0  0  0  0  0  0  0  0  0  0
   68.8935   42.7420   57.2149 C   0  0  0  0  0  0  0  0  0  0  0  0
   68.5674   41.4439   57.5530 C   0  0  0  0  0  0  0  0  0  0  0  0
   69.5222   40.5739   58.0373 C   0  0  0  0  0  0  0  0  0  0  0  0
 14 15  1  0
 15 16  2  0
 15 20  1  0
 16 17  1  0
 17 18  2  0
 18 13  1  0
 18 19  1  0
 13  1  1  0
  1  2  1  0
  2  3  2  0
  2  4  1  0
  4  5  2  0
  4  9  1  0
  5  6  1  0
  6  7  2  0
  7  8  1  0
  8 10  1  0
  8  9  2  0
 10 11  2  0
 10 12  1  0
 19 20  2  0
M  CHG  2  10   1  12  -1
M  END
>  <minimizedAffinity>  (155) 
-8.67493

$$$$
cs_full_output_folder/data/smiles/3051.pdb
     RDKit          3D

 20 22  0  0  0  0  0  0  0  0999 V2000
   71.2108   44.0142   58.9474 O   0  0  0  0  0  0  0  0  0  0  0  0
   70.5886   44.8523   58.2481 C   0  0  0  0  0  0  0  0  0  0  0  0
   69.6794   44.4448   57.3282 N   0  0  0  0  0  0  0  0  0  0  0  0
   69.0090   45.2777   56.5788 N   0  0  0  0  0  0  0  0  0  0  0  0
   69.1730   46.6321   56.6643 C   0  0  0  0  0  0  0  0  0  0  0  0
   70.0910   47.0741   57.5899 C   0  0  0  0  0  0  0  0  0  0  0  0
   70.8037   46.1999   58.3852 C   0  0  0  0  0  0  0  0  0  0  0  0
   71.7609   46.7727   59.3509 C   0  0  0  0  0  0  0  0  0  0  0  0
   72.5908   47.7582   58.5144 C   0  0  0  0  0  0  0  0  0  0  0  0
   71.6932   48.9142   58.1999 C   0  0  0  0  0  0  0  0  0  0  0  0
   70.3269   48.5184   57.7182 C   0  0  0  0  0  0  0  0  0  0  0  0
   68.3808   47.5445   55.8237 C   0  0  0  0  0  0  0  0  0  0  0  0
   68.5725   47.3572   54.3673 C   0  0  0  0  0  0  0  0  0  0  0  0
   67.9084   46.2767   53.7721 C   0  0  0  0  0  0  0  0  0  0  0  0
   68.0339   46.0126   52.4189 C   0  0  0  0  0  0  0  0  0  0  0  0
   68.8186   46.8087   51.6130 C   0  0  0  0  0  0  0  0  0  0  0  0
   69.4793   47.8753   52.1824 C   0  0  0  0  0  0  0  0  0  0  0  0
   69.3459   48.1337   53.5492 C   0  0  0  0  0  0  0  0  0  0  0  0
   70.2969   48.7159   51.3761 N   0  0  0  0  0  0  0  0  0  0  0  0
   69.8356   49.8918   50.8980 O   0  0  0  0  0  0  0  0  0  0  0  0
  1  2  2  0
  2  3  1  0
  2  7  1  0
  3  4  1  0
  4  5  2  0
  5 12  1  0
  5  6  1  0
 12 13  1  0
 13 14  2  0
 13 18  1  0
 14 15  1  0
 15 16  2  0
 16 17  1  0
 17 19  1  0
 17 18  2  0
 19 20  1  0
  6  7  2  0
  6 11  1  0
  7  8  1  0
  8  9  1  0
  9 10  1  0
 10 11  1  0
M  END
>  <minimizedAffinity>  (156) 
-8.66791

$$$$
cs_full_output_folder/data/smiles/10.pdb
     RDKit          3D

 20 21  0  0  0  0  0  0  0  0999 V2000
   68.5987   45.8406   55.6184 C   0  0  0  0  0  0  0  0  0  0  0  0
   69.0510   46.4827   56.5679 N   0  0  0  0  0  0  0  0  0  0  0  0
   69.3979   47.6938   52.4414 C   0  0  0  0  0  0  0  0  0  0  0  0
   68.5562   47.0636   51.5931 C   0  0  0  0  0  0  0  0  0  0  0  0
   67.7487   46.0648   52.0405 C   0  0  0  0  0  0  0  0  0  0  0  0
   67.7793   45.6912   53.3494 C   0  0  0  0  0  0  0  0  0  0  0  0
   68.6282   46.3099   54.2656 C   0  0  0  0  0  0  0  0  0  0  0  0
   69.4239   47.3009   53.7956 C   0  0  0  0  0  0  0  0  0  0  0  0
   70.0037   49.3746   50.9631 O   0  0  0  0  0  0  0  0  0  0  0  0
   70.2633   48.7554   51.9883 N   0  0  0  0  0  0  0  0  0  0  0  0
   71.3793   49.0719   52.7078 O   0  0  0  0  0  0  0  0  0  0  0  0
   67.9889   44.5367   55.9147 N   0  0  0  0  0  0  0  0  0  0  0  0
   68.6908   43.7662   56.8055 O   0  0  0  0  0  0  0  0  0  0  0  0
   69.6676   47.6823   56.8076 C   0  0  0  0  0  0  0  0  0  0  0  0
   68.6307   48.7381   57.0845 C   0  0  0  0  0  0  0  0  0  0  0  0
   68.8086   50.0702   56.8062 C   0  0  0  0  0  0  0  0  0  0  0  0
   67.8158   51.0118   57.0907 C   0  0  0  0  0  0  0  0  0  0  0  0
   66.6278   50.6195   57.6613 C   0  0  0  0  0  0  0  0  0  0  0  0
   66.4264   49.2884   57.9492 C   0  0  0  0  0  0  0  0  0  0  0  0
   67.4323   48.3567   57.6585 C   0  0  0  0  0  0  0  0  0  0  0  0
  9 10  2  0
 10 11  1  0
 10  3  1  0
  3  4  2  0
  3  8  1  0
  4  5  1  0
  5  6  2  0
  6  7  1  0
  7  1  1  0
  7  8  2  0
  1  2  2  0
  1 12  1  0
  2 14  1  0
 14 15  1  0
 15 16  2  0
 15 20  1  0
 16 17  1  0
 17 18  2  0
 18 19  1  0
 19 20  2  0
 12 13  1  0
M  CHG  3   2   1  10   1  11  -1
M  END
>  <minimizedAffinity>  (157) 
-8.66289

$$$$
cs_full_output_folder/data/smiles/8201.pdb
     RDKit          3D

 22 24  0  0  0  0  0  0  0  0999 V2000
   69.8889   48.4589   56.3752 C   0  0  0  0  0  0  0  0  0  0  0  0
   69.9924   48.5134   54.9485 C   0  0  0  0  0  0  0  0  0  0  0  0
   70.8297   49.3641   54.3397 N   0  0  0  0  0  0  0  0  0  0  0  0
   71.0286   49.4446   53.0338 N   0  0  0  0  0  0  0  0  0  0  0  0
   70.3786   48.6490   52.1768 C   0  0  0  0  0  0  0  0  0  0  0  0
   70.5395   48.6924   50.9162 O   0  0  0  0  0  0  0  0  0  0  0  0
   69.4812   47.7260   52.6911 C   0  0  0  0  0  0  0  0  0  0  0  0
   68.7723   46.9177   51.8275 C   0  0  0  0  0  0  0  0  0  0  0  0
   67.8670   46.0447   52.3881 C   0  0  0  0  0  0  0  0  0  0  0  0
   67.6654   45.9721   53.7591 C   0  0  0  0  0  0  0  0  0  0  0  0
   68.3954   46.7992   54.5915 C   0  0  0  0  0  0  0  0  0  0  0  0
   69.2983   47.6693   54.0682 C   0  0  0  0  0  0  0  0  0  0  0  0
   68.6481   50.4852   57.0906 C   0  0  0  0  0  0  0  0  0  0  0  0
   67.5367   51.1085   57.6169 C   0  0  0  0  0  0  0  0  0  0  0  0
   66.4036   50.4048   57.9966 C   0  0  0  0  0  0  0  0  0  0  0  0
   66.4441   49.0466   57.8195 C   0  0  0  0  0  0  0  0  0  0  0  0
   67.5574   48.3907   57.2883 C   0  0  0  0  0  0  0  0  0  0  0  0
   68.6828   49.0910   56.9145 C   0  0  0  0  0  0  0  0  0  0  0  0
   71.0844   52.9212   55.3761 C   0  0  0  0  0  0  0  0  0  0  0  0
   69.7630   52.2942   55.7256 C   0  0  0  0  0  0  0  0  0  0  0  0
   68.6954   52.7149   55.2503 O   0  0  0  0  0  0  0  0  0  0  0  0
   69.7579   51.2163   56.6124 N   0  0  0  0  0  0  0  0  0  0  0  0
 19 20  1  0
 20 21  2  0
 20 22  1  0
 22 13  1  0
 13 14  2  0
 13 18  1  0
 14 15  1  0
 15 16  2  0
 16 17  1  0
 17 18  2  0
 18  1  1  0
  1  2  1  0
  2  3  2  0
  2 12  1  0
  3  4  1  0
  4  5  1  0
  5  6  2  0
  5  7  1  0
  7  8  1  0
  7 12  2  0
  8  9  2  0
  9 10  1  0
 10 11  2  0
 11 12  1  0
M  END
>  <minimizedAffinity>  (158) 
-8.65849

$$$$
cs_full_output_folder/data/smiles/6972.pdb
     RDKit          3D

 19 21  0  0  0  0  0  0  0  0999 V2000
   69.7676   48.2625   54.8020 C   0  0  0  0  0  0  0  0  0  0  0  0
   70.6991   49.0976   54.3461 N   0  0  0  0  0  0  0  0  0  0  0  0
   70.9687   49.1873   53.0581 N   0  0  0  0  0  0  0  0  0  0  0  0
   70.3291   48.4517   52.1348 C   0  0  0  0  0  0  0  0  0  0  0  0
   70.5949   48.5439   50.8994 O   0  0  0  0  0  0  0  0  0  0  0  0
   69.3464   47.5564   52.5119 C   0  0  0  0  0  0  0  0  0  0  0  0
   68.6683   46.7853   51.5799 C   0  0  0  0  0  0  0  0  0  0  0  0
   67.7035   45.9251   52.0608 C   0  0  0  0  0  0  0  0  0  0  0  0
   67.4296   45.8397   53.4142 C   0  0  0  0  0  0  0  0  0  0  0  0
   68.1021   46.6026   54.3287 C   0  0  0  0  0  0  0  0  0  0  0  0
   69.0734   47.4739   53.8749 C   0  0  0  0  0  0  0  0  0  0  0  0
   69.4868   48.1741   56.2353 C   0  0  0  0  0  0  0  0  0  0  0  0
   68.5365   52.8337   56.8838 O   0  0  0  0  0  0  0  0  0  0  0  0
   68.2249   51.6196   57.0379 C   0  0  0  0  0  0  0  0  0  0  0  0
   69.0524   50.6150   56.5334 C   0  0  0  0  0  0  0  0  0  0  0  0
   68.6799   49.3099   56.7219 C   0  0  0  0  0  0  0  0  0  0  0  0
   67.5155   49.0458   57.3940 C   0  0  0  0  0  0  0  0  0  0  0  0
   66.7240   50.0776   57.8774 C   0  0  0  0  0  0  0  0  0  0  0  0
   67.0843   51.3535   57.6956 N   0  0  0  0  0  0  0  0  0  0  0  0
 13 14  2  0
 14 15  1  0
 14 19  1  0
 15 16  2  0
 16 12  1  0
 16 17  1  0
 12  1  1  0
  1  2  2  0
  1 11  1  0
  2  3  1  0
  3  4  1  0
  4  5  2  0
  4  6  1  0
  6  7  1  0
  6 11  2  0
  7  8  2  0
  8  9  1  0
  9 10  2  0
 10 11  1  0
 17 18  2  0
 18 19  1  0
M  END
>  <minimizedAffinity>  (159) 
-8.65379

$$$$
cs_full_output_folder/data/smiles/4971.pdb
     RDKit          3D

 20 21  0  0  0  0  0  0  0  0999 V2000
   70.2467   48.4366   52.1132 C   0  0  0  0  0  0  0  0  0  0  0  0
   70.4138   48.8696   50.9516 O   0  0  0  0  0  0  0  0  0  0  0  0
   69.3208   47.4049   52.5062 C   0  0  0  0  0  0  0  0  0  0  0  0
   68.4766   46.7496   51.6091 C   0  0  0  0  0  0  0  0  0  0  0  0
   67.5899   45.8414   52.0036 C   0  0  0  0  0  0  0  0  0  0  0  0
   66.6930   45.1260   51.1389 O   0  0  0  0  0  0  0  0  0  0  0  0
   67.3961   45.4392   53.3448 C   0  0  0  0  0  0  0  0  0  0  0  0
   68.2544   46.1041   54.2559 C   0  0  0  0  0  0  0  0  0  0  0  0
   69.1602   47.0333   53.8349 C   0  0  0  0  0  0  0  0  0  0  0  0
   68.0869   45.7618   55.6263 N   0  0  0  0  0  0  0  0  0  0  0  0
   68.1251   44.6102   56.0416 O   0  0  0  0  0  0  0  0  0  0  0  0
   71.0456   49.0654   53.0563 O   0  0  0  0  0  0  0  0  0  0  0  0
   69.7589   52.0715   55.6518 C   0  0  0  0  0  0  0  0  0  0  0  0
   70.6519   51.1426   56.1043 C   0  0  0  0  0  0  0  0  0  0  0  0
   71.1194   50.1177   55.2742 C   0  0  0  0  0  0  0  0  0  0  0  0
   70.7078   49.9943   53.9881 C   0  0  0  0  0  0  0  0  0  0  0  0
   69.8002   50.9384   53.5274 C   0  0  0  0  0  0  0  0  0  0  0  0
   69.3187   51.9723   54.3357 C   0  0  0  0  0  0  0  0  0  0  0  0
   69.8022   54.2380   56.6840 C   0  0  0  0  0  0  0  0  0  0  0  0
   69.2573   53.1770   56.5145 C   0  0  0  0  0  0  0  0  0  0  0  0
 19 20  2  0
 20 13  1  0
 13 14  2  0
 13 18  1  0
 14 15  1  0
 15 16  2  0
 16 12  1  0
 16 17  1  0
 12  1  1  0
  1  2  2  0
  1  3  1  0
  3  4  2  0
  3  9  1  0
  4  5  1  0
  5  6  1  0
  5  7  2  0
  7  8  1  0
  8 10  1  0
  8  9  2  0
 10 11  2  0
 17 18  2  0
M  END
>  <minimizedAffinity>  (160) 
-8.65318

$$$$
cs_full_output_folder/data/smiles/4850.pdb
     RDKit          3D

 22 24  0  0  0  0  0  0  0  0999 V2000
   69.2567   45.4663   56.8170 C   0  0  0  0  0  0  0  0  0  0  0  0
   70.3923   45.9296   57.3495 N   0  0  0  0  0  0  0  0  0  0  0  0
   71.2501   45.0933   58.0116 C   0  0  0  0  0  0  0  0  0  0  0  0
   70.9568   43.7905   58.1329 N   0  0  0  0  0  0  0  0  0  0  0  0
   69.8280   43.3181   57.6059 C   0  0  0  0  0  0  0  0  0  0  0  0
   68.9785   44.1587   56.9496 N   0  0  0  0  0  0  0  0  0  0  0  0
   69.5171   41.9034   57.7189 C   0  0  0  0  0  0  0  0  0  0  0  0
   70.4045   41.0540   58.3164 C   0  0  0  0  0  0  0  0  0  0  0  0
   70.1295   39.7178   58.4327 C   0  0  0  0  0  0  0  0  0  0  0  0
   68.9570   39.1671   57.9590 C   0  0  0  0  0  0  0  0  0  0  0  0
   68.0617   40.0147   57.3589 C   0  0  0  0  0  0  0  0  0  0  0  0
   68.3498   41.3714   57.2440 C   0  0  0  0  0  0  0  0  0  0  0  0
   68.3514   46.2753   56.1049 N   0  0  0  0  0  0  0  0  0  0  0  0
   69.2307   47.8857   52.8734 C   0  0  0  0  0  0  0  0  0  0  0  0
   68.6700   46.9763   51.9940 C   0  0  0  0  0  0  0  0  0  0  0  0
   68.0008   45.8325   52.4328 C   0  0  0  0  0  0  0  0  0  0  0  0
   67.9130   45.6348   53.7871 C   0  0  0  0  0  0  0  0  0  0  0  0
   68.4540   46.5093   54.7105 C   0  0  0  0  0  0  0  0  0  0  0  0
   69.1087   47.6292   54.2388 C   0  0  0  0  0  0  0  0  0  0  0  0
   69.5438   50.3275   53.2403 C   0  0  0  0  0  0  0  0  0  0  0  0
   69.9391   49.0935   52.4496 C   0  0  1  0  0  0  0  0  0  0  0  0
   71.3080   48.8704   52.7018 O   0  0  0  0  0  0  0  0  0  0  0  0
 21 20  1  1
 21 22  1  0
 21 14  1  0
 14 15  2  0
 14 19  1  0
 15 16  1  0
 16 17  2  0
 17 18  1  0
 18 13  1  0
 18 19  2  0
 13  1  1  0
  1  2  2  0
  1  6  1  0
  2  3  1  0
  3  4  2  0
  4  5  1  0
  5  7  1  0
  5  6  2  0
  7  8  2  0
  7 12  1  0
  8  9  1  0
  9 10  2  0
 10 11  1  0
 11 12  2  0
M  END
>  <minimizedAffinity>  (161) 
-8.65174

$$$$
cs_full_output_folder/data/smiles/4657.pdb
     RDKit          3D

 21 23  0  0  0  0  0  0  0  0999 V2000
   68.8818   49.2348   55.8853 C   0  0  0  0  0  0  0  0  0  0  0  0
   67.9213   48.8909   56.8665 C   0  0  0  0  0  0  0  0  0  0  0  0
   67.3532   49.7763   57.7202 C   0  0  0  0  0  0  0  0  0  0  0  0
   66.4108   49.3732   58.6666 O   0  0  0  0  0  0  0  0  0  0  0  0
   67.7001   51.0892   57.6639 C   0  0  0  0  0  0  0  0  0  0  0  0
   68.6283   51.5048   56.7366 C   0  0  0  0  0  0  0  0  0  0  0  0
   68.9829   52.8414   56.6751 C   0  0  0  0  0  0  0  0  0  0  0  0
   69.9133   53.2559   55.7440 C   0  0  0  0  0  0  0  0  0  0  0  0
   70.4938   52.3608   54.8725 C   0  0  0  0  0  0  0  0  0  0  0  0
   70.1281   51.0212   54.9451 C   0  0  0  0  0  0  0  0  0  0  0  0
   69.2130   50.5914   55.8567 C   0  0  0  0  0  0  0  0  0  0  0  0
   69.4105   48.2685   55.0546 N   0  0  0  0  0  0  0  0  0  0  0  0
   69.3052   47.7142   52.6348 C   0  0  0  0  0  0  0  0  0  0  0  0
   68.7505   46.8726   51.6564 C   0  0  0  0  0  0  0  0  0  0  0  0
   67.8726   45.8645   51.9661 C   0  0  0  0  0  0  0  0  0  0  0  0
   67.5248   45.6748   53.2803 C   0  0  0  0  0  0  0  0  0  0  0  0
   68.0531   46.4784   54.2204 C   0  0  0  0  0  0  0  0  0  0  0  0
   68.9621   47.5290   53.9410 C   0  0  0  0  0  0  0  0  0  0  0  0
   71.3380   48.9390   52.7259 O   0  0  0  0  0  0  0  0  0  0  0  0
   70.2352   48.7289   52.2043 C   0  0  0  0  0  0  0  0  0  0  0  0
   69.8473   49.5347   51.1067 O   0  0  0  0  0  0  0  0  0  0  0  0
 19 20  2  0
 20 21  1  0
 20 13  1  0
 13 14  2  0
 13 18  1  0
 14 15  1  0
 15 16  2  0
 16 17  1  0
 17 18  2  0
 18 12  1  0
 12  1  1  0
  1  2  2  0
  1 11  1  0
  2  3  1  0
  3  4  1  0
  3  5  2  0
  5  6  1  0
  6  7  1  0
  6 11  2  0
  7  8  2  0
  8  9  1  0
  9 10  2  0
 10 11  1  0
M  END
>  <minimizedAffinity>  (162) 
-8.65129

$$$$
cs_full_output_folder/data/smiles/694.pdb
     RDKit          3D

 21 23  0  0  0  0  0  0  0  0999 V2000
   71.3219   49.5228   54.7770 O   0  0  0  0  0  0  0  0  0  0  0  0
   71.9481   49.7163   56.8942 O   0  0  0  0  0  0  0  0  0  0  0  0
   71.0154   49.7734   56.0565 C   0  0  0  0  0  0  0  0  0  0  0  0
   69.6797   50.1091   56.5597 C   0  0  0  0  0  0  0  0  0  0  0  0
   69.2369   51.4028   56.6512 C   0  0  0  0  0  0  0  0  0  0  0  0
   67.9674   51.6950   57.1348 C   0  0  0  0  0  0  0  0  0  0  0  0
   67.1005   50.6798   57.5433 C   0  0  0  0  0  0  0  0  0  0  0  0
   65.8757   50.9641   58.0106 F   0  0  0  0  0  0  0  0  0  0  0  0
   67.5521   49.3846   57.4476 C   0  0  0  0  0  0  0  0  0  0  0  0
   66.7186   48.3892   57.8408 F   0  0  0  0  0  0  0  0  0  0  0  0
   68.8196   49.1174   56.9636 C   0  0  0  0  0  0  0  0  0  0  0  0
   70.7895   49.8572   53.5525 C   0  0  0  0  0  0  0  0  0  0  0  0
   70.2523   48.7572   52.7288 C   0  0  0  0  0  0  0  0  0  0  0  0
   70.5677   48.5570   51.4303 N   0  0  0  0  0  0  0  0  0  0  0  0
   69.8965   47.5351   50.9416 N   0  0  0  0  0  0  0  0  0  0  0  0
   69.0989   47.0076   51.9050 C   0  0  0  0  0  0  0  0  0  0  0  0
   68.2258   45.9247   51.8833 C   0  0  0  0  0  0  0  0  0  0  0  0
   67.5796   45.6479   53.0752 C   0  0  0  0  0  0  0  0  0  0  0  0
   67.7901   46.3973   54.2059 C   0  0  0  0  0  0  0  0  0  0  0  0
   68.6596   47.4605   54.1896 C   0  0  0  0  0  0  0  0  0  0  0  0
   69.3318   47.7830   53.0236 C   0  0  0  0  0  0  0  0  0  0  0  0
  2  3  2  0
  3  1  1  0
  3  4  1  0
  1 12  1  0
 12 13  1  0
 13 14  1  0
 13 21  2  0
 14 15  1  0
 15 16  2  0
 16 17  1  0
 16 21  1  0
 17 18  2  0
 18 19  1  0
 19 20  2  0
 20 21  1  0
  4  5  2  0
  4 11  1  0
  5  6  1  0
  6  7  2  0
  7  8  1  0
  7  9  1  0
  9 10  1  0
  9 11  2  0
M  END
>  <minimizedAffinity>  (163) 
-8.64563

$$$$
cs_full_output_folder/data/smiles/5349.pdb
     RDKit          3D

 21 23  0  0  0  0  0  0  0  0999 V2000
   69.0764   45.2559   56.6198 C   0  0  0  0  0  0  0  0  0  0  0  0
   70.1421   45.9093   57.1829 N   0  0  0  0  0  0  0  0  0  0  0  0
   71.0321   45.2503   57.9390 C   0  0  0  0  0  0  0  0  0  0  0  0
   70.9086   43.8782   58.1798 C   0  0  0  0  0  0  0  0  0  0  0  0
   69.8301   43.2384   57.6040 C   0  0  0  0  0  0  0  0  0  0  0  0
   68.9795   43.9584   56.8611 N   0  0  0  0  0  0  0  0  0  0  0  0
   69.6233   41.8082   57.7850 C   0  0  0  0  0  0  0  0  0  0  0  0
   68.4468   41.2125   57.3733 C   0  0  0  0  0  0  0  0  0  0  0  0
   68.1913   39.8515   57.5275 C   0  0  0  0  0  0  0  0  0  0  0  0
   69.1278   39.0290   58.1118 C   0  0  0  0  0  0  0  0  0  0  0  0
   70.3083   39.5974   58.5299 C   0  0  0  0  0  0  0  0  0  0  0  0
   70.5493   40.9684   58.3677 C   0  0  0  0  0  0  0  0  0  0  0  0
   68.2017   46.0024   55.8279 N   0  0  0  0  0  0  0  0  0  0  0  0
   69.1701   47.6238   52.6293 C   0  0  0  0  0  0  0  0  0  0  0  0
   68.5318   46.8287   51.7089 C   0  0  0  0  0  0  0  0  0  0  0  0
   67.7835   45.7687   52.1481 C   0  0  0  0  0  0  0  0  0  0  0  0
   67.6692   45.4981   53.5210 C   0  0  0  0  0  0  0  0  0  0  0  0
   68.2923   46.2710   54.4573 C   0  0  0  0  0  0  0  0  0  0  0  0
   69.0456   47.3418   53.9603 C   0  0  0  0  0  0  0  0  0  0  0  0
   70.4371   48.8015   50.9964 O   0  0  0  0  0  0  0  0  0  0  0  0
   69.9757   48.7632   52.1639 C   0  0  0  0  0  0  0  0  0  0  0  0
 20 21  2  0
 21 14  1  0
 14 15  2  0
 14 19  1  0
 15 16  1  0
 16 17  2  0
 17 18  1  0
 18 13  1  0
 18 19  2  0
 13  1  1  0
  1  2  2  0
  1  6  1  0
  2  3  1  0
  3  4  2  0
  4  5  1  0
  5  7  1  0
  5  6  2  0
  7  8  2  0
  7 12  1  0
  8  9  1  0
  9 10  2  0
 10 11  1  0
 11 12  2  0
M  END
>  <minimizedAffinity>  (164) 
-8.64441

$$$$
cs_full_output_folder/data/smiles/673.pdb
     RDKit          3D

 22 23  0  0  0  0  0  0  0  0999 V2000
   67.8310   43.8369   55.2211 N   0  0  0  0  0  0  0  0  0  0  0  0
   68.1550   45.1990   55.0585 C   0  0  0  0  0  0  0  0  0  0  0  0
   68.3515   45.8782   56.0978 O   0  0  0  0  0  0  0  0  0  0  0  0
   68.2808   45.8849   53.7612 C   0  0  0  0  0  0  0  0  0  0  0  0
   67.5399   45.4889   52.6773 C   0  0  0  0  0  0  0  0  0  0  0  0
   67.6553   46.1209   51.4795 C   0  0  0  0  0  0  0  0  0  0  0  0
   68.5196   47.1937   51.2804 C   0  0  0  0  0  0  0  0  0  0  0  0
   69.2587   47.5835   52.3726 C   0  0  0  0  0  0  0  0  0  0  0  0
   69.1472   46.9449   53.5965 C   0  0  0  0  0  0  0  0  0  0  0  0
   70.1524   48.6741   52.2115 N   0  0  0  0  0  0  0  0  0  0  0  0
   70.1074   49.3504   51.1663 O   0  0  0  0  0  0  0  0  0  0  0  0
   71.0708   49.0282   53.1518 O   0  0  0  0  0  0  0  0  0  0  0  0
   67.5186   41.8363   56.6442 C   0  0  0  0  0  0  0  0  0  0  0  0
   67.4362   41.1566   55.5966 O   0  0  0  0  0  0  0  0  0  0  0  0
   67.7227   43.2291   56.4866 N   0  0  0  0  0  0  0  0  0  0  0  0
   65.6207   41.7840   61.2088 C   0  0  0  0  0  0  0  0  0  0  0  0
   66.4741   41.1471   60.1748 C   0  0  0  0  0  0  0  0  0  0  0  0
   67.1204   39.9654   60.4735 C   0  0  0  0  0  0  0  0  0  0  0  0
   67.9043   39.4029   59.4884 C   0  0  0  0  0  0  0  0  0  0  0  0
   68.0392   39.9979   58.2518 C   0  0  0  0  0  0  0  0  0  0  0  0
   67.4025   41.1760   57.9377 C   0  0  0  0  0  0  0  0  0  0  0  0
   66.6192   41.7315   58.9310 C   0  0  0  0  0  0  0  0  0  0  0  0
 16 17  1  0
 17 18  2  0
 17 22  1  0
 18 19  1  0
 19 20  2  0
 20 21  1  0
 21 13  1  0
 21 22  2  0
 13 14  2  0
 13 15  1  0
 15  1  1  0
  1  2  1  0
  2  3  2  0
  2  4  1  0
  4  5  2  0
  4  9  1  0
  5  6  1  0
  6  7  2  0
  7  8  1  0
  8 10  1  0
  8  9  2  0
 10 11  2  0
 10 12  1  0
M  CHG  2  10   1  12  -1
M  END
>  <minimizedAffinity>  (165) 
-8.64275

$$$$
cs_full_output_folder/data/smiles/8019.pdb
     RDKit          3D

 21 23  0  0  0  0  0  0  0  0999 V2000
   67.4451   47.5822   57.3112 N   0  0  0  0  0  0  0  0  0  0  0  0
   67.8483   48.9028   57.0757 C   0  0  0  0  0  0  0  0  0  0  0  0
   68.8127   49.1795   56.1451 C   0  0  0  0  0  0  0  0  0  0  0  0
   69.1603   50.5122   55.9659 C   0  0  0  0  0  0  0  0  0  0  0  0
   70.1192   50.9051   55.0591 C   0  0  0  0  0  0  0  0  0  0  0  0
   70.4842   52.2206   54.8640 C   0  0  0  0  0  0  0  0  0  0  0  0
   69.8811   53.2177   55.5955 C   0  0  0  0  0  0  0  0  0  0  0  0
   68.9167   52.8464   56.5105 C   0  0  0  0  0  0  0  0  0  0  0  0
   68.5524   51.5158   56.7030 C   0  0  0  0  0  0  0  0  0  0  0  0
   67.6397   51.1769   57.5739 O   0  0  0  0  0  0  0  0  0  0  0  0
   67.2523   49.9477   57.8038 C   0  0  0  0  0  0  0  0  0  0  0  0
   66.3720   49.6820   58.6559 O   0  0  0  0  0  0  0  0  0  0  0  0
   69.4920   48.2205   55.3606 N   0  0  0  0  0  0  0  0  0  0  0  0
   69.0144   47.5321   54.2381 C   0  0  0  0  0  0  0  0  0  0  0  0
   68.1164   46.5482   54.2875 C   0  0  0  0  0  0  0  0  0  0  0  0
   67.8297   46.0424   52.9188 C   0  0  0  0  0  0  0  0  0  0  0  0
   68.6886   46.8841   52.0578 C   0  0  0  0  0  0  0  0  0  0  0  0
   69.3667   47.7370   52.8332 C   0  0  0  0  0  0  0  0  0  0  0  0
   70.2891   48.7125   52.2781 C   0  0  0  0  0  0  0  0  0  0  0  0
   69.9752   49.2959   51.1990 O   0  0  0  0  0  0  0  0  0  0  0  0
   71.4999   49.0770   52.8204 O   0  0  0  0  0  0  0  0  0  0  0  0
  1  2  1  0
  2  3  2  0
  2 11  1  0
  3 13  1  0
  3  4  1  0
 13 14  1  0
 14 15  2  0
 14 18  1  0
 15 16  1  0
 16 17  1  0
 17 18  2  0
 18 19  1  0
 19 20  2  0
 19 21  1  0
  4  5  2  0
  4  9  1  0
  5  6  1  0
  6  7  2  0
  7  8  1  0
  8  9  2  0
  9 10  1  0
 10 11  1  0
 11 12  2  0
M  END
>  <minimizedAffinity>  (166) 
-8.64166

$$$$
cs_full_output_folder/data/smiles/4312.pdb
     RDKit          3D

 22 24  0  0  0  0  0  0  0  0999 V2000
   69.2401   45.3447   56.7239 C   0  0  0  0  0  0  0  0  0  0  0  0
   70.3422   45.9360   57.3149 C   0  0  0  0  0  0  0  0  0  0  0  0
   71.2274   45.1541   58.0524 C   0  0  0  0  0  0  0  0  0  0  0  0
   71.0185   43.7841   58.2048 C   0  0  0  0  0  0  0  0  0  0  0  0
   69.9245   43.1881   57.6208 C   0  0  0  0  0  0  0  0  0  0  0  0
   69.0561   43.9942   56.8881 C   0  0  0  0  0  0  0  0  0  0  0  0
   69.6956   41.7556   57.7653 C   0  0  0  0  0  0  0  0  0  0  0  0
   70.6821   40.9608   58.2897 C   0  0  0  0  0  0  0  0  0  0  0  0
   70.5584   39.5964   58.4831 C   0  0  0  0  0  0  0  0  0  0  0  0
   69.3670   39.0037   58.1241 C   0  0  0  0  0  0  0  0  0  0  0  0
   68.3679   39.7852   57.5962 C   0  0  0  0  0  0  0  0  0  0  0  0
   68.5094   41.1485   57.4103 C   0  0  0  0  0  0  0  0  0  0  0  0
   68.3561   46.1822   55.9874 N   0  0  0  0  0  0  0  0  0  0  0  0
   69.3489   47.6784   52.7850 C   0  0  0  0  0  0  0  0  0  0  0  0
   68.6510   46.8998   51.8642 C   0  0  0  0  0  0  0  0  0  0  0  0
   67.8602   45.8877   52.3456 C   0  0  0  0  0  0  0  0  0  0  0  0
   67.7743   45.6679   53.6944 C   0  0  0  0  0  0  0  0  0  0  0  0
   68.4756   46.4515   54.5983 C   0  0  0  0  0  0  0  0  0  0  0  0
   69.2388   47.4309   54.1064 N   0  0  0  0  0  0  0  0  0  0  0  0
   69.8690   49.4921   51.0791 N   0  0  0  0  0  0  0  0  0  0  0  0
   70.1762   48.7540   52.2353 C   0  0  0  0  0  0  0  0  0  0  0  0
   71.2675   49.0807   52.8165 O   0  0  0  0  0  0  0  0  0  0  0  0
 20 21  1  0
 21 22  2  0
 21 14  1  0
 14 15  2  0
 14 19  1  0
 15 16  1  0
 16 17  2  0
 17 18  1  0
 18 13  1  0
 18 19  2  0
 13  1  1  0
  1  2  2  0
  1  6  1  0
  2  3  1  0
  3  4  2  0
  4  5  1  0
  5  7  1  0
  5  6  2  0
  7  8  2  0
  7 12  1  0
  8  9  1  0
  9 10  2  0
 10 11  1  0
 11 12  2  0
M  END
>  <minimizedAffinity>  (167) 
-8.63924

$$$$
cs_full_output_folder/data/smiles/8594.pdb
     RDKit          3D

 22 24  0  0  0  0  0  0  0  0999 V2000
   69.9489   49.1848   53.5122 C   0  0  0  0  0  0  0  0  0  0  0  0
   69.3986   50.3887   53.9320 C   0  0  0  0  0  0  0  0  0  0  0  0
   70.4147   51.3218   54.1314 C   0  0  0  0  0  0  0  0  0  0  0  0
   71.5362   50.6666   53.8317 N   0  0  0  0  0  0  0  0  0  0  0  0
   71.2650   49.4063   53.4664 N   0  0  0  0  0  0  0  0  0  0  0  0
   68.5310   47.2427   54.1633 C   0  0  0  0  0  0  0  0  0  0  0  0
   67.7996   46.0962   53.8174 C   0  0  0  0  0  0  0  0  0  0  0  0
   67.7106   45.6912   52.5271 C   0  0  0  0  0  0  0  0  0  0  0  0
   68.3401   46.4098   51.5565 C   0  0  0  0  0  0  0  0  0  0  0  0
   69.0611   47.5403   51.8976 C   0  0  0  0  0  0  0  0  0  0  0  0
   69.1760   47.9869   53.2094 C   0  0  0  0  0  0  0  0  0  0  0  0
   69.2006   46.7806   56.4367 C   0  0  0  0  0  0  0  0  0  0  0  0
   68.6068   47.6316   55.4747 O   0  0  0  0  0  0  0  0  0  0  0  0
   70.2807   52.6289   54.5458 O   0  0  0  0  0  0  0  0  0  0  0  0
   69.9941   53.0411   55.8576 C   0  0  0  0  0  0  0  0  0  0  0  0
   69.3356   52.0323   56.7007 C   0  0  0  0  0  0  0  0  0  0  0  0
   70.0164   51.1473   57.4967 C   0  0  0  0  0  0  0  0  0  0  0  0
   69.3150   50.2339   58.2408 C   0  0  0  0  0  0  0  0  0  0  0  0
   67.9421   50.1547   58.2318 C   0  0  0  0  0  0  0  0  0  0  0  0
   67.2490   51.0374   57.4374 C   0  0  0  0  0  0  0  0  0  0  0  0
   65.8995   50.9923   57.4016 F   0  0  0  0  0  0  0  0  0  0  0  0
   67.9446   51.9579   56.6869 C   0  0  0  0  0  0  0  0  0  0  0  0
 12 13  1  0
 13  6  1  0
  6  7  2  0
  6 11  1  0
  7  8  1  0
  8  9  2  0
  9 10  1  0
 10 11  2  0
 11  1  1  0
  1  2  2  0
  1  5  1  0
  2  3  1  0
  3 14  1  0
  3  4  2  0
 14 15  1  0
 15 16  1  0
 16 17  2  0
 16 22  1  0
 17 18  1  0
 18 19  2  0
 19 20  1  0
 20 21  1  0
 20 22  2  0
  4  5  1  0
M  END
>  <minimizedAffinity>  (168) 
-8.63870

$$$$
cs_full_output_folder/data/smiles/570.pdb
     RDKit          3D

 21 23  0  0  0  0  0  0  0  0999 V2000
   69.3620   48.2047   53.9851 C   0  0  0  0  0  0  0  0  0  0  0  0
   69.2304   48.0127   55.3490 C   0  0  0  0  0  0  0  0  0  0  0  0
   68.4408   47.0157   55.8437 C   0  0  0  0  0  0  0  0  0  0  0  0
   68.3060   46.8234   57.1000 O   0  0  0  0  0  0  0  0  0  0  0  0
   67.8112   46.2464   55.0041 O   0  0  0  0  0  0  0  0  0  0  0  0
   67.8912   46.3719   53.7078 C   0  0  0  0  0  0  0  0  0  0  0  0
   67.2181   45.5427   52.8711 N   0  0  0  0  0  0  0  0  0  0  0  0
   67.3214   45.6899   51.5385 C   0  0  0  0  0  0  0  0  0  0  0  0
   66.6751   44.8923   50.8016 O   0  0  0  0  0  0  0  0  0  0  0  0
   68.0884   46.6566   51.0037 N   0  0  0  0  0  0  0  0  0  0  0  0
   68.7833   47.5151   51.7846 C   0  0  0  0  0  0  0  0  0  0  0  0
   69.4965   48.4123   51.3281 O   0  0  0  0  0  0  0  0  0  0  0  0
   68.6688   47.3535   53.1479 C   0  0  0  0  0  0  0  0  0  0  0  0
   70.1937   49.3247   53.5503 C   0  0  0  0  0  0  0  0  0  0  0  0
   69.4859   50.6255   53.6122 C   0  0  0  0  0  0  0  0  0  0  0  0
   68.1777   51.1469   56.7874 C   0  0  0  0  0  0  0  0  0  0  0  0
   68.9275   51.6917   55.8293 C   0  0  0  0  0  0  0  0  0  0  0  0
   69.4046   52.7892   54.9802 C   0  0  0  0  0  0  0  0  0  0  0  0
   70.0033   51.4786   54.7735 C   0  0  2  0  0  0  0  0  0  0  0  0
   71.3564   51.1143   55.3091 C   0  0  0  0  0  0  0  0  0  0  0  0
   72.4559   52.0528   54.8794 C   0  0  0  0  0  0  0  0  0  0  0  0
 16 17  2  0
 17 18  1  0
 17 19  1  0
 18 19  1  0
 19 20  1  1
 19 15  1  0
 20 21  1  0
 15 14  1  0
 14  1  1  0
  1  2  2  0
  1 13  1  0
  2  3  1  0
  3  4  2  0
  3  5  1  0
  5  6  1  0
  6  7  1  0
  6 13  2  0
  7  8  1  0
  8  9  2  0
  8 10  1  0
 10 11  1  0
 11 12  2  0
 11 13  1  0
M  END
>  <minimizedAffinity>  (169) 
-8.63766

$$$$
cs_full_output_folder/data/smiles/635.pdb
     RDKit          3D

 20 22  0  0  0  0  0  0  0  0999 V2000
   71.6771   49.9231   54.0645 O   0  0  0  0  0  0  0  0  0  0  0  0
   70.4918   49.9497   53.6261 C   0  0  0  0  0  0  0  0  0  0  0  0
   69.6889   50.9937   54.0274 N   0  0  0  0  0  0  0  0  0  0  0  0
   70.1210   48.8620   52.7524 C   0  0  0  0  0  0  0  0  0  0  0  0
   70.5300   48.7015   51.4584 N   0  0  0  0  0  0  0  0  0  0  0  0
   69.9780   47.6354   50.9443 N   0  0  0  0  0  0  0  0  0  0  0  0
   69.1784   47.0269   51.8462 C   0  0  0  0  0  0  0  0  0  0  0  0
   68.3822   45.8971   51.7785 C   0  0  0  0  0  0  0  0  0  0  0  0
   67.6376   45.4951   52.8559 C   0  0  0  0  0  0  0  0  0  0  0  0
   67.7016   46.2431   54.0026 C   0  0  0  0  0  0  0  0  0  0  0  0
   68.5017   47.3786   54.0706 C   0  0  0  0  0  0  0  0  0  0  0  0
   69.2704   47.8123   53.0006 C   0  0  0  0  0  0  0  0  0  0  0  0
   70.0141   52.0965   54.8590 C   0  0  0  0  0  0  0  0  0  0  0  0
   69.5169   52.2007   56.2177 C   0  0  0  0  0  0  0  0  0  0  0  0
   68.7003   51.1665   56.8212 C   0  0  0  0  0  0  0  0  0  0  0  0
   69.0535   49.8724   57.0371 C   0  0  0  0  0  0  0  0  0  0  0  0
   68.1625   48.9833   57.5817 C   0  0  0  0  0  0  0  0  0  0  0  0
   66.8762   49.3274   57.9412 C   0  0  0  0  0  0  0  0  0  0  0  0
   66.4985   50.6371   57.7301 C   0  0  0  0  0  0  0  0  0  0  0  0
   67.3928   51.5286   57.1835 C   0  0  0  0  0  0  0  0  0  0  0  0
  1  2  2  0
  2  3  1  0
  2  4  1  0
  3 13  1  0
 13 14  1  0
 14 15  1  0
 15 16  2  0
 15 20  1  0
 16 17  1  0
 17 18  2  0
 18 19  1  0
 19 20  2  0
  4  5  1  0
  4 12  2  0
  5  6  1  0
  6  7  2  0
  7  8  1  0
  7 12  1  0
  8  9  2  0
  9 10  1  0
 10 11  2  0
 11 12  1  0
M  END
>  <minimizedAffinity>  (170) 
-8.63724

$$$$
cs_full_output_folder/data/smiles/5434.pdb
     RDKit          3D

 20 22  0  0  0  0  0  0  0  0999 V2000
   70.3944   49.1970   53.9800 C   0  0  0  0  0  0  0  0  0  0  0  0
   71.5634   49.5024   53.3691 N   0  0  0  0  0  0  0  0  0  0  0  0
   72.1303   50.5529   53.9659 N   0  0  0  0  0  0  0  0  0  0  0  0
   71.3551   50.9641   54.9789 C   0  0  0  0  0  0  0  0  0  0  0  0
   70.2645   50.1158   54.9919 C   0  0  0  0  0  0  0  0  0  0  0  0
   66.9216   44.9460   52.5377 O   0  0  0  0  0  0  0  0  0  0  0  0
   67.7718   45.9863   52.8923 C   0  0  0  0  0  0  0  0  0  0  0  0
   68.1340   46.2153   54.2125 C   0  0  0  0  0  0  0  0  0  0  0  0
   68.9782   47.2508   54.5616 C   0  0  0  0  0  0  0  0  0  0  0  0
   69.5018   48.1099   53.5988 C   0  0  0  0  0  0  0  0  0  0  0  0
   69.1342   47.8728   52.2899 C   0  0  0  0  0  0  0  0  0  0  0  0
   69.6441   48.7180   51.3043 O   0  0  0  0  0  0  0  0  0  0  0  0
   68.2821   46.8288   51.9259 C   0  0  0  0  0  0  0  0  0  0  0  0
   67.9204   46.6045   50.5950 O   0  0  0  0  0  0  0  0  0  0  0  0
   69.1659   50.1976   55.9369 C   0  0  0  0  0  0  0  0  0  0  0  0
   68.2717   51.2592   55.8315 C   0  0  0  0  0  0  0  0  0  0  0  0
   67.2198   51.3556   56.7181 C   0  0  0  0  0  0  0  0  0  0  0  0
   67.0015   50.4322   57.7266 C   0  0  0  0  0  0  0  0  0  0  0  0
   67.9073   49.3784   57.8130 C   0  0  0  0  0  0  0  0  0  0  0  0
   68.9656   49.2683   56.9337 C   0  0  0  0  0  0  0  0  0  0  0  0
  6  7  1  0
  7  8  2  0
  7 13  1  0
  8  9  1  0
  9 10  2  0
 10  1  1  0
 10 11  1  0
  1  2  2  0
  1  5  1  0
  2  3  1  0
  3  4  1  0
  4  5  2  0
  5 15  1  0
 15 16  2  0
 15 20  1  0
 16 17  1  0
 17 18  2  0
 18 19  1  0
 19 20  2  0
 11 12  1  0
 11 13  2  0
 13 14  1  0
M  END
>  <minimizedAffinity>  (171) 
-8.63716

$$$$
cs_full_output_folder/data/smiles/1272.pdb
     RDKit          3D

 20 22  0  0  0  0  0  0  0  0999 V2000
   70.4280   49.1708   53.9545 C   0  0  0  0  0  0  0  0  0  0  0  0
   71.5793   49.4992   53.3474 N   0  0  0  0  0  0  0  0  0  0  0  0
   72.1519   50.5211   53.9681 N   0  0  0  0  0  0  0  0  0  0  0  0
   71.3721   50.8824   55.0038 C   0  0  0  0  0  0  0  0  0  0  0  0
   70.2663   50.0241   55.0052 C   0  0  0  0  0  0  0  0  0  0  0  0
   66.9524   44.9205   52.5154 O   0  0  0  0  0  0  0  0  0  0  0  0
   67.8150   45.9812   52.8593 C   0  0  0  0  0  0  0  0  0  0  0  0
   68.2827   46.8369   51.8819 C   0  0  0  0  0  0  0  0  0  0  0  0
   69.1352   47.8812   52.2457 C   0  0  0  0  0  0  0  0  0  0  0  0
   69.5332   48.0932   53.5526 C   0  0  0  0  0  0  0  0  0  0  0  0
   69.0228   47.1908   54.4873 C   0  0  0  0  0  0  0  0  0  0  0  0
   68.1935   46.1641   54.1797 C   0  0  0  0  0  0  0  0  0  0  0  0
   67.6947   45.2693   55.1513 O   0  0  0  0  0  0  0  0  0  0  0  0
   69.1624   50.0517   55.9483 C   0  0  0  0  0  0  0  0  0  0  0  0
   68.9266   49.0889   56.8986 C   0  0  0  0  0  0  0  0  0  0  0  0
   67.8582   49.2162   57.7433 C   0  0  0  0  0  0  0  0  0  0  0  0
   66.9875   50.2910   57.6836 C   0  0  0  0  0  0  0  0  0  0  0  0
   67.2260   51.2581   56.7277 C   0  0  0  0  0  0  0  0  0  0  0  0
   68.2911   51.1205   55.8927 C   0  0  0  0  0  0  0  0  0  0  0  0
   68.5543   52.3872   54.6817 Cl  0  0  0  0  0  0  0  0  0  0  0  0
  6  7  1  0
  7  8  2  0
  7 12  1  0
  8  9  1  0
  9 10  2  0
 10  1  1  0
 10 11  1  0
  1  2  2  0
  1  5  1  0
  2  3  1  0
  3  4  1  0
  4  5  2  0
  5 14  1  0
 14 15  2  0
 14 19  1  0
 15 16  1  0
 16 17  2  0
 17 18  1  0
 18 19  2  0
 19 20  1  0
 11 12  2  0
 12 13  1  0
M  END
>  <minimizedAffinity>  (172) 
-8.63475

$$$$
cs_full_output_folder/data/smiles/6718.pdb
     RDKit          3D

 22 23  0  0  0  0  0  0  0  0999 V2000
   69.4316   45.0280   56.9075 N   0  0  0  0  0  0  0  0  0  0  0  0
   69.9464   44.4065   58.0746 C   0  0  0  0  0  0  0  0  0  0  0  0
   70.0534   45.1252   59.1131 O   0  0  0  0  0  0  0  0  0  0  0  0
   70.3552   43.0131   58.1520 C   0  0  0  0  0  0  0  0  0  0  0  0
   71.6882   42.6913   58.1425 C   0  0  0  0  0  0  0  0  0  0  0  0
   72.0591   41.3541   58.2163 C   0  0  0  0  0  0  0  0  0  0  0  0
   71.1159   40.3777   58.2973 C   0  0  0  0  0  0  0  0  0  0  0  0
   69.7724   40.7136   58.3059 C   0  0  0  0  0  0  0  0  0  0  0  0
   69.3892   42.0380   58.2324 C   0  0  0  0  0  0  0  0  0  0  0  0
   71.4753   38.9380   58.3778 C   0  0  0  0  0  0  0  0  0  0  0  0
   72.7176   38.8360   59.2514 C   0  0  0  0  0  0  0  0  0  0  0  0
   70.3349   38.1778   58.9746 C   0  0  0  0  0  0  0  0  0  0  0  0
   68.4254   48.5623   56.5369 C   0  0  0  0  0  0  0  0  0  0  0  0
   68.7527   47.1661   56.0457 C   0  0  0  0  0  0  0  0  0  0  0  0
   69.0739   46.3468   56.9328 N   0  0  0  0  0  0  0  0  0  0  0  0
   68.6554   46.9413   54.6042 C   0  0  0  0  0  0  0  0  0  0  0  0
   67.8757   45.9063   54.0999 C   0  0  0  0  0  0  0  0  0  0  0  0
   67.7600   45.6628   52.7525 C   0  0  0  0  0  0  0  0  0  0  0  0
   68.4248   46.4519   51.8271 C   0  0  0  0  0  0  0  0  0  0  0  0
   69.2053   47.4866   52.2931 C   0  0  0  0  0  0  0  0  0  0  0  0
   69.8899   48.2984   51.3502 N   0  0  0  0  0  0  0  0  0  0  0  0
   69.3029   47.7075   53.6657 C   0  0  0  0  0  0  0  0  0  0  0  0
 13 14  1  0
 14 15  2  0
 14 16  1  0
 15  1  1  0
  1  2  1  0
  2  3  2  0
  2  4  1  0
  4  5  2  0
  4  9  1  0
  5  6  1  0
  6  7  2  0
  7 10  1  0
  7  8  1  0
 10 11  1  0
 10 12  1  0
  8  9  2  0
 16 17  2  0
 16 22  1  0
 17 18  1  0
 18 19  2  0
 19 20  1  0
 20 21  1  0
 20 22  2  0
M  END
>  <minimizedAffinity>  (173) 
-8.63107

$$$$
cs_full_output_folder/data/smiles/19.pdb
     RDKit          3D

 20 22  0  0  0  0  0  0  0  0999 V2000
   70.4496   49.2262   54.0321 C   0  0  0  0  0  0  0  0  0  0  0  0
   71.6157   49.5545   53.4373 N   0  0  0  0  0  0  0  0  0  0  0  0
   72.1833   50.5941   54.0538 N   0  0  0  0  0  0  0  0  0  0  0  0
   71.4111   50.9869   55.0759 C   0  0  0  0  0  0  0  0  0  0  0  0
   70.3201   50.1405   55.0770 C   0  0  0  0  0  0  0  0  0  0  0  0
   66.9343   45.0403   52.6684 O   0  0  0  0  0  0  0  0  0  0  0  0
   67.8008   46.0703   53.0066 C   0  0  0  0  0  0  0  0  0  0  0  0
   68.1567   46.3068   54.3094 C   0  0  0  0  0  0  0  0  0  0  0  0
   69.0104   47.3271   54.6192 C   0  0  0  0  0  0  0  0  0  0  0  0
   69.5428   48.1482   53.6489 C   0  0  0  0  0  0  0  0  0  0  0  0
   69.1994   47.9260   52.3434 C   0  0  0  0  0  0  0  0  0  0  0  0
   69.7258   48.7453   51.3341 O   0  0  0  0  0  0  0  0  0  0  0  0
   68.3347   46.8941   52.0281 C   0  0  0  0  0  0  0  0  0  0  0  0
   67.9713   46.6512   50.7004 O   0  0  0  0  0  0  0  0  0  0  0  0
   69.1793   50.1398   55.9850 C   0  0  0  0  0  0  0  0  0  0  0  0
   68.3358   51.2295   55.9569 C   0  0  0  0  0  0  0  0  0  0  0  0
   67.2254   51.3129   56.7916 C   0  0  0  0  0  0  0  0  0  0  0  0
   66.9895   50.2695   57.6541 C   0  0  0  0  0  0  0  0  0  0  0  0
   67.8076   49.1554   57.7181 C   0  0  0  0  0  0  0  0  0  0  0  0
   68.8896   49.1267   56.8711 C   0  0  0  0  0  0  0  0  0  0  0  0
  6  7  1  0
  7  8  2  0
  7 13  1  0
  8  9  1  0
  9 10  2  0
 10  1  1  0
 10 11  1  0
  1  2  2  0
  1  5  1  0
  2  3  1  0
  3  4  1  0
  4  5  2  0
  5 15  1  0
 15 16  2  0
 15 20  1  0
 16 17  1  0
 17 18  2  0
 18 19  1  0
 19 20  2  0
 11 12  1  0
 11 13  2  0
 13 14  1  0
M  END
>  <minimizedAffinity>  (174) 
-8.63060

$$$$
cs_full_output_folder/data/smiles/885.pdb
     RDKit          3D

 21 23  0  0  0  0  0  0  0  0999 V2000
   68.5642   44.2429   56.2383 C   0  0  0  0  0  0  0  0  0  0  0  0
   67.5250   43.3497   56.1706 N   0  0  0  0  0  0  0  0  0  0  0  0
   67.6377   42.0893   56.6002 C   0  0  0  0  0  0  0  0  0  0  0  0
   68.8471   41.6458   57.1406 C   0  0  0  0  0  0  0  0  0  0  0  0
   69.8966   42.5305   57.2141 C   0  0  0  0  0  0  0  0  0  0  0  0
   69.6838   43.7768   56.7558 N   0  0  0  0  0  0  0  0  0  0  0  0
   71.1533   42.0927   57.7832 C   0  0  0  0  0  0  0  0  0  0  0  0
   72.2857   42.8537   57.6033 C   0  0  0  0  0  0  0  0  0  0  0  0
   73.5185   42.4585   58.1358 C   0  0  0  0  0  0  0  0  0  0  0  0
   73.6298   41.2987   58.8554 C   0  0  0  0  0  0  0  0  0  0  0  0
   72.5011   40.5355   59.0378 C   0  0  0  0  0  0  0  0  0  0  0  0
   71.2805   40.9330   58.5052 C   0  0  0  0  0  0  0  0  0  0  0  0
   68.3503   45.5567   55.7769 N   0  0  0  0  0  0  0  0  0  0  0  0
   69.1088   47.5186   52.7185 C   0  0  0  0  0  0  0  0  0  0  0  0
   68.4143   46.8661   51.7276 C   0  0  0  0  0  0  0  0  0  0  0  0
   67.6812   45.7631   52.0870 C   0  0  0  0  0  0  0  0  0  0  0  0
   67.6366   45.3103   53.4135 C   0  0  0  0  0  0  0  0  0  0  0  0
   68.3217   45.9467   54.4140 C   0  0  0  0  0  0  0  0  0  0  0  0
   69.0639   47.0730   54.0223 C   0  0  0  0  0  0  0  0  0  0  0  0
   70.4242   48.7947   51.2301 O   0  0  0  0  0  0  0  0  0  0  0  0
   69.9024   48.7054   52.3651 C   0  0  0  0  0  0  0  0  0  0  0  0
 20 21  2  0
 21 14  1  0
 14 15  2  0
 14 19  1  0
 15 16  1  0
 16 17  2  0
 17 18  1  0
 18 13  1  0
 18 19  2  0
 13  1  1  0
  1  2  2  0
  1  6  1  0
  2  3  1  0
  3  4  2  0
  4  5  1  0
  5  7  1  0
  5  6  2  0
  7  8  2  0
  7 12  1  0
  8  9  1  0
  9 10  2  0
 10 11  1  0
 11 12  2  0
M  END
>  <minimizedAffinity>  (175) 
-8.62891

$$$$
cs_full_output_folder/data/smiles/4605.pdb
     RDKit          3D

 22 24  0  0  0  0  0  0  0  0999 V2000
   69.1393   45.9638   56.7910 C   0  0  0  0  0  0  0  0  0  0  0  0
   69.9870   46.7554   57.5773 C   0  0  0  0  0  0  0  0  0  0  0  0
   70.9295   46.2083   58.3956 C   0  0  0  0  0  0  0  0  0  0  0  0
   71.0090   44.8560   58.4111 N   0  0  0  0  0  0  0  0  0  0  0  0
   70.2099   44.0696   57.6676 C   0  0  0  0  0  0  0  0  0  0  0  0
   69.2767   44.6340   56.8591 N   0  0  0  0  0  0  0  0  0  0  0  0
   71.8191   47.0174   59.2194 C   0  0  0  0  0  0  0  0  0  0  0  0
   72.2857   48.2547   58.8476 C   0  0  0  0  0  0  0  0  0  0  0  0
   73.1393   49.0169   59.6534 C   0  0  0  0  0  0  0  0  0  0  0  0
   73.5486   48.5372   60.8770 C   0  0  0  0  0  0  0  0  0  0  0  0
   73.0834   47.2984   61.2552 C   0  0  0  0  0  0  0  0  0  0  0  0
   72.2438   46.5431   60.4674 C   0  0  0  0  0  0  0  0  0  0  0  0
   68.1739   46.4935   55.9531 O   0  0  0  0  0  0  0  0  0  0  0  0
   69.4236   47.7855   52.7419 C   0  0  0  0  0  0  0  0  0  0  0  0
   68.7723   46.9328   51.8656 C   0  0  0  0  0  0  0  0  0  0  0  0
   67.9392   45.9563   52.3548 C   0  0  0  0  0  0  0  0  0  0  0  0
   67.7559   45.8296   53.7158 C   0  0  0  0  0  0  0  0  0  0  0  0
   68.3939   46.6665   54.6014 C   0  0  0  0  0  0  0  0  0  0  0  0
   69.2254   47.6396   54.1012 C   0  0  0  0  0  0  0  0  0  0  0  0
   71.3128   49.0722   52.7904 O   0  0  0  0  0  0  0  0  0  0  0  0
   70.2707   48.7736   52.1927 N   0  0  0  0  0  0  0  0  0  0  0  0
   69.9769   49.4100   51.0255 O   0  0  0  0  0  0  0  0  0  0  0  0
 20 21  2  0
 21 22  1  0
 21 14  1  0
 14 15  2  0
 14 19  1  0
 15 16  1  0
 16 17  2  0
 17 18  1  0
 18 13  1  0
 18 19  2  0
 13  1  1  0
  1  2  2  0
  1  6  1  0
  2  3  1  0
  3  7  1  0
  3  4  2  0
  7  8  2  0
  7 12  1  0
  8  9  1  0
  9 10  2  0
 10 11  1  0
 11 12  2  0
  4  5  1  0
  5  6  2  0
M  CHG  2  21   1  22  -1
M  END
>  <minimizedAffinity>  (176) 
-8.62738

$$$$
cs_full_output_folder/data/smiles/7643.pdb
     RDKit          3D

 21 23  0  0  0  0  0  0  0  0999 V2000
   68.7461   46.6467   55.2578 C   0  0  0  0  0  0  0  0  0  0  0  0
   67.9575   45.5532   55.3445 N   0  0  0  0  0  0  0  0  0  0  0  0
   67.4134   44.9281   54.3268 N   0  0  0  0  0  0  0  0  0  0  0  0
   67.6263   45.3723   53.0637 C   0  0  0  0  0  0  0  0  0  0  0  0
   67.0885   44.7504   52.0903 O   0  0  0  0  0  0  0  0  0  0  0  0
   68.4149   46.4732   52.8895 C   0  0  0  0  0  0  0  0  0  0  0  0
   68.6584   46.9457   51.6292 C   0  0  0  0  0  0  0  0  0  0  0  0
   69.4666   48.0659   51.4103 C   0  0  0  0  0  0  0  0  0  0  0  0
   70.0052   48.6734   52.5143 C   0  0  0  0  0  0  0  0  0  0  0  0
   69.7671   48.2079   53.7903 C   0  0  0  0  0  0  0  0  0  0  0  0
   68.9696   47.1039   53.9787 C   0  0  0  0  0  0  0  0  0  0  0  0
   69.2692   47.2515   56.4705 C   0  0  0  0  0  0  0  0  0  0  0  0
   68.2416   50.8796   56.7767 C   0  0  0  0  0  0  0  0  0  0  0  0
   68.9098   49.7216   56.4702 C   0  0  0  0  0  0  0  0  0  0  0  0
   68.4969   48.4679   56.8323 C   0  0  0  0  0  0  0  0  0  0  0  0
   67.3124   48.3602   57.5646 C   0  0  0  0  0  0  0  0  0  0  0  0
   66.6303   49.5036   57.8803 C   0  0  0  0  0  0  0  0  0  0  0  0
   67.0537   50.7528   57.5122 C   0  0  0  0  0  0  0  0  0  0  0  0
   66.3658   51.8902   57.8320 F   0  0  0  0  0  0  0  0  0  0  0  0
   68.9483   52.5076   55.1487 C   0  0  0  0  0  0  0  0  0  0  0  0
   68.7139   52.1807   56.3822 C   0  0  0  0  0  0  0  0  0  0  0  0
 20 21  2  0
 21 13  1  0
 13 14  2  0
 13 18  1  0
 14 15  1  0
 15 12  1  0
 15 16  2  0
 12  1  1  0
  1  2  2  0
  1 11  1  0
  2  3  1  0
  3  4  1  0
  4  5  2  0
  4  6  1  0
  6  7  1  0
  6 11  2  0
  7  8  2  0
  8  9  1  0
  9 10  2  0
 10 11  1  0
 16 17  1  0
 17 18  2  0
 18 19  1  0
M  END
>  <minimizedAffinity>  (177) 
-8.62619

$$$$
cs_full_output_folder/data/smiles/3860.pdb
     RDKit          3D

 22 24  0  0  0  0  0  0  0  0999 V2000
   68.0489   48.3411   56.9910 C   0  0  0  0  0  0  0  0  0  0  0  0
   66.8264   48.6498   57.5603 C   0  0  0  0  0  0  0  0  0  0  0  0
   66.5327   49.9400   58.0107 C   0  0  0  0  0  0  0  0  0  0  0  0
   67.5133   50.9112   57.8679 C   0  0  0  0  0  0  0  0  0  0  0  0
   68.7421   50.6424   57.3064 C   0  0  0  0  0  0  0  0  0  0  0  0
   68.9711   49.3500   56.8818 C   0  0  0  0  0  0  0  0  0  0  0  0
   69.7395   51.6970   57.1698 C   0  0  0  0  0  0  0  0  0  0  0  0
   70.8799   51.6801   57.9553 C   0  0  0  0  0  0  0  0  0  0  0  0
   71.8309   52.6737   57.8323 C   0  0  0  0  0  0  0  0  0  0  0  0
   71.6894   53.7162   56.9323 C   0  0  0  0  0  0  0  0  0  0  0  0
   70.5506   53.7391   56.1442 C   0  0  0  0  0  0  0  0  0  0  0  0
   69.6145   52.7405   56.2810 C   0  0  0  0  0  0  0  0  0  0  0  0
   68.2455   47.0034   56.5494 N   0  0  0  0  0  0  0  0  0  0  0  0
   69.1179   47.2383   52.9605 C   0  0  0  0  0  0  0  0  0  0  0  0
   69.0579   47.5135   54.3194 C   0  0  0  0  0  0  0  0  0  0  0  0
   68.3249   46.7213   55.1685 C   0  0  0  0  0  0  0  0  0  0  0  0
   67.6685   45.6716   54.6430 N   0  0  0  0  0  0  0  0  0  0  0  0
   67.7085   45.3829   53.3370 C   0  0  0  0  0  0  0  0  0  0  0  0
   68.4240   46.1611   52.5249 N   0  0  0  0  0  0  0  0  0  0  0  0
   70.1096   49.4144   52.4325 N   0  0  0  0  0  0  0  0  0  0  0  0
   69.8948   48.0674   52.0360 C   0  0  0  0  0  0  0  0  0  0  0  0
   70.3468   47.6345   50.9613 O   0  0  0  0  0  0  0  0  0  0  0  0
 20 21  1  0
 21 22  2  0
 21 14  1  0
 14 15  2  0
 14 19  1  0
 15 16  1  0
 16 13  1  0
 16 17  2  0
 13  1  1  0
  1  2  2  0
  1  6  1  0
  2  3  1  0
  3  4  2  0
  4  5  1  0
  5  7  1  0
  5  6  2  0
  7  8  2  0
  7 12  1  0
  8  9  1  0
  9 10  2  0
 10 11  1  0
 11 12  2  0
 17 18  1  0
 18 19  2  0
M  END
>  <minimizedAffinity>  (178) 
-8.62438

$$$$
cs_full_output_folder/data/smiles/6882.pdb
     RDKit          3D

 22 24  0  0  0  0  0  0  0  0999 V2000
   69.9467   49.5426   53.2066 C   0  0  0  0  0  0  0  0  0  0  0  0
   70.0331   49.8433   51.9142 N   0  0  0  0  0  0  0  0  0  0  0  0
   69.5790   48.8867   51.1293 N   0  0  0  0  0  0  0  0  0  0  0  0
   69.1633   47.8860   51.9587 C   0  0  0  0  0  0  0  0  0  0  0  0
   68.5921   46.6445   51.7497 C   0  0  0  0  0  0  0  0  0  0  0  0
   68.2557   45.8235   52.8351 C   0  0  0  0  0  0  0  0  0  0  0  0
   68.4785   46.2205   54.1360 C   0  0  0  0  0  0  0  0  0  0  0  0
   69.0532   47.4651   54.3279 C   0  0  0  0  0  0  0  0  0  0  0  0
   69.3801   48.2620   53.2556 C   0  0  0  0  0  0  0  0  0  0  0  0
   69.6313   51.4368   56.4293 C   0  0  0  0  0  0  0  0  0  0  0  0
   69.3473   50.7176   55.2961 C   0  0  0  0  0  0  0  0  0  0  0  0
   70.2921   50.2743   54.4119 C   0  0  0  0  0  0  0  0  0  0  0  0
   71.6130   50.5584   54.6624 C   0  0  0  0  0  0  0  0  0  0  0  0
   72.6221   50.1323   53.7968 O   0  0  0  0  0  0  0  0  0  0  0  0
   71.9614   51.2848   55.7983 C   0  0  0  0  0  0  0  0  0  0  0  0
   70.9803   51.7154   56.6645 C   0  0  0  0  0  0  0  0  0  0  0  0
   71.3056   52.4460   57.8102 O   0  0  0  0  0  0  0  0  0  0  0  0
   67.3479   51.0729   57.3722 C   0  0  0  0  0  0  0  0  0  0  0  0
   68.5945   51.9284   57.3553 C   0  0  0  0  0  0  0  0  0  0  0  0
   68.1499   45.4144   55.2541 N   0  0  0  0  0  0  0  0  0  0  0  0
   68.3602   45.8443   56.3947 O   0  0  0  0  0  0  0  0  0  0  0  0
   67.6062   44.1762   55.0658 O   0  0  0  0  0  0  0  0  0  0  0  0
 18 19  1  0
 19 10  1  0
 10 11  2  0
 10 16  1  0
 11 12  1  0
 12  1  1  0
 12 13  2  0
  1  2  2  0
  1  9  1  0
  2  3  1  0
  3  4  1  0
  4  5  1  0
  4  9  2  0
  5  6  2  0
  6  7  1  0
  7 20  1  0
  7  8  2  0
 20 21  2  0
 20 22  1  0
  8  9  1  0
 13 14  1  0
 13 15  1  0
 15 16  2  0
 16 17  1  0
M  CHG  2  20   1  22  -1
M  END
>  <minimizedAffinity>  (179) 
-8.62379

$$$$
cs_full_output_folder/data/smiles/9321.pdb
     RDKit          3D

 21 22  0  0  0  0  0  0  0  0999 V2000
   68.3073   45.7756   55.8089 N   0  0  0  0  0  0  0  0  0  0  0  0
   71.2708   46.5161   58.7826 C   0  0  0  0  0  0  0  0  0  0  0  0
   71.0279   45.2354   58.3380 C   0  0  0  0  0  0  0  0  0  0  0  0
   70.0670   44.9896   57.3638 C   0  0  0  0  0  0  0  0  0  0  0  0
   69.3055   45.9812   56.7861 C   0  0  0  0  0  0  0  0  0  0  0  0
   69.5630   47.2806   57.2468 C   0  0  0  0  0  0  0  0  0  0  0  0
   70.5157   47.5170   58.2114 C   0  0  0  0  0  0  0  0  0  0  0  0
   73.4177   46.3444   59.6750 O   0  0  0  0  0  0  0  0  0  0  0  0
   72.2645   46.8287   59.7988 C   0  0  0  0  0  0  0  0  0  0  0  0
   72.0415   47.6448   60.9321 N   0  0  0  0  0  0  0  0  0  0  0  0
   72.9815   47.9175   61.8583 O   0  0  0  0  0  0  0  0  0  0  0  0
   68.3443   46.1600   54.4575 C   0  0  0  0  0  0  0  0  0  0  0  0
   67.7646   45.3507   53.5060 C   0  0  0  0  0  0  0  0  0  0  0  0
   67.7771   45.6493   52.1682 C   0  0  0  0  0  0  0  0  0  0  0  0
   68.4018   46.8204   51.7534 C   0  0  0  0  0  0  0  0  0  0  0  0
   68.9921   47.6531   52.6685 C   0  0  0  0  0  0  0  0  0  0  0  0
   68.9547   47.3084   54.0233 C   0  0  0  0  0  0  0  0  0  0  0  0
   69.6647   48.9013   52.2791 C   0  0  0  0  0  0  0  0  0  0  0  0
   70.4163   48.9209   51.2457 O   0  0  0  0  0  0  0  0  0  0  0  0
   69.5139   50.1071   53.0109 N   0  0  0  0  0  0  0  0  0  0  0  0
   70.1867   51.2195   52.5621 O   0  0  0  0  0  0  0  0  0  0  0  0
  8  9  2  0
  9 10  1  0
  9  2  1  0
 10 11  1  0
  2  3  2  0
  2  7  1  0
  3  4  1  0
  4  5  2  0
  5  1  1  0
  5  6  1  0
  1 12  1  0
 12 13  2  0
 12 17  1  0
 13 14  1  0
 14 15  2  0
 15 16  1  0
 16 18  1  0
 16 17  2  0
 18 19  2  0
 18 20  1  0
 20 21  1  0
  6  7  2  0
M  END
>  <minimizedAffinity>  (180) 
-8.62114

$$$$
cs_full_output_folder/data/smiles/339.pdb
     RDKit          3D

 20 22  0  0  0  0  0  0  0  0999 V2000
   71.8791   50.0506   53.9350 O   0  0  0  0  0  0  0  0  0  0  0  0
   70.6397   50.0936   53.5823 C   0  0  0  0  0  0  0  0  0  0  0  0
   69.9557   51.2396   54.0029 N   0  0  0  0  0  0  0  0  0  0  0  0
   70.1546   48.9756   52.8150 C   0  0  0  0  0  0  0  0  0  0  0  0
   70.4726   48.7105   51.5140 N   0  0  0  0  0  0  0  0  0  0  0  0
   69.8986   47.6103   51.1097 N   0  0  0  0  0  0  0  0  0  0  0  0
   69.1726   47.0921   52.1229 C   0  0  0  0  0  0  0  0  0  0  0  0
   68.3936   45.9615   52.2438 C   0  0  0  0  0  0  0  0  0  0  0  0
   67.7547   45.6448   53.4230 C   0  0  0  0  0  0  0  0  0  0  0  0
   67.9050   46.4832   54.4983 C   0  0  0  0  0  0  0  0  0  0  0  0
   68.6805   47.6144   54.3901 C   0  0  0  0  0  0  0  0  0  0  0  0
   69.3295   47.9531   53.2169 C   0  0  0  0  0  0  0  0  0  0  0  0
   70.6073   52.2931   54.7977 C   0  0  0  0  0  0  0  0  0  0  0  0
   69.6456   52.8543   55.8068 C   0  0  0  0  0  0  0  0  0  0  0  0
   69.0917   51.7559   56.6810 C   0  0  0  0  0  0  0  0  0  0  0  0
   69.7755   50.9482   57.4565 C   0  0  0  0  0  0  0  0  0  0  0  0
   68.8858   50.0213   58.1422 C   0  0  0  0  0  0  0  0  0  0  0  0
   67.6534   50.2836   57.7673 C   0  0  0  0  0  0  0  0  0  0  0  0
   66.5218   49.6229   58.1948 F   0  0  0  0  0  0  0  0  0  0  0  0
   67.6654   51.4014   56.8109 C   0  0  0  0  0  0  0  0  0  0  0  0
  1  2  2  0
  2  3  1  0
  2  4  1  0
  3 13  1  0
 13 14  1  0
 14 15  1  0
 15 16  2  0
 15 20  1  0
 16 17  1  0
 17 18  2  0
 18 19  1  0
 18 20  1  0
  4  5  1  0
  4 12  2  0
  5  6  1  0
  6  7  2  0
  7  8  1  0
  7 12  1  0
  8  9  2  0
  9 10  1  0
 10 11  2  0
 11 12  1  0
M  END
>  <minimizedAffinity>  (181) 
-8.62009

$$$$
cs_full_output_folder/data/smiles/7717.pdb
     RDKit          3D

 20 21  0  0  0  0  0  0  0  0999 V2000
   66.9064   45.5768   51.2069 O   0  0  0  0  0  0  0  0  0  0  0  0
   67.7006   45.9421   52.1190 C   0  0  0  0  0  0  0  0  0  0  0  0
   68.4935   47.0280   51.8183 C   0  0  0  0  0  0  0  0  0  0  0  0
   69.1746   47.8420   52.6876 C   0  0  0  0  0  0  0  0  0  0  0  0
   69.1984   47.7347   54.0681 C   0  0  0  0  0  0  0  0  0  0  0  0
   68.7948   46.7213   54.9034 C   0  0  0  0  0  0  0  0  0  0  0  0
   68.1982   45.5454   54.5036 C   0  0  0  0  0  0  0  0  0  0  0  0
   67.6512   45.2004   53.2688 C   0  0  0  0  0  0  0  0  0  0  0  0
   68.1074   44.5108   55.4503 N   0  0  0  0  0  0  0  0  0  0  0  0
   67.2744   43.6204   55.3076 O   0  0  0  0  0  0  0  0  0  0  0  0
   68.9378   44.4935   56.5197 O   0  0  0  0  0  0  0  0  0  0  0  0
   69.0109   46.9188   56.2194 O   0  0  0  0  0  0  0  0  0  0  0  0
   69.6729   47.9313   56.8720 C   0  0  0  0  0  0  0  0  0  0  0  0
   68.6938   49.0423   57.1135 C   0  0  0  0  0  0  0  0  0  0  0  0
   67.4706   48.8176   57.7070 C   0  0  0  0  0  0  0  0  0  0  0  0
   66.5790   49.8746   57.9192 C   0  0  0  0  0  0  0  0  0  0  0  0
   66.8903   51.1621   57.5463 C   0  0  0  0  0  0  0  0  0  0  0  0
   68.1105   51.3898   56.9533 C   0  0  0  0  0  0  0  0  0  0  0  0
   68.4090   52.6582   56.5890 F   0  0  0  0  0  0  0  0  0  0  0  0
   68.9859   50.3475   56.7453 C   0  0  0  0  0  0  0  0  0  0  0  0
  1  2  2  0
  2  3  1  0
  2  8  1  0
  3  4  2  0
  4  5  1  0
  5  6  2  0
  6 12  1  0
  6  7  1  0
 12 13  1  0
 13 14  1  0
 14 15  2  0
 14 20  1  0
 15 16  1  0
 16 17  2  0
 17 18  1  0
 18 19  1  0
 18 20  2  0
  7  9  1  0
  7  8  2  0
  9 10  2  0
  9 11  1  0
M  CHG  2   9   1  11  -1
M  END
>  <minimizedAffinity>  (182) 
-8.61884

$$$$
cs_full_output_folder/data/smiles/5808.pdb
     RDKit          3D

 20 22  0  0  0  0  0  0  0  0999 V2000
   68.7963   46.8716   55.4687 C   0  0  0  0  0  0  0  0  0  0  0  0
   68.0294   45.7772   55.6380 N   0  0  0  0  0  0  0  0  0  0  0  0
   67.5020   45.1118   54.6097 N   0  0  0  0  0  0  0  0  0  0  0  0
   67.7003   45.4860   53.3245 C   0  0  0  0  0  0  0  0  0  0  0  0
   67.1729   44.8156   52.3729 O   0  0  0  0  0  0  0  0  0  0  0  0
   68.4729   46.5912   53.0919 C   0  0  0  0  0  0  0  0  0  0  0  0
   68.7075   46.9949   51.8034 C   0  0  0  0  0  0  0  0  0  0  0  0
   69.5090   48.1156   51.5710 C   0  0  0  0  0  0  0  0  0  0  0  0
   70.0596   48.8082   52.6342 C   0  0  0  0  0  0  0  0  0  0  0  0
   69.8083   48.3809   53.9142 C   0  0  0  0  0  0  0  0  0  0  0  0
   69.0176   47.2752   54.1841 C   0  0  0  0  0  0  0  0  0  0  0  0
   69.2926   47.5679   56.6620 C   0  0  0  0  0  0  0  0  0  0  0  0
   68.2981   51.1689   57.0042 C   0  0  0  0  0  0  0  0  0  0  0  0
   67.0664   51.1268   57.6218 C   0  0  0  0  0  0  0  0  0  0  0  0
   66.5497   49.8886   57.9284 C   0  0  0  0  0  0  0  0  0  0  0  0
   67.2291   48.6972   57.6333 C   0  0  0  0  0  0  0  0  0  0  0  0
   68.4491   48.7301   57.0225 C   0  0  0  0  0  0  0  0  0  0  0  0
   68.9597   49.9929   56.7181 C   0  0  0  0  0  0  0  0  0  0  0  0
   69.2757   53.5002   56.4180 N   0  0  0  0  0  0  0  0  0  0  0  0
   68.8491   52.4548   56.6775 C   0  0  0  0  0  0  0  0  0  0  0  0
 19 20  3  0
 20 13  1  0
 13 14  2  0
 13 18  1  0
 14 15  1  0
 15 16  2  0
 16 17  1  0
 17 12  1  0
 17 18  2  0
 12  1  1  0
  1  2  2  0
  1 11  1  0
  2  3  1  0
  3  4  1  0
  4  5  2  0
  4  6  1  0
  6  7  1  0
  6 11  2  0
  7  8  2  0
  8  9  1  0
  9 10  2  0
 10 11  1  0
M  END
>  <minimizedAffinity>  (183) 
-8.61878

$$$$
cs_full_output_folder/data/smiles/15.pdb
     RDKit          3D

 22 25  0  0  0  0  0  0  0  0999 V2000
   69.9704   50.1738   53.5146 C   0  0  0  0  0  0  0  0  0  0  0  0
   70.0512   50.6925   52.2792 N   0  0  0  0  0  0  0  0  0  0  0  0
   69.6713   49.7805   51.4004 N   0  0  0  0  0  0  0  0  0  0  0  0
   69.3337   48.6459   52.0383 C   0  0  0  0  0  0  0  0  0  0  0  0
   68.8738   47.4001   51.5986 C   0  0  0  0  0  0  0  0  0  0  0  0
   68.6105   46.4161   52.5271 C   0  0  0  0  0  0  0  0  0  0  0  0
   68.7962   46.6523   53.8707 C   0  0  0  0  0  0  0  0  0  0  0  0
   69.2570   47.9082   54.2888 C   0  0  0  0  0  0  0  0  0  0  0  0
   69.5225   48.8951   53.3718 C   0  0  0  0  0  0  0  0  0  0  0  0
   68.5228   45.6229   54.8645 C   0  0  0  0  0  0  0  0  0  0  0  0
   69.0221   45.5813   56.1118 N   0  0  0  0  0  0  0  0  0  0  0  0
   68.5492   44.4957   56.7267 N   0  0  0  0  0  0  0  0  0  0  0  0
   67.7575   43.8505   55.8807 N   0  0  0  0  0  0  0  0  0  0  0  0
   67.7456   44.5437   54.7475 N   0  0  0  0  0  0  0  0  0  0  0  0
   70.2981   50.8472   54.7700 C   0  0  0  0  0  0  0  0  0  0  0  0
   69.1671   51.6513   55.3468 C   0  0  0  0  0  0  0  0  0  0  0  0
   66.7365   49.6391   58.1184 C   0  0  0  0  0  0  0  0  0  0  0  0
   67.9247   49.0737   57.7061 C   0  0  0  0  0  0  0  0  0  0  0  0
   68.7462   49.7057   56.7992 C   0  0  0  0  0  0  0  0  0  0  0  0
   68.3435   50.9287   56.3110 C   0  0  0  0  0  0  0  0  0  0  0  0
   67.1546   51.4867   56.7282 C   0  0  0  0  0  0  0  0  0  0  0  0
   66.3248   50.8621   57.6363 C   0  0  0  0  0  0  0  0  0  0  0  0
 17 18  2  0
 17 22  1  0
 18 19  1  0
 19 20  2  0
 20 16  1  0
 20 21  1  0
 16 15  1  0
 15  1  1  0
  1  2  2  0
  1  9  1  0
  2  3  1  0
  3  4  1  0
  4  5  1  0
  4  9  2  0
  5  6  2  0
  6  7  1  0
  7 10  1  0
  7  8  2  0
 10 11  2  0
 10 14  1  0
 11 12  1  0
 12 13  2  0
 13 14  1  0
  8  9  1  0
 21 22  2  0
M  END
>  <minimizedAffinity>  (184) 
-8.61868

$$$$
cs_full_output_folder/data/smiles/1305.pdb
     RDKit          3D

 20 21  0  0  0  0  0  0  0  0999 V2000
   67.9070   44.0201   55.3270 N   0  0  0  0  0  0  0  0  0  0  0  0
   68.1968   45.3967   55.1430 C   0  0  0  0  0  0  0  0  0  0  0  0
   68.3300   46.0747   56.2037 O   0  0  0  0  0  0  0  0  0  0  0  0
   68.3373   46.0126   53.8297 C   0  0  0  0  0  0  0  0  0  0  0  0
   67.5976   45.5153   52.7869 C   0  0  0  0  0  0  0  0  0  0  0  0
   67.7030   46.0735   51.5219 C   0  0  0  0  0  0  0  0  0  0  0  0
   68.5441   47.1318   51.2787 C   0  0  0  0  0  0  0  0  0  0  0  0
   69.2829   47.6310   52.3109 C   0  0  0  0  0  0  0  0  0  0  0  0
   69.1754   47.0677   53.5819 C   0  0  0  0  0  0  0  0  0  0  0  0
   70.1545   48.7125   52.1003 N   0  0  0  0  0  0  0  0  0  0  0  0
   71.1271   48.8874   52.8398 O   0  0  0  0  0  0  0  0  0  0  0  0
   69.9444   49.5943   51.0717 O   0  0  0  0  0  0  0  0  0  0  0  0
   67.7825   43.4729   56.5547 O   0  0  0  0  0  0  0  0  0  0  0  0
   67.3356   42.1580   56.4647 C   0  0  0  0  0  0  0  0  0  0  0  0
   71.5449   39.7765   59.1981 C   0  0  0  0  0  0  0  0  0  0  0  0
   70.2861   40.1336   58.4769 C   0  0  0  0  0  0  0  0  0  0  0  0
   69.1838   39.3669   58.1474 C   0  0  0  0  0  0  0  0  0  0  0  0
   68.1826   39.9431   57.4957 C   0  0  0  0  0  0  0  0  0  0  0  0
   68.2936   41.2865   57.1785 C   0  0  0  0  0  0  0  0  0  0  0  0
   69.8235   41.7212   57.8102 S   0  0  0  0  0  0  0  0  0  0  0  0
 15 16  1  0
 16 17  2  0
 16 20  1  0
 17 18  1  0
 18 19  2  0
 19 14  1  0
 19 20  1  0
 14 13  1  0
 13  1  1  0
  1  2  1  0
  2  3  2  0
  2  4  1  0
  4  5  2  0
  4  9  1  0
  5  6  1  0
  6  7  2  0
  7  8  1  0
  8 10  1  0
  8  9  2  0
 10 11  2  0
 10 12  1  0
M  CHG  2  10   1  12  -1
M  END
>  <minimizedAffinity>  (185) 
-8.61803

$$$$
cs_full_output_folder/data/smiles/2233.pdb
     RDKit          3D

 21 23  0  0  0  0  0  0  0  0999 V2000
   67.5365   45.5027   54.9459 N   0  0  0  0  0  0  0  0  0  0  0  0
   66.9505   44.6936   52.1076 N   0  0  0  0  0  0  0  0  0  0  0  0
   67.7557   45.8018   52.4347 C   0  0  0  0  0  0  0  0  0  0  0  0
   68.3824   46.6508   51.6491 O   0  0  0  0  0  0  0  0  0  0  0  0
   69.0288   47.5449   52.3553 C   0  0  0  0  0  0  0  0  0  0  0  0
   69.8147   48.6157   51.9893 C   0  0  0  0  0  0  0  0  0  0  0  0
   70.3990   49.4259   52.9373 C   0  0  0  0  0  0  0  0  0  0  0  0
   70.1635   49.1161   54.2727 C   0  0  0  0  0  0  0  0  0  0  0  0
   69.3823   48.0537   54.6491 C   0  0  0  0  0  0  0  0  0  0  0  0
   68.8138   47.2664   53.6891 C   0  0  0  0  0  0  0  0  0  0  0  0
   68.0010   46.1551   53.7675 C   0  0  0  0  0  0  0  0  0  0  0  0
   67.8266   44.1600   55.1512 N   0  0  0  0  0  0  0  0  0  0  0  0
   68.5766   43.6399   56.2336 C   0  0  0  0  0  0  0  0  0  0  0  0
   69.5539   44.4341   56.8530 C   0  0  0  0  0  0  0  0  0  0  0  0
   70.3038   43.9283   57.8921 C   0  0  0  0  0  0  0  0  0  0  0  0
   70.0622   42.6341   58.2961 C   0  0  0  0  0  0  0  0  0  0  0  0
   69.1039   41.8466   57.6943 C   0  0  0  0  0  0  0  0  0  0  0  0
   68.3407   42.3505   56.6400 C   0  0  0  0  0  0  0  0  0  0  0  0
   67.3270   41.5460   55.9872 C   0  0  0  0  0  0  0  0  0  0  0  0
   67.6077   40.4334   55.4704 O   0  0  0  0  0  0  0  0  0  0  0  0
   66.0310   42.0040   55.9330 O   0  0  0  0  0  0  0  0  0  0  0  0
  2  3  1  0
  3  4  1  0
  3 11  2  0
  4  5  1  0
  5  6  2  0
  5 10  1  0
  6  7  1  0
  7  8  2  0
  8  9  1  0
  9 10  2  0
 10 11  1  0
 11  1  1  0
  1 12  1  0
 12 13  1  0
 13 14  2  0
 13 18  1  0
 14 15  1  0
 15 16  2  0
 16 17  1  0
 17 18  2  0
 18 19  1  0
 19 20  2  0
 19 21  1  0
M  END
>  <minimizedAffinity>  (186) 
-8.61802

$$$$
cs_full_output_folder/data/smiles/8351.pdb
     RDKit          3D

 21 23  0  0  0  0  0  0  0  0999 V2000
   67.1553   44.3854   52.9957 O   0  0  0  0  0  0  0  0  0  0  0  0
   67.7092   45.2062   53.8119 C   0  0  0  0  0  0  0  0  0  0  0  0
   67.8198   44.9368   55.1240 N   0  0  0  0  0  0  0  0  0  0  0  0
   68.3869   45.7641   55.9908 N   0  0  0  0  0  0  0  0  0  0  0  0
   68.9024   46.9652   55.5991 C   0  0  0  0  0  0  0  0  0  0  0  0
   68.8013   47.2592   54.2900 C   0  0  0  0  0  0  0  0  0  0  0  0
   68.2077   46.3975   53.3591 C   0  0  0  0  0  0  0  0  0  0  0  0
   68.1801   46.8458   51.9506 C   0  0  0  0  0  0  0  0  0  0  0  0
   69.6381   47.2107   51.6410 C   0  0  0  0  0  0  0  0  0  0  0  0
   70.1390   48.2805   52.5569 C   0  0  0  0  0  0  0  0  0  0  0  0
   69.2593   48.5422   53.7481 C   0  0  0  0  0  0  0  0  0  0  0  0
   69.5734   47.8190   56.5718 C   0  0  0  0  0  0  0  0  0  0  0  0
   68.7826   49.0544   56.8116 C   0  0  0  0  0  0  0  0  0  0  0  0
   67.6046   48.9805   57.5787 C   0  0  0  0  0  0  0  0  0  0  0  0
   66.8093   50.0632   57.8380 C   0  0  0  0  0  0  0  0  0  0  0  0
   67.1495   51.3125   57.3364 C   0  0  0  0  0  0  0  0  0  0  0  0
   68.2825   51.4273   56.5888 C   0  0  0  0  0  0  0  0  0  0  0  0
   69.0731   50.3029   56.3418 C   0  0  0  0  0  0  0  0  0  0  0  0
   68.6621   52.6943   56.0593 N   0  0  0  0  0  0  0  0  0  0  0  0
   68.9941   53.6146   56.8249 O   0  0  0  0  0  0  0  0  0  0  0  0
   68.6663   52.9156   54.7142 O   0  0  0  0  0  0  0  0  0  0  0  0
  1  2  2  0
  2  3  1  0
  2  7  1  0
  3  4  1  0
  4  5  2  0
  5 12  1  0
  5  6  1  0
 12 13  1  0
 13 14  2  0
 13 18  1  0
 14 15  1  0
 15 16  2  0
 16 17  1  0
 17 19  1  0
 17 18  2  0
 19 20  2  0
 19 21  1  0
  6  7  2  0
  6 11  1  0
  7  8  1  0
  8  9  1  0
  9 10  1  0
 10 11  1  0
M  CHG  2  19   1  21  -1
M  END
>  <minimizedAffinity>  (187) 
-8.61650

$$$$
cs_full_output_folder/data/smiles/4938.pdb
     RDKit          3D

 20 21  0  0  0  0  0  0  0  0999 V2000
   68.8405   46.7603   55.8732 C   0  0  0  0  0  0  0  0  0  0  0  0
   68.3147   45.8140   56.5041 O   0  0  0  0  0  0  0  0  0  0  0  0
   68.7448   46.7899   54.4235 C   0  0  0  0  0  0  0  0  0  0  0  0
   67.9721   45.8935   53.7222 C   0  0  0  0  0  0  0  0  0  0  0  0
   67.8548   45.9615   52.3332 C   0  0  0  0  0  0  0  0  0  0  0  0
   68.5140   46.9350   51.6283 C   0  0  0  0  0  0  0  0  0  0  0  0
   69.2911   47.8339   52.3442 C   0  0  0  0  0  0  0  0  0  0  0  0
   69.4187   47.7802   53.7034 C   0  0  0  0  0  0  0  0  0  0  0  0
   69.9877   48.8612   51.6661 N   0  0  0  0  0  0  0  0  0  0  0  0
   70.7298   48.5769   50.6891 O   0  0  0  0  0  0  0  0  0  0  0  0
   69.8988   50.1813   52.0232 O   0  0  0  0  0  0  0  0  0  0  0  0
   69.5387   47.8126   56.6040 C   0  0  0  0  0  0  0  0  0  0  0  0
   68.0835   51.2918   56.7139 C   0  0  0  0  0  0  0  0  0  0  0  0
   66.9623   51.0708   57.4655 C   0  0  0  0  0  0  0  0  0  0  0  0
   66.6291   49.8153   57.9435 C   0  0  0  0  0  0  0  0  0  0  0  0
   67.4591   48.7498   57.6501 C   0  0  0  0  0  0  0  0  0  0  0  0
   68.5885   48.9427   56.9030 C   0  0  0  0  0  0  0  0  0  0  0  0
   68.8812   50.2032   56.4477 C   0  0  0  0  0  0  0  0  0  0  0  0
   69.7699   52.8771   55.9419 C   0  0  0  0  0  0  0  0  0  0  0  0
   68.4029   52.5821   56.2321 O   0  0  0  0  0  0  0  0  0  0  0  0
 19 20  1  0
 20 13  1  0
 13 14  2  0
 13 18  1  0
 14 15  1  0
 15 16  2  0
 16 17  1  0
 17 12  1  0
 17 18  2  0
 12  1  1  0
  1  2  2  0
  1  3  1  0
  3  4  2  0
  3  8  1  0
  4  5  1  0
  5  6  2  0
  6  7  1  0
  7  9  1  0
  7  8  2  0
  9 10  2  0
  9 11  1  0
M  CHG  2   9   1  11  -1
M  END
>  <minimizedAffinity>  (188) 
-8.61578

$$$$
cs_full_output_folder/data/smiles/351.pdb
     RDKit          3D

 19 21  0  0  0  0  0  0  0  0999 V2000
   70.0830   49.3295   51.5376 N   0  0  0  0  0  0  0  0  0  0  0  0
   69.3440   48.2194   52.0145 C   0  0  0  0  0  0  0  0  0  0  0  0
   69.3046   47.8747   53.3556 C   0  0  0  0  0  0  0  0  0  0  0  0
   68.5998   46.8046   53.8588 C   0  0  0  0  0  0  0  0  0  0  0  0
   67.8868   46.0293   52.9590 C   0  0  0  0  0  0  0  0  0  0  0  0
   67.1042   44.9404   53.0651 N   0  0  0  0  0  0  0  0  0  0  0  0
   66.6870   44.6383   51.8501 N   0  0  0  0  0  0  0  0  0  0  0  0
   67.1618   45.4789   50.9533 N   0  0  0  0  0  0  0  0  0  0  0  0
   67.9235   46.3700   51.6248 C   0  0  0  0  0  0  0  0  0  0  0  0
   68.6305   47.4291   51.1803 N   0  0  0  0  0  0  0  0  0  0  0  0
   68.5809   46.3956   55.5988 S   0  0  0  0  0  0  0  0  0  0  0  0
   69.5131   47.6620   56.5039 C   0  0  0  0  0  0  0  0  0  0  0  0
   68.7042   48.8532   56.8203 C   0  0  0  0  0  0  0  0  0  0  0  0
   67.5326   48.7196   57.5334 C   0  0  0  0  0  0  0  0  0  0  0  0
   66.7497   49.8042   57.8463 C   0  0  0  0  0  0  0  0  0  0  0  0
   67.1215   51.0755   57.4490 C   0  0  0  0  0  0  0  0  0  0  0  0
   68.2996   51.2383   56.7288 C   0  0  0  0  0  0  0  0  0  0  0  0
   68.8243   52.8387   56.1954 Cl  0  0  0  0  0  0  0  0  0  0  0  0
   69.0632   50.1333   56.4300 C   0  0  0  0  0  0  0  0  0  0  0  0
  1  2  1  0
  2  3  2  0
  2 10  1  0
  3  4  1  0
  4 11  1  0
  4  5  2  0
 11 12  1  0
 12 13  1  0
 13 14  2  0
 13 19  1  0
 14 15  1  0
 15 16  2  0
 16 17  1  0
 17 18  1  0
 17 19  2  0
  5  6  1  0
  5  9  1  0
  6  7  2  0
  7  8  1  0
  8  9  1  0
  9 10  2  0
M  END
>  <minimizedAffinity>  (189) 
-8.61325

$$$$
cs_full_output_folder/data/smiles/3561.pdb
     RDKit          3D

 22 24  0  0  0  0  0  0  0  0999 V2000
   69.9828   45.0488   59.1984 O   0  0  0  0  0  0  0  0  0  0  0  0
   70.1573   44.7864   57.9919 C   0  0  0  0  0  0  0  0  0  0  0  0
   69.5928   45.6906   57.0215 N   0  0  0  0  0  0  0  0  0  0  0  0
   68.8720   46.8108   57.3376 N   0  0  0  0  0  0  0  0  0  0  0  0
   68.6482   47.8634   56.6701 C   0  0  0  0  0  0  0  0  0  0  0  0
   69.1497   48.1153   55.3283 C   0  0  0  0  0  0  0  0  0  0  0  0
   70.0402   49.0319   54.8374 C   0  0  0  0  0  0  0  0  0  0  0  0
   70.1885   48.8949   53.4912 N   0  0  0  0  0  0  0  0  0  0  0  0
   69.3963   47.8868   53.0813 C   0  0  0  0  0  0  0  0  0  0  0  0
   69.1597   47.3226   51.8217 C   0  0  0  0  0  0  0  0  0  0  0  0
   68.2694   46.2731   51.7383 C   0  0  0  0  0  0  0  0  0  0  0  0
   67.6152   45.7685   52.8403 C   0  0  0  0  0  0  0  0  0  0  0  0
   67.8608   46.3364   54.0707 C   0  0  0  0  0  0  0  0  0  0  0  0
   68.7495   47.3938   54.1972 C   0  0  0  0  0  0  0  0  0  0  0  0
   70.9257   43.5742   57.6305 C   0  0  0  0  0  0  0  0  0  0  0  0
   70.1064   42.3397   57.6581 C   0  0  0  0  0  0  0  0  0  0  0  0
   68.8514   42.3137   57.0294 C   0  0  0  0  0  0  0  0  0  0  0  0
   68.1012   41.1530   57.0473 C   0  0  0  0  0  0  0  0  0  0  0  0
   68.5367   40.0050   57.6626 C   0  0  0  0  0  0  0  0  0  0  0  0
   67.8184   38.8566   57.6927 F   0  0  0  0  0  0  0  0  0  0  0  0
   69.7829   40.0501   58.2794 C   0  0  0  0  0  0  0  0  0  0  0  0
   70.5573   41.2061   58.2757 C   0  0  0  0  0  0  0  0  0  0  0  0
  1  2  2  0
  2 15  1  0
  2  3  1  0
 15 16  1  0
 16 17  2  0
 16 22  1  0
 17 18  1  0
 18 19  2  0
 19 20  1  0
 19 21  1  0
 21 22  2  0
  3  4  1  0
  4  5  2  0
  5  6  1  0
  6  7  2  0
  6 14  1  0
  7  8  1  0
  8  9  1  0
  9 10  1  0
  9 14  2  0
 10 11  2  0
 11 12  1  0
 12 13  2  0
 13 14  1  0
M  END
>  <minimizedAffinity>  (190) 
-8.61195

$$$$
cs_full_output_folder/data/smiles/1343.pdb
     RDKit          3D

 20 22  0  0  0  0  0  0  0  0999 V2000
   70.3506   50.0097   53.5092 C   0  0  0  0  0  0  0  0  0  0  0  0
   71.6847   49.6768   53.5423 N   0  0  0  0  0  0  0  0  0  0  0  0
   72.5749   50.3476   54.2313 N   0  0  0  0  0  0  0  0  0  0  0  0
   72.2801   51.4256   54.9742 C   0  0  0  0  0  0  0  0  0  0  0  0
   73.1535   52.0579   55.6325 O   0  0  0  0  0  0  0  0  0  0  0  0
   70.9670   51.8184   54.9911 C   0  0  0  0  0  0  0  0  0  0  0  0
   70.0098   51.0954   54.2471 C   0  0  0  0  0  0  0  0  0  0  0  0
   68.6574   51.6487   54.3267 C   0  0  0  0  0  0  0  0  0  0  0  0
   68.3012   51.6942   55.8160 C   0  0  0  0  0  0  0  0  0  0  0  0
   69.3057   52.4902   56.6000 C   0  0  0  0  0  0  0  0  0  0  0  0
   70.4661   52.9809   55.7643 C   0  0  0  0  0  0  0  0  0  0  0  0
   69.3987   49.2041   52.7583 C   0  0  0  0  0  0  0  0  0  0  0  0
   68.5628   46.5399   56.7906 N   0  0  0  0  0  0  0  0  0  0  0  0
   68.5380   46.6207   55.3724 C   0  0  0  0  0  0  0  0  0  0  0  0
   68.9449   47.8009   54.7379 C   0  0  0  0  0  0  0  0  0  0  0  0
   68.9500   47.9567   53.3805 C   0  0  0  0  0  0  0  0  0  0  0  0
   68.5306   46.8921   52.5994 C   0  0  0  0  0  0  0  0  0  0  0  0
   68.1273   45.7259   53.2063 C   0  0  0  0  0  0  0  0  0  0  0  0
   68.1272   45.5811   54.5763 C   0  0  0  0  0  0  0  0  0  0  0  0
   67.7249   44.4129   55.2146 O   0  0  0  0  0  0  0  0  0  0  0  0
 13 14  1  0
 14 15  2  0
 14 19  1  0
 15 16  1  0
 16 12  1  0
 16 17  2  0
 12  1  1  0
  1  2  2  0
  1  7  1  0
  2  3  1  0
  3  4  1  0
  4  5  2  0
  4  6  1  0
  6  7  2  0
  6 11  1  0
  7  8  1  0
  8  9  1  0
  9 10  1  0
 10 11  1  0
 17 18  1  0
 18 19  2  0
 19 20  1  0
M  END
>  <minimizedAffinity>  (191) 
-8.61191

$$$$
cs_full_output_folder/data/smiles/3770.pdb
     RDKit          3D

 22 23  0  0  0  0  0  0  0  0999 V2000
   67.9632   48.2845   56.9757 C   0  0  0  0  0  0  0  0  0  0  0  0
   68.9379   47.4442   56.4818 C   0  0  0  0  0  0  0  0  0  0  0  0
   68.8236   47.2368   55.0545 C   0  0  0  0  0  0  0  0  0  0  0  0
   68.0770   46.2607   54.4430 C   0  0  0  0  0  0  0  0  0  0  0  0
   67.9232   46.1359   53.0720 C   0  0  0  0  0  0  0  0  0  0  0  0
   67.1482   45.1201   52.5341 O   0  0  0  0  0  0  0  0  0  0  0  0
   68.5365   47.0214   52.2234 C   0  0  0  0  0  0  0  0  0  0  0  0
   68.3925   46.9121   50.8384 O   0  0  0  0  0  0  0  0  0  0  0  0
   69.2954   48.0151   52.7924 C   0  0  0  0  0  0  0  0  0  0  0  0
   69.4406   48.1284   54.1574 C   0  0  0  0  0  0  0  0  0  0  0  0
   69.9404   48.9350   51.9019 N   0  0  0  0  0  0  0  0  0  0  0  0
   69.8567   50.1523   52.0403 O   0  0  0  0  0  0  0  0  0  0  0  0
   70.6669   48.4013   50.8718 O   0  0  0  0  0  0  0  0  0  0  0  0
   69.8423   46.9758   57.4648 C   0  0  0  0  0  0  0  0  0  0  0  0
   69.6191   45.7114   57.8030 O   0  0  0  0  0  0  0  0  0  0  0  0
   70.9491   47.5450   58.1834 C   0  0  0  0  0  0  0  0  0  0  0  0
   71.5980   48.7185   57.8949 C   0  0  0  0  0  0  0  0  0  0  0  0
   72.6210   49.2737   58.6463 C   0  0  0  0  0  0  0  0  0  0  0  0
   73.0211   48.5926   59.7746 C   0  0  0  0  0  0  0  0  0  0  0  0
   74.1221   49.1920   60.5828 C   0  0  0  0  0  0  0  0  0  0  0  0
   72.4227   47.4102   60.1294 C   0  0  0  0  0  0  0  0  0  0  0  0
   71.4146   46.8970   59.3577 C   0  0  0  0  0  0  0  0  0  0  0  0
  1  2  2  0
  2 14  1  0
  2  3  1  0
 14 15  2  0
 14 16  1  0
 16 17  2  0
 16 22  1  0
 17 18  1  0
 18 19  2  0
 19 20  1  0
 19 21  1  0
 21 22  2  0
  3  4  2  0
  3 10  1  0
  4  5  1  0
  5  6  1  0
  5  7  2  0
  7  8  1  0
  7  9  1  0
  9 11  1  0
  9 10  2  0
 11 12  2  0
 11 13  1  0
M  CHG  2  11   1  13  -1
M  END
>  <minimizedAffinity>  (192) 
-8.60877

$$$$
cs_full_output_folder/data/smiles/345.pdb
     RDKit          3D

 19 20  0  0  0  0  0  0  0  0999 V2000
   68.5075   47.1090   55.0547 C   0  0  0  0  0  0  0  0  0  0  0  0
   67.7736   46.2393   54.3449 C   0  0  0  0  0  0  0  0  0  0  0  0
   67.8318   46.1403   52.9376 C   0  0  0  0  0  0  0  0  0  0  0  0
   67.0562   45.2314   52.2571 O   0  0  0  0  0  0  0  0  0  0  0  0
   68.6826   46.9803   52.2925 C   0  0  0  0  0  0  0  0  0  0  0  0
   68.7667   46.9119   50.9016 O   0  0  0  0  0  0  0  0  0  0  0  0
   69.4750   47.9004   52.9430 C   0  0  0  0  0  0  0  0  0  0  0  0
   69.3739   47.9481   54.3082 C   0  0  0  0  0  0  0  0  0  0  0  0
   70.3550   48.7578   52.2144 N   0  0  0  0  0  0  0  0  0  0  0  0
   71.5208   48.9669   52.6698 O   0  0  0  0  0  0  0  0  0  0  0  0
   69.9436   49.3540   51.0305 O   0  0  0  0  0  0  0  0  0  0  0  0
   67.2927   47.5959   56.9760 O   0  0  0  0  0  0  0  0  0  0  0  0
   68.4986   47.3695   56.4433 C   0  0  0  0  0  0  0  0  0  0  0  0
   69.5913   47.4144   57.3826 C   0  0  0  0  0  0  0  0  0  0  0  0
   70.1777   48.5143   57.9177 C   0  0  0  0  0  0  0  0  0  0  0  0
   71.2879   48.4473   58.7907 C   0  0  0  0  0  0  0  0  0  0  0  0
   71.8369   47.2474   59.1463 C   0  0  0  0  0  0  0  0  0  0  0  0
   71.2638   46.1076   58.6213 C   0  0  0  0  0  0  0  0  0  0  0  0
   70.1860   46.1840   57.7744 C   0  0  0  0  0  0  0  0  0  0  0  0
 12 13  2  0
 13 14  1  0
 13  1  1  0
 14 15  2  0
 14 19  1  0
 15 16  1  0
 16 17  2  0
 17 18  1  0
 18 19  2  0
  1  2  2  0
  1  8  1  0
  2  3  1  0
  3  4  1  0
  3  5  2  0
  5  6  1  0
  5  7  1  0
  7  9  1  0
  7  8  2  0
  9 10  2  0
  9 11  1  0
M  CHG  2   9   1  11  -1
M  END
>  <minimizedAffinity>  (193) 
-8.60508

$$$$
cs_full_output_folder/data/smiles/188.pdb
     RDKit          3D

 22 24  0  0  0  0  0  0  0  0999 V2000
   70.5533   50.7530   53.2381 N   0  0  0  0  0  0  0  0  0  0  0  0
   69.9427   49.5496   52.8681 C   0  0  0  0  0  0  0  0  0  0  0  0
   69.5049   48.7091   53.9103 C   0  0  0  0  0  0  0  0  0  0  0  0
   68.8849   47.5282   53.6065 C   0  0  0  0  0  0  0  0  0  0  0  0
   68.4354   46.6706   54.5855 C   0  0  0  0  0  0  0  0  0  0  0  0
   67.8134   45.4869   54.2815 C   0  0  0  0  0  0  0  0  0  0  0  0
   67.6277   45.1375   52.9606 C   0  0  0  0  0  0  0  0  0  0  0  0
   68.0696   45.9797   51.9606 C   0  0  0  0  0  0  0  0  0  0  0  0
   68.6896   47.1595   52.2688 C   0  0  0  0  0  0  0  0  0  0  0  0
   69.1191   47.9828   51.3296 O   0  0  0  0  0  0  0  0  0  0  0  0
   69.7135   49.1158   51.5952 C   0  0  0  0  0  0  0  0  0  0  0  0
   70.0988   49.8536   50.6233 O   0  0  0  0  0  0  0  0  0  0  0  0
   69.7553   49.1360   55.2405 N   0  0  0  0  0  0  0  0  0  0  0  0
   68.9330   49.7320   56.0713 C   0  0  0  0  0  0  0  0  0  0  0  0
   68.2701   48.6085   57.3788 C   0  0  0  0  0  0  0  0  0  0  0  0
   67.9039   49.5230   57.4985 C   0  0  0  0  0  0  0  0  0  0  0  0
   67.6377   50.2070   57.5780 C   0  0  0  0  0  0  0  0  0  0  0  0
   67.2875   51.1368   57.6711 C   0  0  0  0  0  0  0  0  0  0  0  0
   68.4168   50.9982   56.2463 C   0  0  0  0  0  0  0  0  0  0  0  0
   68.6141   52.1241   55.5456 C   0  0  0  0  0  0  0  0  0  0  0  0
   68.0508   52.2559   54.3829 O   0  0  0  0  0  0  0  0  0  0  0  0
   69.3690   53.2324   55.8934 O   0  0  0  0  0  0  0  0  0  0  0  0
  1  2  1  0
  2  3  2  0
  2 11  1  0
  3 13  1  0
  3  4  1  0
 13 14  1  0
 14 15  2  0
 14 19  1  0
 15 16  1  0
 16 17  3  0
 17 18  1  0
 18 19  2  0
 19 20  1  0
 20 21  2  0
 20 22  1  0
  4  5  2  0
  4  9  1  0
  5  6  1  0
  6  7  2  0
  7  8  1  0
  8  9  2  0
  9 10  1  0
 10 11  1  0
 11 12  2  0
M  END
>  <minimizedAffinity>  (194) 
-8.60490

$$$$
cs_full_output_folder/data/smiles/6241.pdb
     RDKit          3D

 21 23  0  0  0  0  0  0  0  0999 V2000
   70.1319   48.7360   54.9372 C   0  0  0  0  0  0  0  0  0  0  0  0
   71.0173   49.4567   54.1796 N   0  0  0  0  0  0  0  0  0  0  0  0
   71.0881   49.2629   52.8926 N   0  0  0  0  0  0  0  0  0  0  0  0
   70.3234   48.3734   52.2485 C   0  0  0  0  0  0  0  0  0  0  0  0
   70.4204   48.2162   51.0091 O   0  0  0  0  0  0  0  0  0  0  0  0
   69.3869   47.5890   52.9476 C   0  0  0  0  0  0  0  0  0  0  0  0
   69.3145   47.7950   54.3091 C   0  0  0  0  0  0  0  0  0  0  0  0
   68.3787   46.9762   55.1454 C   0  0  0  0  0  0  0  0  0  0  0  0
   68.2287   45.6325   54.3970 C   0  0  0  0  0  0  0  0  0  0  0  0
   67.5530   46.0013   53.0725 C   0  0  0  0  0  0  0  0  0  0  0  0
   68.5657   46.6334   52.1691 C   0  0  0  0  0  0  0  0  0  0  0  0
   70.0480   48.9855   56.3930 C   0  0  0  0  0  0  0  0  0  0  0  0
   68.5540   50.9886   56.5438 C   0  0  0  0  0  0  0  0  0  0  0  0
   67.3405   51.5810   56.9419 C   0  0  0  0  0  0  0  0  0  0  0  0
   66.4090   50.8714   57.6314 C   0  0  0  0  0  0  0  0  0  0  0  0
   66.6455   49.5607   57.9473 C   0  0  0  0  0  0  0  0  0  0  0  0
   67.8269   49.0088   57.5489 C   0  0  0  0  0  0  0  0  0  0  0  0
   68.8276   49.6788   56.8345 C   0  0  0  0  0  0  0  0  0  0  0  0
   70.5452   52.4762   56.5718 N   0  0  0  0  0  0  0  0  0  0  0  0
   69.4679   51.8676   55.8688 C   0  0  0  0  0  0  0  0  0  0  0  0
   69.3759   52.1416   54.6728 O   0  0  0  0  0  0  0  0  0  0  0  0
 19 20  1  0
 20 21  2  0
 20 13  1  0
 13 14  2  0
 13 18  1  0
 14 15  1  0
 15 16  2  0
 16 17  1  0
 17 18  2  0
 18 12  1  0
 12  1  1  0
  1  2  2  0
  1  7  1  0
  2  3  1  0
  3  4  1  0
  4  5  2  0
  4  6  1  0
  6  7  2  0
  6 11  1  0
  7  8  1  0
  8  9  1  0
  9 10  1  0
 10 11  1  0
M  END
>  <minimizedAffinity>  (195) 
-8.60328

$$$$
cs_full_output_folder/data/smiles/4094.pdb
     RDKit          3D

 22 24  0  0  0  0  0  0  0  0999 V2000
   68.8296   48.4184   56.2553 C   0  0  0  0  0  0  0  0  0  0  0  0
   69.3147   48.4322   54.8634 C   0  0  0  0  0  0  0  0  0  0  0  0
   70.2251   49.3572   54.4764 N   0  0  0  0  0  0  0  0  0  0  0  0
   70.6300   49.4603   53.2154 N   0  0  0  0  0  0  0  0  0  0  0  0
   70.1606   48.6532   52.2554 C   0  0  0  0  0  0  0  0  0  0  0  0
   70.5565   48.7686   51.0708 O   0  0  0  0  0  0  0  0  0  0  0  0
   69.2310   47.6815   52.5699 C   0  0  0  0  0  0  0  0  0  0  0  0
   68.7609   46.8294   51.5964 C   0  0  0  0  0  0  0  0  0  0  0  0
   67.8584   45.8509   51.9332 C   0  0  0  0  0  0  0  0  0  0  0  0
   67.4379   45.7382   53.2419 C   0  0  0  0  0  0  0  0  0  0  0  0
   67.9137   46.5899   54.1870 C   0  0  0  0  0  0  0  0  0  0  0  0
   68.8210   47.5927   53.9020 C   0  0  0  0  0  0  0  0  0  0  0  0
   70.7366   45.5839   57.9619 C   0  0  0  0  0  0  0  0  0  0  0  0
   71.6001   46.3395   58.7230 C   0  0  0  0  0  0  0  0  0  0  0  0
   71.5727   47.7184   58.6889 C   0  0  0  0  0  0  0  0  0  0  0  0
   70.6519   48.3271   57.8656 C   0  0  0  0  0  0  0  0  0  0  0  0
   69.7487   47.6031   57.0682 C   0  0  0  0  0  0  0  0  0  0  0  0
   69.8360   46.2547   57.1555 C   0  0  0  0  0  0  0  0  0  0  0  0
   70.3264   41.9029   58.9761 C   0  0  0  0  0  0  0  0  0  0  0  0
   70.1145   43.3877   58.9840 C   0  0  0  0  0  0  0  0  0  0  0  0
   69.3243   43.9442   59.7681 O   0  0  0  0  0  0  0  0  0  0  0  0
   70.8345   44.1790   58.0706 N   0  0  0  0  0  0  0  0  0  0  0  0
 19 20  1  0
 20 21  2  0
 20 22  1  0
 22 13  1  0
 13 14  2  0
 13 18  1  0
 14 15  1  0
 15 16  2  0
 16 17  1  0
 17  1  1  0
 17 18  2  0
  1  2  1  0
  2  3  2  0
  2 12  1  0
  3  4  1  0
  4  5  1  0
  5  6  2  0
  5  7  1  0
  7  8  1  0
  7 12  2  0
  8  9  2  0
  9 10  1  0
 10 11  2  0
 11 12  1  0
M  END
>  <minimizedAffinity>  (196) 
-8.59461

$$$$
cs_full_output_folder/data/smiles/1613.pdb
     RDKit          3D

 21 24  0  0  0  0  0  0  0  0999 V2000
   70.0320   49.5479   53.3818 C   0  0  0  0  0  0  0  0  0  0  0  0
   70.0553   50.0612   52.1414 N   0  0  0  0  0  0  0  0  0  0  0  0
   69.4953   49.1608   51.3575 N   0  0  0  0  0  0  0  0  0  0  0  0
   69.1029   48.0706   52.0386 C   0  0  0  0  0  0  0  0  0  0  0  0
   68.4847   46.8804   51.6968 C   0  0  0  0  0  0  0  0  0  0  0  0
   68.2027   45.9212   52.6480 C   0  0  0  0  0  0  0  0  0  0  0  0
   68.5345   46.1302   53.9843 C   0  0  0  0  0  0  0  0  0  0  0  0
   69.1485   47.3282   54.2821 C   0  0  0  0  0  0  0  0  0  0  0  0
   69.4413   48.3033   53.3437 C   0  0  0  0  0  0  0  0  0  0  0  0
   68.2370   45.1212   54.9866 C   0  0  0  0  0  0  0  0  0  0  0  0
   68.5542   44.9188   56.2105 N   0  0  0  0  0  0  0  0  0  0  0  0
   67.8025   43.7420   56.2749 N   0  0  0  0  0  0  0  0  0  0  0  0
   67.4824   43.9443   55.0415 N   0  0  0  0  0  0  0  0  0  0  0  0
   70.5406   50.1591   54.6462 C   0  0  0  0  0  0  0  0  0  0  0  0
   69.5581   51.2118   55.0828 C   0  0  0  0  0  0  0  0  0  0  0  0
   66.8254   49.8451   58.0484 C   0  0  0  0  0  0  0  0  0  0  0  0
   67.8917   49.0514   57.7075 C   0  0  0  0  0  0  0  0  0  0  0  0
   68.7898   49.4964   56.7364 C   0  0  0  0  0  0  0  0  0  0  0  0
   68.6230   50.7165   56.1163 C   0  0  0  0  0  0  0  0  0  0  0  0
   67.5451   51.4861   56.4799 C   0  0  0  0  0  0  0  0  0  0  0  0
   66.6434   51.0806   57.4311 C   0  0  0  0  0  0  0  0  0  0  0  0
 16 17  2  0
 16 21  1  0
 17 18  1  0
 18 19  2  0
 19 15  1  0
 19 20  1  0
 15 14  1  0
 14  1  1  0
  1  2  2  0
  1  9  1  0
  2  3  1  0
  3  4  1  0
  4  5  1  0
  4  9  2  0
  5  6  2  0
  6  7  1  0
  7 10  1  0
  7  8  2  0
 10 11  2  0
 10 13  1  0
 11 12  1  0
 12 13  2  0
  8  9  1  0
 20 21  2  0
M  CHG  1  11   1
M  END
>  <minimizedAffinity>  (197) 
-8.59140

$$$$
cs_full_output_folder/data/smiles/8119.pdb
     RDKit          3D

 22 24  0  0  0  0  0  0  0  0999 V2000
   70.7059   48.1460   57.4380 O   0  0  0  0  0  0  0  0  0  0  0  0
   70.3377   46.9358   57.3840 C   0  0  0  0  0  0  0  0  0  0  0  0
   71.0584   45.9777   58.0619 C   0  0  0  0  0  0  0  0  0  0  0  0
   70.6025   44.6595   57.9647 C   0  0  0  0  0  0  0  0  0  0  0  0
   69.4915   44.3357   57.2300 C   0  0  0  0  0  0  0  0  0  0  0  0
   68.8617   45.3600   56.6038 N   0  0  0  0  0  0  0  0  0  0  0  0
   69.2420   46.6134   56.6594 N   0  0  0  0  0  0  0  0  0  0  0  0
   69.0073   42.9657   57.1205 C   0  0  0  0  0  0  0  0  0  0  0  0
   67.9888   42.6630   56.2306 C   0  0  0  0  0  0  0  0  0  0  0  0
   67.4731   41.4036   56.0641 C   0  0  0  0  0  0  0  0  0  0  0  0
   67.9765   40.3722   56.8078 C   0  0  0  0  0  0  0  0  0  0  0  0
   68.9911   40.6221   57.7062 C   0  0  0  0  0  0  0  0  0  0  0  0
   69.4960   41.9163   57.8544 C   0  0  0  0  0  0  0  0  0  0  0  0
   68.4719   47.6183   55.9345 C   0  0  0  0  0  0  0  0  0  0  0  0
   68.5608   47.2954   54.4872 C   0  0  0  0  0  0  0  0  0  0  0  0
   67.8497   46.2892   53.8760 C   0  0  0  0  0  0  0  0  0  0  0  0
   67.9519   46.0147   52.5341 C   0  0  0  0  0  0  0  0  0  0  0  0
   67.2309   45.0114   51.9751 F   0  0  0  0  0  0  0  0  0  0  0  0
   68.8051   46.7752   51.7448 C   0  0  0  0  0  0  0  0  0  0  0  0
   69.5331   47.7897   52.3137 C   0  0  0  0  0  0  0  0  0  0  0  0
   70.3573   48.5113   51.5087 F   0  0  0  0  0  0  0  0  0  0  0  0
   69.4081   48.0392   53.6598 C   0  0  0  0  0  0  0  0  0  0  0  0
  1  2  2  0
  2  3  1  0
  2  7  1  0
  3  4  2  0
  4  5  1  0
  5  8  1  0
  5  6  2  0
  8  9  2  0
  8 13  1  0
  9 10  1  0
 10 11  2  0
 11 12  1  0
 12 13  2  0
  6  7  1  0
  7 14  1  0
 14 15  1  0
 15 16  2  0
 15 22  1  0
 16 17  1  0
 17 18  1  0
 17 19  2  0
 19 20  1  0
 20 21  1  0
 20 22  2  0
M  END
>  <minimizedAffinity>  (198) 
-8.59024

$$$$
cs_full_output_folder/data/smiles/3754.pdb
     RDKit          3D

 19 21  0  0  0  0  0  0  0  0999 V2000
   70.6329   48.5786   50.8603 O   0  0  0  0  0  0  0  0  0  0  0  0
   70.3408   48.4185   52.0735 C   0  0  0  0  0  0  0  0  0  0  0  0
   70.9856   49.1055   53.0203 N   0  0  0  0  0  0  0  0  0  0  0  0
   70.7085   48.9647   54.2906 N   0  0  0  0  0  0  0  0  0  0  0  0
   69.7502   48.1181   54.7583 C   0  0  0  0  0  0  0  0  0  0  0  0
   69.0575   47.3871   53.8336 C   0  0  0  0  0  0  0  0  0  0  0  0
   68.0763   46.4902   54.2092 C   0  0  0  0  0  0  0  0  0  0  0  0
   67.4253   45.7803   53.2405 C   0  0  0  0  0  0  0  0  0  0  0  0
   67.7226   45.9353   51.9100 C   0  0  0  0  0  0  0  0  0  0  0  0
   68.6898   46.8141   51.5003 C   0  0  0  0  0  0  0  0  0  0  0  0
   69.3572   47.5418   52.4845 C   0  0  0  0  0  0  0  0  0  0  0  0
   69.5184   48.1003   56.1868 C   0  0  0  0  0  0  0  0  0  0  0  0
   68.6705   49.1808   56.7306 C   0  0  0  0  0  0  0  0  0  0  0  0
   67.5100   48.8799   57.3883 C   0  0  0  0  0  0  0  0  0  0  0  0
   66.6576   49.8584   57.9143 C   0  0  0  0  0  0  0  0  0  0  0  0
   67.0096   51.1795   57.7585 C   0  0  0  0  0  0  0  0  0  0  0  0
   68.1888   51.4938   57.0906 C   0  0  0  0  0  0  0  0  0  0  0  0
   68.4790   52.8549   56.9717 O   0  0  0  0  0  0  0  0  0  0  0  0
   68.9976   50.5136   56.5903 C   0  0  0  0  0  0  0  0  0  0  0  0
  1  2  2  0
  2  3  1  0
  2 11  1  0
  3  4  1  0
  4  5  2  0
  5 12  1  0
  5  6  1  0
 12 13  1  0
 13 14  2  0
 13 19  1  0
 14 15  1  0
 15 16  2  0
 16 17  1  0
 17 18  1  0
 17 19  2  0
  6  7  1  0
  6 11  2  0
  7  8  2  0
  8  9  1  0
  9 10  2  0
 10 11  1  0
M  END
>  <minimizedAffinity>  (199) 
-8.58971

$$$$
cs_full_output_folder/data/smiles/5654.pdb
     RDKit          3D

 20 22  0  0  0  0  0  0  0  0999 V2000
   70.3949   48.4032   50.9294 O   0  0  0  0  0  0  0  0  0  0  0  0
   70.2969   48.4312   52.1637 C   0  0  0  0  0  0  0  0  0  0  0  0
   71.1512   49.1865   52.8732 N   0  0  0  0  0  0  0  0  0  0  0  0
   71.0749   49.2401   54.1867 N   0  0  0  0  0  0  0  0  0  0  0  0
   70.1574   48.5577   54.8961 C   0  0  0  0  0  0  0  0  0  0  0  0
   69.2346   47.7471   54.2203 C   0  0  0  0  0  0  0  0  0  0  0  0
   69.3258   47.7024   52.8517 C   0  0  0  0  0  0  0  0  0  0  0  0
   68.4101   46.8940   52.0611 C   0  0  0  0  0  0  0  0  0  0  0  0
   67.8451   45.6833   52.7268 C   0  0  0  0  0  0  0  0  0  0  0  0
   68.1307   45.5768   54.1889 C   0  0  0  0  0  0  0  0  0  0  0  0
   68.2295   46.9210   54.8723 C   0  0  0  0  0  0  0  0  0  0  0  0
   70.0586   48.6745   56.3397 C   0  0  0  0  0  0  0  0  0  0  0  0
   68.8740   49.4150   56.7581 C   0  0  0  0  0  0  0  0  0  0  0  0
   68.6231   50.6736   56.1793 C   0  0  0  0  0  0  0  0  0  0  0  0
   67.5094   51.3927   56.5185 C   0  0  0  0  0  0  0  0  0  0  0  0
   66.6049   50.9125   57.4284 C   0  0  0  0  0  0  0  0  0  0  0  0
   65.4888   51.6318   57.7684 F   0  0  0  0  0  0  0  0  0  0  0  0
   66.8347   49.6989   57.9945 C   0  0  0  0  0  0  0  0  0  0  0  0
   65.9544   49.2014   58.8970 F   0  0  0  0  0  0  0  0  0  0  0  0
   67.9662   48.9441   57.6627 C   0  0  0  0  0  0  0  0  0  0  0  0
  1  2  2  0
  2  3  1  0
  2  7  1  0
  3  4  1  0
  4  5  2  0
  5 12  1  0
  5  6  1  0
 12 13  1  0
 13 14  2  0
 13 20  1  0
 14 15  1  0
 15 16  2  0
 16 17  1  0
 16 18  1  0
 18 19  1  0
 18 20  2  0
  6  7  2  0
  6 11  1  0
  7  8  1  0
  8  9  1  0
  9 10  1  0
 10 11  1  0
M  END
>  <minimizedAffinity>  (200) 
-8.58782

$$$$
cs_full_output_folder/data/smiles/1332.pdb
     RDKit          3D

 20 21  0  0  0  0  0  0  0  0999 V2000
   68.9336   46.6991   57.1571 N   0  0  0  0  0  0  0  0  0  0  0  0
   68.2522   47.1586   56.2055 C   0  0  0  0  0  0  0  0  0  0  0  0
   68.4237   47.0494   54.7816 C   0  0  0  0  0  0  0  0  0  0  0  0
   67.7579   46.1148   54.0387 C   0  0  0  0  0  0  0  0  0  0  0  0
   67.9507   46.0362   52.6467 C   0  0  0  0  0  0  0  0  0  0  0  0
   68.8106   46.8996   52.0192 C   0  0  0  0  0  0  0  0  0  0  0  0
   69.4948   47.8514   52.7407 C   0  0  0  0  0  0  0  0  0  0  0  0
   69.2797   47.8969   54.1056 C   0  0  0  0  0  0  0  0  0  0  0  0
   70.3893   48.7501   52.0902 N   0  0  0  0  0  0  0  0  0  0  0  0
   71.5174   48.9661   52.5458 O   0  0  0  0  0  0  0  0  0  0  0  0
   70.0384   49.4093   50.9390 O   0  0  0  0  0  0  0  0  0  0  0  0
   69.8524   45.0851   59.1949 O   0  0  0  0  0  0  0  0  0  0  0  0
   70.5473   45.1093   58.1471 C   0  0  0  0  0  0  0  0  0  0  0  0
   70.0597   45.9472   57.1043 N   0  0  0  0  0  0  0  0  0  0  0  0
   71.7565   44.3081   58.0747 C   0  0  0  0  0  0  0  0  0  0  0  0
   71.6637   42.9511   57.8533 C   0  0  0  0  0  0  0  0  0  0  0  0
   72.7569   42.1226   57.7721 C   0  0  0  0  0  0  0  0  0  0  0  0
   74.0287   42.6411   57.9136 C   0  0  0  0  0  0  0  0  0  0  0  0
   74.1496   43.9919   58.1360 C   0  0  0  0  0  0  0  0  0  0  0  0
   73.0254   44.8201   58.2162 C   0  0  0  0  0  0  0  0  0  0  0  0
 12 13  2  0
 13 14  1  0
 13 15  1  0
 14  1  1  0
  1  2  2  0
  2  3  1  0
  3  4  2  0
  3  8  1  0
  4  5  1  0
  5  6  2  0
  6  7  1  0
  7  9  1  0
  7  8  2  0
  9 10  2  0
  9 11  1  0
 15 16  2  0
 15 20  1  0
 16 17  1  0
 17 18  2  0
 18 19  1  0
 19 20  2  0
M  CHG  2   9   1  11  -1
M  END
>  <minimizedAffinity>  (201) 
-8.58697

$$$$
cs_full_output_folder/data/smiles/7400.pdb
     RDKit          3D

 20 21  0  0  0  0  0  0  0  0999 V2000
   67.8704   45.9575   52.3631 C   0  0  0  0  0  0  0  0  0  0  0  0
   67.7410   45.8826   53.7126 C   0  0  0  0  0  0  0  0  0  0  0  0
   68.4512   46.7588   54.5498 C   0  0  0  0  0  0  0  0  0  0  0  0
   69.2926   47.7114   54.0472 C   0  0  0  0  0  0  0  0  0  0  0  0
   69.4037   47.7624   52.6369 C   0  0  0  0  0  0  0  0  0  0  0  0
   68.7107   46.9087   51.8532 C   0  0  0  0  0  0  0  0  0  0  0  0
   70.2793   48.7538   52.1004 N   0  0  0  0  0  0  0  0  0  0  0  0
   69.9393   49.4307   51.1075 O   0  0  0  0  0  0  0  0  0  0  0  0
   71.5180   48.9667   52.6843 O   0  0  0  0  0  0  0  0  0  0  0  0
   66.4625   45.4386   50.5437 O   0  0  0  0  0  0  0  0  0  0  0  0
   67.1190   45.0328   51.5181 C   0  0  0  0  0  0  0  0  0  0  0  0
   69.9983   48.5770   54.7660 O   0  0  0  0  0  0  0  0  0  0  0  0
   70.1094   48.9212   56.0554 C   0  0  0  0  0  0  0  0  0  0  0  0
   68.8721   49.4570   56.6910 C   0  0  0  0  0  0  0  0  0  0  0  0
   68.5711   50.8214   56.5420 C   0  0  0  0  0  0  0  0  0  0  0  0
   67.4299   51.3703   57.0707 C   0  0  0  0  0  0  0  0  0  0  0  0
   66.5305   50.6054   57.7700 C   0  0  0  0  0  0  0  0  0  0  0  0
   66.8119   49.2652   57.9232 C   0  0  0  0  0  0  0  0  0  0  0  0
   65.9282   48.4836   58.6161 F   0  0  0  0  0  0  0  0  0  0  0  0
   67.9589   48.7112   57.3913 C   0  0  0  0  0  0  0  0  0  0  0  0
 10 11  2  0
 11  1  1  0
  1  2  2  0
  1  6  1  0
  2  3  1  0
  3  4  2  0
  4 12  1  0
  4  5  1  0
 12 13  1  0
 13 14  1  0
 14 15  2  0
 14 20  1  0
 15 16  1  0
 16 17  2  0
 17 18  1  0
 18 19  1  0
 18 20  2  0
  5  7  1  0
  5  6  2  0
  7  8  2  0
  7  9  1  0
M  CHG  2   7   1   9  -1
M  END
>  <minimizedAffinity>  (202) 
-8.58673

$$$$
cs_full_output_folder/data/smiles/6721.pdb
     RDKit          3D

 22 24  0  0  0  0  0  0  0  0999 V2000
   70.1876   51.1880   53.0285 O   0  0  0  0  0  0  0  0  0  0  0  0
   70.7555   50.0623   53.3338 C   0  0  0  0  0  0  0  0  0  0  0  0
   71.8198   50.1799   54.2409 N   0  0  0  0  0  0  0  0  0  0  0  0
   70.2216   48.8871   52.7060 C   0  0  0  0  0  0  0  0  0  0  0  0
   70.4210   48.5395   51.3851 N   0  0  0  0  0  0  0  0  0  0  0  0
   69.7846   47.4405   51.0940 N   0  0  0  0  0  0  0  0  0  0  0  0
   69.1371   47.0126   52.1990 C   0  0  0  0  0  0  0  0  0  0  0  0
   68.3208   45.9432   52.4640 C   0  0  0  0  0  0  0  0  0  0  0  0
   67.7428   45.7061   53.6898 C   0  0  0  0  0  0  0  0  0  0  0  0
   68.0070   46.6021   54.6948 C   0  0  0  0  0  0  0  0  0  0  0  0
   68.8226   47.6952   54.4817 C   0  0  0  0  0  0  0  0  0  0  0  0
   69.4045   47.9197   53.2288 C   0  0  0  0  0  0  0  0  0  0  0  0
   72.2539   51.4519   54.8274 C   0  0  0  0  0  0  0  0  0  0  0  0
   72.1000   51.3839   56.3044 C   0  0  0  0  0  0  0  0  0  0  0  0
   70.6863   51.0878   56.7119 C   0  0  0  0  0  0  0  0  0  0  0  0
   69.6859   52.0135   56.5073 C   0  0  0  0  0  0  0  0  0  0  0  0
   68.3576   51.7610   56.8760 C   0  0  0  0  0  0  0  0  0  0  0  0
   68.0138   50.5588   57.4639 C   0  0  0  0  0  0  0  0  0  0  0  0
   69.0222   49.6426   57.6628 C   0  0  0  0  0  0  0  0  0  0  0  0
   70.3300   49.8905   57.3001 C   0  0  0  0  0  0  0  0  0  0  0  0
   66.6661   50.3109   57.8419 N   0  0  0  0  0  0  0  0  0  0  0  0
   65.7041   51.1847   57.4924 F   0  0  0  0  0  0  0  0  0  0  0  0
  1  2  2  0
  2  3  1  0
  2  4  1  0
  3 13  1  0
 13 14  1  0
 14 15  1  0
 15 16  2  0
 15 20  1  0
 16 17  1  0
 17 18  2  0
 18 21  1  0
 18 19  1  0
 21 22  1  0
 19 20  2  0
  4  5  1  0
  4 12  2  0
  5  6  1  0
  6  7  2  0
  7  8  1  0
  7 12  1  0
  8  9  2  0
  9 10  1  0
 10 11  2  0
 11 12  1  0
M  END
>  <minimizedAffinity>  (203) 
-8.58556

$$$$
cs_full_output_folder/data/smiles/8735.pdb
     RDKit          3D

 22 24  0  0  0  0  0  0  0  0999 V2000
   69.2503   49.1084   52.6306 C   0  0  0  0  0  0  0  0  0  0  0  0
   70.2950   49.8154   53.3837 C   0  0  0  0  0  0  0  0  0  0  0  0
   71.5937   49.4612   53.2414 N   0  0  0  0  0  0  0  0  0  0  0  0
   72.5501   50.0758   53.9190 N   0  0  0  0  0  0  0  0  0  0  0  0
   72.2974   51.0762   54.7799 C   0  0  0  0  0  0  0  0  0  0  0  0
   73.2632   51.6178   55.3946 O   0  0  0  0  0  0  0  0  0  0  0  0
   70.9822   51.4905   54.9723 C   0  0  0  0  0  0  0  0  0  0  0  0
   69.9920   50.8406   54.2576 C   0  0  0  0  0  0  0  0  0  0  0  0
   68.5629   51.2219   54.3884 C   0  0  0  0  0  0  0  0  0  0  0  0
   68.5826   52.7161   54.7762 C   0  0  0  0  0  0  0  0  0  0  0  0
   69.3311   52.8557   56.0948 C   0  0  0  0  0  0  0  0  0  0  0  0
   70.7919   52.5917   55.9300 C   0  0  0  0  0  0  0  0  0  0  0  0
   68.5762   46.5590   55.3337 C   0  0  0  0  0  0  0  0  0  0  0  0
   68.9370   47.7319   54.6877 C   0  0  0  0  0  0  0  0  0  0  0  0
   68.8612   47.8267   53.2975 C   0  0  0  0  0  0  0  0  0  0  0  0
   68.4305   46.7751   52.5242 C   0  0  0  0  0  0  0  0  0  0  0  0
   68.0694   45.6042   53.1575 C   0  0  0  0  0  0  0  0  0  0  0  0
   68.1476   45.5165   54.5425 C   0  0  0  0  0  0  0  0  0  0  0  0
   67.7703   44.3049   55.1724 N   0  0  0  0  0  0  0  0  0  0  0  0
   68.6437   46.4594   56.7488 N   0  0  0  0  0  0  0  0  0  0  0  0
   70.4961   46.2991   58.1464 C   0  0  0  0  0  0  0  0  0  0  0  0
   69.5924   45.7090   57.4399 N   0  0  0  0  0  0  0  0  0  0  0  0
 21 22  2  0
 22 20  1  0
 20 13  1  0
 13 14  2  0
 13 18  1  0
 14 15  1  0
 15  1  1  0
 15 16  2  0
  1  2  1  0
  2  3  2  0
  2  8  1  0
  3  4  1  0
  4  5  1  0
  5  6  2  0
  5  7  1  0
  7  8  2  0
  7 12  1  0
  8  9  1  0
  9 10  1  0
 10 11  1  0
 11 12  1  0
 16 17  1  0
 17 18  2  0
 18 19  1  0
M  END
>  <minimizedAffinity>  (204) 
-8.58530

$$$$
cs_full_output_folder/data/smiles/8130.pdb
     RDKit          3D

 22 25  0  0  0  0  0  0  0  0999 V2000
   67.2938   44.9548   52.8594 O   0  0  0  0  0  0  0  0  0  0  0  0
   67.8537   45.5872   53.7666 C   0  0  0  0  0  0  0  0  0  0  0  0
   67.8008   45.2175   55.0671 N   0  0  0  0  0  0  0  0  0  0  0  0
   68.3782   45.8646   56.0251 N   0  0  0  0  0  0  0  0  0  0  0  0
   69.0986   46.9977   55.7648 C   0  0  0  0  0  0  0  0  0  0  0  0
   69.2118   47.4372   54.5055 C   0  0  0  0  0  0  0  0  0  0  0  0
   69.9979   48.5504   54.1655 C   0  0  0  0  0  0  0  0  0  0  0  0
   70.1275   48.9258   52.8557 C   0  0  0  0  0  0  0  0  0  0  0  0
   69.4931   48.2222   51.8264 C   0  0  0  0  0  0  0  0  0  0  0  0
   68.7328   47.1340   52.1675 C   0  0  0  0  0  0  0  0  0  0  0  0
   68.5837   46.7328   53.4777 C   0  0  0  0  0  0  0  0  0  0  0  0
   69.5724   47.7608   56.9773 C   0  0  0  0  0  0  0  0  0  0  0  0
   68.7203   48.9415   57.2211 C   0  0  0  0  0  0  0  0  0  0  0  0
   67.4025   48.7047   57.6223 C   0  0  0  0  0  0  0  0  0  0  0  0
   66.4741   49.6882   57.7758 C   0  0  0  0  0  0  0  0  0  0  0  0
   66.8342   51.0048   57.5254 C   0  0  0  0  0  0  0  0  0  0  0  0
   68.1285   51.2599   57.1339 C   0  0  0  0  0  0  0  0  0  0  0  0
   68.5438   52.5557   56.9083 C   0  0  0  0  0  0  0  0  0  0  0  0
   69.8130   52.8679   56.5518 C   0  0  0  0  0  0  0  0  0  0  0  0
   70.7631   51.8855   56.3961 C   0  0  0  0  0  0  0  0  0  0  0  0
   70.3522   50.5822   56.6253 C   0  0  0  0  0  0  0  0  0  0  0  0
   69.0802   50.2193   56.9827 C   0  0  0  0  0  0  0  0  0  0  0  0
  1  2  2  0
  2  3  1  0
  2 11  1  0
  3  4  1  0
  4  5  2  0
  5 12  1  0
  5  6  1  0
 12 13  1  0
 13 14  2  0
 13 22  1  0
 14 15  1  0
 15 16  2  0
 16 17  1  0
 17 18  1  0
 17 22  2  0
 18 19  2  0
 19 20  1  0
 20 21  2  0
 21 22  1  0
  6  7  1  0
  6 11  2  0
  7  8  2  0
  8  9  1  0
  9 10  2  0
 10 11  1  0
M  END
>  <minimizedAffinity>  (205) 
-8.58322

$$$$
cs_full_output_folder/data/smiles/5400.pdb
     RDKit          3D

 20 21  0  0  0  0  0  0  0  0999 V2000
   68.5534   47.6015   55.1270 C   0  0  0  0  0  0  0  0  0  0  0  0
   67.7977   46.6300   54.5057 C   0  0  0  0  0  0  0  0  0  0  0  0
   67.8628   46.3585   53.1564 C   0  0  0  0  0  0  0  0  0  0  0  0
   67.0832   45.3672   52.5590 O   0  0  0  0  0  0  0  0  0  0  0  0
   68.7198   47.0797   52.3642 C   0  0  0  0  0  0  0  0  0  0  0  0
   68.7978   46.8187   51.0076 O   0  0  0  0  0  0  0  0  0  0  0  0
   69.4956   48.0628   52.9442 C   0  0  0  0  0  0  0  0  0  0  0  0
   69.4159   48.3186   54.2950 C   0  0  0  0  0  0  0  0  0  0  0  0
   70.3953   48.8322   52.1639 N   0  0  0  0  0  0  0  0  0  0  0  0
   70.0584   49.3378   51.0839 O   0  0  0  0  0  0  0  0  0  0  0  0
   71.6640   49.0066   52.6358 O   0  0  0  0  0  0  0  0  0  0  0  0
   67.5225   47.3457   57.1781 O   0  0  0  0  0  0  0  0  0  0  0  0
   68.4733   47.8790   56.5629 C   0  0  0  0  0  0  0  0  0  0  0  0
   69.4578   48.7308   57.2100 C   0  0  0  0  0  0  0  0  0  0  0  0
   68.9152   49.8646   58.0058 C   0  0  0  0  0  0  0  0  0  0  0  0
   67.8172   50.5726   57.2431 C   0  0  0  0  0  0  0  0  0  0  0  0
   68.2680   51.6942   56.3893 C   0  0  0  0  0  0  0  0  0  0  0  0
   69.7336   51.8293   56.1622 C   0  0  0  0  0  0  0  0  0  0  0  0
   70.5887   51.6197   57.3526 C   0  0  0  0  0  0  0  0  0  0  0  0
   69.9203   50.8767   58.4741 C   0  0  0  0  0  0  0  0  0  0  0  0
 12 13  2  0
 13 14  1  0
 13  1  1  0
 14 15  1  0
 15 16  1  0
 15 20  1  0
 16 17  1  0
 17 18  1  0
 18 19  1  0
 19 20  1  0
  1  2  2  0
  1  8  1  0
  2  3  1  0
  3  4  1  0
  3  5  2  0
  5  6  1  0
  5  7  1  0
  7  9  1  0
  7  8  2  0
  9 10  2  0
  9 11  1  0
M  CHG  2   9   1  11  -1
M  END
>  <minimizedAffinity>  (206) 
-8.58121

$$$$
cs_full_output_folder/data/smiles/3388.pdb
     RDKit          3D

 20 22  0  0  0  0  0  0  0  0999 V2000
   71.9252   50.0405   53.9329 O   0  0  0  0  0  0  0  0  0  0  0  0
   70.6559   49.9650   53.6935 C   0  0  0  0  0  0  0  0  0  0  0  0
   69.9038   51.0013   54.2749 N   0  0  0  0  0  0  0  0  0  0  0  0
   70.1659   48.8714   52.8957 C   0  0  0  0  0  0  0  0  0  0  0  0
   70.5243   48.7116   51.5719 N   0  0  0  0  0  0  0  0  0  0  0  0
   69.9325   47.6682   51.0702 N   0  0  0  0  0  0  0  0  0  0  0  0
   69.1547   47.0628   51.9798 C   0  0  0  0  0  0  0  0  0  0  0  0
   68.3441   45.9555   51.9152 C   0  0  0  0  0  0  0  0  0  0  0  0
   67.6685   45.6285   53.0689 C   0  0  0  0  0  0  0  0  0  0  0  0
   67.7906   46.3603   54.2237 C   0  0  0  0  0  0  0  0  0  0  0  0
   68.6139   47.4660   54.2508 C   0  0  0  0  0  0  0  0  0  0  0  0
   69.3077   47.8352   53.1411 C   0  0  0  0  0  0  0  0  0  0  0  0
   70.5046   52.0659   55.0591 C   0  0  0  0  0  0  0  0  0  0  0  0
   70.2956   51.9529   56.5214 C   0  0  0  0  0  0  0  0  0  0  0  0
   69.1491   51.1194   56.9405 C   0  0  0  0  0  0  0  0  0  0  0  0
   69.2750   49.7684   57.2018 C   0  0  0  0  0  0  0  0  0  0  0  0
   68.2046   49.0050   57.6038 C   0  0  0  0  0  0  0  0  0  0  0  0
   66.9785   49.6123   57.7458 C   0  0  0  0  0  0  0  0  0  0  0  0
   66.8055   50.9527   57.4981 C   0  0  0  0  0  0  0  0  0  0  0  0
   67.9098   51.6954   57.0939 C   0  0  0  0  0  0  0  0  0  0  0  0
  1  2  2  0
  2  3  1  0
  2  4  1  0
  3 13  1  0
 13 14  1  0
 14 15  1  0
 15 16  2  0
 15 20  1  0
 16 17  1  0
 17 18  2  0
 18 19  1  0
 19 20  2  0
  4  5  1  0
  4 12  2  0
  5  6  1  0
  6  7  2  0
  7  8  1  0
  7 12  1  0
  8  9  2  0
  9 10  1  0
 10 11  2  0
 11 12  1  0
M  END
>  <minimizedAffinity>  (207) 
-8.57727

$$$$
cs_full_output_folder/data/smiles/4693.pdb
     RDKit          3D

 20 21  0  0  0  0  0  0  0  0999 V2000
   68.5289   47.1916   55.0338 C   0  0  0  0  0  0  0  0  0  0  0  0
   67.7810   46.2563   54.3672 C   0  0  0  0  0  0  0  0  0  0  0  0
   67.8724   46.1596   52.9679 C   0  0  0  0  0  0  0  0  0  0  0  0
   67.1014   45.2023   52.3468 O   0  0  0  0  0  0  0  0  0  0  0  0
   68.7018   46.9854   52.2503 C   0  0  0  0  0  0  0  0  0  0  0  0
   68.7755   46.8689   50.8700 O   0  0  0  0  0  0  0  0  0  0  0  0
   69.4509   47.9183   52.8957 C   0  0  0  0  0  0  0  0  0  0  0  0
   69.3532   48.0089   54.2657 C   0  0  0  0  0  0  0  0  0  0  0  0
   70.3234   48.7963   52.1963 N   0  0  0  0  0  0  0  0  0  0  0  0
   71.4814   48.9553   52.6408 O   0  0  0  0  0  0  0  0  0  0  0  0
   69.9266   49.4704   51.0515 O   0  0  0  0  0  0  0  0  0  0  0  0
   67.3759   47.6572   56.9965 O   0  0  0  0  0  0  0  0  0  0  0  0
   68.4687   47.3681   56.4618 C   0  0  0  0  0  0  0  0  0  0  0  0
   69.6372   47.2236   57.3010 C   0  0  0  0  0  0  0  0  0  0  0  0
   70.2295   48.3643   57.8306 C   0  0  0  0  0  0  0  0  0  0  0  0
   71.3272   48.2827   58.6665 C   0  0  0  0  0  0  0  0  0  0  0  0
   71.8722   47.0610   59.0038 C   0  0  0  0  0  0  0  0  0  0  0  0
   72.9638   46.9378   59.8306 F   0  0  0  0  0  0  0  0  0  0  0  0
   71.2936   45.9226   58.4833 C   0  0  0  0  0  0  0  0  0  0  0  0
   70.1771   46.0148   57.6349 C   0  0  0  0  0  0  0  0  0  0  0  0
 12 13  2  0
 13 14  1  0
 13  1  1  0
 14 15  2  0
 14 20  1  0
 15 16  1  0
 16 17  2  0
 17 18  1  0
 17 19  1  0
 19 20  2  0
  1  2  2  0
  1  8  1  0
  2  3  1  0
  3  4  1  0
  3  5  2  0
  5  6  1  0
  5  7  1  0
  7  9  1  0
  7  8  2  0
  9 10  2  0
  9 11  1  0
M  CHG  2   9   1  11  -1
M  END
>  <minimizedAffinity>  (208) 
-8.57319

$$$$
cs_full_output_folder/data/smiles/7693.pdb
     RDKit          3D

 22 24  0  0  0  0  0  0  0  0999 V2000
   69.8976   51.1737   54.0740 O   0  0  0  0  0  0  0  0  0  0  0  0
   70.6909   50.1123   53.6791 C   0  0  0  0  0  0  0  0  0  0  0  0
   71.8913   50.1320   54.0458 O   0  0  0  0  0  0  0  0  0  0  0  0
   70.2081   49.0044   52.8804 C   0  0  0  0  0  0  0  0  0  0  0  0
   70.4606   48.7258   51.5936 N   0  0  0  0  0  0  0  0  0  0  0  0
   69.8360   47.6250   51.2253 N   0  0  0  0  0  0  0  0  0  0  0  0
   69.1237   47.1072   52.2684 C   0  0  0  0  0  0  0  0  0  0  0  0
   68.3207   46.0026   52.4087 C   0  0  0  0  0  0  0  0  0  0  0  0
   67.7345   45.7550   53.6239 C   0  0  0  0  0  0  0  0  0  0  0  0
   67.9773   46.6340   54.6649 C   0  0  0  0  0  0  0  0  0  0  0  0
   68.7787   47.7467   54.5421 C   0  0  0  0  0  0  0  0  0  0  0  0
   69.3755   48.0009   53.3127 C   0  0  0  0  0  0  0  0  0  0  0  0
   70.3902   52.3482   54.6875 C   0  0  0  0  0  0  0  0  0  0  0  0
   69.7006   52.6362   55.9584 C   0  0  0  0  0  0  0  0  0  0  0  0
   69.5708   53.8641   56.2779 O   0  0  0  0  0  0  0  0  0  0  0  0
   66.5408   49.4110   58.1557 C   0  0  0  0  0  0  0  0  0  0  0  0
   67.7737   50.1800   57.8343 C   0  0  0  0  0  0  0  0  0  0  0  0
   67.8871   51.1476   56.8227 C   0  0  0  0  0  0  0  0  0  0  0  0
   69.1750   51.6245   56.8439 C   0  0  0  0  0  0  0  0  0  0  0  0
   69.8095   50.9469   57.8530 C   0  0  0  0  0  0  0  0  0  0  0  0
   71.2405   51.1099   58.2773 C   0  0  0  0  0  0  0  0  0  0  0  0
   68.9451   50.1046   58.4101 O   0  0  0  0  0  0  0  0  0  0  0  0
 16 17  1  0
 17 18  2  0
 17 22  1  0
 18 19  1  0
 19 14  1  0
 19 20  2  0
 14 15  2  0
 14 13  1  0
 13  1  1  0
  1  2  1  0
  2  3  2  0
  2  4  1  0
  4  5  2  0
  4 12  1  0
  5  6  1  0
  6  7  1  0
  7  8  1  0
  7 12  2  0
  8  9  2  0
  9 10  1  0
 10 11  2  0
 11 12  1  0
 20 21  1  0
 20 22  1  0
M  END
>  <minimizedAffinity>  (209) 
-8.57208

$$$$
cs_full_output_folder/data/smiles/8713.pdb
     RDKit          3D

 22 25  0  0  0  0  0  0  0  0999 V2000
   71.1629   50.4334   55.3119 C   0  0  0  0  0  0  0  0  0  0  0  0
   70.5560   49.5031   54.3370 C   0  0  0  0  0  0  0  0  0  0  0  0
   69.6826   48.5392   54.7943 N   0  0  0  0  0  0  0  0  0  0  0  0
   69.0851   47.6824   53.9655 C   0  0  0  0  0  0  0  0  0  0  0  0
   68.2080   46.7056   54.4071 C   0  0  0  0  0  0  0  0  0  0  0  0
   67.5935   45.8194   53.5526 C   0  0  0  0  0  0  0  0  0  0  0  0
   67.8503   45.8890   52.1816 C   0  0  0  0  0  0  0  0  0  0  0  0
   68.7184   46.8520   51.7291 C   0  0  0  0  0  0  0  0  0  0  0  0
   69.3289   47.7368   52.5964 C   0  0  0  0  0  0  0  0  0  0  0  0
   70.1998   48.7015   52.1580 C   0  0  0  0  0  0  0  0  0  0  0  0
   70.4659   48.8087   50.9389 O   0  0  0  0  0  0  0  0  0  0  0  0
   70.8001   49.5693   53.0349 N   0  0  0  0  0  0  0  0  0  0  0  0
   71.6840   48.1136   60.3230 O   0  0  0  0  0  0  0  0  0  0  0  0
   71.5352   48.6806   59.1931 C   0  0  0  0  0  0  0  0  0  0  0  0
   70.4158   49.4177   58.8896 C   0  0  0  0  0  0  0  0  0  0  0  0
   70.2781   50.0272   57.6527 C   0  0  0  0  0  0  0  0  0  0  0  0
   71.2633   49.9043   56.6950 C   0  0  0  0  0  0  0  0  0  0  0  0
   72.3516   49.1603   57.0586 N   0  0  0  0  0  0  0  0  0  0  0  0
   72.4744   48.5859   58.2404 N   0  0  0  0  0  0  0  0  0  0  0  0
   69.1183   50.8878   57.3775 C   0  0  0  0  0  0  0  0  0  0  0  0
   67.7791   51.0474   57.2585 C   0  0  0  0  0  0  0  0  0  0  0  0
   68.5928   52.2320   57.0227 C   0  0  0  0  0  0  0  0  0  0  0  0
 13 14  2  0
 14 15  1  0
 14 19  1  0
 15 16  2  0
 16 20  1  0
 16 17  1  0
 20 21  2  0
 20 22  1  0
 21 22  1  0
 17  1  1  0
 17 18  2  0
  1  2  1  0
  2  3  2  0
  2 12  1  0
  3  4  1  0
  4  5  2  0
  4  9  1  0
  5  6  1  0
  6  7  2  0
  7  8  1  0
  8  9  2  0
  9 10  1  0
 10 11  2  0
 10 12  1  0
 18 19  1  0
M  END
>  <minimizedAffinity>  (210) 
-8.57123

$$$$
cs_full_output_folder/data/smiles/5212.pdb
     RDKit          3D

 22 23  0  0  0  0  0  0  0  0999 V2000
   68.2284   45.0542   55.3213 C   0  0  0  0  0  0  0  0  0  0  0  0
   68.6129   45.6749   56.3455 O   0  0  0  0  0  0  0  0  0  0  0  0
   67.8177   43.7167   55.5244 N   0  0  0  0  0  0  0  0  0  0  0  0
   67.5352   46.0307   51.7506 C   0  0  0  0  0  0  0  0  0  0  0  0
   68.3203   47.1503   51.5855 C   0  0  0  0  0  0  0  0  0  0  0  0
   69.0676   47.5595   52.6691 C   0  0  0  0  0  0  0  0  0  0  0  0
   69.0149   46.8627   53.8566 C   0  0  0  0  0  0  0  0  0  0  0  0
   68.2330   45.7417   54.0356 C   0  0  0  0  0  0  0  0  0  0  0  0
   67.4860   45.3305   52.9546 C   0  0  0  0  0  0  0  0  0  0  0  0
   66.2158   44.4777   50.5847 O   0  0  0  0  0  0  0  0  0  0  0  0
   66.7611   45.6023   50.6367 N   0  0  0  0  0  0  0  0  0  0  0  0
   67.8244   43.0838   56.7730 N   0  0  0  0  0  0  0  0  0  0  0  0
   67.7866   41.6581   56.8325 C   0  0  0  0  0  0  0  0  0  0  0  0
   67.7484   41.0408   55.7370 O   0  0  0  0  0  0  0  0  0  0  0  0
   67.7905   40.8932   58.0805 C   0  0  0  0  0  0  0  0  0  0  0  0
   69.1169   40.2606   58.2849 C   0  0  0  0  0  0  0  0  0  0  0  0
   70.2837   41.0000   58.2649 C   0  0  0  0  0  0  0  0  0  0  0  0
   71.5143   40.4068   58.4562 C   0  0  0  0  0  0  0  0  0  0  0  0
   71.6355   39.0526   58.6742 C   0  0  0  0  0  0  0  0  0  0  0  0
   70.4687   38.3021   58.6956 C   0  0  0  0  0  0  0  0  0  0  0  0
   70.6109   36.9366   58.9173 O   0  0  0  0  0  0  0  0  0  0  0  0
   69.2433   38.9039   58.5043 C   0  0  0  0  0  0  0  0  0  0  0  0
 10 11  2  0
 11  4  1  0
  4  5  2  0
  4  9  1  0
  5  6  1  0
  6  7  2  0
  7  8  1  0
  8  1  1  0
  8  9  2  0
  1  2  2  0
  1  3  1  0
  3 12  1  0
 12 13  1  0
 13 14  2  0
 13 15  1  0
 15 16  1  0
 16 17  2  0
 16 22  1  0
 17 18  1  0
 18 19  2  0
 19 20  1  0
 20 21  1  0
 20 22  2  0
M  END
>  <minimizedAffinity>  (211) 
-8.57017

$$$$
cs_full_output_folder/data/smiles/6312.pdb
     RDKit          3D

 19 21  0  0  0  0  0  0  0  0999 V2000
   70.6171   48.5182   50.7835 O   0  0  0  0  0  0  0  0  0  0  0  0
   70.3124   48.3702   52.0129 C   0  0  0  0  0  0  0  0  0  0  0  0
   70.9811   49.0754   52.9446 N   0  0  0  0  0  0  0  0  0  0  0  0
   70.7070   48.9610   54.2191 N   0  0  0  0  0  0  0  0  0  0  0  0
   69.7344   48.1267   54.6911 C   0  0  0  0  0  0  0  0  0  0  0  0
   69.0407   47.3986   53.7709 C   0  0  0  0  0  0  0  0  0  0  0  0
   68.0670   46.5353   54.1603 C   0  0  0  0  0  0  0  0  0  0  0  0
   67.3806   45.7981   53.2225 C   0  0  0  0  0  0  0  0  0  0  0  0
   67.6364   45.8886   51.8537 C   0  0  0  0  0  0  0  0  0  0  0  0
   68.6244   46.7635   51.4688 C   0  0  0  0  0  0  0  0  0  0  0  0
   69.3147   47.5021   52.3956 C   0  0  0  0  0  0  0  0  0  0  0  0
   69.4760   48.1102   56.1395 C   0  0  0  0  0  0  0  0  0  0  0  0
   68.7728   49.3140   56.6276 C   0  0  0  0  0  0  0  0  0  0  0  0
   67.5932   49.0808   57.3466 C   0  0  0  0  0  0  0  0  0  0  0  0
   66.8231   50.1081   57.8455 C   0  0  0  0  0  0  0  0  0  0  0  0
   67.1977   51.4180   57.6472 C   0  0  0  0  0  0  0  0  0  0  0  0
   68.3588   51.6354   56.9388 C   0  0  0  0  0  0  0  0  0  0  0  0
   68.8574   53.3055   56.6733 Cl  0  0  0  0  0  0  0  0  0  0  0  0
   69.1368   50.5939   56.4344 C   0  0  0  0  0  0  0  0  0  0  0  0
  1  2  2  0
  2  3  1  0
  2 11  1  0
  3  4  1  0
  4  5  2  0
  5 12  1  0
  5  6  1  0
 12 13  1  0
 13 14  2  0
 13 19  1  0
 14 15  1  0
 15 16  2  0
 16 17  1  0
 17 18  1  0
 17 19  2  0
  6  7  1  0
  6 11  2  0
  7  8  2  0
  8  9  1  0
  9 10  2  0
 10 11  1  0
M  END
>  <minimizedAffinity>  (212) 
-8.56976

$$$$
cs_full_output_folder/data/smiles/7482.pdb
     RDKit          3D

 22 24  0  0  0  0  0  0  0  0999 V2000
   69.4538   48.9581   52.4763 C   0  0  0  0  0  0  0  0  0  0  0  0
   70.3533   49.7891   53.3104 C   0  0  0  0  0  0  0  0  0  0  0  0
   71.7016   49.5242   53.3079 N   0  0  0  0  0  0  0  0  0  0  0  0
   72.5652   50.2436   53.9796 N   0  0  0  0  0  0  0  0  0  0  0  0
   72.1968   51.2961   54.7220 C   0  0  0  0  0  0  0  0  0  0  0  0
   73.0710   51.9788   55.3646 O   0  0  0  0  0  0  0  0  0  0  0  0
   70.8630   51.6358   54.7829 C   0  0  0  0  0  0  0  0  0  0  0  0
   70.4871   52.7084   55.5565 C   0  0  0  0  0  0  0  0  0  0  0  0
   69.1352   53.0138   55.6099 C   0  0  0  0  0  0  0  0  0  0  0  0
   68.2123   52.2647   54.9107 C   0  0  0  0  0  0  0  0  0  0  0  0
   68.6043   51.1870   54.1354 C   0  0  0  0  0  0  0  0  0  0  0  0
   69.9650   50.8652   54.0695 C   0  0  0  0  0  0  0  0  0  0  0  0
   68.5843   46.3579   55.0368 C   0  0  0  0  0  0  0  0  0  0  0  0
   69.0719   47.5489   54.4800 C   0  0  0  0  0  0  0  0  0  0  0  0
   68.9764   47.7263   53.1321 C   0  0  0  0  0  0  0  0  0  0  0  0
   68.4025   46.7293   52.3427 C   0  0  0  0  0  0  0  0  0  0  0  0
   67.9216   45.5608   52.8566 C   0  0  0  0  0  0  0  0  0  0  0  0
   68.0222   45.3853   54.2385 C   0  0  0  0  0  0  0  0  0  0  0  0
   67.5370   44.2158   54.7256 F   0  0  0  0  0  0  0  0  0  0  0  0
   70.5860   46.8219   57.7892 O   0  0  0  0  0  0  0  0  0  0  0  0
   69.5312   46.5565   57.2033 C   0  0  0  0  0  0  0  0  0  0  0  0
   68.6483   46.0991   56.4313 N   0  0  0  0  0  0  0  0  0  0  0  0
 20 21  2  0
 21 22  2  0
 22 13  1  0
 13 14  2  0
 13 18  1  0
 14 15  1  0
 15  1  1  0
 15 16  2  0
  1  2  1  0
  2  3  2  0
  2 12  1  0
  3  4  1  0
  4  5  1  0
  5  6  2  0
  5  7  1  0
  7  8  1  0
  7 12  2  0
  8  9  2  0
  9 10  1  0
 10 11  2  0
 11 12  1  0
 16 17  1  0
 17 18  2  0
 18 19  1  0
M  END
>  <minimizedAffinity>  (213) 
-8.56932

$$$$
cs_full_output_folder/data/smiles/6868.pdb
     RDKit          3D

 22 24  0  0  0  0  0  0  0  0999 V2000
   68.9802   48.6985   56.2217 C   0  0  0  0  0  0  0  0  0  0  0  0
   69.3709   48.5822   54.8250 C   0  0  0  0  0  0  0  0  0  0  0  0
   70.2653   49.4940   54.3312 N   0  0  0  0  0  0  0  0  0  0  0  0
   70.6369   49.5198   53.0672 N   0  0  0  0  0  0  0  0  0  0  0  0
   70.1798   48.6578   52.1382 C   0  0  0  0  0  0  0  0  0  0  0  0
   70.5430   48.6923   50.9290 O   0  0  0  0  0  0  0  0  0  0  0  0
   69.2768   47.7093   52.5590 C   0  0  0  0  0  0  0  0  0  0  0  0
   68.7795   46.7797   51.6619 C   0  0  0  0  0  0  0  0  0  0  0  0
   67.9006   45.8438   52.1370 C   0  0  0  0  0  0  0  0  0  0  0  0
   67.4921   45.7863   53.4506 C   0  0  0  0  0  0  0  0  0  0  0  0
   68.0139   46.7379   54.3182 C   0  0  0  0  0  0  0  0  0  0  0  0
   68.8891   47.6894   53.9004 C   0  0  0  0  0  0  0  0  0  0  0  0
   70.7268   45.9878   58.2454 C   0  0  0  0  0  0  0  0  0  0  0  0
   69.7984   46.6400   57.4347 C   0  0  0  0  0  0  0  0  0  0  0  0
   69.9351   47.9406   57.0640 C   0  0  0  0  0  0  0  0  0  0  0  0
   71.0732   48.6127   57.5395 C   0  0  0  0  0  0  0  0  0  0  0  0
   72.0121   48.0068   58.3399 C   0  0  0  0  0  0  0  0  0  0  0  0
   71.8263   46.6939   58.6853 C   0  0  0  0  0  0  0  0  0  0  0  0
   72.7760   46.1274   59.4750 F   0  0  0  0  0  0  0  0  0  0  0  0
   71.2663   43.5287   57.9312 C   0  0  0  0  0  0  0  0  0  0  0  0
   70.5091   44.6029   58.6146 C   0  0  0  0  0  0  0  0  0  0  0  0
   69.6805   44.3225   59.5110 O   0  0  0  0  0  0  0  0  0  0  0  0
 20 21  1  0
 21 22  2  0
 21 13  1  0
 13 14  2  0
 13 18  1  0
 14 15  1  0
 15  1  1  0
 15 16  2  0
  1  2  1  0
  2  3  2  0
  2 12  1  0
  3  4  1  0
  4  5  1  0
  5  6  2  0
  5  7  1  0
  7  8  1  0
  7 12  2  0
  8  9  2  0
  9 10  1  0
 10 11  2  0
 11 12  1  0
 16 17  1  0
 17 18  2  0
 18 19  1  0
M  END
>  <minimizedAffinity>  (214) 
-8.56864

$$$$
cs_full_output_folder/data/smiles/6655.pdb
     RDKit          3D

 21 22  0  0  0  0  0  0  0  0999 V2000
   70.0400   46.2887   57.2511 O   0  0  0  0  0  0  0  0  0  0  0  0
   69.0834   46.1927   56.4184 C   0  0  0  0  0  0  0  0  0  0  0  0
   68.4825   44.9394   56.1257 N   0  0  0  0  0  0  0  0  0  0  0  0
   68.9798   43.7927   56.7903 N   0  0  0  0  0  0  0  0  0  0  0  0
   68.3252   42.5439   56.7220 C   0  0  0  0  0  0  0  0  0  0  0  0
   67.2633   42.5166   56.0270 O   0  0  0  0  0  0  0  0  0  0  0  0
   68.7846   41.3278   57.3814 C   0  0  0  0  0  0  0  0  0  0  0  0
   69.9854   41.2285   58.0190 C   0  0  0  0  0  0  0  0  0  0  0  0
   70.3789   40.0336   58.6380 C   0  0  0  0  0  0  0  0  0  0  0  0
   69.5675   38.9221   58.6228 C   0  0  0  0  0  0  0  0  0  0  0  0
   69.9641   37.7734   59.2275 F   0  0  0  0  0  0  0  0  0  0  0  0
   68.3505   39.0211   57.9785 C   0  0  0  0  0  0  0  0  0  0  0  0
   67.9793   40.2073   57.3731 C   0  0  0  0  0  0  0  0  0  0  0  0
   68.6086   47.4370   55.7546 C   0  0  0  0  0  0  0  0  0  0  0  0
   68.6701   47.3030   54.2821 C   0  0  0  0  0  0  0  0  0  0  0  0
   69.5085   48.1151   53.5069 C   0  0  0  0  0  0  0  0  0  0  0  0
   69.5518   47.9758   52.1400 C   0  0  0  0  0  0  0  0  0  0  0  0
   68.7909   47.0525   51.4652 C   0  0  0  0  0  0  0  0  0  0  0  0
   67.9618   46.2494   52.2265 C   0  0  0  0  0  0  0  0  0  0  0  0
   67.1951   45.3244   51.5919 F   0  0  0  0  0  0  0  0  0  0  0  0
   67.9092   46.3785   53.5974 C   0  0  0  0  0  0  0  0  0  0  0  0
  1  2  2  0
  2 14  1  0
  2  3  1  0
 14 15  1  0
 15 16  2  0
 15 21  1  0
 16 17  1  0
 17 18  2  0
 18 19  1  0
 19 20  1  0
 19 21  2  0
  3  4  1  0
  4  5  1  0
  5  6  2  0
  5  7  1  0
  7  8  2  0
  7 13  1  0
  8  9  1  0
  9 10  2  0
 10 11  1  0
 10 12  1  0
 12 13  2  0
M  END
>  <minimizedAffinity>  (215) 
-8.56610

$$$$
cs_full_output_folder/data/smiles/4522.pdb
     RDKit          3D

 21 24  0  0  0  0  0  0  0  0999 V2000
   69.9202   50.2709   53.1300 C   0  0  0  0  0  0  0  0  0  0  0  0
   70.0052   50.6134   51.8181 N   0  0  0  0  0  0  0  0  0  0  0  0
   69.6439   49.5462   51.1117 N   0  0  0  0  0  0  0  0  0  0  0  0
   69.3307   48.5340   51.9340 C   0  0  0  0  0  0  0  0  0  0  0  0
   68.9047   47.2429   51.6858 C   0  0  0  0  0  0  0  0  0  0  0  0
   68.6496   46.3952   52.7400 C   0  0  0  0  0  0  0  0  0  0  0  0
   68.8057   46.7933   54.0603 C   0  0  0  0  0  0  0  0  0  0  0  0
   69.2338   48.0950   54.2650 C   0  0  0  0  0  0  0  0  0  0  0  0
   69.4953   48.9623   53.2292 C   0  0  0  0  0  0  0  0  0  0  0  0
   68.5311   45.8940   55.1560 C   0  0  0  0  0  0  0  0  0  0  0  0
   68.6600   45.7867   56.5222 N   0  0  0  0  0  0  0  0  0  0  0  0
   68.0768   44.7321   55.8197 N   0  0  0  0  0  0  0  0  0  0  0  0
   70.2981   51.3492   54.4788 S   0  0  0  0  0  0  0  0  0  0  0  0
   68.8865   52.3869   54.9540 C   0  0  0  0  0  0  0  0  0  0  0  0
   68.9269   52.4859   56.4848 C   0  0  0  0  0  0  0  0  0  0  0  0
   66.9803   48.9841   57.9754 C   0  0  0  0  0  0  0  0  0  0  0  0
   66.2726   50.1778   57.8206 C   0  0  0  0  0  0  0  0  0  0  0  0
   66.9400   51.2863   57.3349 C   0  0  0  0  0  0  0  0  0  0  0  0
   68.2708   51.2657   56.9977 C   0  0  0  0  0  0  0  0  0  0  0  0
   68.9440   50.0737   57.1616 C   0  0  0  0  0  0  0  0  0  0  0  0
   68.3123   48.9431   57.6437 C   0  0  0  0  0  0  0  0  0  0  0  0
 16 17  2  0
 16 21  1  0
 17 18  1  0
 18 19  2  0
 19 15  1  0
 19 20  1  0
 15 14  1  0
 14 13  1  0
 13  1  1  0
  1  2  2  0
  1  9  1  0
  2  3  1  0
  3  4  1  0
  4  5  1  0
  4  9  2  0
  5  6  2  0
  6  7  1  0
  7 10  1  0
  7  8  2  0
 10 11  2  0
 10 12  1  0
 11 12  1  0
  8  9  1  0
 20 21  2  0
M  CHG  1  11   1
M  END
>  <minimizedAffinity>  (216) 
-8.56451

$$$$
cs_full_output_folder/data/smiles/7837.pdb
     RDKit          3D

 22 24  0  0  0  0  0  0  0  0999 V2000
   69.5393   46.3703   56.6535 C   0  0  0  0  0  0  0  0  0  0  0  0
   69.0407   44.9534   56.5578 C   0  0  0  0  0  0  0  0  0  0  0  0
   69.5142   43.8719   57.2620 C   0  0  0  0  0  0  0  0  0  0  0  0
   68.7700   42.7636   56.8765 C   0  0  0  0  0  0  0  0  0  0  0  0
   67.8988   43.1987   55.9765 N   0  0  0  0  0  0  0  0  0  0  0  0
   68.0533   44.5174   55.7784 N   0  0  0  0  0  0  0  0  0  0  0  0
   69.0005   41.4324   57.4458 C   0  0  0  0  0  0  0  0  0  0  0  0
   70.1652   41.1409   58.1262 C   0  0  0  0  0  0  0  0  0  0  0  0
   70.3766   39.9074   58.6659 C   0  0  0  0  0  0  0  0  0  0  0  0
   69.4121   38.9022   58.5405 C   0  0  0  0  0  0  0  0  0  0  0  0
   68.2585   39.1989   57.8641 C   0  0  0  0  0  0  0  0  0  0  0  0
   68.0346   40.4385   57.3162 C   0  0  0  0  0  0  0  0  0  0  0  0
   67.5106   47.5685   56.4121 O   0  0  0  0  0  0  0  0  0  0  0  0
   68.6517   47.2875   55.9191 C   0  0  0  0  0  0  0  0  0  0  0  0
   69.0430   47.8806   54.6580 C   0  0  0  0  0  0  0  0  0  0  0  0
   69.6336   49.1256   54.5374 C   0  0  0  0  0  0  0  0  0  0  0  0
   69.9779   49.6829   53.3234 C   0  0  0  0  0  0  0  0  0  0  0  0
   69.7179   48.9608   52.1861 C   0  0  0  0  0  0  0  0  0  0  0  0
   70.0297   49.4475   50.9200 O   0  0  0  0  0  0  0  0  0  0  0  0
   69.1214   47.6975   52.2757 C   0  0  0  0  0  0  0  0  0  0  0  0
   68.8763   46.9981   51.0900 O   0  0  0  0  0  0  0  0  0  0  0  0
   68.7885   47.1623   53.4961 C   0  0  0  0  0  0  0  0  0  0  0  0
 13 14  2  0
 14  1  1  0
 14 15  1  0
  1  2  1  0
  2  3  2  0
  2  6  1  0
  3  4  1  0
  4  7  1  0
  4  5  2  0
  7  8  2  0
  7 12  1  0
  8  9  1  0
  9 10  2  0
 10 11  1  0
 11 12  2  0
  5  6  1  0
 15 16  2  0
 15 22  1  0
 16 17  1  0
 17 18  2  0
 18 19  1  0
 18 20  1  0
 20 21  1  0
 20 22  2  0
M  END
>  <minimizedAffinity>  (217) 
-8.56342

$$$$
cs_full_output_folder/data/smiles/6660.pdb
     RDKit          3D

 22 24  0  0  0  0  0  0  0  0999 V2000
   70.5104   47.6348   57.9998 O   0  0  0  0  0  0  0  0  0  0  0  0
   69.6007   47.2353   57.2452 C   0  0  0  0  0  0  0  0  0  0  0  0
   69.4275   45.7985   57.1742 N   0  0  0  0  0  0  0  0  0  0  0  0
   70.1895   44.9228   57.8693 N   0  0  0  0  0  0  0  0  0  0  0  0
   70.1641   43.6923   57.9985 C   0  0  0  0  0  0  0  0  0  0  0  0
   69.2367   42.7666   57.3958 C   0  0  0  0  0  0  0  0  0  0  0  0
   68.3424   43.1209   56.4211 C   0  0  0  0  0  0  0  0  0  0  0  0
   67.4594   42.1724   55.8787 C   0  0  0  0  0  0  0  0  0  0  0  0
   67.4416   40.8736   56.2836 C   0  0  0  0  0  0  0  0  0  0  0  0
   68.3321   40.4973   57.2626 C   0  0  0  0  0  0  0  0  0  0  0  0
   69.1996   41.4214   57.7968 C   0  0  0  0  0  0  0  0  0  0  0  0
   68.7180   48.0899   56.4466 C   0  0  0  0  0  0  0  0  0  0  0  0
   69.1621   48.2915   55.0693 C   0  0  0  0  0  0  0  0  0  0  0  0
   70.0316   49.3230   54.7804 C   0  0  0  0  0  0  0  0  0  0  0  0
   70.4696   49.5382   53.4729 C   0  0  0  0  0  0  0  0  0  0  0  0
   70.0538   48.7391   52.4511 C   0  0  0  0  0  0  0  0  0  0  0  0
   69.1788   47.6999   52.7402 C   0  0  0  0  0  0  0  0  0  0  0  0
   68.7743   46.9049   51.6838 C   0  0  0  0  0  0  0  0  0  0  0  0
   67.8991   45.8523   51.9304 C   0  0  0  0  0  0  0  0  0  0  0  0
   67.4684   45.6442   53.2257 C   0  0  0  0  0  0  0  0  0  0  0  0
   67.8629   46.4290   54.2927 C   0  0  0  0  0  0  0  0  0  0  0  0
   68.7380   47.4772   54.0319 C   0  0  0  0  0  0  0  0  0  0  0  0
  1  2  2  0
  2 12  1  0
  2  3  1  0
 12 13  1  0
 13 14  2  0
 13 22  1  0
 14 15  1  0
 15 16  2  0
 16 17  1  0
 17 18  1  0
 17 22  2  0
 18 19  2  0
 19 20  1  0
 20 21  2  0
 21 22  1  0
  3  4  1  0
  4  5  2  0
  5  6  1  0
  6  7  2  0
  6 11  1  0
  7  8  1  0
  8  9  2  0
  9 10  1  0
 10 11  2  0
M  END
>  <minimizedAffinity>  (218) 
-8.56284

$$$$
cs_full_output_folder/data/smiles/8654.pdb
     RDKit          3D

 21 23  0  0  0  0  0  0  0  0999 V2000
   70.5903   48.6966   50.8763 O   0  0  0  0  0  0  0  0  0  0  0  0
   70.1874   48.6849   52.0846 C   0  0  0  0  0  0  0  0  0  0  0  0
   70.6182   49.5911   52.9683 N   0  0  0  0  0  0  0  0  0  0  0  0
   70.2285   49.6137   54.2233 N   0  0  0  0  0  0  0  0  0  0  0  0
   69.3453   48.7122   54.7410 C   0  0  0  0  0  0  0  0  0  0  0  0
   68.8756   47.7656   53.8749 C   0  0  0  0  0  0  0  0  0  0  0  0
   67.9741   46.8282   54.3089 C   0  0  0  0  0  0  0  0  0  0  0  0
   67.4906   45.8718   53.4202 C   0  0  0  0  0  0  0  0  0  0  0  0
   67.9143   45.8672   52.1159 C   0  0  0  0  0  0  0  0  0  0  0  0
   68.8153   46.8091   51.6896 C   0  0  0  0  0  0  0  0  0  0  0  0
   69.2925   47.7468   52.5479 C   0  0  0  0  0  0  0  0  0  0  0  0
   69.0169   48.8139   56.1807 C   0  0  0  0  0  0  0  0  0  0  0  0
   69.9089   47.9565   56.9918 C   0  0  0  0  0  0  0  0  0  0  0  0
   71.0518   48.5504   57.5236 C   0  0  0  0  0  0  0  0  0  0  0  0
   71.9438   47.8576   58.3096 C   0  0  0  0  0  0  0  0  0  0  0  0
   71.7264   46.5179   58.6024 C   0  0  0  0  0  0  0  0  0  0  0  0
   70.6062   45.9138   58.0886 C   0  0  0  0  0  0  0  0  0  0  0  0
   69.7090   46.6377   57.2897 C   0  0  0  0  0  0  0  0  0  0  0  0
   70.3011   44.4869   58.3557 C   0  0  0  0  0  0  0  0  0  0  0  0
   69.7973   44.2685   59.6264 O   0  0  0  0  0  0  0  0  0  0  0  0
   69.4898   44.0126   57.3416 O   0  0  0  0  0  0  0  0  0  0  0  0
  1  2  2  0
  2  3  1  0
  2 11  1  0
  3  4  1  0
  4  5  2  0
  5 12  1  0
  5  6  1  0
 12 13  1  0
 13 14  2  0
 13 18  1  0
 14 15  1  0
 15 16  2  0
 16 17  1  0
 17 19  1  0
 17 18  2  0
 19 20  1  0
 19 21  1  0
  6  7  1  0
  6 11  2  0
  7  8  2  0
  8  9  1  0
  9 10  2  0
 10 11  1  0
M  END
>  <minimizedAffinity>  (219) 
-8.56070

$$$$
cs_full_output_folder/data/smiles/2973.pdb
     RDKit          3D

 22 24  0  0  0  0  0  0  0  0999 V2000
   69.1159   45.6225   56.7843 N   0  0  0  0  0  0  0  0  0  0  0  0
   69.9910   46.2883   57.7430 C   0  0  0  0  0  0  0  0  0  0  0  0
   69.7925   47.5015   57.8125 O   0  0  0  0  0  0  0  0  0  0  0  0
   70.9436   45.5510   58.4789 C   0  0  0  0  0  0  0  0  0  0  0  0
   71.1134   45.9812   59.7261 O   0  0  0  0  0  0  0  0  0  0  0  0
   71.7754   44.4214   58.1427 C   0  0  0  0  0  0  0  0  0  0  0  0
   71.2604   43.1835   57.6557 C   0  0  0  0  0  0  0  0  0  0  0  0
   72.2592   42.3144   57.5281 N   0  0  0  0  0  0  0  0  0  0  0  0
   73.4236   42.8537   57.8858 C   0  0  0  0  0  0  0  0  0  0  0  0
   74.6901   42.3310   57.8953 C   0  0  0  0  0  0  0  0  0  0  0  0
   75.7278   43.1435   58.2994 C   0  0  0  0  0  0  0  0  0  0  0  0
   75.4863   44.4428   58.6813 C   0  0  0  0  0  0  0  0  0  0  0  0
   74.1849   44.9352   58.6577 C   0  0  0  0  0  0  0  0  0  0  0  0
   73.1200   44.1617   58.2657 C   0  0  0  0  0  0  0  0  0  0  0  0
   68.1769   46.3582   56.0608 N   0  0  0  0  0  0  0  0  0  0  0  0
   69.9866   48.7496   52.1120 C   0  0  0  0  0  0  0  0  0  0  0  0
   69.1861   47.6441   52.7053 C   0  0  0  0  0  0  0  0  0  0  0  0
   68.5717   46.7394   51.8739 C   0  0  0  0  0  0  0  0  0  0  0  0
   67.8274   45.7093   52.4004 C   0  0  0  0  0  0  0  0  0  0  0  0
   67.7157   45.6095   53.7713 C   0  0  0  0  0  0  0  0  0  0  0  0
   68.3092   46.4855   54.6509 C   0  0  0  0  0  0  0  0  0  0  0  0
   69.0527   47.5128   54.0760 C   0  0  0  0  0  0  0  0  0  0  0  0
 16 17  1  0
 17 18  2  0
 17 22  1  0
 18 19  1  0
 19 20  2  0
 20 21  1  0
 21 15  1  0
 21 22  2  0
 15  1  1  0
  1  2  1  0
  2  3  2  0
  2  4  1  0
  4  5  2  0
  4  6  1  0
  6  7  2  0
  6 14  1  0
  7  8  1  0
  8  9  1  0
  9 10  1  0
  9 14  2  0
 10 11  2  0
 11 12  1  0
 12 13  2  0
 13 14  1  0
M  END
>  <minimizedAffinity>  (220) 
-8.55804

$$$$
cs_full_output_folder/data/smiles/2204.pdb
     RDKit          3D

 21 23  0  0  0  0  0  0  0  0999 V2000
   70.4716   48.8068   50.9321 O   0  0  0  0  0  0  0  0  0  0  0  0
   70.1683   48.6518   52.1470 C   0  0  0  0  0  0  0  0  0  0  0  0
   70.6994   49.4161   53.0913 N   0  0  0  0  0  0  0  0  0  0  0  0
   70.3935   49.2761   54.4107 C   0  0  0  0  0  0  0  0  0  0  0  0
   69.5148   48.3151   54.7357 N   0  0  0  0  0  0  0  0  0  0  0  0
   68.9487   47.5147   53.8149 C   0  0  0  0  0  0  0  0  0  0  0  0
   68.0675   46.5484   54.1476 N   0  0  0  0  0  0  0  0  0  0  0  0
   67.5084   45.7509   53.2287 C   0  0  0  0  0  0  0  0  0  0  0  0
   67.8007   45.8718   51.8907 C   0  0  0  0  0  0  0  0  0  0  0  0
   68.6981   46.8500   51.5102 C   0  0  0  0  0  0  0  0  0  0  0  0
   69.2663   47.6665   52.4812 C   0  0  0  0  0  0  0  0  0  0  0  0
   71.0223   50.1532   55.4452 C   0  0  0  0  0  0  0  0  0  0  0  0
   70.6394   49.5659   56.7971 C   0  0  0  0  0  0  0  0  0  0  0  0
   69.2415   49.9339   57.1113 C   0  0  0  0  0  0  0  0  0  0  0  0
   68.8207   51.2605   56.9908 C   0  0  0  0  0  0  0  0  0  0  0  0
   67.5289   51.6052   57.2783 C   0  0  0  0  0  0  0  0  0  0  0  0
   66.6211   50.6562   57.6906 C   0  0  0  0  0  0  0  0  0  0  0  0
   67.0682   49.3457   57.8001 C   0  0  0  0  0  0  0  0  0  0  0  0
   66.1909   48.3751   58.2091 F   0  0  0  0  0  0  0  0  0  0  0  0
   68.3594   48.9604   57.5201 C   0  0  0  0  0  0  0  0  0  0  0  0
   68.7506   47.6825   57.6405 F   0  0  0  0  0  0  0  0  0  0  0  0
  1  2  2  0
  2  3  1  0
  2 11  1  0
  3  4  1  0
  4 12  1  0
  4  5  2  0
 12 13  1  0
 13 14  1  0
 14 15  2  0
 14 20  1  0
 15 16  1  0
 16 17  2  0
 17 18  1  0
 18 19  1  0
 18 20  2  0
 20 21  1  0
  5  6  1  0
  6  7  1  0
  6 11  2  0
  7  8  2  0
  8  9  1  0
  9 10  2  0
 10 11  1  0
M  END
>  <minimizedAffinity>  (221) 
-8.55458

$$$$
cs_full_output_folder/data/smiles/1413.pdb
     RDKit          3D

 19 20  0  0  0  0  0  0  0  0999 V2000
   68.2323   46.1961   55.5555 C   0  0  0  0  0  0  0  0  0  0  0  0
   68.4970   45.0377   56.0041 O   0  0  0  0  0  0  0  0  0  0  0  0
   68.4116   46.4743   54.1537 C   0  0  0  0  0  0  0  0  0  0  0  0
   67.6843   45.7995   53.2125 C   0  0  0  0  0  0  0  0  0  0  0  0
   67.8558   46.0657   51.8623 C   0  0  0  0  0  0  0  0  0  0  0  0
   68.7641   47.0153   51.4631 C   0  0  0  0  0  0  0  0  0  0  0  0
   69.4978   47.6968   52.3991 C   0  0  0  0  0  0  0  0  0  0  0  0
   69.3135   47.4172   53.7448 C   0  0  0  0  0  0  0  0  0  0  0  0
   70.4327   48.6736   51.9901 N   0  0  0  0  0  0  0  0  0  0  0  0
   70.4122   49.0814   50.8202 O   0  0  0  0  0  0  0  0  0  0  0  0
   71.3627   49.1857   52.8502 O   0  0  0  0  0  0  0  0  0  0  0  0
   67.7781   47.1320   56.4760 O   0  0  0  0  0  0  0  0  0  0  0  0
   68.6018   47.9175   57.3013 C   0  0  0  0  0  0  0  0  0  0  0  0
   69.0558   52.6009   55.0282 C   0  0  0  0  0  0  0  0  0  0  0  0
   68.6717   51.4734   55.9565 C   0  0  0  0  0  0  0  0  0  0  0  0
   67.8839   51.5978   57.0005 C   0  0  0  0  0  0  0  0  0  0  0  0
   67.7494   50.2997   57.6429 C   0  0  0  0  0  0  0  0  0  0  0  0
   68.4470   49.3923   56.9991 C   0  0  0  0  0  0  0  0  0  0  0  0
   69.0959   50.0693   55.8656 C   0  0  0  0  0  0  0  0  0  0  0  0
 14 15  1  0
 15 16  2  0
 15 19  1  0
 16 17  1  0
 17 18  2  0
 18 13  1  0
 18 19  1  0
 13 12  1  0
 12  1  1  0
  1  2  2  0
  1  3  1  0
  3  4  2  0
  3  8  1  0
  4  5  1  0
  5  6  2  0
  6  7  1  0
  7  9  1  0
  7  8  2  0
  9 10  2  0
  9 11  1  0
M  CHG  2   9   1  11  -1
M  END
>  <minimizedAffinity>  (222) 
-8.55384

$$$$
cs_full_output_folder/data/smiles/678.pdb
     RDKit          3D

 19 21  0  0  0  0  0  0  0  0999 V2000
   70.3555   49.0871   53.9422 C   0  0  0  0  0  0  0  0  0  0  0  0
   71.4948   49.4129   53.3335 N   0  0  0  0  0  0  0  0  0  0  0  0
   72.0387   50.4496   53.9332 N   0  0  0  0  0  0  0  0  0  0  0  0
   71.2545   50.8219   54.9539 C   0  0  0  0  0  0  0  0  0  0  0  0
   70.1706   49.9696   54.9864 C   0  0  0  0  0  0  0  0  0  0  0  0
   66.9763   44.9370   52.2696 O   0  0  0  0  0  0  0  0  0  0  0  0
   67.8162   45.9619   52.7130 C   0  0  0  0  0  0  0  0  0  0  0  0
   68.3260   46.8777   51.8167 C   0  0  0  0  0  0  0  0  0  0  0  0
   69.1559   47.9005   52.2089 C   0  0  0  0  0  0  0  0  0  0  0  0
   69.4788   47.9971   53.5614 C   0  0  0  0  0  0  0  0  0  0  0  0
   68.9718   47.0853   54.4594 C   0  0  0  0  0  0  0  0  0  0  0  0
   68.1480   46.0749   54.0450 C   0  0  0  0  0  0  0  0  0  0  0  0
   67.6285   45.1445   54.9536 O   0  0  0  0  0  0  0  0  0  0  0  0
   69.0683   50.0184   55.9430 C   0  0  0  0  0  0  0  0  0  0  0  0
   68.3202   51.1698   56.0679 C   0  0  0  0  0  0  0  0  0  0  0  0
   67.2858   51.1971   56.9739 C   0  0  0  0  0  0  0  0  0  0  0  0
   66.9685   50.1006   57.7692 C   0  0  0  0  0  0  0  0  0  0  0  0
   67.7295   48.9597   57.6268 C   0  0  0  0  0  0  0  0  0  0  0  0
   68.7699   48.9129   56.7247 C   0  0  0  0  0  0  0  0  0  0  0  0
  6  7  1  0
  7  8  2  0
  7 12  1  0
  8  9  1  0
  9 10  2  0
 10  1  1  0
 10 11  1  0
  1  2  2  0
  1  5  1  0
  2  3  1  0
  3  4  1  0
  4  5  2  0
  5 14  1  0
 14 15  2  0
 14 19  1  0
 15 16  1  0
 16 17  2  0
 17 18  1  0
 18 19  2  0
 11 12  2  0
 12 13  1  0
M  END
>  <minimizedAffinity>  (223) 
-8.55142

$$$$
cs_full_output_folder/data/smiles/7379.pdb
     RDKit          3D

 20 22  0  0  0  0  0  0  0  0999 V2000
   70.5194   48.3790   50.7652 O   0  0  0  0  0  0  0  0  0  0  0  0
   70.3652   48.4015   51.9900 C   0  0  0  0  0  0  0  0  0  0  0  0
   71.0781   49.1994   52.8150 N   0  0  0  0  0  0  0  0  0  0  0  0
   70.8829   49.1879   54.1022 N   0  0  0  0  0  0  0  0  0  0  0  0
   69.9335   48.3611   54.7122 C   0  0  0  0  0  0  0  0  0  0  0  0
   69.2086   47.5551   53.9127 C   0  0  0  0  0  0  0  0  0  0  0  0
   68.2452   46.7051   54.4521 C   0  0  0  0  0  0  0  0  0  0  0  0
   67.5051   45.8787   53.6325 C   0  0  0  0  0  0  0  0  0  0  0  0
   67.7361   45.9112   52.2795 C   0  0  0  0  0  0  0  0  0  0  0  0
   68.6647   46.7278   51.7182 C   0  0  0  0  0  0  0  0  0  0  0  0
   69.4085   47.5550   52.5175 C   0  0  0  0  0  0  0  0  0  0  0  0
   69.8434   48.4373   56.1700 C   0  0  0  0  0  0  0  0  0  0  0  0
   68.7597   49.3208   56.6946 C   0  0  0  0  0  0  0  0  0  0  0  0
   67.7184   48.6717   57.3895 C   0  0  0  0  0  0  0  0  0  0  0  0
   66.6079   49.3460   57.8261 C   0  0  0  0  0  0  0  0  0  0  0  0
   66.5142   50.7106   57.5708 C   0  0  0  0  0  0  0  0  0  0  0  0
   65.4249   51.3775   58.0020 F   0  0  0  0  0  0  0  0  0  0  0  0
   67.5186   51.3866   56.8887 C   0  0  0  0  0  0  0  0  0  0  0  0
   68.6206   50.6500   56.4731 C   0  0  0  0  0  0  0  0  0  0  0  0
   69.6056   51.3720   55.8900 F   0  0  0  0  0  0  0  0  0  0  0  0
  1  2  2  0
  2  3  1  0
  2 11  1  0
  3  4  1  0
  4  5  2  0
  5 12  1  0
  5  6  1  0
 12 13  1  0
 13 14  2  0
 13 19  1  0
 14 15  1  0
 15 16  2  0
 16 17  1  0
 16 18  1  0
 18 19  2  0
 19 20  1  0
  6  7  1  0
  6 11  2  0
  7  8  2  0
  8  9  1  0
  9 10  2  0
 10 11  1  0
M  END
>  <minimizedAffinity>  (224) 
-8.54461

$$$$
cs_full_output_folder/data/smiles/4487.pdb
     RDKit          3D

 20 21  0  0  0  0  0  0  0  0999 V2000
   68.5101   47.2903   55.0908 C   0  0  0  0  0  0  0  0  0  0  0  0
   67.7584   46.3669   54.3966 C   0  0  0  0  0  0  0  0  0  0  0  0
   67.8359   46.2156   53.0246 C   0  0  0  0  0  0  0  0  0  0  0  0
   67.0673   45.2738   52.3208 O   0  0  0  0  0  0  0  0  0  0  0  0
   68.6974   47.0120   52.2801 C   0  0  0  0  0  0  0  0  0  0  0  0
   68.7540   46.8386   50.8916 O   0  0  0  0  0  0  0  0  0  0  0  0
   69.4586   47.9401   52.9454 C   0  0  0  0  0  0  0  0  0  0  0  0
   69.3719   48.0814   54.3232 C   0  0  0  0  0  0  0  0  0  0  0  0
   70.3461   48.7826   52.2222 N   0  0  0  0  0  0  0  0  0  0  0  0
   71.5124   48.9795   52.6784 O   0  0  0  0  0  0  0  0  0  0  0  0
   70.0378   49.4119   51.0500 O   0  0  0  0  0  0  0  0  0  0  0  0
   67.2420   47.6476   57.0289 O   0  0  0  0  0  0  0  0  0  0  0  0
   68.3882   47.4475   56.5332 C   0  0  0  0  0  0  0  0  0  0  0  0
   69.5620   47.3717   57.3660 C   0  0  0  0  0  0  0  0  0  0  0  0
   70.0823   48.5903   57.8545 C   0  0  0  0  0  0  0  0  0  0  0  0
   71.1977   48.5637   58.6760 C   0  0  0  0  0  0  0  0  0  0  0  0
   71.8083   47.3861   59.0248 C   0  0  0  0  0  0  0  0  0  0  0  0
   73.2257   47.4581   60.0681 Cl  0  0  0  0  0  0  0  0  0  0  0  0
   71.3090   46.1770   58.5529 C   0  0  0  0  0  0  0  0  0  0  0  0
   70.1975   46.2188   57.7365 C   0  0  0  0  0  0  0  0  0  0  0  0
 12 13  2  0
 13 14  1  0
 13  1  1  0
 14 15  2  0
 14 20  1  0
 15 16  1  0
 16 17  2  0
 17 18  1  0
 17 19  1  0
 19 20  2  0
  1  2  2  0
  1  8  1  0
  2  3  1  0
  3  4  1  0
  3  5  2  0
  5  6  1  0
  5  7  1  0
  7  9  1  0
  7  8  2  0
  9 10  2  0
  9 11  1  0
M  CHG  2   9   1  11  -1
M  END
>  <minimizedAffinity>  (225) 
-8.54389

$$$$
cs_full_output_folder/data/smiles/6393.pdb
     RDKit          3D

 20 22  0  0  0  0  0  0  0  0999 V2000
   68.9265   46.7729   55.6884 C   0  0  0  0  0  0  0  0  0  0  0  0
   68.4341   45.5349   55.9970 N   0  0  0  0  0  0  0  0  0  0  0  0
   67.8526   44.7671   55.0998 N   0  0  0  0  0  0  0  0  0  0  0  0
   67.7004   45.1417   53.8109 C   0  0  0  0  0  0  0  0  0  0  0  0
   67.1426   44.4048   52.9536 O   0  0  0  0  0  0  0  0  0  0  0  0
   68.1688   46.3647   53.4316 C   0  0  0  0  0  0  0  0  0  0  0  0
   68.7890   47.1780   54.3963 C   0  0  0  0  0  0  0  0  0  0  0  0
   69.3188   48.4461   53.8921 C   0  0  0  0  0  0  0  0  0  0  0  0
   70.1612   48.1573   52.6551 C   0  0  0  0  0  0  0  0  0  0  0  0
   69.4950   47.2738   51.6625 C   0  0  0  0  0  0  0  0  0  0  0  0
   68.0655   46.9254   52.0607 C   0  0  0  0  0  0  0  0  0  0  0  0
   69.4978   47.6334   56.7483 C   0  0  0  0  0  0  0  0  0  0  0  0
   68.3142   51.2653   56.9204 C   0  0  0  0  0  0  0  0  0  0  0  0
   67.0859   51.0738   57.5042 C   0  0  0  0  0  0  0  0  0  0  0  0
   66.6327   49.8123   57.8427 C   0  0  0  0  0  0  0  0  0  0  0  0
   67.4196   48.7193   57.5952 C   0  0  0  0  0  0  0  0  0  0  0  0
   68.6831   48.8620   57.0002 C   0  0  0  0  0  0  0  0  0  0  0  0
   69.0857   50.1225   56.6866 C   0  0  0  0  0  0  0  0  0  0  0  0
   69.0314   52.5614   55.0276 C   0  0  0  0  0  0  0  0  0  0  0  0
   68.8262   52.6241   56.5377 C   0  0  0  0  0  0  0  0  0  0  0  0
 19 20  1  0
 20 13  1  0
 13 14  2  0
 13 18  1  0
 14 15  1  0
 15 16  2  0
 16 17  1  0
 17 12  1  0
 17 18  2  0
 12  1  1  0
  1  2  2  0
  1  7  1  0
  2  3  1  0
  3  4  1  0
  4  5  2  0
  4  6  1  0
  6  7  2  0
  6 11  1  0
  7  8  1  0
  8  9  1  0
  9 10  1  0
 10 11  1  0
M  END
>  <minimizedAffinity>  (226) 
-8.54363

$$$$
cs_full_output_folder/data/smiles/8048.pdb
     RDKit          3D

 19 21  0  0  0  0  0  0  0  0999 V2000
   71.2088   49.2391   53.4021 O   0  0  0  0  0  0  0  0  0  0  0  0
   70.0592   49.0321   53.9639 C   0  0  0  0  0  0  0  0  0  0  0  0
   69.7364   49.9339   54.9752 N   0  0  0  0  0  0  0  0  0  0  0  0
   70.3892   51.2689   55.1381 C   0  0  0  0  0  0  0  0  0  0  0  0
   69.1430   52.1046   55.4277 C   0  0  0  0  0  0  0  0  0  0  0  0
   68.3483   51.1977   56.3165 C   0  0  0  0  0  0  0  0  0  0  0  0
   67.4140   51.4120   57.2922 C   0  0  0  0  0  0  0  0  0  0  0  0
   66.8531   50.3462   58.0077 C   0  0  0  0  0  0  0  0  0  0  0  0
   67.2606   49.0558   57.7109 C   0  0  0  0  0  0  0  0  0  0  0  0
   68.2006   48.8648   56.7245 C   0  0  0  0  0  0  0  0  0  0  0  0
   68.7558   49.9149   56.0159 C   0  0  0  0  0  0  0  0  0  0  0  0
   69.3280   47.9294   53.4558 C   0  0  0  0  0  0  0  0  0  0  0  0
   68.7467   46.9827   54.2471 C   0  0  0  0  0  0  0  0  0  0  0  0
   67.9762   45.9328   53.7202 C   0  0  0  0  0  0  0  0  0  0  0  0
   67.7830   45.8305   52.3740 C   0  0  0  0  0  0  0  0  0  0  0  0
   67.0150   44.7884   51.8162 O   0  0  0  0  0  0  0  0  0  0  0  0
   68.3592   46.7761   51.5546 C   0  0  0  0  0  0  0  0  0  0  0  0
   69.1109   47.7959   52.0922 C   0  0  0  0  0  0  0  0  0  0  0  0
   69.6716   48.7221   51.2497 O   0  0  0  0  0  0  0  0  0  0  0  0
  1  2  2  0
  2 12  1  0
  2  3  1  0
 12 13  2  0
 12 18  1  0
 13 14  1  0
 14 15  2  0
 15 16  1  0
 15 17  1  0
 17 18  2  0
 18 19  1  0
  3  4  1  0
  3 11  1  0
  4  5  1  0
  5  6  1  0
  6  7  1  0
  6 11  2  0
  7  8  2  0
  8  9  1  0
  9 10  2  0
 10 11  1  0
M  END
>  <minimizedAffinity>  (227) 
-8.54265

$$$$
cs_full_output_folder/data/smiles/3197.pdb
     RDKit          3D

 21 23  0  0  0  0  0  0  0  0999 V2000
   69.5384   48.3833   54.1252 C   0  0  0  0  0  0  0  0  0  0  0  0
   69.4520   48.3584   55.5254 C   0  0  0  0  0  0  0  0  0  0  0  0
   68.7039   47.4079   56.1627 C   0  0  0  0  0  0  0  0  0  0  0  0
   68.6204   47.3802   57.4380 O   0  0  0  0  0  0  0  0  0  0  0  0
   68.0550   46.5030   55.4567 N   0  0  0  0  0  0  0  0  0  0  0  0
   68.1087   46.4873   54.1048 C   0  0  0  0  0  0  0  0  0  0  0  0
   67.4206   45.5299   53.3864 C   0  0  0  0  0  0  0  0  0  0  0  0
   67.4817   45.5233   52.0145 C   0  0  0  0  0  0  0  0  0  0  0  0
   68.2107   46.4424   51.3000 C   0  0  0  0  0  0  0  0  0  0  0  0
   68.9026   47.4050   52.0240 C   0  0  0  0  0  0  0  0  0  0  0  0
   68.8469   47.4207   53.4136 C   0  0  0  0  0  0  0  0  0  0  0  0
   71.4565   49.0185   52.9795 O   0  0  0  0  0  0  0  0  0  0  0  0
   70.3462   49.4138   53.4996 C   0  0  0  0  0  0  0  0  0  0  0  0
   70.1300   50.7411   53.3655 O   0  0  0  0  0  0  0  0  0  0  0  0
   70.2405   51.6968   54.3479 C   0  0  0  0  0  0  0  0  0  0  0  0
   71.3962   52.1523   54.7919 C   0  0  0  0  0  0  0  0  0  0  0  0
   71.3897   53.1837   55.8560 C   0  0  0  0  0  0  0  0  0  0  0  0
   70.2586   53.4444   56.4056 C   0  0  0  0  0  0  0  0  0  0  0  0
   69.1489   53.1558   55.8771 C   0  0  0  0  0  0  0  0  0  0  0  0
   69.0331   52.2425   54.9384 C   0  0  0  0  0  0  0  0  0  0  0  0
   67.8052   51.8415   54.5548 F   0  0  0  0  0  0  0  0  0  0  0  0
 12 13  2  0
 13 14  1  0
 13  1  1  0
 14 15  1  0
 15 16  2  0
 15 20  1  0
 16 17  1  0
 17 18  2  0
 18 19  2  0
 19 20  2  0
 20 21  1  0
  1  2  2  0
  1 11  1  0
  2  3  1  0
  3  4  2  0
  3  5  1  0
  5  6  1  0
  6  7  1  0
  6 11  2  0
  7  8  2  0
  8  9  1  0
  9 10  2  0
 10 11  1  0
M  END
>  <minimizedAffinity>  (228) 
-8.53750

$$$$
cs_full_output_folder/data/smiles/6290.pdb
     RDKit          3D

 22 24  0  0  0  0  0  0  0  0999 V2000
   69.3083   47.5065   56.7349 C   0  0  0  0  0  0  0  0  0  0  0  0
   68.7735   46.8113   55.5654 C   0  0  0  0  0  0  0  0  0  0  0  0
   68.1676   45.6081   55.7835 N   0  0  0  0  0  0  0  0  0  0  0  0
   67.6675   44.8386   54.8645 N   0  0  0  0  0  0  0  0  0  0  0  0
   67.7420   45.2437   53.5679 C   0  0  0  0  0  0  0  0  0  0  0  0
   67.2559   44.4978   52.6656 O   0  0  0  0  0  0  0  0  0  0  0  0
   68.3259   46.4299   53.2404 C   0  0  0  0  0  0  0  0  0  0  0  0
   68.8520   47.2264   54.2737 C   0  0  0  0  0  0  0  0  0  0  0  0
   69.4356   48.5188   53.9332 C   0  0  0  0  0  0  0  0  0  0  0  0
   69.9216   48.6594   52.5238 C   0  0  0  0  0  0  0  0  0  0  0  0
   69.7970   47.4572   51.6594 C   0  0  0  0  0  0  0  0  0  0  0  0
   68.4131   46.8582   51.8267 C   0  0  0  0  0  0  0  0  0  0  0  0
   68.2696   51.1191   57.1627 C   0  0  0  0  0  0  0  0  0  0  0  0
   67.0057   51.0326   57.7035 C   0  0  0  0  0  0  0  0  0  0  0  0
   66.4910   49.7765   57.9338 C   0  0  0  0  0  0  0  0  0  0  0  0
   67.2241   48.6378   57.6305 C   0  0  0  0  0  0  0  0  0  0  0  0
   68.4815   48.6889   57.0926 C   0  0  0  0  0  0  0  0  0  0  0  0
   68.9850   49.9797   56.8673 C   0  0  0  0  0  0  0  0  0  0  0  0
   68.8243   52.4598   56.9127 C   0  0  0  0  0  0  0  0  0  0  0  0
   69.2993   52.6449   55.5745 N   0  0  0  0  0  0  0  0  0  0  0  0
   71.3931   51.8459   54.6226 C   0  0  0  0  0  0  0  0  0  0  0  0
   70.7098   52.8990   55.4712 C   0  0  0  0  0  0  0  0  0  0  0  0
 21 22  1  0
 22 20  1  0
 20 19  1  0
 19 13  1  0
 13 14  2  0
 13 18  1  0
 14 15  1  0
 15 16  2  0
 16 17  1  0
 17  1  1  0
 17 18  2  0
  1  2  1  0
  2  3  2  0
  2  8  1  0
  3  4  1  0
  4  5  1  0
  5  6  2  0
  5  7  1  0
  7  8  2  0
  7 12  1  0
  8  9  1  0
  9 10  1  0
 10 11  1  0
 11 12  1  0
M  CHG  1  20   1
M  END
>  <minimizedAffinity>  (229) 
-8.53672

$$$$
cs_full_output_folder/data/smiles/4407.pdb
     RDKit          3D

 18 19  0  0  0  0  0  0  0  0999 V2000
   69.1500   47.7586   52.8106 C   0  0  0  0  0  0  0  0  0  0  0  0
   68.5836   46.9126   51.8713 C   0  0  0  0  0  0  0  0  0  0  0  0
   67.9013   45.7857   52.2598 C   0  0  0  0  0  0  0  0  0  0  0  0
   67.7439   45.4350   53.6063 C   0  0  0  0  0  0  0  0  0  0  0  0
   68.3083   46.2782   54.5354 C   0  0  0  0  0  0  0  0  0  0  0  0
   68.9832   47.3988   54.1181 C   0  0  0  0  0  0  0  0  0  0  0  0
   69.2996   50.5197   53.2669 N   0  0  0  0  0  0  0  0  0  0  0  0
   70.0442   49.1975   52.3932 S   0  0  0  0  0  0  0  0  0  0  0  0
   69.9482   49.5206   50.9199 O   0  0  0  0  0  0  0  0  0  0  0  0
   71.4688   49.1320   52.8673 O   0  0  0  0  0  0  0  0  0  0  0  0
   68.2016   45.9661   55.9228 N   0  0  0  0  0  0  0  0  0  0  0  0
   68.6609   44.7106   56.4206 C   0  0  0  0  0  0  0  0  0  0  0  0
   69.7482   44.6921   57.2000 N   0  0  0  0  0  0  0  0  0  0  0  0
   70.2378   43.5328   57.6895 C   0  0  0  0  0  0  0  0  0  0  0  0
   69.6035   42.3651   57.3779 C   0  0  0  0  0  0  0  0  0  0  0  0
   68.4848   42.3653   56.5781 C   0  0  0  0  0  0  0  0  0  0  0  0
   67.7209   40.8434   56.2017 Cl  0  0  0  0  0  0  0  0  0  0  0  0
   68.0392   43.5539   56.1172 N   0  0  0  0  0  0  0  0  0  0  0  0
  7  8  1  0
  8  9  2  0
  8 10  2  0
  8  1  1  0
  1  2  2  0
  1  6  1  0
  2  3  1  0
  3  4  2  0
  4  5  1  0
  5 11  1  0
  5  6  2  0
 11 12  1  0
 12 13  2  0
 12 18  1  0
 13 14  1  0
 14 15  2  0
 15 16  1  0
 16 17  1  0
 16 18  2  0
M  END
>  <minimizedAffinity>  (230) 
-8.53627

$$$$
cs_full_output_folder/data/smiles/4141.pdb
     RDKit          3D

 21 23  0  0  0  0  0  0  0  0999 V2000
   69.3385   48.4150   54.8895 C   0  0  0  0  0  0  0  0  0  0  0  0
   70.2453   49.3501   54.4700 N   0  0  0  0  0  0  0  0  0  0  0  0
   70.6249   49.4546   53.2001 N   0  0  0  0  0  0  0  0  0  0  0  0
   70.1394   48.6447   52.2487 C   0  0  0  0  0  0  0  0  0  0  0  0
   70.5357   48.7902   51.0541 O   0  0  0  0  0  0  0  0  0  0  0  0
   69.2185   47.6617   52.5681 C   0  0  0  0  0  0  0  0  0  0  0  0
   68.7308   46.8027   51.6104 C   0  0  0  0  0  0  0  0  0  0  0  0
   67.8409   45.8214   51.9885 C   0  0  0  0  0  0  0  0  0  0  0  0
   67.4671   45.7415   53.3360 C   0  0  0  0  0  0  0  0  0  0  0  0
   67.9639   46.6111   54.2808 C   0  0  0  0  0  0  0  0  0  0  0  0
   68.8435   47.5837   53.9166 C   0  0  0  0  0  0  0  0  0  0  0  0
   68.9252   48.4422   56.2812 C   0  0  0  0  0  0  0  0  0  0  0  0
   70.8607   45.7826   58.1876 C   0  0  0  0  0  0  0  0  0  0  0  0
   71.6213   46.5445   59.0300 C   0  0  0  0  0  0  0  0  0  0  0  0
   71.5248   47.9152   58.9891 C   0  0  0  0  0  0  0  0  0  0  0  0
   70.6659   48.5301   58.1042 C   0  0  0  0  0  0  0  0  0  0  0  0
   69.8822   47.8309   57.2392 C   0  0  0  0  0  0  0  0  0  0  0  0
   70.0023   46.4409   57.3042 C   0  0  0  0  0  0  0  0  0  0  0  0
   69.3088   43.9655   59.8380 O   0  0  0  0  0  0  0  0  0  0  0  0
   70.1285   43.5678   59.0011 C   0  0  0  0  0  0  0  0  0  0  0  0
   70.9048   44.3756   58.1793 N   0  0  0  0  0  0  0  0  0  0  0  0
 19 20  2  0
 20 21  1  0
 21 13  1  0
 13 14  2  0
 13 18  1  0
 14 15  1  0
 15 16  2  0
 16 17  1  0
 17 12  1  0
 17 18  2  0
 12  1  1  0
  1  2  2  0
  1 11  1  0
  2  3  1  0
  3  4  1  0
  4  5  2  0
  4  6  1  0
  6  7  1  0
  6 11  2  0
  7  8  2  0
  8  9  1  0
  9 10  2  0
 10 11  1  0
M  END
>  <minimizedAffinity>  (231) 
-8.53118

$$$$
cs_full_output_folder/data/smiles/8034.pdb
     RDKit          3D

 22 24  0  0  0  0  0  0  0  0999 V2000
   68.9782   48.7514   56.1762 C   0  0  0  0  0  0  0  0  0  0  0  0
   69.3170   48.6787   54.7559 C   0  0  0  0  0  0  0  0  0  0  0  0
   70.1938   49.5924   54.2393 N   0  0  0  0  0  0  0  0  0  0  0  0
   70.5914   49.5941   53.0007 N   0  0  0  0  0  0  0  0  0  0  0  0
   70.1536   48.6781   52.1383 C   0  0  0  0  0  0  0  0  0  0  0  0
   70.5487   48.6925   50.9421 O   0  0  0  0  0  0  0  0  0  0  0  0
   69.2645   47.7042   52.5476 C   0  0  0  0  0  0  0  0  0  0  0  0
   68.8027   46.7643   51.6556 C   0  0  0  0  0  0  0  0  0  0  0  0
   67.9086   45.8223   52.1036 C   0  0  0  0  0  0  0  0  0  0  0  0
   67.4980   45.8317   53.4039 C   0  0  0  0  0  0  0  0  0  0  0  0
   67.9664   46.7845   54.3034 C   0  0  0  0  0  0  0  0  0  0  0  0
   68.8549   47.7283   53.8803 C   0  0  0  0  0  0  0  0  0  0  0  0
   70.7005   46.0090   58.2114 C   0  0  0  0  0  0  0  0  0  0  0  0
   69.8217   46.6742   57.3694 C   0  0  0  0  0  0  0  0  0  0  0  0
   69.8815   48.0050   57.0785 C   0  0  0  0  0  0  0  0  0  0  0  0
   70.9126   48.7333   57.6877 C   0  0  0  0  0  0  0  0  0  0  0  0
   71.8014   48.1175   58.5260 C   0  0  0  0  0  0  0  0  0  0  0  0
   71.6995   46.7617   58.7899 C   0  0  0  0  0  0  0  0  0  0  0  0
   72.5882   46.1732   59.6210 F   0  0  0  0  0  0  0  0  0  0  0  0
   69.6750   44.1634   59.4810 N   0  0  0  0  0  0  0  0  0  0  0  0
   70.5632   44.5746   58.4677 C   0  0  0  0  0  0  0  0  0  0  0  0
   71.1938   43.7218   57.8329 O   0  0  0  0  0  0  0  0  0  0  0  0
 20 21  1  0
 21 22  2  0
 21 13  1  0
 13 14  2  0
 13 18  1  0
 14 15  1  0
 15  1  1  0
 15 16  2  0
  1  2  1  0
  2  3  2  0
  2 12  1  0
  3  4  1  0
  4  5  1  0
  5  6  2  0
  5  7  1  0
  7  8  1  0
  7 12  2  0
  8  9  2  0
  9 10  1  0
 10 11  2  0
 11 12  1  0
 16 17  1  0
 17 18  2  0
 18 19  1  0
M  END
>  <minimizedAffinity>  (232) 
-8.52929

$$$$
cs_full_output_folder/data/smiles/4481.pdb
     RDKit          3D

 19 20  0  0  0  0  0  0  0  0999 V2000
   69.4329   48.3874   54.1459 C   0  0  0  0  0  0  0  0  0  0  0  0
   69.2160   48.2556   55.4987 C   0  0  0  0  0  0  0  0  0  0  0  0
   68.3372   47.2953   55.9374 C   0  0  0  0  0  0  0  0  0  0  0  0
   68.0778   47.1030   57.1553 O   0  0  0  0  0  0  0  0  0  0  0  0
   67.7089   46.5086   55.0796 O   0  0  0  0  0  0  0  0  0  0  0  0
   67.8949   46.6110   53.7877 C   0  0  0  0  0  0  0  0  0  0  0  0
   67.2117   45.7679   52.9531 N   0  0  0  0  0  0  0  0  0  0  0  0
   67.3983   45.8713   51.6152 C   0  0  0  0  0  0  0  0  0  0  0  0
   66.7886   45.1149   50.8323 O   0  0  0  0  0  0  0  0  0  0  0  0
   68.2397   46.7846   51.0926 N   0  0  0  0  0  0  0  0  0  0  0  0
   68.9162   47.6202   51.9314 C   0  0  0  0  0  0  0  0  0  0  0  0
   69.7122   48.4881   51.4880 O   0  0  0  0  0  0  0  0  0  0  0  0
   68.7614   47.5536   53.2977 C   0  0  0  0  0  0  0  0  0  0  0  0
   70.5031   49.6270   53.5583 S   0  0  0  0  0  0  0  0  0  0  0  0
   70.0287   51.3086   53.6848 C   0  0  0  0  0  0  0  0  0  0  0  0
   68.8186   51.7036   54.4182 C   0  0  0  0  0  0  0  0  0  0  0  0
   68.9564   52.5451   55.6242 C   0  0  0  0  0  0  0  0  0  0  0  0
   67.5496   51.1719   57.2171 C   0  0  0  0  0  0  0  0  0  0  0  0
   68.8782   51.7670   56.9211 C   0  0  0  0  0  0  0  0  0  0  0  0
 18 19  1  0
 19 17  1  0
 17 16  1  0
 16 15  1  0
 15 14  1  0
 14  1  1  0
  1  2  2  0
  1 13  1  0
  2  3  1  0
  3  4  2  0
  3  5  1  0
  5  6  1  0
  6  7  1  0
  6 13  2  0
  7  8  1  0
  8  9  2  0
  8 10  1  0
 10 11  1  0
 11 12  2  0
 11 13  1  0
M  END
>  <minimizedAffinity>  (233) 
-8.52926

$$$$
cs_full_output_folder/data/smiles/4271.pdb
     RDKit          3D

 22 24  0  0  0  0  0  0  0  0999 V2000
   69.2101   45.8695   56.7252 C   0  0  0  0  0  0  0  0  0  0  0  0
   69.9083   46.9044   57.3725 C   0  0  0  0  0  0  0  0  0  0  0  0
   70.9365   46.6138   58.2308 C   0  0  0  0  0  0  0  0  0  0  0  0
   71.3122   45.2949   58.4829 C   0  0  0  0  0  0  0  0  0  0  0  0
   70.6435   44.2687   57.8607 C   0  0  0  0  0  0  0  0  0  0  0  0
   69.6165   44.5927   57.0037 C   0  0  0  0  0  0  0  0  0  0  0  0
   70.9652   42.8614   58.0625 C   0  0  0  0  0  0  0  0  0  0  0  0
   69.9856   41.8941   58.1908 C   0  0  0  0  0  0  0  0  0  0  0  0
   70.2902   40.5642   58.3836 C   0  0  0  0  0  0  0  0  0  0  0  0
   71.6114   40.1694   58.4527 C   0  0  0  0  0  0  0  0  0  0  0  0
   72.5503   41.1290   58.3254 N   0  0  0  0  0  0  0  0  0  0  0  0
   72.2853   42.4253   58.1380 C   0  0  0  0  0  0  0  0  0  0  0  0
   68.1809   46.2227   55.8494 N   0  0  0  0  0  0  0  0  0  0  0  0
   69.3464   47.6526   52.6488 C   0  0  0  0  0  0  0  0  0  0  0  0
   68.6774   46.8952   51.7138 C   0  0  0  0  0  0  0  0  0  0  0  0
   67.8207   45.8956   52.1700 C   0  0  0  0  0  0  0  0  0  0  0  0
   67.6750   45.7013   53.5183 C   0  0  0  0  0  0  0  0  0  0  0  0
   68.3582   46.4753   54.4754 C   0  0  0  0  0  0  0  0  0  0  0  0
   69.1560   47.4084   53.9470 N   0  0  0  0  0  0  0  0  0  0  0  0
   71.2841   49.2150   52.9960 N   0  0  0  0  0  0  0  0  0  0  0  0
   70.2386   48.6936   52.1858 C   0  0  0  0  0  0  0  0  0  0  0  0
   70.0934   49.1594   51.0323 O   0  0  0  0  0  0  0  0  0  0  0  0
 20 21  1  0
 21 22  2  0
 21 14  1  0
 14 15  2  0
 14 19  1  0
 15 16  1  0
 16 17  2  0
 17 18  1  0
 18 13  1  0
 18 19  2  0
 13  1  1  0
  1  2  2  0
  1  6  1  0
  2  3  1  0
  3  4  2  0
  4  5  1  0
  5  7  1  0
  5  6  2  0
  7  8  2  0
  7 12  1  0
  8  9  1  0
  9 10  2  0
 10 11  1  0
 11 12  2  0
M  END
>  <minimizedAffinity>  (234) 
-8.52794

$$$$
cs_full_output_folder/data/smiles/7574.pdb
     RDKit          3D

 21 23  0  0  0  0  0  0  0  0999 V2000
   68.8210   46.8223   57.2593 N   0  0  0  0  0  0  0  0  0  0  0  0
   68.4941   47.7946   56.5539 C   0  0  0  0  0  0  0  0  0  0  0  0
   69.0520   48.1712   55.2678 C   0  0  0  0  0  0  0  0  0  0  0  0
   69.9264   49.2450   55.1342 C   0  0  0  0  0  0  0  0  0  0  0  0
   70.4742   49.6276   53.9273 C   0  0  0  0  0  0  0  0  0  0  0  0
   70.1254   48.9015   52.8194 C   0  0  0  0  0  0  0  0  0  0  0  0
   69.2718   47.8308   52.8596 C   0  0  0  0  0  0  0  0  0  0  0  0
   68.9508   47.1252   51.6965 C   0  0  0  0  0  0  0  0  0  0  0  0
   68.0923   46.0580   51.7807 C   0  0  0  0  0  0  0  0  0  0  0  0
   67.5555   45.6883   52.9834 C   0  0  0  0  0  0  0  0  0  0  0  0
   67.8815   46.4009   54.1489 C   0  0  0  0  0  0  0  0  0  0  0  0
   68.7391   47.4724   54.0929 C   0  0  0  0  0  0  0  0  0  0  0  0
   70.6763   46.2880   59.2118 O   0  0  0  0  0  0  0  0  0  0  0  0
   70.6814   45.5205   58.2050 C   0  0  0  0  0  0  0  0  0  0  0  0
   69.7100   45.8046   57.1888 N   0  0  0  0  0  0  0  0  0  0  0  0
   71.6170   44.4206   58.0925 C   0  0  0  0  0  0  0  0  0  0  0  0
   72.9789   44.5518   58.1037 C   0  0  0  0  0  0  0  0  0  0  0  0
   73.8379   43.4824   57.9938 C   0  0  0  0  0  0  0  0  0  0  0  0
   73.2968   42.2202   57.8664 C   0  0  0  0  0  0  0  0  0  0  0  0
   71.9181   42.0324   57.8497 C   0  0  0  0  0  0  0  0  0  0  0  0
   71.0972   43.1431   57.9630 C   0  0  0  0  0  0  0  0  0  0  0  0
 13 14  2  0
 14 15  1  0
 14 16  1  0
 15  1  1  0
  1  2  2  0
  2  3  1  0
  3  4  2  0
  3 12  1  0
  4  5  1  0
  5  6  2  0
  6  7  1  0
  7  8  1  0
  7 12  2  0
  8  9  2  0
  9 10  1  0
 10 11  2  0
 11 12  1  0
 16 17  2  0
 16 21  1  0
 17 18  1  0
 18 19  2  0
 19 20  1  0
 20 21  2  0
M  END
>  <minimizedAffinity>  (235) 
-8.52676

$$$$
cs_full_output_folder/data/smiles/2303.pdb
     RDKit          3D

 19 20  0  0  0  0  0  0  0  0999 V2000
   66.6664   44.9223   50.8359 O   0  0  0  0  0  0  0  0  0  0  0  0
   67.3204   45.7193   51.5905 C   0  0  0  0  0  0  0  0  0  0  0  0
   68.1739   46.6084   51.0567 N   0  0  0  0  0  0  0  0  0  0  0  0
   68.8770   47.4609   51.8353 C   0  0  0  0  0  0  0  0  0  0  0  0
   69.6708   48.2929   51.3287 O   0  0  0  0  0  0  0  0  0  0  0  0
   68.7443   47.4480   53.2043 C   0  0  0  0  0  0  0  0  0  0  0  0
   69.4362   48.3010   54.0235 C   0  0  0  0  0  0  0  0  0  0  0  0
   69.1908   48.1799   55.4037 C   0  0  0  0  0  0  0  0  0  0  0  0
   68.2969   47.2345   55.8181 C   0  0  0  0  0  0  0  0  0  0  0  0
   68.1009   47.1545   57.0800 O   0  0  0  0  0  0  0  0  0  0  0  0
   67.6598   46.4396   54.9997 O   0  0  0  0  0  0  0  0  0  0  0  0
   67.8436   46.5041   53.7029 C   0  0  0  0  0  0  0  0  0  0  0  0
   67.1460   45.6572   52.9219 N   0  0  0  0  0  0  0  0  0  0  0  0
   70.4452   49.2699   53.5684 C   0  0  0  0  0  0  0  0  0  0  0  0
   70.4373   50.5131   54.4608 C   0  0  0  0  0  0  0  0  0  0  0  0
   69.4937   51.5560   54.1063 C   0  0  0  0  0  0  0  0  0  0  0  0
   68.7581   52.3665   55.0726 C   0  0  0  0  0  0  0  0  0  0  0  0
   68.8931   52.2114   56.5270 C   0  0  0  0  0  0  0  0  0  0  0  0
   67.4502   51.1929   57.0342 Cl  0  0  0  0  0  0  0  0  0  0  0  0
  1  2  2  0
  2  3  1  0
  2 13  1  0
  3  4  1  0
  4  5  2  0
  4  6  1  0
  6  7  1  0
  6 12  2  0
  7 14  1  0
  7  8  2  0
 14 15  1  0
 15 16  1  0
 16 17  1  0
 17 18  1  0
 18 19  1  0
  8  9  1  0
  9 10  2  0
  9 11  1  0
 11 12  1  0
 12 13  1  0
M  END
>  <minimizedAffinity>  (236) 
-8.52363

$$$$
cs_full_output_folder/data/smiles/4273.pdb
     RDKit          3D

 21 23  0  0  0  0  0  0  0  0999 V2000
   69.8050   48.6676   53.0477 C   0  0  0  0  0  0  0  0  0  0  0  0
   70.2404   49.6923   53.8627 C   0  0  0  0  0  0  0  0  0  0  0  0
   70.8487   50.8351   53.3525 O   0  0  0  0  0  0  0  0  0  0  0  0
   70.0475   49.5370   55.2197 C   0  0  0  0  0  0  0  0  0  0  0  0
   69.4476   48.4143   55.7507 C   0  0  0  0  0  0  0  0  0  0  0  0
   69.0110   47.3883   54.9385 C   0  0  0  0  0  0  0  0  0  0  0  0
   68.4052   46.2550   55.4715 C   0  0  0  0  0  0  0  0  0  0  0  0
   67.9657   45.2243   54.6748 C   0  0  0  0  0  0  0  0  0  0  0  0
   68.1694   45.3975   53.2982 C   0  0  0  0  0  0  0  0  0  0  0  0
   68.7675   46.5176   52.7659 C   0  0  0  0  0  0  0  0  0  0  0  0
   69.2023   47.5396   53.5826 C   0  0  0  0  0  0  0  0  0  0  0  0
   70.5106   47.9393   50.8882 O   0  0  0  0  0  0  0  0  0  0  0  0
   70.0044   48.8226   51.6107 C   0  0  0  0  0  0  0  0  0  0  0  0
   69.5878   50.0519   51.0663 O   0  0  0  0  0  0  0  0  0  0  0  0
   67.3580   44.0387   55.1649 N   0  0  0  0  0  0  0  0  0  0  0  0
   67.9424   43.0829   55.9969 C   0  0  0  0  0  0  0  0  0  0  0  0
   69.0607   43.3605   56.7283 C   0  0  0  0  0  0  0  0  0  0  0  0
   69.6424   42.4101   57.5761 C   0  0  0  0  0  0  0  0  0  0  0  0
   69.0729   41.1601   57.6775 C   0  0  0  0  0  0  0  0  0  0  0  0
   67.9441   40.8608   56.9466 C   0  0  0  0  0  0  0  0  0  0  0  0
   67.3900   41.8306   56.1105 C   0  0  0  0  0  0  0  0  0  0  0  0
 12 13  2  0
 13 14  1  0
 13  1  1  0
  1  2  2  0
  1 11  1  0
  2  3  1  0
  2  4  1  0
  4  5  2  0
  5  6  1  0
  6  7  1  0
  6 11  2  0
  7  8  2  0
  8 15  1  0
  8  9  1  0
 15 16  1  0
 16 17  2  0
 16 21  1  0
 17 18  1  0
 18 19  2  0
 19 20  1  0
 20 21  2  0
  9 10  2  0
 10 11  1  0
M  END
>  <minimizedAffinity>  (237) 
-8.52120

$$$$
cs_full_output_folder/data/smiles/7193.pdb
     RDKit          3D

 20 21  0  0  0  0  0  0  0  0999 V2000
   68.3432   46.4932   56.2024 N   0  0  0  0  0  0  0  0  0  0  0  0
   69.1356   47.7237   52.7829 C   0  0  0  0  0  0  0  0  0  0  0  0
   68.5588   46.7428   52.0045 C   0  0  0  0  0  0  0  0  0  0  0  0
   67.8948   45.6705   52.5700 C   0  0  0  0  0  0  0  0  0  0  0  0
   67.8270   45.6103   53.9683 C   0  0  0  0  0  0  0  0  0  0  0  0
   68.3814   46.5523   54.7909 C   0  0  0  0  0  0  0  0  0  0  0  0
   69.0360   47.6082   54.1401 C   0  0  0  0  0  0  0  0  0  0  0  0
   69.8263   50.1888   52.8041 C   0  0  0  0  0  0  0  0  0  0  0  0
   69.8387   48.8574   52.1441 C   0  0  0  0  0  0  0  0  0  0  0  0
   70.4375   48.6994   51.0584 O   0  0  0  0  0  0  0  0  0  0  0  0
   68.9212   47.3965   57.1443 C   0  0  0  0  0  0  0  0  0  0  0  0
   68.3549   48.7547   57.1686 C   0  0  0  0  0  0  0  0  0  0  0  0
   67.1233   48.9388   57.8171 C   0  0  0  0  0  0  0  0  0  0  0  0
   66.5156   50.1423   57.9274 C   0  0  0  0  0  0  0  0  0  0  0  0
   67.1289   51.2436   57.3798 C   0  0  0  0  0  0  0  0  0  0  0  0
   68.3392   51.1444   56.7292 C   0  0  0  0  0  0  0  0  0  0  0  0
   68.9201   49.8854   56.6436 C   0  0  0  0  0  0  0  0  0  0  0  0
   68.9884   52.3153   56.1494 C   0  0  0  0  0  0  0  0  0  0  0  0
   68.5561   52.7541   55.0589 O   0  0  0  0  0  0  0  0  0  0  0  0
   70.0492   52.9575   56.7432 O   0  0  0  0  0  0  0  0  0  0  0  0
  8  9  1  0
  9 10  2  0
  9  2  1  0
  2  3  2  0
  2  7  1  0
  3  4  1  0
  4  5  2  0
  5  6  1  0
  6  1  1  0
  6  7  2  0
  1 11  1  0
 11 12  1  0
 12 13  2  0
 12 17  1  0
 13 14  1  0
 14 15  2  0
 15 16  1  0
 16 18  1  0
 16 17  2  0
 18 19  2  0
 18 20  1  0
M  END
>  <minimizedAffinity>  (238) 
-8.52055

$$$$
cs_full_output_folder/data/smiles/6457.pdb
     RDKit          3D

 22 24  0  0  0  0  0  0  0  0999 V2000
   69.3238   47.2894   56.5161 C   0  0  0  0  0  0  0  0  0  0  0  0
   68.8189   46.6851   55.3048 C   0  0  0  0  0  0  0  0  0  0  0  0
   68.0205   45.5820   55.4271 N   0  0  0  0  0  0  0  0  0  0  0  0
   67.4668   44.9873   54.3866 N   0  0  0  0  0  0  0  0  0  0  0  0
   67.6416   45.4159   53.1267 C   0  0  0  0  0  0  0  0  0  0  0  0
   67.0867   44.8131   52.1452 O   0  0  0  0  0  0  0  0  0  0  0  0
   68.4347   46.5219   52.9256 C   0  0  0  0  0  0  0  0  0  0  0  0
   68.6347   46.9660   51.6395 C   0  0  0  0  0  0  0  0  0  0  0  0
   69.4465   48.0633   51.4944 C   0  0  0  0  0  0  0  0  0  0  0  0
   70.0428   48.7072   52.5551 C   0  0  0  0  0  0  0  0  0  0  0  0
   69.8282   48.2469   53.8318 C   0  0  0  0  0  0  0  0  0  0  0  0
   69.0241   47.1540   54.0332 C   0  0  0  0  0  0  0  0  0  0  0  0
   68.1777   50.8397   56.8275 C   0  0  0  0  0  0  0  0  0  0  0  0
   68.8822   49.6954   56.5395 C   0  0  0  0  0  0  0  0  0  0  0  0
   68.4505   48.4250   56.9182 C   0  0  0  0  0  0  0  0  0  0  0  0
   67.2830   48.3601   57.5941 C   0  0  0  0  0  0  0  0  0  0  0  0
   66.5473   49.5081   57.8996 C   0  0  0  0  0  0  0  0  0  0  0  0
   66.9900   50.7457   57.5200 C   0  0  0  0  0  0  0  0  0  0  0  0
   66.2448   51.8386   57.8367 F   0  0  0  0  0  0  0  0  0  0  0  0
   68.6491   52.1872   56.4263 C   0  0  0  0  0  0  0  0  0  0  0  0
   69.6048   52.1631   53.9896 N   0  0  0  0  0  0  0  0  0  0  0  0
   69.1798   52.1848   55.0710 C   0  0  0  0  0  0  0  0  0  0  0  0
 21 22  3  0
 22 20  1  0
 20 13  1  0
 13 14  2  0
 13 18  1  0
 14 15  1  0
 15  1  1  0
 15 16  2  0
  1  2  1  0
  2  3  2  0
  2 12  1  0
  3  4  1  0
  4  5  1  0
  5  6  2  0
  5  7  1  0
  7  8  1  0
  7 12  2  0
  8  9  2  0
  9 10  1  0
 10 11  2  0
 11 12  1  0
 16 17  1  0
 17 18  2  0
 18 19  1  0
M  END
>  <minimizedAffinity>  (239) 
-8.51847

$$$$
cs_full_output_folder/data/smiles/8711.pdb
     RDKit          3D

 20 22  0  0  0  0  0  0  0  0999 V2000
   71.4653   44.1612   58.7251 O   0  0  0  0  0  0  0  0  0  0  0  0
   70.7806   44.9598   58.0776 C   0  0  0  0  0  0  0  0  0  0  0  0
   69.7011   44.5577   57.3814 N   0  0  0  0  0  0  0  0  0  0  0  0
   68.9519   45.4175   56.6756 N   0  0  0  0  0  0  0  0  0  0  0  0
   69.2355   46.7359   56.6201 C   0  0  0  0  0  0  0  0  0  0  0  0
   70.3337   47.1595   57.3254 C   0  0  0  0  0  0  0  0  0  0  0  0
   71.1210   46.2865   58.0616 C   0  0  0  0  0  0  0  0  0  0  0  0
   72.2753   46.8775   58.7783 C   0  0  0  0  0  0  0  0  0  0  0  0
   71.6750   48.0367   59.5891 C   0  0  0  0  0  0  0  0  0  0  0  0
   70.9582   49.0328   58.7323 C   0  0  0  0  0  0  0  0  0  0  0  0
   70.7261   48.5687   57.3265 C   0  0  0  0  0  0  0  0  0  0  0  0
   68.4110   47.6905   55.8414 C   0  0  0  0  0  0  0  0  0  0  0  0
   68.5586   47.3946   54.3852 C   0  0  0  0  0  0  0  0  0  0  0  0
   67.9075   46.3234   53.8071 C   0  0  0  0  0  0  0  0  0  0  0  0
   68.0313   46.0389   52.4733 C   0  0  0  0  0  0  0  0  0  0  0  0
   68.8272   46.8500   51.7124 C   0  0  0  0  0  0  0  0  0  0  0  0
   69.5108   47.9380   52.2144 C   0  0  0  0  0  0  0  0  0  0  0  0
   69.3478   48.1797   53.5738 C   0  0  0  0  0  0  0  0  0  0  0  0
   70.3282   48.7599   51.4002 N   0  0  0  0  0  0  0  0  0  0  0  0
   69.7842   49.8552   50.8278 O   0  0  0  0  0  0  0  0  0  0  0  0
  1  2  2  0
  2  3  1  0
  2  7  1  0
  3  4  1  0
  4  5  2  0
  5 12  1  0
  5  6  1  0
 12 13  1  0
 13 14  2  0
 13 18  1  0
 14 15  1  0
 15 16  2  0
 16 17  1  0
 17 19  1  0
 17 18  2  0
 19 20  1  0
  6  7  2  0
  6 11  1  0
  7  8  1  0
  8  9  1  0
  9 10  1  0
 10 11  1  0
M  END
>  <minimizedAffinity>  (240) 
-8.51789

$$$$
cs_full_output_folder/data/smiles/7134.pdb
     RDKit          3D

 22 25  0  0  0  0  0  0  0  0999 V2000
   74.2926   52.1114   55.4509 O   0  0  0  0  0  0  0  0  0  0  0  0
   73.2321   51.6376   54.9870 C   0  0  0  0  0  0  0  0  0  0  0  0
   73.2252   50.5052   54.2952 N   0  0  0  0  0  0  0  0  0  0  0  0
   72.1167   50.0134   53.8124 N   0  0  0  0  0  0  0  0  0  0  0  0
   70.8877   50.6045   53.9702 C   0  0  0  0  0  0  0  0  0  0  0  0
   70.8201   51.7741   54.6706 C   0  0  0  0  0  0  0  0  0  0  0  0
   72.0082   52.2646   55.1662 C   0  0  0  0  0  0  0  0  0  0  0  0
   71.9904   53.5523   55.9186 C   0  0  0  0  0  0  0  0  0  0  0  0
   70.8106   53.4817   56.8578 C   0  0  0  0  0  0  0  0  0  0  0  0
   69.5287   53.2315   56.1641 C   0  0  0  0  0  0  0  0  0  0  0  0
   69.6156   52.5257   54.8318 C   0  0  0  0  0  0  0  0  0  0  0  0
   69.6851   49.9404   53.4570 C   0  0  0  0  0  0  0  0  0  0  0  0
   69.2942   48.8035   54.3064 C   0  0  0  0  0  0  0  0  0  0  0  0
   69.4487   48.8411   55.6701 C   0  0  0  0  0  0  0  0  0  0  0  0
   69.1221   47.7712   56.4577 C   0  0  0  0  0  0  0  0  0  0  0  0
   68.6246   46.6290   55.8586 C   0  0  0  0  0  0  0  0  0  0  0  0
   68.4537   46.5523   54.4985 C   0  0  0  0  0  0  0  0  0  0  0  0
   67.9339   45.3922   53.9620 C   0  0  0  0  0  0  0  0  0  0  0  0
   67.7320   45.2956   52.6070 C   0  0  0  0  0  0  0  0  0  0  0  0
   68.0602   46.3692   51.8426 C   0  0  0  0  0  0  0  0  0  0  0  0
   68.5833   47.5484   52.3384 C   0  0  0  0  0  0  0  0  0  0  0  0
   68.7859   47.6429   53.6888 C   0  0  0  0  0  0  0  0  0  0  0  0
  1  2  2  0
  2  3  1  0
  2  7  1  0
  3  4  1  0
  4  5  2  0
  5 12  1  0
  5  6  1  0
 12 13  1  0
 13 14  2  0
 13 22  1  0
 14 15  1  0
 15 16  2  0
 16 17  1  0
 17 18  1  0
 17 22  2  0
 18 19  2  0
 19 20  1  0
 20 21  2  0
 21 22  1  0
  6  7  2  0
  6 11  1  0
  7  8  1  0
  8  9  1  0
  9 10  1  0
 10 11  1  0
M  END
>  <minimizedAffinity>  (241) 
-8.51561

$$$$
cs_full_output_folder/data/smiles/3873.pdb
     RDKit          3D

 22 24  0  0  0  0  0  0  0  0999 V2000
   69.0234   46.4668   56.6552 C   0  0  0  0  0  0  0  0  0  0  0  0
   69.4587   47.6142   57.3090 C   0  0  0  0  0  0  0  0  0  0  0  0
   70.5400   47.5140   58.1684 C   0  0  0  0  0  0  0  0  0  0  0  0
   71.1593   46.2955   58.3602 C   0  0  0  0  0  0  0  0  0  0  0  0
   70.7455   45.1385   57.7215 C   0  0  0  0  0  0  0  0  0  0  0  0
   69.6637   45.2611   56.8677 C   0  0  0  0  0  0  0  0  0  0  0  0
   71.4306   43.8707   57.9523 C   0  0  0  0  0  0  0  0  0  0  0  0
   72.7890   43.8047   58.1789 C   0  0  0  0  0  0  0  0  0  0  0  0
   73.4562   42.6179   58.4000 C   0  0  0  0  0  0  0  0  0  0  0  0
   72.7599   41.4225   58.4014 C   0  0  0  0  0  0  0  0  0  0  0  0
   71.4032   41.4628   58.1773 C   0  0  0  0  0  0  0  0  0  0  0  0
   70.7459   42.6660   57.9565 C   0  0  0  0  0  0  0  0  0  0  0  0
   67.9403   46.6102   55.8046 O   0  0  0  0  0  0  0  0  0  0  0  0
   69.2887   47.7390   52.6204 C   0  0  0  0  0  0  0  0  0  0  0  0
   68.6587   46.8447   51.7575 C   0  0  0  0  0  0  0  0  0  0  0  0
   67.7987   45.8823   52.2297 C   0  0  0  0  0  0  0  0  0  0  0  0
   67.5495   45.7925   53.5802 C   0  0  0  0  0  0  0  0  0  0  0  0
   68.1821   46.6868   54.4202 C   0  0  0  0  0  0  0  0  0  0  0  0
   69.0168   47.6150   53.9299 N   0  0  0  0  0  0  0  0  0  0  0  0
   71.2937   49.1492   52.9261 N   0  0  0  0  0  0  0  0  0  0  0  0
   70.1984   48.7578   52.1193 C   0  0  0  0  0  0  0  0  0  0  0  0
   70.0355   49.2923   51.0000 O   0  0  0  0  0  0  0  0  0  0  0  0
 20 21  1  0
 21 22  2  0
 21 14  1  0
 14 15  2  0
 14 19  1  0
 15 16  1  0
 16 17  2  0
 17 18  1  0
 18 13  1  0
 18 19  2  0
 13  1  1  0
  1  2  2  0
  1  6  1  0
  2  3  1  0
  3  4  2  0
  4  5  1  0
  5  7  1  0
  5  6  2  0
  7  8  2  0
  7 12  1  0
  8  9  1  0
  9 10  2  0
 10 11  1  0
 11 12  2  0
M  END
>  <minimizedAffinity>  (242) 
-8.51293

$$$$
cs_full_output_folder/data/smiles/8345.pdb
     RDKit          3D

 21 23  0  0  0  0  0  0  0  0999 V2000
   68.7395   46.5970   55.2366 C   0  0  0  0  0  0  0  0  0  0  0  0
   67.9497   45.4811   55.3465 N   0  0  0  0  0  0  0  0  0  0  0  0
   67.4121   44.8776   54.3210 N   0  0  0  0  0  0  0  0  0  0  0  0
   67.5883   45.3007   53.0585 C   0  0  0  0  0  0  0  0  0  0  0  0
   67.0751   44.7283   52.0637 O   0  0  0  0  0  0  0  0  0  0  0  0
   68.3762   46.4211   52.8755 C   0  0  0  0  0  0  0  0  0  0  0  0
   68.6187   46.9164   51.5989 C   0  0  0  0  0  0  0  0  0  0  0  0
   69.4161   48.0266   51.4349 C   0  0  0  0  0  0  0  0  0  0  0  0
   69.9844   48.6621   52.5100 C   0  0  0  0  0  0  0  0  0  0  0  0
   69.7556   48.1857   53.7801 C   0  0  0  0  0  0  0  0  0  0  0  0
   68.9571   47.0736   53.9746 C   0  0  0  0  0  0  0  0  0  0  0  0
   69.2531   47.2303   56.4480 C   0  0  0  0  0  0  0  0  0  0  0  0
   68.3405   50.8618   56.8971 C   0  0  0  0  0  0  0  0  0  0  0  0
   68.9784   49.6910   56.5760 C   0  0  0  0  0  0  0  0  0  0  0  0
   68.4551   48.4344   56.8852 C   0  0  0  0  0  0  0  0  0  0  0  0
   67.2631   48.3743   57.5313 C   0  0  0  0  0  0  0  0  0  0  0  0
   66.5872   49.5169   57.8738 C   0  0  0  0  0  0  0  0  0  0  0  0
   67.1283   50.7459   57.5556 C   0  0  0  0  0  0  0  0  0  0  0  0
   66.4963   51.9148   57.8741 F   0  0  0  0  0  0  0  0  0  0  0  0
   69.3460   53.2444   56.3173 C   0  0  0  0  0  0  0  0  0  0  0  0
   68.8841   52.1586   56.5775 C   0  0  0  0  0  0  0  0  0  0  0  0
 20 21  3  0
 21 13  1  0
 13 14  2  0
 13 18  1  0
 14 15  1  0
 15 12  1  0
 15 16  2  0
 12  1  1  0
  1  2  2  0
  1 11  1  0
  2  3  1  0
  3  4  1  0
  4  5  2  0
  4  6  1  0
  6  7  1  0
  6 11  2  0
  7  8  2  0
  8  9  1  0
  9 10  2  0
 10 11  1  0
 16 17  1  0
 17 18  2  0
 18 19  1  0
M  END
>  <minimizedAffinity>  (243) 
-8.51150

$$$$
cs_full_output_folder/data/smiles/9472.pdb
     RDKit          3D

 20 22  0  0  0  0  0  0  0  0999 V2000
   69.3592   48.7311   53.9867 C   0  0  0  0  0  0  0  0  0  0  0  0
   69.8218   49.5568   52.9440 C   0  0  0  0  0  0  0  0  0  0  0  0
   70.3749   50.8030   53.2112 O   0  0  0  0  0  0  0  0  0  0  0  0
   69.7066   49.0935   51.6640 C   0  0  0  0  0  0  0  0  0  0  0  0
   70.1107   49.7987   50.6701 O   0  0  0  0  0  0  0  0  0  0  0  0
   69.1743   47.8992   51.3817 N   0  0  0  0  0  0  0  0  0  0  0  0
   68.7269   47.1023   52.3725 C   0  0  0  0  0  0  0  0  0  0  0  0
   68.1656   45.8565   52.0374 C   0  0  0  0  0  0  0  0  0  0  0  0
   67.7055   45.0569   53.0607 C   0  0  0  0  0  0  0  0  0  0  0  0
   67.7801   45.4412   54.3779 C   0  0  0  0  0  0  0  0  0  0  0  0
   68.3316   46.6610   54.6892 C   0  0  0  0  0  0  0  0  0  0  0  0
   68.8134   47.5076   53.6814 C   0  0  0  0  0  0  0  0  0  0  0  0
   69.5053   49.2062   55.2956 N   0  0  0  0  0  0  0  0  0  0  0  0
   68.7532   51.9881   55.6952 C   0  0  0  0  0  0  0  0  0  0  0  0
   68.1566   50.8855   56.4842 C   0  0  0  0  0  0  0  0  0  0  0  0
   67.2001   51.1782   57.4622 C   0  0  0  0  0  0  0  0  0  0  0  0
   66.6165   50.2032   58.2295 C   0  0  0  0  0  0  0  0  0  0  0  0
   67.0275   48.9125   57.9793 C   0  0  0  0  0  0  0  0  0  0  0  0
   67.9520   48.5808   57.0406 C   0  0  0  0  0  0  0  0  0  0  0  0
   68.5475   49.5956   56.2551 C   0  0  0  0  0  0  0  0  0  0  0  0
 14 15  1  0
 15 16  2  0
 15 20  1  0
 16 17  1  0
 17 18  2  0
 18 19  1  0
 19 20  2  0
 20 13  1  0
 13  1  1  0
  1  2  2  0
  1 12  1  0
  2  3  1  0
  2  4  1  0
  4  5  2  0
  4  6  1  0
  6  7  1  0
  7  8  1  0
  7 12  2  0
  8  9  2  0
  9 10  1  0
 10 11  2  0
 11 12  1  0
M  END
>  <minimizedAffinity>  (244) 
-8.51102

$$$$
cs_full_output_folder/data/smiles/7224.pdb
     RDKit          3D

 21 23  0  0  0  0  0  0  0  0999 V2000
   70.1221   48.6600   55.0423 C   0  0  0  0  0  0  0  0  0  0  0  0
   70.9139   49.4935   54.3398 N   0  0  0  0  0  0  0  0  0  0  0  0
   70.9984   49.5057   53.0396 N   0  0  0  0  0  0  0  0  0  0  0  0
   70.2808   48.6604   52.2777 C   0  0  0  0  0  0  0  0  0  0  0  0
   70.3948   48.7076   51.0126 O   0  0  0  0  0  0  0  0  0  0  0  0
   69.4480   47.7721   52.8772 C   0  0  0  0  0  0  0  0  0  0  0  0
   68.7096   46.8944   52.1013 C   0  0  0  0  0  0  0  0  0  0  0  0
   67.8786   46.0036   52.7720 C   0  0  0  0  0  0  0  0  0  0  0  0
   67.8034   46.0089   54.1485 C   0  0  0  0  0  0  0  0  0  0  0  0
   68.5485   46.8942   54.9179 C   0  0  0  0  0  0  0  0  0  0  0  0
   69.3713   47.7769   54.2695 C   0  0  0  0  0  0  0  0  0  0  0  0
   70.0623   48.6998   56.5123 C   0  0  0  0  0  0  0  0  0  0  0  0
   68.7201   50.7424   56.9525 C   0  0  0  0  0  0  0  0  0  0  0  0
   67.5360   51.3203   57.3570 C   0  0  0  0  0  0  0  0  0  0  0  0
   66.4599   50.5744   57.7605 C   0  0  0  0  0  0  0  0  0  0  0  0
   66.5533   49.2035   57.7673 C   0  0  0  0  0  0  0  0  0  0  0  0
   67.7357   48.6317   57.3636 C   0  0  0  0  0  0  0  0  0  0  0  0
   68.8117   49.3707   56.9582 C   0  0  0  0  0  0  0  0  0  0  0  0
   71.0925   51.6078   57.2495 C   0  0  0  0  0  0  0  0  0  0  0  0
   69.8410   51.5477   56.5473 N   0  0  0  0  0  0  0  0  0  0  0  0
   69.6699   52.3378   55.3466 C   0  0  0  0  0  0  0  0  0  0  0  0
 19 20  1  0
 20 21  1  0
 20 13  1  0
 13 14  2  0
 13 18  1  0
 14 15  1  0
 15 16  2  0
 16 17  1  0
 17 18  2  0
 18 12  1  0
 12  1  1  0
  1  2  2  0
  1 11  1  0
  2  3  1  0
  3  4  1  0
  4  5  2  0
  4  6  1  0
  6  7  1  0
  6 11  2  0
  7  8  2  0
  8  9  1  0
  9 10  2  0
 10 11  1  0
M  END
>  <minimizedAffinity>  (245) 
-8.51054

$$$$
cs_full_output_folder/data/smiles/6881.pdb
     RDKit          3D

 20 22  0  0  0  0  0  0  0  0999 V2000
   68.7948   46.9914   55.5336 C   0  0  0  0  0  0  0  0  0  0  0  0
   68.0541   45.8589   55.7049 N   0  0  0  0  0  0  0  0  0  0  0  0
   67.6004   45.1364   54.6874 N   0  0  0  0  0  0  0  0  0  0  0  0
   67.8355   45.4665   53.4034 C   0  0  0  0  0  0  0  0  0  0  0  0
   67.4156   44.7960   52.4405 O   0  0  0  0  0  0  0  0  0  0  0  0
   68.5771   46.6036   53.1598 C   0  0  0  0  0  0  0  0  0  0  0  0
   68.8237   46.9837   51.8746 C   0  0  0  0  0  0  0  0  0  0  0  0
   69.5475   48.1225   51.6305 C   0  0  0  0  0  0  0  0  0  0  0  0
   70.0123   48.8642   52.7005 C   0  0  0  0  0  0  0  0  0  0  0  0
   69.7741   48.5000   54.0102 C   0  0  0  0  0  0  0  0  0  0  0  0
   69.0519   47.3584   54.2388 C   0  0  0  0  0  0  0  0  0  0  0  0
   69.2954   47.6685   56.7472 C   0  0  0  0  0  0  0  0  0  0  0  0
   68.1847   51.2753   57.1585 C   0  0  0  0  0  0  0  0  0  0  0  0
   66.9128   51.0937   57.7131 C   0  0  0  0  0  0  0  0  0  0  0  0
   66.4910   49.8092   57.9248 C   0  0  0  0  0  0  0  0  0  0  0  0
   67.2939   48.7445   57.6010 C   0  0  0  0  0  0  0  0  0  0  0  0
   68.5708   48.9191   57.0457 C   0  0  0  0  0  0  0  0  0  0  0  0
   68.9897   50.1838   56.8345 C   0  0  0  0  0  0  0  0  0  0  0  0
   69.5994   52.9897   56.0095 C   0  0  0  0  0  0  0  0  0  0  0  0
   68.6045   52.5981   56.9525 N   0  0  0  0  0  0  0  0  0  0  0  0
 19 20  1  0
 20 13  1  0
 13 14  2  0
 13 18  1  0
 14 15  1  0
 15 16  2  0
 16 17  1  0
 17 12  1  0
 17 18  2  0
 12  1  1  0
  1  2  2  0
  1 11  1  0
  2  3  1  0
  3  4  1  0
  4  5  2  0
  4  6  1  0
  6  7  1  0
  6 11  2  0
  7  8  2  0
  8  9  1  0
  9 10  2  0
 10 11  1  0
M  END
>  <minimizedAffinity>  (246) 
-8.50572

$$$$
cs_full_output_folder/data/smiles/118.pdb
     RDKit          3D

 22 25  0  0  0  0  0  0  0  0999 V2000
   70.0286   49.3213   53.4903 C   0  0  0  0  0  0  0  0  0  0  0  0
   70.0450   49.8919   52.2814 N   0  0  0  0  0  0  0  0  0  0  0  0
   69.4635   49.0670   51.4374 N   0  0  0  0  0  0  0  0  0  0  0  0
   69.0584   47.9542   52.0590 C   0  0  0  0  0  0  0  0  0  0  0  0
   68.4104   46.7931   51.6799 C   0  0  0  0  0  0  0  0  0  0  0  0
   68.1324   45.8123   52.6106 C   0  0  0  0  0  0  0  0  0  0  0  0
   68.4779   45.9351   53.9369 C   0  0  0  0  0  0  0  0  0  0  0  0
   69.1211   47.0906   54.3126 C   0  0  0  0  0  0  0  0  0  0  0  0
   69.4099   48.0952   53.3785 C   0  0  0  0  0  0  0  0  0  0  0  0
   68.1541   44.8658   54.8680 C   0  0  0  0  0  0  0  0  0  0  0  0
   68.6514   44.7297   56.1260 N   0  0  0  0  0  0  0  0  0  0  0  0
   68.1402   43.6420   56.6775 N   0  0  0  0  0  0  0  0  0  0  0  0
   67.2943   43.0402   55.7910 C   0  0  0  0  0  0  0  0  0  0  0  0
   67.3337   43.8219   54.7007 N   0  0  0  0  0  0  0  0  0  0  0  0
   70.5541   49.8306   54.7862 C   0  0  0  0  0  0  0  0  0  0  0  0
   69.7685   50.9604   55.3604 C   0  0  0  0  0  0  0  0  0  0  0  0
   66.7256   49.8219   58.0023 C   0  0  0  0  0  0  0  0  0  0  0  0
   67.7060   48.8807   57.6543 C   0  0  0  0  0  0  0  0  0  0  0  0
   68.7105   49.2631   56.7807 C   0  0  0  0  0  0  0  0  0  0  0  0
   68.7048   50.5513   56.2906 C   0  0  0  0  0  0  0  0  0  0  0  0
   67.7322   51.4646   56.6429 C   0  0  0  0  0  0  0  0  0  0  0  0
   66.7231   51.1044   57.5108 C   0  0  0  0  0  0  0  0  0  0  0  0
 17 18  2  0
 17 22  1  0
 18 19  1  0
 19 20  2  0
 20 16  1  0
 20 21  1  0
 16 15  1  0
 15  1  1  0
  1  2  2  0
  1  9  1  0
  2  3  1  0
  3  4  1  0
  4  5  1  0
  4  9  2  0
  5  6  2  0
  6  7  1  0
  7 10  1  0
  7  8  2  0
 10 11  2  0
 10 14  1  0
 11 12  1  0
 12 13  2  0
 13 14  1  0
  8  9  1  0
 21 22  2  0
M  END
>  <minimizedAffinity>  (247) 
-8.50530

$$$$
cs_full_output_folder/data/smiles/8617.pdb
     RDKit          3D

 22 24  0  0  0  0  0  0  0  0999 V2000
   71.5938   48.0508   58.9778 C   0  0  0  0  0  0  0  0  0  0  0  0
   70.8420   46.9606   58.2913 C   0  0  0  0  0  0  0  0  0  0  0  0
   69.7839   47.3201   57.4831 C   0  0  0  0  0  0  0  0  0  0  0  0
   69.0882   46.3155   56.8471 C   0  0  0  0  0  0  0  0  0  0  0  0
   69.4723   45.0516   57.0462 N   0  0  0  0  0  0  0  0  0  0  0  0
   70.5010   44.6824   57.8300 C   0  0  0  0  0  0  0  0  0  0  0  0
   71.1889   45.6499   58.4560 N   0  0  0  0  0  0  0  0  0  0  0  0
   70.8718   43.2812   58.0057 C   0  0  0  0  0  0  0  0  0  0  0  0
   72.1936   42.9147   58.1221 C   0  0  0  0  0  0  0  0  0  0  0  0
   72.5744   41.5834   58.2916 C   0  0  0  0  0  0  0  0  0  0  0  0
   71.6283   40.5826   58.3483 C   0  0  0  0  0  0  0  0  0  0  0  0
   70.3066   40.9567   58.2315 C   0  0  0  0  0  0  0  0  0  0  0  0
   69.9207   42.2861   58.0614 C   0  0  0  0  0  0  0  0  0  0  0  0
   68.0188   46.6692   56.0295 O   0  0  0  0  0  0  0  0  0  0  0  0
   68.2401   46.7015   54.6535 C   0  0  0  0  0  0  0  0  0  0  0  0
   67.6941   45.7535   53.8046 C   0  0  0  0  0  0  0  0  0  0  0  0
   67.9174   45.7910   52.4395 C   0  0  0  0  0  0  0  0  0  0  0  0
   68.7075   46.8011   51.8993 C   0  0  0  0  0  0  0  0  0  0  0  0
   69.2643   47.7616   52.7316 C   0  0  0  0  0  0  0  0  0  0  0  0
   69.0163   47.6843   54.0799 C   0  0  0  0  0  0  0  0  0  0  0  0
   70.0933   48.8073   52.0949 C   0  0  0  0  0  0  0  0  0  0  0  0
   71.2612   49.1309   52.8883 N   0  0  0  0  0  0  0  0  0  0  0  0
  1  2  1  0
  2  3  2  0
  2  7  1  0
  3  4  1  0
  4 14  1  0
  4  5  2  0
 14 15  1  0
 15 16  2  0
 15 20  1  0
 16 17  1  0
 17 18  2  0
 18 19  1  0
 19 21  1  0
 19 20  2  0
 21 22  1  0
  5  6  1  0
  6  8  1  0
  6  7  2  0
  8  9  2  0
  8 13  1  0
  9 10  1  0
 10 11  2  0
 11 12  1  0
 12 13  2  0
M  CHG  1  22   1
M  END
>  <minimizedAffinity>  (248) 
-8.50523

$$$$
cs_full_output_folder/data/smiles/6433.pdb
     RDKit          3D

 21 22  0  0  0  0  0  0  0  0999 V2000
   68.5289   42.8176   56.7295 C   0  0  0  0  0  0  0  0  0  0  0  0
   67.5652   42.7856   55.8834 O   0  0  0  0  0  0  0  0  0  0  0  0
   69.0853   44.1211   56.9496 N   0  0  0  0  0  0  0  0  0  0  0  0
   72.0037   40.0701   58.9033 C   0  0  0  0  0  0  0  0  0  0  0  0
   70.6148   40.2291   58.3786 C   0  0  0  0  0  0  0  0  0  0  0  0
   69.7259   39.1572   58.4091 C   0  0  0  0  0  0  0  0  0  0  0  0
   68.4497   39.2813   57.9217 C   0  0  0  0  0  0  0  0  0  0  0  0
   68.0774   40.5102   57.3991 C   0  0  0  0  0  0  0  0  0  0  0  0
   68.9324   41.5932   57.3504 C   0  0  0  0  0  0  0  0  0  0  0  0
   70.2226   41.4411   57.8550 C   0  0  0  0  0  0  0  0  0  0  0  0
   71.2166   42.5708   57.8639 C   0  0  0  0  0  0  0  0  0  0  0  0
   68.5170   45.2063   56.2151 N   0  0  0  0  0  0  0  0  0  0  0  0
   69.1098   46.4701   56.3987 C   0  0  0  0  0  0  0  0  0  0  0  0
   70.1099   46.6164   57.1546 O   0  0  0  0  0  0  0  0  0  0  0  0
   68.5566   47.7107   55.7013 C   0  0  0  0  0  0  0  0  0  0  0  0
   68.6219   47.3106   54.2481 C   0  0  0  0  0  0  0  0  0  0  0  0
   67.7935   46.3104   53.8057 C   0  0  0  0  0  0  0  0  0  0  0  0
   67.7770   45.9138   52.4713 C   0  0  0  0  0  0  0  0  0  0  0  0
   68.6407   46.5788   51.6178 C   0  0  0  0  0  0  0  0  0  0  0  0
   69.4787   47.5874   52.0652 C   0  0  0  0  0  0  0  0  0  0  0  0
   69.4718   47.9593   53.3964 C   0  0  0  0  0  0  0  0  0  0  0  0
  4  5  1  0
  5  6  2  0
  5 10  1  0
  6  7  1  0
  7  8  2  0
  8  9  1  0
  9  1  1  0
  9 10  2  0
  1  2  2  0
  1  3  1  0
  3 12  1  0
 12 13  1  0
 13 14  2  0
 13 15  1  0
 15 16  1  0
 16 17  2  0
 16 21  1  0
 17 18  1  0
 18 19  2  0
 19 20  1  0
 20 21  2  0
 10 11  1  0
M  END
>  <minimizedAffinity>  (249) 
-8.50449

$$$$
cs_full_output_folder/data/smiles/4555.pdb
     RDKit          3D

 21 22  0  0  0  0  0  0  0  0999 V2000
   69.4698   48.1625   53.8433 C   0  0  0  0  0  0  0  0  0  0  0  0
   69.3658   47.9022   55.2230 C   0  0  0  0  0  0  0  0  0  0  0  0
   68.7888   46.7663   55.7330 C   0  0  0  0  0  0  0  0  0  0  0  0
   68.2779   45.8184   54.8840 C   0  0  0  0  0  0  0  0  0  0  0  0
   67.6793   44.6466   55.3452 O   0  0  0  0  0  0  0  0  0  0  0  0
   68.3612   46.0356   53.5421 C   0  0  0  0  0  0  0  0  0  0  0  0
   67.8519   45.0924   52.6571 O   0  0  0  0  0  0  0  0  0  0  0  0
   68.9587   47.2077   53.0361 C   0  0  0  0  0  0  0  0  0  0  0  0
   69.0443   47.2612   51.6379 N   0  0  0  0  0  0  0  0  0  0  0  0
   68.0128   47.1124   50.9626 O   0  0  0  0  0  0  0  0  0  0  0  0
   70.2393   47.4654   50.9685 O   0  0  0  0  0  0  0  0  0  0  0  0
   71.3107   49.3580   53.1662 O   0  0  0  0  0  0  0  0  0  0  0  0
   70.0212   49.3923   53.4083 C   0  0  0  0  0  0  0  0  0  0  0  0
   69.4636   50.7070   53.1702 C   0  0  0  0  0  0  0  0  0  0  0  0
   69.8109   51.7587   54.1861 C   0  0  0  0  0  0  0  0  0  0  0  0
   69.4079   51.4724   55.5545 C   0  0  0  0  0  0  0  0  0  0  0  0
   68.0720   51.4973   55.8725 C   0  0  0  0  0  0  0  0  0  0  0  0
   67.6065   51.2381   57.1429 C   0  0  0  0  0  0  0  0  0  0  0  0
   68.5270   50.9464   58.1162 C   0  0  0  0  0  0  0  0  0  0  0  0
   69.8778   50.9182   57.8077 C   0  0  0  0  0  0  0  0  0  0  0  0
   70.3213   51.1798   56.5327 C   0  0  0  0  0  0  0  0  0  0  0  0
 12 13  2  0
 13 14  1  0
 13  1  1  0
 14 15  1  0
 15 16  1  0
 16 17  2  0
 16 21  1  0
 17 18  1  0
 18 19  2  0
 19 20  1  0
 20 21  2  0
  1  2  2  0
  1  8  1  0
  2  3  1  0
  3  4  2  0
  4  5  1  0
  4  6  1  0
  6  7  1  0
  6  8  2  0
  8  9  1  0
  9 10  2  0
  9 11  1  0
M  CHG  2   9   1  11  -1
M  END
>  <minimizedAffinity>  (250) 
-8.50423

$$$$
cs_full_output_folder/data/smiles/7446.pdb
     RDKit          3D

 20 22  0  0  0  0  0  0  0  0999 V2000
   70.3968   48.7858   50.9836 O   0  0  0  0  0  0  0  0  0  0  0  0
   70.2859   48.6497   52.2284 C   0  0  0  0  0  0  0  0  0  0  0  0
   71.0414   49.4376   53.0102 N   0  0  0  0  0  0  0  0  0  0  0  0
   70.9532   49.3243   54.3346 N   0  0  0  0  0  0  0  0  0  0  0  0
   70.1103   48.4225   54.9260 C   0  0  0  0  0  0  0  0  0  0  0  0
   69.3393   47.6179   54.1369 C   0  0  0  0  0  0  0  0  0  0  0  0
   68.4947   46.6902   54.6831 C   0  0  0  0  0  0  0  0  0  0  0  0
   67.7237   45.8581   53.8626 C   0  0  0  0  0  0  0  0  0  0  0  0
   67.7936   45.9507   52.4832 C   0  0  0  0  0  0  0  0  0  0  0  0
   68.6519   46.8944   51.9584 C   0  0  0  0  0  0  0  0  0  0  0  0
   69.4176   47.7189   52.7483 C   0  0  0  0  0  0  0  0  0  0  0  0
   70.0505   48.3882   56.4180 C   0  0  0  0  0  0  0  0  0  0  0  0
   68.8596   49.1832   56.8154 C   0  0  0  0  0  0  0  0  0  0  0  0
   68.7272   50.4675   56.2853 C   0  0  0  0  0  0  0  0  0  0  0  0
   67.6299   51.2570   56.6160 C   0  0  0  0  0  0  0  0  0  0  0  0
   66.6463   50.8102   57.4649 C   0  0  0  0  0  0  0  0  0  0  0  0
   65.5603   51.5901   57.7869 F   0  0  0  0  0  0  0  0  0  0  0  0
   66.7800   49.5377   57.9908 C   0  0  0  0  0  0  0  0  0  0  0  0
   65.7997   49.1139   58.8262 F   0  0  0  0  0  0  0  0  0  0  0  0
   67.8828   48.7446   57.6584 C   0  0  0  0  0  0  0  0  0  0  0  0
  1  2  2  0
  2  3  1  0
  2 11  1  0
  3  4  1  0
  4  5  2  0
  5 12  1  0
  5  6  1  0
 12 13  1  0
 13 14  2  0
 13 20  1  0
 14 15  1  0
 15 16  2  0
 16 17  1  0
 16 18  1  0
 18 19  1  0
 18 20  2  0
  6  7  1  0
  6 11  2  0
  7  8  2  0
  8  9  1  0
  9 10  2  0
 10 11  1  0
M  END
>  <minimizedAffinity>  (251) 
-8.50319

$$$$
cs_full_output_folder/data/smiles/6324.pdb
     RDKit          3D

 22 24  0  0  0  0  0  0  0  0999 V2000
   68.9482   48.7900   56.2200 C   0  0  0  0  0  0  0  0  0  0  0  0
   69.3701   48.6588   54.8079 C   0  0  0  0  0  0  0  0  0  0  0  0
   70.2627   49.5842   54.3081 N   0  0  0  0  0  0  0  0  0  0  0  0
   70.6411   49.5945   53.0571 N   0  0  0  0  0  0  0  0  0  0  0  0
   70.1812   48.7016   52.1801 C   0  0  0  0  0  0  0  0  0  0  0  0
   70.5336   48.6956   50.9684 O   0  0  0  0  0  0  0  0  0  0  0  0
   69.2797   47.7256   52.5799 C   0  0  0  0  0  0  0  0  0  0  0  0
   68.8140   46.7916   51.6807 C   0  0  0  0  0  0  0  0  0  0  0  0
   67.9377   45.8471   52.1542 C   0  0  0  0  0  0  0  0  0  0  0  0
   67.5467   45.8380   53.4682 C   0  0  0  0  0  0  0  0  0  0  0  0
   68.0098   46.7651   54.3548 C   0  0  0  0  0  0  0  0  0  0  0  0
   68.8936   47.7378   53.9226 C   0  0  0  0  0  0  0  0  0  0  0  0
   70.7965   46.1350   58.1898 C   0  0  0  0  0  0  0  0  0  0  0  0
   71.9148   46.8152   58.5822 C   0  0  0  0  0  0  0  0  0  0  0  0
   72.0728   48.1367   58.2147 C   0  0  0  0  0  0  0  0  0  0  0  0
   71.1014   48.7547   57.4580 C   0  0  0  0  0  0  0  0  0  0  0  0
   69.9482   48.0793   57.0445 C   0  0  0  0  0  0  0  0  0  0  0  0
   69.8324   46.7831   57.4255 C   0  0  0  0  0  0  0  0  0  0  0  0
   70.6160   44.7619   58.5825 C   0  0  0  0  0  0  0  0  0  0  0  0
   69.6537   44.4513   59.3799 O   0  0  0  0  0  0  0  0  0  0  0  0
   70.8624   42.4727   57.7108 C   0  0  0  0  0  0  0  0  0  0  0  0
   71.4025   43.7062   58.1733 O   0  0  0  0  0  0  0  0  0  0  0  0
 21 22  1  0
 22 19  1  0
 19 20  2  0
 19 13  1  0
 13 14  2  0
 13 18  1  0
 14 15  1  0
 15 16  2  0
 16 17  1  0
 17  1  1  0
 17 18  2  0
  1  2  1  0
  2  3  2  0
  2 12  1  0
  3  4  1  0
  4  5  1  0
  5  6  2  0
  5  7  1  0
  7  8  1  0
  7 12  2  0
  8  9  2  0
  9 10  1  0
 10 11  2  0
 11 12  1  0
M  END
>  <minimizedAffinity>  (252) 
-8.50265

$$$$
cs_full_output_folder/data/smiles/7312.pdb
     RDKit          3D

 22 24  0  0  0  0  0  0  0  0999 V2000
   71.5598   50.6271   54.8783 C   0  0  0  0  0  0  0  0  0  0  0  0
   70.7918   49.5739   54.2090 C   0  0  0  0  0  0  0  0  0  0  0  0
   69.9025   48.8046   54.8357 N   0  0  0  0  0  0  0  0  0  0  0  0
   69.2067   47.8406   54.2057 C   0  0  0  0  0  0  0  0  0  0  0  0
   68.3070   47.0879   54.9298 C   0  0  0  0  0  0  0  0  0  0  0  0
   67.6017   46.1036   54.2745 C   0  0  0  0  0  0  0  0  0  0  0  0
   67.7817   45.8654   52.9277 C   0  0  0  0  0  0  0  0  0  0  0  0
   68.6819   46.6194   52.2033 C   0  0  0  0  0  0  0  0  0  0  0  0
   69.3910   47.6055   52.8511 C   0  0  0  0  0  0  0  0  0  0  0  0
   70.3131   48.4049   52.2002 C   0  0  0  0  0  0  0  0  0  0  0  0
   70.4936   48.2047   50.9632 O   0  0  0  0  0  0  0  0  0  0  0  0
   70.9761   49.3463   52.8745 N   0  0  0  0  0  0  0  0  0  0  0  0
   70.9818   52.0134   54.6036 C   0  0  0  0  0  0  0  0  0  0  0  0
   70.5434   53.7456   56.1075 O   0  0  0  0  0  0  0  0  0  0  0  0
   70.2610   52.5695   55.7587 C   0  0  0  0  0  0  0  0  0  0  0  0
   69.2498   51.8123   56.4977 C   0  0  0  0  0  0  0  0  0  0  0  0
   67.9389   51.7730   56.1411 C   0  0  0  0  0  0  0  0  0  0  0  0
   66.9648   51.0593   56.8335 C   0  0  0  0  0  0  0  0  0  0  0  0
   67.3754   50.3569   57.9433 C   0  0  0  0  0  0  0  0  0  0  0  0
   66.4618   49.6375   58.6562 F   0  0  0  0  0  0  0  0  0  0  0  0
   68.6988   50.3718   58.3364 C   0  0  0  0  0  0  0  0  0  0  0  0
   69.6299   51.0948   57.6184 C   0  0  0  0  0  0  0  0  0  0  0  0
 14 15  2  0
 15 13  1  0
 15 16  1  0
 13  1  1  0
  1  2  1  0
  2  3  2  0
  2 12  1  0
  3  4  1  0
  4  5  2  0
  4  9  1  0
  5  6  1  0
  6  7  2  0
  7  8  1  0
  8  9  2  0
  9 10  1  0
 10 11  2  0
 10 12  1  0
 16 17  2  0
 16 22  1  0
 17 18  1  0
 18 19  2  0
 19 20  1  0
 19 21  1  0
 21 22  2  0
M  END
>  <minimizedAffinity>  (253) 
-8.50242

$$$$
cs_full_output_folder/data/smiles/2022.pdb
     RDKit          3D

 21 23  0  0  0  0  0  0  0  0999 V2000
   68.3327   48.0450   56.8051 C   0  0  0  0  0  0  0  0  0  0  0  0
   67.1188   47.7812   57.3735 N   0  0  0  0  0  0  0  0  0  0  0  0
   66.3840   48.7548   57.8733 N   0  0  0  0  0  0  0  0  0  0  0  0
   66.7799   50.0392   57.8522 C   0  0  0  0  0  0  0  0  0  0  0  0
   65.9908   50.8903   58.3597 O   0  0  0  0  0  0  0  0  0  0  0  0
   67.9901   50.3822   57.2990 C   0  0  0  0  0  0  0  0  0  0  0  0
   68.7718   49.3754   56.7747 C   0  0  0  0  0  0  0  0  0  0  0  0
   70.1235   49.6172   56.2637 C   0  0  0  0  0  0  0  0  0  0  0  0
   70.5050   51.0609   56.1345 C   0  0  0  0  0  0  0  0  0  0  0  0
   69.3534   52.0174   56.1008 C   0  0  0  0  0  0  0  0  0  0  0  0
   68.4078   51.8010   57.2693 C   0  0  0  0  0  0  0  0  0  0  0  0
   69.0848   46.9607   56.1574 C   0  0  0  0  0  0  0  0  0  0  0  0
   68.9066   47.3696   52.4089 C   0  0  0  0  0  0  0  0  0  0  0  0
   69.1783   47.5502   53.7326 C   0  0  0  0  0  0  0  0  0  0  0  0
   68.7020   46.6919   54.7500 C   0  0  0  0  0  0  0  0  0  0  0  0
   67.9354   45.6454   54.3181 C   0  0  0  0  0  0  0  0  0  0  0  0
   67.6390   45.4343   52.9661 C   0  0  0  0  0  0  0  0  0  0  0  0
   68.1284   46.3021   52.0131 C   0  0  0  0  0  0  0  0  0  0  0  0
   67.8415   46.0980   50.7043 F   0  0  0  0  0  0  0  0  0  0  0  0
   70.5607   48.1571   50.9260 O   0  0  0  0  0  0  0  0  0  0  0  0
   69.3959   48.2493   51.3933 N   0  0  0  0  0  0  0  0  0  0  0  0
 20 21  2  0
 21 13  1  0
 13 14  2  0
 13 18  1  0
 14 15  1  0
 15 12  1  0
 15 16  2  0
 12  1  1  0
  1  2  2  0
  1  7  1  0
  2  3  1  0
  3  4  1  0
  4  5  2  0
  4  6  1  0
  6  7  2  0
  6 11  1  0
  7  8  1  0
  8  9  1  0
  9 10  1  0
 10 11  1  0
 16 17  1  0
 17 18  2  0
 18 19  1  0
M  END
>  <minimizedAffinity>  (254) 
-8.50134

$$$$
cs_full_output_folder/data/smiles/1681.pdb
     RDKit          3D

 21 22  0  0  0  0  0  0  0  0999 V2000
   67.7728   43.8871   55.2038 N   0  0  0  0  0  0  0  0  0  0  0  0
   68.1532   45.2163   55.0430 C   0  0  0  0  0  0  0  0  0  0  0  0
   68.4062   45.8449   56.1296 O   0  0  0  0  0  0  0  0  0  0  0  0
   68.2672   45.8753   53.7553 C   0  0  0  0  0  0  0  0  0  0  0  0
   67.5115   45.4663   52.6546 C   0  0  0  0  0  0  0  0  0  0  0  0
   67.6271   46.0982   51.4374 C   0  0  0  0  0  0  0  0  0  0  0  0
   68.5002   47.1509   51.2892 C   0  0  0  0  0  0  0  0  0  0  0  0
   69.2551   47.5787   52.3408 C   0  0  0  0  0  0  0  0  0  0  0  0
   69.1214   46.9273   53.5591 C   0  0  0  0  0  0  0  0  0  0  0  0
   70.1498   48.6691   52.1661 N   0  0  0  0  0  0  0  0  0  0  0  0
   71.0587   48.9026   52.9907 O   0  0  0  0  0  0  0  0  0  0  0  0
   70.0097   49.4807   51.0670 O   0  0  0  0  0  0  0  0  0  0  0  0
   67.5189   41.1556   55.5450 O   0  0  0  0  0  0  0  0  0  0  0  0
   67.5311   41.8439   56.5986 C   0  0  0  0  0  0  0  0  0  0  0  0
   67.6590   43.2350   56.4498 N   0  0  0  0  0  0  0  0  0  0  0  0
   67.4130   41.1545   57.8782 C   0  0  0  0  0  0  0  0  0  0  0  0
   66.6859   41.6558   58.9366 C   0  0  0  0  0  0  0  0  0  0  0  0
   66.5895   40.9774   60.1456 C   0  0  0  0  0  0  0  0  0  0  0  0
   67.2210   39.7696   60.3385 C   0  0  0  0  0  0  0  0  0  0  0  0
   67.9517   39.2576   59.2905 C   0  0  0  0  0  0  0  0  0  0  0  0
   68.0377   39.9416   58.0965 C   0  0  0  0  0  0  0  0  0  0  0  0
 13 14  2  0
 14 15  1  0
 14 16  1  0
 15  1  1  0
  1  2  1  0
  2  3  2  0
  2  4  1  0
  4  5  2  0
  4  9  1  0
  5  6  1  0
  6  7  2  0
  7  8  1  0
  8 10  1  0
  8  9  2  0
 10 11  2  0
 10 12  1  0
 16 17  2  0
 16 21  1  0
 17 18  1  0
 18 19  2  0
 19 20  1  0
 20 21  2  0
M  CHG  2  10   1  12  -1
M  END
>  <minimizedAffinity>  (255) 
-8.50129

$$$$
