cs_full_output_folder/data/smiles/7292.pdb
     RDKit          3D

 26 29  0  0  0  0  0  0  0  0999 V2000
   70.0720   44.6537   57.6575 C   0  0  0  0  0  0  0  0  0  0  0  0
   71.1406   44.9555   58.4681 C   0  0  0  0  0  0  0  0  0  0  0  0
   71.5912   46.2697   58.5584 C   0  0  0  0  0  0  0  0  0  0  0  0
   70.9718   47.2670   57.8400 C   0  0  0  0  0  0  0  0  0  0  0  0
   69.8768   46.9905   57.0020 C   0  0  0  0  0  0  0  0  0  0  0  0
   69.4837   45.6936   56.9542 C   0  0  0  0  0  0  0  0  0  0  0  0
   67.9852   39.4499   57.0227 N   0  0  0  0  0  0  0  0  0  0  0  0
   68.5461   40.7430   57.2186 C   0  0  0  0  0  0  0  0  0  0  0  0
   69.5800   40.9739   58.1007 C   0  0  0  0  0  0  0  0  0  0  0  0
   70.1052   42.2301   58.2721 C   0  0  0  0  0  0  0  0  0  0  0  0
   69.5936   43.2794   57.5518 C   0  0  0  0  0  0  0  0  0  0  0  0
   68.5586   43.0413   56.6703 C   0  0  0  0  0  0  0  0  0  0  0  0
   68.0167   41.7810   56.4861 C   0  0  0  0  0  0  0  0  0  0  0  0
   66.9506   41.5415   55.5835 N   0  0  0  0  0  0  0  0  0  0  0  0
   69.3012   48.1372   56.2627 C   0  0  0  0  0  0  0  0  0  0  0  0
   69.6346   48.2236   54.8514 C   0  0  0  0  0  0  0  0  0  0  0  0
   70.5712   49.0862   54.4156 N   0  0  0  0  0  0  0  0  0  0  0  0
   70.8963   49.2498   53.1474 N   0  0  0  0  0  0  0  0  0  0  0  0
   70.3022   48.5506   52.1720 C   0  0  0  0  0  0  0  0  0  0  0  0
   70.6037   48.6971   50.9499 O   0  0  0  0  0  0  0  0  0  0  0  0
   69.3160   47.6288   52.5346 C   0  0  0  0  0  0  0  0  0  0  0  0
   68.6847   46.8764   51.5834 C   0  0  0  0  0  0  0  0  0  0  0  0
   67.7167   45.9434   51.8766 C   0  0  0  0  0  0  0  0  0  0  0  0
   67.4174   45.8131   53.2282 C   0  0  0  0  0  0  0  0  0  0  0  0
   68.0312   46.5507   54.1955 C   0  0  0  0  0  0  0  0  0  0  0  0
   68.9899   47.4721   53.8660 C   0  0  0  0  0  0  0  0  0  0  0  0
  7  8  1  0
  8  9  2  0
  8 13  1  0
  9 10  1  0
 10 11  2  0
 11  1  1  0
 11 12  1  0
  1  2  2  0
  1  6  1  0
  2  3  1  0
  3  4  2  0
  4  5  1  0
  5 15  1  0
  5  6  2  0
 15 16  1  0
 16 17  2  0
 16 26  1  0
 17 18  1  0
 18 19  1  0
 19 20  2  0
 19 21  1  0
 21 22  1  0
 21 26  2  0
 22 23  2  0
 23 24  1  0
 24 25  2  0
 25 26  1  0
 12 13  2  0
 13 14  1  0
M  END
>  <minimizedAffinity>  (1) 
-10.05734

$$$$
cs_full_output_folder/data/smiles/7883.pdb
     RDKit          3D

 26 28  0  0  0  0  0  0  0  0999 V2000
   69.0550   43.9678   56.9121 N   0  0  0  0  0  0  0  0  0  0  0  0
   68.4381   42.7161   56.6834 C   0  0  0  0  0  0  0  0  0  0  0  0
   67.4552   42.6966   55.8859 O   0  0  0  0  0  0  0  0  0  0  0  0
   68.8873   41.4664   57.3216 C   0  0  0  0  0  0  0  0  0  0  0  0
   68.0846   40.3450   57.3108 C   0  0  0  0  0  0  0  0  0  0  0  0
   68.4628   39.1540   57.8975 C   0  0  0  0  0  0  0  0  0  0  0  0
   69.6899   39.0365   58.5331 C   0  0  0  0  0  0  0  0  0  0  0  0
   70.4899   40.1570   58.5435 C   0  0  0  0  0  0  0  0  0  0  0  0
   70.1061   41.3586   57.9496 C   0  0  0  0  0  0  0  0  0  0  0  0
   70.1032   37.7856   59.1589 C   0  0  0  0  0  0  0  0  0  0  0  0
   71.1940   37.1034   58.6610 C   0  0  0  0  0  0  0  0  0  0  0  0
   71.6257   35.9071   59.2214 C   0  0  0  0  0  0  0  0  0  0  0  0
   70.9630   35.3726   60.3008 C   0  0  0  0  0  0  0  0  0  0  0  0
   69.8735   36.0266   60.8201 C   0  0  0  0  0  0  0  0  0  0  0  0
   69.4624   37.2206   60.2420 C   0  0  0  0  0  0  0  0  0  0  0  0
   69.1237   46.4075   56.3967 C   0  0  0  0  0  0  0  0  0  0  0  0
   70.1228   46.5088   57.1494 O   0  0  0  0  0  0  0  0  0  0  0  0
   68.5577   45.1185   56.2573 N   0  0  0  0  0  0  0  0  0  0  0  0
   68.5931   47.6085   55.7053 C   0  0  0  0  0  0  0  0  0  0  0  0
   70.1619   49.3014   53.9635 C   0  0  0  0  0  0  0  0  0  0  0  0
   69.3943   48.1793   53.4153 C   0  0  0  0  0  0  0  0  0  0  0  0
   69.4226   47.9318   52.0526 C   0  0  0  0  0  0  0  0  0  0  0  0
   68.7064   46.8825   51.5269 C   0  0  0  0  0  0  0  0  0  0  0  0
   67.9498   46.0623   52.3450 C   0  0  0  0  0  0  0  0  0  0  0  0
   67.9361   46.3288   53.7017 C   0  0  0  0  0  0  0  0  0  0  0  0
   68.6486   47.3774   54.2544 C   0  0  0  0  0  0  0  0  0  0  0  0
 20 21  1  0
 21 22  2  0
 21 26  1  0
 22 23  1  0
 23 24  2  0
 24 25  1  0
 25 26  2  0
 26 19  1  0
 19 16  1  0
 16 17  2  0
 16 18  1  0
 18  1  1  0
  1  2  1  0
  2  3  2  0
  2  4  1  0
  4  5  2  0
  4  9  1  0
  5  6  1  0
  6  7  2  0
  7 10  1  0
  7  8  1  0
 10 11  2  0
 10 15  1  0
 11 12  1  0
 12 13  2  0
 13 14  1  0
 14 15  2  0
  8  9  2  0
M  END
>  <minimizedAffinity>  (2) 
-10.02550

$$$$
cs_full_output_folder/data/smiles/4706.pdb
     RDKit          3D

 23 25  0  0  0  0  0  0  0  0999 V2000
   67.9030   47.9304   56.7743 C   0  0  0  0  0  0  0  0  0  0  0  0
   66.7686   48.0261   57.5112 N   0  0  0  0  0  0  0  0  0  0  0  0
   66.4423   49.1722   58.1209 C   0  0  0  0  0  0  0  0  0  0  0  0
   67.2733   50.2994   58.0083 C   0  0  0  0  0  0  0  0  0  0  0  0
   68.4200   50.2067   57.2635 C   0  0  0  0  0  0  0  0  0  0  0  0
   68.6785   49.0220   56.6821 N   0  0  0  0  0  0  0  0  0  0  0  0
   69.3091   51.3524   57.1210 C   0  0  0  0  0  0  0  0  0  0  0  0
   68.8627   52.5026   56.4559 C   0  0  0  0  0  0  0  0  0  0  0  0
   69.6480   53.6201   56.2852 C   0  0  0  0  0  0  0  0  0  0  0  0
   70.9353   53.6516   56.7745 C   0  0  0  0  0  0  0  0  0  0  0  0
   71.3934   52.5319   57.4315 C   0  0  0  0  0  0  0  0  0  0  0  0
   70.5901   51.3944   57.6038 C   0  0  0  0  0  0  0  0  0  0  0  0
   68.2261   46.7298   56.1471 O   0  0  0  0  0  0  0  0  0  0  0  0
   69.4273   47.7440   52.7956 C   0  0  0  0  0  0  0  0  0  0  0  0
   68.7341   46.8783   51.9777 C   0  0  0  0  0  0  0  0  0  0  0  0
   67.8795   45.9737   52.5778 C   0  0  0  0  0  0  0  0  0  0  0  0
   67.2060   45.1274   51.7423 F   0  0  0  0  0  0  0  0  0  0  0  0
   67.7041   45.9151   53.9426 C   0  0  0  0  0  0  0  0  0  0  0  0
   68.3900   46.7749   54.7702 C   0  0  0  0  0  0  0  0  0  0  0  0
   69.2425   47.6770   54.1733 C   0  0  0  0  0  0  0  0  0  0  0  0
   70.1343   49.1167   51.0542 O   0  0  0  0  0  0  0  0  0  0  0  0
   70.3140   48.6869   52.2153 N   0  0  0  0  0  0  0  0  0  0  0  0
   71.3881   49.1394   52.9360 O   0  0  0  0  0  0  0  0  0  0  0  0
 21 22  2  0
 22 23  1  0
 22 14  1  0
 14 15  2  0
 14 20  1  0
 15 16  1  0
 16 17  1  0
 16 18  2  0
 18 19  1  0
 19 13  1  0
 19 20  2  0
 13  1  1  0
  1  2  2  0
  1  6  1  0
  2  3  1  0
  3  4  2  0
  4  5  1  0
  5  7  1  0
  5  6  2  0
  7  8  2  0
  7 12  1  0
  8  9  1  0
  9 10  2  0
 10 11  1  0
 11 12  2  0
M  CHG  2  22   1  23  -1
M  END
>  <minimizedAffinity>  (3) 
-9.87339

$$$$
cs_full_output_folder/data/smiles/9311.pdb
     RDKit          3D

 25 27  0  0  0  0  0  0  0  0999 V2000
   70.1938   43.8646   57.7244 C   0  0  0  0  0  0  0  0  0  0  0  0
   71.0688   44.7573   58.3040 C   0  0  0  0  0  0  0  0  0  0  0  0
   70.9702   46.1286   58.0939 C   0  0  0  0  0  0  0  0  0  0  0  0
   69.9966   46.5789   57.3060 N   0  0  0  0  0  0  0  0  0  0  0  0
   69.0960   45.7197   56.7028 C   0  0  0  0  0  0  0  0  0  0  0  0
   69.2220   44.4131   56.9277 N   0  0  0  0  0  0  0  0  0  0  0  0
   70.5230   39.6664   58.4102 C   0  0  0  0  0  0  0  0  0  0  0  0
   69.2981   40.2190   58.1853 C   0  0  0  0  0  0  0  0  0  0  0  0
   69.1841   41.5991   57.9489 C   0  0  0  0  0  0  0  0  0  0  0  0
   70.2782   42.4336   57.9333 C   0  0  0  0  0  0  0  0  0  0  0  0
   71.5050   41.8548   58.1599 C   0  0  0  0  0  0  0  0  0  0  0  0
   71.6277   40.4863   58.3966 C   0  0  0  0  0  0  0  0  0  0  0  0
   71.9445   37.5435   58.1765 C   0  0  0  0  0  0  0  0  0  0  0  0
   70.7347   38.2456   58.6650 C   0  0  0  0  0  0  0  0  0  0  0  0
   69.8921   37.5605   59.3141 O   0  0  0  0  0  0  0  0  0  0  0  0
   68.1182   46.3690   55.9164 N   0  0  0  0  0  0  0  0  0  0  0  0
   68.3470   46.5463   54.5270 C   0  0  0  0  0  0  0  0  0  0  0  0
   67.7241   45.7073   53.6119 C   0  0  0  0  0  0  0  0  0  0  0  0
   67.9102   45.8825   52.2634 C   0  0  0  0  0  0  0  0  0  0  0  0
   68.7173   46.8906   51.7754 C   0  0  0  0  0  0  0  0  0  0  0  0
   69.3413   47.7296   52.6545 C   0  0  0  0  0  0  0  0  0  0  0  0
   69.1474   47.5453   54.0181 C   0  0  0  0  0  0  0  0  0  0  0  0
   70.1871   48.8055   52.1591 C   0  0  0  0  0  0  0  0  0  0  0  0
   69.7969   49.5983   51.0458 N   0  0  0  0  0  0  0  0  0  0  0  0
   71.2773   49.0383   52.7235 O   0  0  0  0  0  0  0  0  0  0  0  0
 13 14  1  0
 14 15  2  0
 14  7  1  0
  7  8  2  0
  7 12  1  0
  8  9  1  0
  9 10  2  0
 10  1  1  0
 10 11  1  0
  1  2  2  0
  1  6  1  0
  2  3  1  0
  3  4  2  0
  4  5  1  0
  5 16  1  0
  5  6  2  0
 16 17  1  0
 17 18  2  0
 17 22  1  0
 18 19  1  0
 19 20  2  0
 20 21  1  0
 21 23  1  0
 21 22  2  0
 23 24  1  0
 23 25  2  0
 11 12  2  0
M  END
>  <minimizedAffinity>  (4) 
-9.85613

$$$$
cs_full_output_folder/data/smiles/2910.pdb
     RDKit          3D

 24 26  0  0  0  0  0  0  0  0999 V2000
   68.9906   46.4111   57.2294 O   0  0  0  0  0  0  0  0  0  0  0  0
   68.5552   47.3632   56.5341 C   0  0  0  0  0  0  0  0  0  0  0  0
   68.5942   47.2542   55.1076 C   0  0  0  0  0  0  0  0  0  0  0  0
   67.7909   46.3544   54.4222 C   0  0  0  0  0  0  0  0  0  0  0  0
   67.8379   46.2615   53.0496 C   0  0  0  0  0  0  0  0  0  0  0  0
   67.0388   45.3630   52.3433 O   0  0  0  0  0  0  0  0  0  0  0  0
   68.6917   47.0697   52.3187 C   0  0  0  0  0  0  0  0  0  0  0  0
   68.7137   46.9482   50.9266 O   0  0  0  0  0  0  0  0  0  0  0  0
   69.4884   47.9609   52.9746 C   0  0  0  0  0  0  0  0  0  0  0  0
   69.4271   48.0384   54.3489 C   0  0  0  0  0  0  0  0  0  0  0  0
   70.3753   48.8014   52.2342 N   0  0  0  0  0  0  0  0  0  0  0  0
   70.0631   49.3009   51.1423 O   0  0  0  0  0  0  0  0  0  0  0  0
   71.6288   49.0908   52.7202 O   0  0  0  0  0  0  0  0  0  0  0  0
   68.0150   48.5651   57.2461 C   0  0  0  0  0  0  0  0  0  0  0  0
   69.1191   49.4912   57.6186 C   0  0  0  0  0  0  0  0  0  0  0  0
   70.2969   49.4463   58.3401 C   0  0  0  0  0  0  0  0  0  0  0  0
   70.6374   50.7634   58.1303 C   0  0  0  0  0  0  0  0  0  0  0  0
   71.6295   51.6716   58.4398 C   0  0  0  0  0  0  0  0  0  0  0  0
   72.0021   52.9410   58.0232 C   0  0  0  0  0  0  0  0  0  0  0  0
   71.5360   53.8090   57.0595 C   0  0  0  0  0  0  0  0  0  0  0  0
   70.4153   53.8168   56.2556 C   0  0  0  0  0  0  0  0  0  0  0  0
   69.2425   53.0827   56.2082 C   0  0  0  0  0  0  0  0  0  0  0  0
   68.7824   51.8662   56.6706 C   0  0  0  0  0  0  0  0  0  0  0  0
   69.3963   50.8275   57.3653 C   0  0  0  0  0  0  0  0  0  0  0  0
  1  2  2  0
  2 14  1  0
  2  3  1  0
 14 15  1  0
 15 16  2  0
 15 24  1  0
 16 17  1  0
 17 18  2  0
 17 24  1  0
 18 19  1  0
 19 20  2  0
 20 21  1  0
 21 22  2  0
 22 23  1  0
 23 24  2  0
  3  4  2  0
  3 10  1  0
  4  5  1  0
  5  6  1  0
  5  7  2  0
  7  8  1  0
  7  9  1  0
  9 11  1  0
  9 10  2  0
 11 12  2  0
 11 13  1  0
M  CHG  2  11   1  13  -1
M  END
>  <minimizedAffinity>  (5) 
-9.76743

$$$$
cs_full_output_folder/data/smiles/6287.pdb
     RDKit          3D

 25 27  0  0  0  0  0  0  0  0999 V2000
   69.5229   43.2176   57.4544 C   0  0  0  0  0  0  0  0  0  0  0  0
   70.6059   43.8222   58.0632 C   0  0  0  0  0  0  0  0  0  0  0  0
   70.7967   45.1545   57.8218 C   0  0  0  0  0  0  0  0  0  0  0  0
   69.9726   45.8524   57.0299 N   0  0  0  0  0  0  0  0  0  0  0  0
   68.8938   45.2697   56.4181 C   0  0  0  0  0  0  0  0  0  0  0  0
   68.7401   43.9797   56.6742 N   0  0  0  0  0  0  0  0  0  0  0  0
   69.3362   39.5860   58.3286 C   0  0  0  0  0  0  0  0  0  0  0  0
   68.2835   39.7584   57.5677 C   0  0  0  0  0  0  0  0  0  0  0  0
   68.2307   41.1574   57.1474 C   0  0  0  0  0  0  0  0  0  0  0  0
   69.2428   41.8170   57.6509 C   0  0  0  0  0  0  0  0  0  0  0  0
   70.0445   40.8832   58.4505 C   0  0  0  0  0  0  0  0  0  0  0  0
   71.3810   36.4150   59.2754 C   0  0  0  0  0  0  0  0  0  0  0  0
   70.9389   37.6698   58.6150 C   0  0  0  0  0  0  0  0  0  0  0  0
   71.6643   38.1216   57.6908 O   0  0  0  0  0  0  0  0  0  0  0  0
   69.7742   38.3712   58.9598 N   0  0  0  0  0  0  0  0  0  0  0  0
   68.0952   46.0913   55.6087 N   0  0  0  0  0  0  0  0  0  0  0  0
   68.2662   46.3472   54.2575 C   0  0  0  0  0  0  0  0  0  0  0  0
   67.6726   45.6199   53.2707 C   0  0  0  0  0  0  0  0  0  0  0  0
   67.8683   45.9080   51.9145 C   0  0  0  0  0  0  0  0  0  0  0  0
   68.6684   46.9368   51.5330 C   0  0  0  0  0  0  0  0  0  0  0  0
   69.2924   47.7016   52.5094 C   0  0  0  0  0  0  0  0  0  0  0  0
   69.0835   47.3990   53.8340 C   0  0  0  0  0  0  0  0  0  0  0  0
   70.1422   48.7948   52.0706 C   0  0  0  0  0  0  0  0  0  0  0  0
   69.8033   49.6734   51.0223 N   0  0  0  0  0  0  0  0  0  0  0  0
   71.2486   48.9560   52.6727 O   0  0  0  0  0  0  0  0  0  0  0  0
 12 13  1  0
 13 14  2  0
 13 15  1  0
 15  7  1  0
  7  8  2  0
  7 11  1  0
  8  9  1  0
  9 10  2  0
 10  1  1  0
 10 11  1  0
  1  2  2  0
  1  6  1  0
  2  3  1  0
  3  4  2  0
  4  5  1  0
  5 16  1  0
  5  6  2  0
 16 17  1  0
 17 18  2  0
 17 22  1  0
 18 19  1  0
 19 20  2  0
 20 21  1  0
 21 23  1  0
 21 22  2  0
 23 24  1  0
 23 25  2  0
M  END
>  <minimizedAffinity>  (6) 
-9.75756

$$$$
cs_full_output_folder/data/smiles/681.pdb
     RDKit          3D

 24 27  0  0  0  0  0  0  0  0999 V2000
   69.8736   47.2312   50.9931 O   0  0  0  0  0  0  0  0  0  0  0  0
   69.7934   48.3008   51.6129 C   0  0  0  0  0  0  0  0  0  0  0  0
   70.0452   49.5190   51.1063 N   0  0  0  0  0  0  0  0  0  0  0  0
   69.8683   50.4546   52.0485 N   0  0  0  0  0  0  0  0  0  0  0  0
   69.5032   49.8361   53.1611 C   0  0  0  0  0  0  0  0  0  0  0  0
   69.4543   48.5013   52.8883 N   0  0  0  0  0  0  0  0  0  0  0  0
   69.0846   47.5194   53.8516 C   0  0  0  0  0  0  0  0  0  0  0  0
   68.5881   46.4139   53.2085 C   0  0  0  0  0  0  0  0  0  0  0  0
   68.1804   45.3001   53.9538 C   0  0  0  0  0  0  0  0  0  0  0  0
   68.2456   45.2470   55.3151 C   0  0  0  0  0  0  0  0  0  0  0  0
   68.7562   46.3955   55.9478 C   0  0  0  0  0  0  0  0  0  0  0  0
   69.1662   47.5084   55.2257 C   0  0  0  0  0  0  0  0  0  0  0  0
   69.6188   48.5732   56.1446 C   0  0  0  0  0  0  0  0  0  0  0  0
   70.1702   49.7810   55.5043 C   0  0  0  0  0  0  0  0  0  0  0  0
   69.2509   50.4789   54.5089 C   0  0  0  0  0  0  0  0  0  0  0  0
   67.8619   44.1901   56.0867 O   0  0  0  0  0  0  0  0  0  0  0  0
   67.6526   42.8627   55.8762 C   0  0  0  0  0  0  0  0  0  0  0  0
   68.3184   41.8937   56.7532 C   0  0  0  0  0  0  0  0  0  0  0  0
   69.5341   42.2517   57.3374 C   0  0  0  0  0  0  0  0  0  0  0  0
   70.2554   41.4234   58.1399 C   0  0  0  0  0  0  0  0  0  0  0  0
   69.7653   40.1664   58.3922 C   0  0  0  0  0  0  0  0  0  0  0  0
   68.5766   39.7685   57.8415 C   0  0  0  0  0  0  0  0  0  0  0  0
   68.1106   38.5317   58.0993 F   0  0  0  0  0  0  0  0  0  0  0  0
   67.8598   40.6386   57.0236 C   0  0  0  0  0  0  0  0  0  0  0  0
  1  2  2  0
  2  3  1  0
  2  6  1  0
  3  4  1  0
  4  5  2  0
  5  6  1  0
  5 15  1  0
  6  7  1  0
  7  8  2  0
  7 12  1  0
  8  9  1  0
  9 10  2  0
 10 16  1  0
 10 11  1  0
 16 17  1  0
 17 18  1  0
 18 19  2  0
 18 24  1  0
 19 20  1  0
 20 21  2  0
 21 22  1  0
 22 23  1  0
 22 24  2  0
 11 12  2  0
 12 13  1  0
 13 14  1  0
 14 15  1  0
M  END
>  <minimizedAffinity>  (7) 
-9.75663

$$$$
cs_full_output_folder/data/smiles/1392.pdb
     RDKit          3D

 26 28  0  0  0  0  0  0  0  0999 V2000
   70.7210   44.7128   57.9627 C   0  0  0  0  0  0  0  0  0  0  0  0
   71.3259   45.7715   58.5845 C   0  0  0  0  0  0  0  0  0  0  0  0
   70.8744   47.0832   58.3858 C   0  0  0  0  0  0  0  0  0  0  0  0
   69.8321   47.2716   57.5679 N   0  0  0  0  0  0  0  0  0  0  0  0
   69.2128   46.2435   56.9366 C   0  0  0  0  0  0  0  0  0  0  0  0
   69.6652   45.0050   57.1455 N   0  0  0  0  0  0  0  0  0  0  0  0
   71.9224   40.6558   58.4403 C   0  0  0  0  0  0  0  0  0  0  0  0
   70.6099   40.9891   58.3303 C   0  0  0  0  0  0  0  0  0  0  0  0
   70.2257   42.3273   58.1740 C   0  0  0  0  0  0  0  0  0  0  0  0
   71.1671   43.3337   58.1271 C   0  0  0  0  0  0  0  0  0  0  0  0
   72.4829   42.9769   58.2385 C   0  0  0  0  0  0  0  0  0  0  0  0
   72.8971   41.6751   58.3940 C   0  0  0  0  0  0  0  0  0  0  0  0
   72.3527   36.7922   58.6252 C   0  0  0  0  0  0  0  0  0  0  0  0
   71.7055   38.1271   58.4167 C   0  0  0  0  0  0  0  0  0  0  0  0
   70.5110   38.1509   58.0673 O   0  0  0  0  0  0  0  0  0  0  0  0
   72.3942   39.3395   58.6001 N   0  0  0  0  0  0  0  0  0  0  0  0
   68.1526   46.5507   56.0739 N   0  0  0  0  0  0  0  0  0  0  0  0
   68.3675   46.7203   54.6852 C   0  0  0  0  0  0  0  0  0  0  0  0
   67.7468   45.8179   53.8007 C   0  0  0  0  0  0  0  0  0  0  0  0
   67.9448   45.9116   52.4431 C   0  0  0  0  0  0  0  0  0  0  0  0
   68.7548   46.8866   51.9006 C   0  0  0  0  0  0  0  0  0  0  0  0
   69.3848   47.7914   52.7393 C   0  0  0  0  0  0  0  0  0  0  0  0
   69.1623   47.6679   54.1022 C   0  0  0  0  0  0  0  0  0  0  0  0
   70.2324   48.8023   52.1559 C   0  0  0  0  0  0  0  0  0  0  0  0
   69.7798   49.5663   51.0653 N   0  0  0  0  0  0  0  0  0  0  0  0
   71.3720   49.0032   52.6202 O   0  0  0  0  0  0  0  0  0  0  0  0
 13 14  1  0
 14 15  2  0
 14 16  1  0
 16  7  1  0
  7  8  2  0
  7 12  1  0
  8  9  1  0
  9 10  2  0
 10  1  1  0
 10 11  1  0
  1  2  2  0
  1  6  1  0
  2  3  1  0
  3  4  2  0
  4  5  1  0
  5 17  1  0
  5  6  2  0
 17 18  1  0
 18 19  2  0
 18 23  1  0
 19 20  1  0
 20 21  2  0
 21 22  1  0
 22 24  1  0
 22 23  2  0
 24 25  1  0
 24 26  2  0
 11 12  2  0
M  END
>  <minimizedAffinity>  (8) 
-9.75279

$$$$
cs_full_output_folder/data/smiles/604.pdb
     RDKit          3D

 24 27  0  0  0  0  0  0  0  0999 V2000
   69.9051   47.2171   50.9860 O   0  0  0  0  0  0  0  0  0  0  0  0
   69.8023   48.2894   51.6218 C   0  0  0  0  0  0  0  0  0  0  0  0
   70.0599   49.5072   51.1174 N   0  0  0  0  0  0  0  0  0  0  0  0
   69.8536   50.4320   52.0697 N   0  0  0  0  0  0  0  0  0  0  0  0
   69.4692   49.8387   53.1758 C   0  0  0  0  0  0  0  0  0  0  0  0
   69.4374   48.5044   52.8906 N   0  0  0  0  0  0  0  0  0  0  0  0
   69.0646   47.4943   53.8121 C   0  0  0  0  0  0  0  0  0  0  0  0
   68.5190   46.4214   53.1555 C   0  0  0  0  0  0  0  0  0  0  0  0
   68.1124   45.3158   53.9186 C   0  0  0  0  0  0  0  0  0  0  0  0
   68.2264   45.2466   55.2780 C   0  0  0  0  0  0  0  0  0  0  0  0
   68.7901   46.3688   55.9178 C   0  0  0  0  0  0  0  0  0  0  0  0
   69.1989   47.4662   55.2060 C   0  0  0  0  0  0  0  0  0  0  0  0
   69.7286   48.5167   56.0853 C   0  0  0  0  0  0  0  0  0  0  0  0
   70.1507   49.7658   55.4491 C   0  0  0  0  0  0  0  0  0  0  0  0
   69.1600   50.4451   54.5300 C   0  0  0  0  0  0  0  0  0  0  0  0
   67.8388   44.1856   56.0454 O   0  0  0  0  0  0  0  0  0  0  0  0
   67.6286   42.8529   55.8655 C   0  0  0  0  0  0  0  0  0  0  0  0
   68.3718   41.9179   56.7428 C   0  0  0  0  0  0  0  0  0  0  0  0
   69.5825   42.1662   57.3389 C   0  0  0  0  0  0  0  0  0  0  0  0
   70.2152   41.2717   58.1197 N   0  0  0  0  0  0  0  0  0  0  0  0
   69.7085   40.0605   58.3770 C   0  0  0  0  0  0  0  0  0  0  0  0
   68.4919   39.7351   57.8143 C   0  0  0  0  0  0  0  0  0  0  0  0
   67.9740   38.5117   58.0705 F   0  0  0  0  0  0  0  0  0  0  0  0
   67.8403   40.6478   57.0139 C   0  0  0  0  0  0  0  0  0  0  0  0
  1  2  2  0
  2  3  1  0
  2  6  1  0
  3  4  1  0
  4  5  2  0
  5  6  1  0
  5 15  1  0
  6  7  1  0
  7  8  2  0
  7 12  1  0
  8  9  1  0
  9 10  2  0
 10 16  1  0
 10 11  1  0
 16 17  1  0
 17 18  1  0
 18 19  2  0
 18 24  1  0
 19 20  1  0
 20 21  2  0
 21 22  1  0
 22 23  1  0
 22 24  2  0
 11 12  2  0
 12 13  1  0
 13 14  1  0
 14 15  1  0
M  END
>  <minimizedAffinity>  (9) 
-9.74361

$$$$
cs_full_output_folder/data/smiles/709.pdb
     RDKit          3D

 24 27  0  0  0  0  0  0  0  0999 V2000
   69.9439   47.1935   51.0620 N   0  0  0  0  0  0  0  0  0  0  0  0
   69.7935   48.3709   51.8314 C   0  0  0  0  0  0  0  0  0  0  0  0
   70.0691   49.6097   51.3578 N   0  0  0  0  0  0  0  0  0  0  0  0
   69.8553   50.5082   52.3359 N   0  0  0  0  0  0  0  0  0  0  0  0
   69.4529   49.8697   53.4157 C   0  0  0  0  0  0  0  0  0  0  0  0
   69.4120   48.5560   53.1062 N   0  0  0  0  0  0  0  0  0  0  0  0
   69.0343   47.5019   53.9429 C   0  0  0  0  0  0  0  0  0  0  0  0
   68.4726   46.4569   53.2609 C   0  0  0  0  0  0  0  0  0  0  0  0
   68.0899   45.3570   54.0064 C   0  0  0  0  0  0  0  0  0  0  0  0
   68.2355   45.2519   55.3683 C   0  0  0  0  0  0  0  0  0  0  0  0
   68.8218   46.3640   56.0193 C   0  0  0  0  0  0  0  0  0  0  0  0
   69.2155   47.4708   55.3262 C   0  0  0  0  0  0  0  0  0  0  0  0
   69.7710   48.4778   56.2703 C   0  0  0  0  0  0  0  0  0  0  0  0
   70.1426   49.7808   55.6959 C   0  0  0  0  0  0  0  0  0  0  0  0
   69.1231   50.4327   54.7808 C   0  0  0  0  0  0  0  0  0  0  0  0
   67.8648   44.1796   56.1160 O   0  0  0  0  0  0  0  0  0  0  0  0
   67.6840   42.8532   55.8933 C   0  0  0  0  0  0  0  0  0  0  0  0
   68.3779   41.8952   56.7773 C   0  0  0  0  0  0  0  0  0  0  0  0
   69.6095   42.3006   57.3050 C   0  0  0  0  0  0  0  0  0  0  0  0
   70.3177   41.4321   58.1079 C   0  0  0  0  0  0  0  0  0  0  0  0
   69.8443   40.1731   58.4061 C   0  0  0  0  0  0  0  0  0  0  0  0
   68.6304   39.7640   57.8914 C   0  0  0  0  0  0  0  0  0  0  0  0
   68.1857   38.5322   58.1946 F   0  0  0  0  0  0  0  0  0  0  0  0
   67.9246   40.6420   57.0850 C   0  0  0  0  0  0  0  0  0  0  0  0
  1  2  1  0
  2  3  2  0
  2  6  1  0
  3  4  1  0
  4  5  2  0
  5  6  1  0
  5 15  1  0
  6  7  1  0
  7  8  2  0
  7 12  1  0
  8  9  1  0
  9 10  2  0
 10 16  1  0
 10 11  1  0
 16 17  1  0
 17 18  1  0
 18 19  2  0
 18 24  1  0
 19 20  1  0
 20 21  2  0
 21 22  1  0
 22 23  1  0
 22 24  2  0
 11 12  2  0
 12 13  1  0
 13 14  1  0
 14 15  1  0
M  END
>  <minimizedAffinity>  (10) 
-9.71488

$$$$
cs_full_output_folder/data/smiles/476.pdb
     RDKit          3D

 25 27  0  0  0  0  0  0  0  0999 V2000
   71.7714   51.7168   54.5891 C   0  0  0  0  0  0  0  0  0  0  0  0
   73.9998   52.3714   54.1939 O   0  0  0  0  0  0  0  0  0  0  0  0
   73.2048   51.4358   54.5548 C   0  0  0  0  0  0  0  0  0  0  0  0
   73.7846   50.1910   54.8959 N   0  0  0  0  0  0  0  0  0  0  0  0
   75.1630   50.0356   54.8265 N   0  0  0  0  0  0  0  0  0  0  0  0
   76.0346   50.2451   55.9301 C   0  0  0  0  0  0  0  0  0  0  0  0
   75.4939   50.5896   57.0152 O   0  0  0  0  0  0  0  0  0  0  0  0
   77.4804   50.0869   55.8753 C   0  0  0  0  0  0  0  0  0  0  0  0
   78.1345   49.0296   55.2888 C   0  0  0  0  0  0  0  0  0  0  0  0
   79.5346   48.9629   55.2851 C   0  0  0  0  0  0  0  0  0  0  0  0
   80.3134   49.9419   55.8637 C   0  0  0  0  0  0  0  0  0  0  0  0
   79.6582   51.0031   56.4520 C   0  0  0  0  0  0  0  0  0  0  0  0
   78.2828   51.0589   56.4498 C   0  0  0  0  0  0  0  0  0  0  0  0
   70.9340   50.6752   55.2665 C   0  0  0  0  0  0  0  0  0  0  0  0
   70.3583   49.6595   54.3734 C   0  0  0  0  0  0  0  0  0  0  0  0
   69.5788   48.6823   54.8286 N   0  0  0  0  0  0  0  0  0  0  0  0
   69.0498   47.7448   53.9899 C   0  0  0  0  0  0  0  0  0  0  0  0
   68.2475   46.7369   54.4459 C   0  0  0  0  0  0  0  0  0  0  0  0
   67.7157   45.7882   53.5735 C   0  0  0  0  0  0  0  0  0  0  0  0
   67.9973   45.8575   52.2300 C   0  0  0  0  0  0  0  0  0  0  0  0
   68.8091   46.8741   51.7571 C   0  0  0  0  0  0  0  0  0  0  0  0
   69.3253   47.8037   52.6369 C   0  0  0  0  0  0  0  0  0  0  0  0
   70.1331   48.8197   52.1807 C   0  0  0  0  0  0  0  0  0  0  0  0
   70.3910   48.8875   50.9676 O   0  0  0  0  0  0  0  0  0  0  0  0
   70.6284   49.7189   53.0551 N   0  0  0  0  0  0  0  0  0  0  0  0
  2  3  2  0
  3  1  1  0
  3  4  1  0
  1 14  1  0
 14 15  1  0
 15 16  2  0
 15 25  1  0
 16 17  1  0
 17 18  2  0
 17 22  1  0
 18 19  1  0
 19 20  2  0
 20 21  1  0
 21 22  2  0
 22 23  1  0
 23 24  2  0
 23 25  1  0
  4  5  1  0
  5  6  1  0
  6  7  2  0
  6  8  1  0
  8  9  2  0
  8 13  1  0
  9 10  1  0
 10 11  2  0
 11 12  1  0
 12 13  2  0
M  END
>  <minimizedAffinity>  (11) 
-9.70927

$$$$
cs_full_output_folder/data/smiles/7543.pdb
     RDKit          3D

 26 28  0  0  0  0  0  0  0  0999 V2000
   69.8808   43.1713   57.5594 C   0  0  0  0  0  0  0  0  0  0  0  0
   70.5981   44.1677   58.1704 C   0  0  0  0  0  0  0  0  0  0  0  0
   70.3878   45.4801   57.7847 C   0  0  0  0  0  0  0  0  0  0  0  0
   69.5048   45.7448   56.8398 N   0  0  0  0  0  0  0  0  0  0  0  0
   68.7614   44.7808   56.1978 C   0  0  0  0  0  0  0  0  0  0  0  0
   68.9959   43.5340   56.6001 N   0  0  0  0  0  0  0  0  0  0  0  0
   70.4237   39.0588   58.5352 C   0  0  0  0  0  0  0  0  0  0  0  0
   69.1937   39.5280   58.1776 C   0  0  0  0  0  0  0  0  0  0  0  0
   68.9919   40.8768   57.8504 C   0  0  0  0  0  0  0  0  0  0  0  0
   70.0395   41.7578   57.8843 C   0  0  0  0  0  0  0  0  0  0  0  0
   71.2731   41.2533   58.2506 C   0  0  0  0  0  0  0  0  0  0  0  0
   71.4765   39.9154   58.5758 C   0  0  0  0  0  0  0  0  0  0  0  0
   71.7202   35.4201   58.7557 C   0  0  0  0  0  0  0  0  0  0  0  0
   71.6167   36.8627   58.4226 C   0  0  0  0  0  0  0  0  0  0  0  0
   72.5168   37.4261   57.7292 O   0  0  0  0  0  0  0  0  0  0  0  0
   70.5318   37.6731   58.8503 N   0  0  0  0  0  0  0  0  0  0  0  0
   67.8710   45.1756   55.1953 N   0  0  0  0  0  0  0  0  0  0  0  0
   68.2226   45.9947   54.1108 C   0  0  0  0  0  0  0  0  0  0  0  0
   67.8573   45.5599   52.8202 C   0  0  0  0  0  0  0  0  0  0  0  0
   68.1927   46.2966   51.7137 C   0  0  0  0  0  0  0  0  0  0  0  0
   68.8975   47.4868   51.8243 C   0  0  0  0  0  0  0  0  0  0  0  0
   69.2711   47.9430   53.0698 C   0  0  0  0  0  0  0  0  0  0  0  0
   68.9159   47.1745   54.1617 C   0  0  0  0  0  0  0  0  0  0  0  0
   70.0293   49.2117   53.1797 C   0  0  1  0  0  0  0  0  0  0  0  0
   70.0094   49.7707   54.5704 C   0  0  0  0  0  0  0  0  0  0  0  0
   71.3174   49.0135   52.7014 O   0  0  0  0  0  0  0  0  0  0  0  0
 13 14  1  0
 14 15  2  0
 14 16  1  0
 16  7  1  0
  7  8  2  0
  7 12  1  0
  8  9  1  0
  9 10  2  0
 10  1  1  0
 10 11  1  0
  1  2  2  0
  1  6  1  0
  2  3  1  0
  3  4  2  0
  4  5  1  0
  5 17  1  0
  5  6  2  0
 17 18  1  0
 18 19  2  0
 18 23  1  0
 19 20  1  0
 20 21  2  0
 21 22  1  0
 22 24  1  0
 22 23  2  0
 24 25  1  1
 24 26  1  0
 11 12  2  0
M  END
>  <minimizedAffinity>  (12) 
-9.67702

$$$$
cs_full_output_folder/data/smiles/3111.pdb
     RDKit          3D

 26 29  0  0  0  0  0  0  0  0999 V2000
   70.8076   46.3108   58.4327 C   0  0  0  0  0  0  0  0  0  0  0  0
   69.9278   46.8612   57.5138 C   0  0  0  0  0  0  0  0  0  0  0  0
   69.8506   48.2307   57.2690 C   0  0  0  0  0  0  0  0  0  0  0  0
   70.6819   49.0518   57.9727 C   0  0  0  0  0  0  0  0  0  0  0  0
   71.5926   48.5579   58.9149 C   0  0  0  0  0  0  0  0  0  0  0  0
   71.6153   47.1712   59.1103 C   0  0  0  0  0  0  0  0  0  0  0  0
   72.4700   46.7459   60.0860 F   0  0  0  0  0  0  0  0  0  0  0  0
   69.6591   44.3997   59.1767 O   0  0  0  0  0  0  0  0  0  0  0  0
   70.7459   44.8918   58.6442 C   0  0  0  0  0  0  0  0  0  0  0  0
   71.7378   43.9307   58.3396 N   0  0  0  0  0  0  0  0  0  0  0  0
   71.6707   42.5877   58.6045 C   0  0  0  0  0  0  0  0  0  0  0  0
   72.7571   41.9385   58.1189 C   0  0  0  0  0  0  0  0  0  0  0  0
   73.5554   42.8708   57.5237 C   0  0  0  0  0  0  0  0  0  0  0  0
   72.8862   44.0925   57.6821 C   0  0  0  0  0  0  0  0  0  0  0  0
   68.8492   48.6896   56.2840 C   0  0  0  0  0  0  0  0  0  0  0  0
   69.3245   48.6397   54.8769 C   0  0  0  0  0  0  0  0  0  0  0  0
   70.2136   49.5786   54.4472 N   0  0  0  0  0  0  0  0  0  0  0  0
   70.6197   49.5981   53.2104 N   0  0  0  0  0  0  0  0  0  0  0  0
   70.1916   48.7091   52.3063 C   0  0  0  0  0  0  0  0  0  0  0  0
   70.5960   48.7386   51.0958 O   0  0  0  0  0  0  0  0  0  0  0  0
   69.2829   47.7160   52.6644 C   0  0  0  0  0  0  0  0  0  0  0  0
   68.8545   46.7983   51.7342 C   0  0  0  0  0  0  0  0  0  0  0  0
   67.9644   45.8316   52.1499 C   0  0  0  0  0  0  0  0  0  0  0  0
   67.5262   45.7928   53.4544 C   0  0  0  0  0  0  0  0  0  0  0  0
   67.9575   46.7149   54.3859 C   0  0  0  0  0  0  0  0  0  0  0  0
   68.8597   47.7094   53.9926 C   0  0  0  0  0  0  0  0  0  0  0  0
  8  9  2  0
  9  1  1  0
  9 10  1  0
  1  2  2  0
  1  6  1  0
  2  3  1  0
  3 15  1  0
  3  4  2  0
 15 16  1  0
 16 17  2  0
 16 26  1  0
 17 18  1  0
 18 19  1  0
 19 20  2  0
 19 21  1  0
 21 22  1  0
 21 26  2  0
 22 23  2  0
 23 24  1  0
 24 25  2  0
 25 26  1  0
  4  5  1  0
  5  6  2  0
  6  7  1  0
 10 11  1  0
 10 14  1  0
 11 12  2  0
 12 13  1  0
 13 14  2  0
M  END
>  <minimizedAffinity>  (13) 
-9.67563

$$$$
cs_full_output_folder/data/smiles/1249.pdb
     RDKit          3D

 24 26  0  0  0  0  0  0  0  0999 V2000
   68.6934   45.8083   56.8776 O   0  0  0  0  0  0  0  0  0  0  0  0
   69.0816   46.8164   56.2294 C   0  0  0  0  0  0  0  0  0  0  0  0
   68.8631   46.8487   54.8001 C   0  0  0  0  0  0  0  0  0  0  0  0
   68.0160   45.9378   54.1756 C   0  0  0  0  0  0  0  0  0  0  0  0
   67.7939   45.9486   52.8327 C   0  0  0  0  0  0  0  0  0  0  0  0
   66.9381   45.0216   52.2340 O   0  0  0  0  0  0  0  0  0  0  0  0
   68.4384   46.9049   52.0676 C   0  0  0  0  0  0  0  0  0  0  0  0
   68.2037   46.9053   50.7010 O   0  0  0  0  0  0  0  0  0  0  0  0
   69.2963   47.8430   52.6282 C   0  0  0  0  0  0  0  0  0  0  0  0
   69.4779   47.7778   53.9968 C   0  0  0  0  0  0  0  0  0  0  0  0
   69.9112   48.7785   51.7945 N   0  0  0  0  0  0  0  0  0  0  0  0
   70.6494   48.4037   50.8721 O   0  0  0  0  0  0  0  0  0  0  0  0
   69.7165   50.1195   51.9745 O   0  0  0  0  0  0  0  0  0  0  0  0
   69.7598   47.9591   56.9432 C   0  0  0  0  0  0  0  0  0  0  0  0
   68.8830   49.1093   57.0594 C   0  0  0  0  0  0  0  0  0  0  0  0
   67.6707   48.9858   57.7077 C   0  0  0  0  0  0  0  0  0  0  0  0
   66.7721   50.0174   57.8665 C   0  0  0  0  0  0  0  0  0  0  0  0
   67.0811   51.2588   57.3560 C   0  0  0  0  0  0  0  0  0  0  0  0
   68.2923   51.4183   56.6971 C   0  0  0  0  0  0  0  0  0  0  0  0
   68.6678   52.6376   56.1595 C   0  0  0  0  0  0  0  0  0  0  0  0
   69.8628   52.8305   55.5003 C   0  0  0  0  0  0  0  0  0  0  0  0
   70.7202   51.7598   55.3731 C   0  0  0  0  0  0  0  0  0  0  0  0
   70.3778   50.5168   55.9012 C   0  0  0  0  0  0  0  0  0  0  0  0
   69.1831   50.3687   56.5473 C   0  0  0  0  0  0  0  0  0  0  0  0
  1  2  2  0
  2 14  1  0
  2  3  1  0
 14 15  1  0
 15 16  2  0
 15 24  1  0
 16 17  1  0
 17 18  2  0
 18 19  1  0
 19 20  1  0
 19 24  2  0
 20 21  2  0
 21 22  1  0
 22 23  2  0
 23 24  1  0
  3  4  2  0
  3 10  1  0
  4  5  1  0
  5  6  1  0
  5  7  2  0
  7  8  1  0
  7  9  1  0
  9 11  1  0
  9 10  2  0
 11 12  2  0
 11 13  1  0
M  CHG  2  11   1  13  -1
M  END
>  <minimizedAffinity>  (14) 
-9.64426

$$$$
cs_full_output_folder/data/smiles/6189.pdb
     RDKit          3D

 25 27  0  0  0  0  0  0  0  0999 V2000
   69.5748   43.2393   57.4784 C   0  0  0  0  0  0  0  0  0  0  0  0
   70.7109   43.7940   58.0149 C   0  0  0  0  0  0  0  0  0  0  0  0
   71.0120   45.1383   57.8519 C   0  0  0  0  0  0  0  0  0  0  0  0
   70.1575   45.8868   57.1516 N   0  0  0  0  0  0  0  0  0  0  0  0
   69.0292   45.3601   56.6133 C   0  0  0  0  0  0  0  0  0  0  0  0
   68.7479   44.0385   56.7824 N   0  0  0  0  0  0  0  0  0  0  0  0
   69.3331   39.6368   58.3970 C   0  0  0  0  0  0  0  0  0  0  0  0
   68.3359   39.6960   57.5292 C   0  0  0  0  0  0  0  0  0  0  0  0
   68.1889   41.0414   56.9756 C   0  0  0  0  0  0  0  0  0  0  0  0
   69.2777   41.8294   57.6538 C   0  0  0  0  0  0  0  0  0  0  0  0
   69.8884   40.9637   58.4484 C   0  0  0  0  0  0  0  0  0  0  0  0
   71.4119   36.5236   59.3893 C   0  0  0  0  0  0  0  0  0  0  0  0
   70.8993   37.7374   58.7062 C   0  0  0  0  0  0  0  0  0  0  0  0
   71.4933   38.1961   57.6697 O   0  0  0  0  0  0  0  0  0  0  0  0
   69.7519   38.4674   59.1227 N   0  0  0  0  0  0  0  0  0  0  0  0
   68.1950   46.2546   55.9062 N   0  0  0  0  0  0  0  0  0  0  0  0
   68.3848   46.4545   54.5177 C   0  0  0  0  0  0  0  0  0  0  0  0
   67.7107   45.6334   53.6371 C   0  0  0  0  0  0  0  0  0  0  0  0
   67.8595   45.8256   52.2674 C   0  0  0  0  0  0  0  0  0  0  0  0
   68.6710   46.8232   51.7576 C   0  0  0  0  0  0  0  0  0  0  0  0
   69.3402   47.6380   52.6334 C   0  0  0  0  0  0  0  0  0  0  0  0
   69.1882   47.4420   54.0018 C   0  0  0  0  0  0  0  0  0  0  0  0
   70.1952   48.7085   52.1475 C   0  0  0  0  0  0  0  0  0  0  0  0
   71.2310   49.2159   52.9724 N   0  0  0  0  0  0  0  0  0  0  0  0
   70.0750   49.2290   51.0128 O   0  0  0  0  0  0  0  0  0  0  0  0
 12 13  1  0
 13 14  2  0
 13 15  1  0
 15  7  1  0
  7  8  2  0
  7 11  1  0
  8  9  1  0
  9 10  1  0
 10  1  1  0
 10 11  2  0
  1  2  2  0
  1  6  1  0
  2  3  1  0
  3  4  2  0
  4  5  1  0
  5 16  1  0
  5  6  2  0
 16 17  1  0
 17 18  2  0
 17 22  1  0
 18 19  1  0
 19 20  2  0
 20 21  1  0
 21 23  1  0
 21 22  2  0
 23 24  1  0
 23 25  2  0
M  END
>  <minimizedAffinity>  (15) 
-9.63490

$$$$
cs_full_output_folder/data/smiles/2363.pdb
     RDKit          3D

 25 27  0  0  0  0  0  0  0  0999 V2000
   73.2588   50.4529   53.9274 O   0  0  0  0  0  0  0  0  0  0  0  0
   72.6613   50.8737   55.0133 C   0  0  0  0  0  0  0  0  0  0  0  0
   73.5398   51.2742   56.0366 N   0  0  0  0  0  0  0  0  0  0  0  0
   74.9518   51.2282   55.8729 N   0  0  0  0  0  0  0  0  0  0  0  0
   75.6753   50.0264   56.0874 C   0  0  0  0  0  0  0  0  0  0  0  0
   75.0755   48.9694   56.4497 O   0  0  0  0  0  0  0  0  0  0  0  0
   77.1323   49.9579   55.8999 C   0  0  0  0  0  0  0  0  0  0  0  0
   77.9590   50.8594   56.5815 C   0  0  0  0  0  0  0  0  0  0  0  0
   79.3428   50.8108   56.5032 C   0  0  0  0  0  0  0  0  0  0  0  0
   79.9477   49.8466   55.7311 C   0  0  0  0  0  0  0  0  0  0  0  0
   81.2908   49.7471   55.6047 F   0  0  0  0  0  0  0  0  0  0  0  0
   79.1452   48.9417   55.0470 C   0  0  0  0  0  0  0  0  0  0  0  0
   77.7571   49.0007   55.1327 C   0  0  0  0  0  0  0  0  0  0  0  0
   71.2068   50.8649   55.0193 C   0  0  0  0  0  0  0  0  0  0  0  0
   70.5268   49.7871   54.2944 C   0  0  0  0  0  0  0  0  0  0  0  0
   69.7299   48.8574   54.8383 N   0  0  0  0  0  0  0  0  0  0  0  0
   69.1723   47.8682   54.0913 C   0  0  0  0  0  0  0  0  0  0  0  0
   68.3560   46.9196   54.6343 C   0  0  0  0  0  0  0  0  0  0  0  0
   67.7822   45.9030   53.8731 C   0  0  0  0  0  0  0  0  0  0  0  0
   68.0239   45.8173   52.5270 C   0  0  0  0  0  0  0  0  0  0  0  0
   68.8521   46.7826   51.9685 C   0  0  0  0  0  0  0  0  0  0  0  0
   69.4188   47.7961   52.7311 C   0  0  0  0  0  0  0  0  0  0  0  0
   70.2448   48.7643   52.1861 C   0  0  0  0  0  0  0  0  0  0  0  0
   70.4549   48.6897   50.9610 O   0  0  0  0  0  0  0  0  0  0  0  0
   70.7616   49.7068   52.9687 N   0  0  0  0  0  0  0  0  0  0  0  0
  1  2  2  0
  2 14  1  0
  2  3  1  0
 14 15  1  0
 15 16  2  0
 15 25  1  0
 16 17  1  0
 17 18  2  0
 17 22  1  0
 18 19  1  0
 19 20  2  0
 20 21  1  0
 21 22  2  0
 22 23  1  0
 23 24  2  0
 23 25  1  0
  3  4  1  0
  4  5  1  0
  5  6  2  0
  5  7  1  0
  7  8  2  0
  7 13  1  0
  8  9  1  0
  9 10  2  0
 10 11  1  0
 10 12  1  0
 12 13  2  0
M  END
>  <minimizedAffinity>  (16) 
-9.62845

$$$$
cs_full_output_folder/data/smiles/907.pdb
     RDKit          3D

 24 26  0  0  0  0  0  0  0  0999 V2000
   68.7272   45.5373   56.7603 O   0  0  0  0  0  0  0  0  0  0  0  0
   69.0435   46.6626   56.1969 C   0  0  0  0  0  0  0  0  0  0  0  0
   68.7839   46.6998   54.7830 C   0  0  0  0  0  0  0  0  0  0  0  0
   67.9037   45.8108   54.1657 C   0  0  0  0  0  0  0  0  0  0  0  0
   67.7690   45.8777   52.8025 C   0  0  0  0  0  0  0  0  0  0  0  0
   66.8712   44.9799   52.2183 O   0  0  0  0  0  0  0  0  0  0  0  0
   68.4677   46.7797   52.0312 C   0  0  0  0  0  0  0  0  0  0  0  0
   68.3097   46.8188   50.6547 O   0  0  0  0  0  0  0  0  0  0  0  0
   69.3567   47.6782   52.6262 C   0  0  0  0  0  0  0  0  0  0  0  0
   69.4946   47.6219   53.9870 C   0  0  0  0  0  0  0  0  0  0  0  0
   70.1132   48.5931   51.8621 N   0  0  2  0  0  0  0  0  0  0  0  0
   71.2746   48.9306   52.4224 O   0  0  0  0  0  0  0  0  0  0  0  0
   69.4255   49.6662   51.4981 F   0  0  0  0  0  0  0  0  0  0  0  0
   69.6024   47.7267   57.0555 C   0  0  0  0  0  0  0  0  0  0  0  0
   68.7735   48.9057   57.0269 C   0  0  0  0  0  0  0  0  0  0  0  0
   67.5702   48.8493   57.7549 C   0  0  0  0  0  0  0  0  0  0  0  0
   66.7655   49.9638   57.8886 C   0  0  0  0  0  0  0  0  0  0  0  0
   67.1021   51.1804   57.3134 C   0  0  0  0  0  0  0  0  0  0  0  0
   68.2619   51.2475   56.6034 C   0  0  0  0  0  0  0  0  0  0  0  0
   68.5491   52.4620   56.0031 C   0  0  0  0  0  0  0  0  0  0  0  0
   69.6903   52.5435   55.2438 C   0  0  0  0  0  0  0  0  0  0  0  0
   70.5230   51.4552   55.0842 C   0  0  0  0  0  0  0  0  0  0  0  0
   70.1979   50.2465   55.7089 C   0  0  0  0  0  0  0  0  0  0  0  0
   69.0616   50.1404   56.4718 C   0  0  0  0  0  0  0  0  0  0  0  0
  1  2  2  0
  2 14  1  0
  2  3  1  0
 14 15  1  0
 15 16  2  0
 15 24  1  0
 16 17  1  0
 17 18  2  0
 18 19  1  0
 19 20  1  0
 19 24  2  0
 20 21  2  0
 21 22  1  0
 22 23  2  0
 23 24  1  0
  3  4  2  0
  3 10  1  0
  4  5  1  0
  5  6  1  0
  5  7  2  0
  7  8  1  0
  7  9  1  0
  9 11  1  0
  9 10  2  0
 11 12  1  1
 11 13  1  0
M  CHG  2  11   1  12  -1
M  END
>  <minimizedAffinity>  (17) 
-9.62426

$$$$
cs_full_output_folder/data/smiles/183.pdb
     RDKit          3D

 24 26  0  0  0  0  0  0  0  0999 V2000
   69.9488   47.6262   57.5281 O   0  0  0  0  0  0  0  0  0  0  0  0
   69.9964   46.3826   57.6067 C   0  0  0  0  0  0  0  0  0  0  0  0
   69.0118   45.7537   56.7420 N   0  0  0  0  0  0  0  0  0  0  0  0
   70.8754   45.6106   58.4184 C   0  0  0  0  0  0  0  0  0  0  0  0
   70.9559   46.0811   59.6418 O   0  0  0  0  0  0  0  0  0  0  0  0
   71.6791   44.4499   58.2035 C   0  0  0  0  0  0  0  0  0  0  0  0
   71.1408   43.2287   57.7329 C   0  0  0  0  0  0  0  0  0  0  0  0
   72.1221   42.3361   57.5569 N   0  0  0  0  0  0  0  0  0  0  0  0
   73.3091   42.8674   57.8784 C   0  0  0  0  0  0  0  0  0  0  0  0
   74.5751   42.3311   57.8691 C   0  0  0  0  0  0  0  0  0  0  0  0
   75.6459   43.0984   58.2730 C   0  0  0  0  0  0  0  0  0  0  0  0
   75.3844   44.3959   58.6739 C   0  0  0  0  0  0  0  0  0  0  0  0
   74.0877   44.9159   58.6731 C   0  0  0  0  0  0  0  0  0  0  0  0
   73.0245   44.1720   58.2773 C   0  0  0  0  0  0  0  0  0  0  0  0
   68.1531   46.4960   55.9360 N   0  0  0  0  0  0  0  0  0  0  0  0
   68.3463   46.6632   54.5374 C   0  0  0  0  0  0  0  0  0  0  0  0
   67.7125   45.8322   53.6300 C   0  0  0  0  0  0  0  0  0  0  0  0
   67.8839   45.9359   52.2739 C   0  0  0  0  0  0  0  0  0  0  0  0
   68.7316   46.9133   51.7527 C   0  0  0  0  0  0  0  0  0  0  0  0
   69.3695   47.7507   52.6710 C   0  0  0  0  0  0  0  0  0  0  0  0
   69.1812   47.6285   54.0249 C   0  0  0  0  0  0  0  0  0  0  0  0
   70.2477   48.7633   52.1561 N   0  0  0  0  0  0  0  0  0  0  0  0
   70.0426   49.3272   51.0763 O   0  0  0  0  0  0  0  0  0  0  0  0
   71.3476   49.0921   52.9079 O   0  0  0  0  0  0  0  0  0  0  0  0
  1  2  2  0
  2  3  1  0
  2  4  1  0
  3 15  1  0
 15 16  1  0
 16 17  2  0
 16 21  1  0
 17 18  1  0
 18 19  2  0
 19 20  1  0
 20 22  1  0
 20 21  2  0
 22 23  2  0
 22 24  1  0
  4  5  2  0
  4  6  1  0
  6  7  2  0
  6 14  1  0
  7  8  1  0
  8  9  1  0
  9 10  1  0
  9 14  2  0
 10 11  2  0
 11 12  1  0
 12 13  2  0
 13 14  1  0
M  CHG  2  22   1  24  -1
M  END
>  <minimizedAffinity>  (18) 
-9.61779

$$$$
cs_full_output_folder/data/smiles/1368.pdb
     RDKit          3D

 24 26  0  0  0  0  0  0  0  0999 V2000
   70.3052   43.5056   57.7966 C   0  0  0  0  0  0  0  0  0  0  0  0
   71.2310   44.3498   58.3652 C   0  0  0  0  0  0  0  0  0  0  0  0
   71.1425   45.7271   58.1342 C   0  0  0  0  0  0  0  0  0  0  0  0
   70.1295   46.2047   57.3434 C   0  0  0  0  0  0  0  0  0  0  0  0
   69.1786   45.3439   56.7573 C   0  0  0  0  0  0  0  0  0  0  0  0
   69.3369   44.0586   57.0266 N   0  0  0  0  0  0  0  0  0  0  0  0
   68.0376   39.0744   58.2097 C   0  0  0  0  0  0  0  0  0  0  0  0
   69.2733   39.9082   58.2113 C   0  0  0  0  0  0  0  0  0  0  0  0
   70.4926   39.3002   58.4209 C   0  0  0  0  0  0  0  0  0  0  0  0
   71.6269   40.0833   58.4194 C   0  0  0  0  0  0  0  0  0  0  0  0
   71.5584   41.4521   58.2149 C   0  0  0  0  0  0  0  0  0  0  0  0
   70.3413   42.0692   58.0052 C   0  0  0  0  0  0  0  0  0  0  0  0
   69.2283   41.2873   58.0079 C   0  0  0  0  0  0  0  0  0  0  0  0
   68.1616   45.9214   55.9747 N   0  0  0  0  0  0  0  0  0  0  0  0
   68.3288   46.2423   54.6271 C   0  0  0  0  0  0  0  0  0  0  0  0
   67.8112   45.4597   53.6330 C   0  0  0  0  0  0  0  0  0  0  0  0
   67.9938   45.8346   52.2912 C   0  0  0  0  0  0  0  0  0  0  0  0
   68.6715   46.9574   51.9199 C   0  0  0  0  0  0  0  0  0  0  0  0
   69.1966   47.7501   52.9216 C   0  0  0  0  0  0  0  0  0  0  0  0
   69.0245   47.3949   54.2290 C   0  0  0  0  0  0  0  0  0  0  0  0
   70.0715   49.1983   52.4901 S   0  0  0  0  0  0  0  0  0  0  0  0
   69.2811   50.5478   53.2626 N   0  0  0  0  0  0  0  0  0  0  0  0
   69.9718   49.3787   50.9853 O   0  0  0  0  0  0  0  0  0  0  0  0
   71.5055   49.1459   52.9031 O   0  0  0  0  0  0  0  0  0  0  0  0
  7  8  1  0
  8  9  2  0
  8 13  1  0
  9 10  1  0
 10 11  2  0
 11 12  1  0
 12  1  1  0
 12 13  2  0
  1  2  2  0
  1  6  1  0
  2  3  1  0
  3  4  2  0
  4  5  1  0
  5 14  1  0
  5  6  2  0
 14 15  1  0
 15 16  2  0
 15 20  1  0
 16 17  1  0
 17 18  2  0
 18 19  1  0
 19 21  1  0
 19 20  2  0
 21 22  1  0
 21 23  2  0
 21 24  2  0
M  END
>  <minimizedAffinity>  (19) 
-9.61082

$$$$
cs_full_output_folder/data/smiles/500.pdb
     RDKit          3D

 26 28  0  0  0  0  0  0  0  0999 V2000
   70.0865   43.6187   57.6696 C   0  0  0  0  0  0  0  0  0  0  0  0
   71.0051   44.4289   58.2917 C   0  0  0  0  0  0  0  0  0  0  0  0
   70.9672   45.8195   58.0956 C   0  0  0  0  0  0  0  0  0  0  0  0
   70.0187   46.2884   57.2950 N   0  0  0  0  0  0  0  0  0  0  0  0
   69.0854   45.5101   56.6573 C   0  0  0  0  0  0  0  0  0  0  0  0
   69.1675   44.1925   56.8803 N   0  0  0  0  0  0  0  0  0  0  0  0
   70.4428   39.4001   58.3495 C   0  0  0  0  0  0  0  0  0  0  0  0
   69.2223   39.9767   58.0727 C   0  0  0  0  0  0  0  0  0  0  0  0
   69.0889   41.3488   57.8482 C   0  0  0  0  0  0  0  0  0  0  0  0
   70.1573   42.1836   57.8906 C   0  0  0  0  0  0  0  0  0  0  0  0
   71.4047   41.6114   58.1707 C   0  0  0  0  0  0  0  0  0  0  0  0
   71.5239   40.2543   58.3915 C   0  0  0  0  0  0  0  0  0  0  0  0
   70.6590   36.0358   60.1959 C   0  0  0  0  0  0  0  0  0  0  0  0
   70.4927   37.4698   59.8811 C   0  0  0  0  0  0  0  0  0  0  0  0
   70.2221   38.2967   60.8129 O   0  0  0  0  0  0  0  0  0  0  0  0
   70.6151   38.0114   58.5827 N   0  0  0  0  0  0  0  0  0  0  0  0
   68.1649   46.1715   55.8343 N   0  0  0  0  0  0  0  0  0  0  0  0
   68.3498   46.4541   54.4832 C   0  0  0  0  0  0  0  0  0  0  0  0
   67.6853   45.6466   53.5525 C   0  0  0  0  0  0  0  0  0  0  0  0
   67.8393   45.8658   52.2070 C   0  0  0  0  0  0  0  0  0  0  0  0
   68.6439   46.8739   51.7323 C   0  0  0  0  0  0  0  0  0  0  0  0
   69.3107   47.6842   52.6234 C   0  0  0  0  0  0  0  0  0  0  0  0
   69.1469   47.4540   54.0034 C   0  0  0  0  0  0  0  0  0  0  0  0
   70.1832   48.7770   52.1877 C   0  0  0  0  0  0  0  0  0  0  0  0
   69.8122   49.5731   51.0683 N   0  0  0  0  0  0  0  0  0  0  0  0
   71.2504   49.0081   52.7993 O   0  0  0  0  0  0  0  0  0  0  0  0
 13 14  1  0
 14 15  2  0
 14 16  1  0
 16  7  1  0
  7  8  2  0
  7 12  1  0
  8  9  1  0
  9 10  2  0
 10  1  1  0
 10 11  1  0
  1  2  2  0
  1  6  1  0
  2  3  1  0
  3  4  2  0
  4  5  1  0
  5 17  1  0
  5  6  2  0
 17 18  1  0
 18 19  2  0
 18 23  1  0
 19 20  1  0
 20 21  2  0
 21 22  1  0
 22 24  1  0
 22 23  2  0
 24 25  1  0
 24 26  2  0
 11 12  2  0
M  END
>  <minimizedAffinity>  (20) 
-9.60813

$$$$
cs_full_output_folder/data/smiles/26.pdb
     RDKit          3D

 26 28  0  0  0  0  0  0  0  0999 V2000
   70.1755   43.7221   57.8092 C   0  0  0  0  0  0  0  0  0  0  0  0
   70.9181   44.6468   58.5021 C   0  0  0  0  0  0  0  0  0  0  0  0
   70.7453   46.0109   58.3008 C   0  0  0  0  0  0  0  0  0  0  0  0
   69.8418   46.4494   57.4181 N   0  0  0  0  0  0  0  0  0  0  0  0
   69.0975   45.5541   56.7223 C   0  0  0  0  0  0  0  0  0  0  0  0
   69.2838   44.2404   56.9357 N   0  0  0  0  0  0  0  0  0  0  0  0
   70.5604   39.4621   58.3152 C   0  0  0  0  0  0  0  0  0  0  0  0
   71.6510   40.3022   58.3778 C   0  0  0  0  0  0  0  0  0  0  0  0
   71.5183   41.6662   58.2125 C   0  0  0  0  0  0  0  0  0  0  0  0
   70.2985   42.2736   57.9774 C   0  0  0  0  0  0  0  0  0  0  0  0
   69.2095   41.4375   57.9145 C   0  0  0  0  0  0  0  0  0  0  0  0
   69.3394   40.0506   58.0816 C   0  0  0  0  0  0  0  0  0  0  0  0
   70.7674   35.9644   59.9661 C   0  0  0  0  0  0  0  0  0  0  0  0
   70.6341   37.4122   59.7531 C   0  0  0  0  0  0  0  0  0  0  0  0
   70.4524   38.1509   60.7559 O   0  0  0  0  0  0  0  0  0  0  0  0
   70.6951   38.0443   58.4860 N   0  0  0  0  0  0  0  0  0  0  0  0
   68.1361   46.0490   55.8109 N   0  0  0  0  0  0  0  0  0  0  0  0
   68.3527   46.3697   54.4654 C   0  0  0  0  0  0  0  0  0  0  0  0
   67.7113   45.6186   53.4720 C   0  0  0  0  0  0  0  0  0  0  0  0
   67.8575   45.8839   52.1240 C   0  0  0  0  0  0  0  0  0  0  0  0
   68.6610   46.9237   51.7113 C   0  0  0  0  0  0  0  0  0  0  0  0
   69.3039   47.6789   52.6515 C   0  0  0  0  0  0  0  0  0  0  0  0
   69.1369   47.3873   54.0114 C   0  0  0  0  0  0  0  0  0  0  0  0
   70.1566   48.7808   52.2280 C   0  0  0  0  0  0  0  0  0  0  0  0
   69.8273   49.5859   51.1096 N   0  0  0  0  0  0  0  0  0  0  0  0
   71.2172   49.0211   52.8762 O   0  0  0  0  0  0  0  0  0  0  0  0
 13 14  1  0
 14 15  2  0
 14 16  1  0
 16  7  1  0
  7  8  2  0
  7 12  1  0
  8  9  1  0
  9 10  2  0
 10  1  1  0
 10 11  1  0
  1  2  2  0
  1  6  1  0
  2  3  1  0
  3  4  2  0
  4  5  1  0
  5 17  1  0
  5  6  2  0
 17 18  1  0
 18 19  2  0
 18 23  1  0
 19 20  1  0
 20 21  2  0
 21 22  1  0
 22 24  1  0
 22 23  2  0
 24 25  1  0
 24 26  2  0
 11 12  2  0
M  END
>  <minimizedAffinity>  (21) 
-9.60501

$$$$
cs_full_output_folder/data/smiles/5067.pdb
     RDKit          3D

 24 26  0  0  0  0  0  0  0  0999 V2000
   70.2586   45.0585   57.9575 C   0  0  0  0  0  0  0  0  0  0  0  0
   71.2730   45.4140   58.8285 C   0  0  0  0  0  0  0  0  0  0  0  0
   71.7296   46.7100   58.9886 C   0  0  0  0  0  0  0  0  0  0  0  0
   71.0885   47.6542   58.1515 C   0  0  0  0  0  0  0  0  0  0  0  0
   70.0860   47.3419   57.2496 C   0  0  0  0  0  0  0  0  0  0  0  0
   69.6793   46.0134   57.1744 C   0  0  0  0  0  0  0  0  0  0  0  0
   68.9880   42.9887   57.2674 C   0  0  0  0  0  0  0  0  0  0  0  0
   68.6290   43.3940   56.1746 O   0  0  0  0  0  0  0  0  0  0  0  0
   69.7981   43.6946   58.1429 N   0  0  0  0  0  0  0  0  0  0  0  0
   68.4616   41.5685   57.7441 C   0  0  0  0  0  0  0  0  0  0  0  0
   67.4641   40.4757   55.3512 N   0  0  0  0  0  0  0  0  0  0  0  0
   67.9826   41.0428   56.6170 C   0  0  0  0  0  0  0  0  0  0  0  0
   69.4781   48.2872   56.3245 C   0  0  0  0  0  0  0  0  0  0  0  0
   69.6133   48.2297   54.9302 C   0  0  0  0  0  0  0  0  0  0  0  0
   70.6106   49.1677   54.3282 N   0  0  0  0  0  0  0  0  0  0  0  0
   70.7815   49.1920   53.0925 N   0  0  0  0  0  0  0  0  0  0  0  0
   70.2486   48.5151   52.0102 C   0  0  0  0  0  0  0  0  0  0  0  0
   70.5622   48.7292   50.9579 O   0  0  0  0  0  0  0  0  0  0  0  0
   69.2927   47.5735   52.4668 C   0  0  0  0  0  0  0  0  0  0  0  0
   68.6401   46.7970   51.5137 C   0  0  0  0  0  0  0  0  0  0  0  0
   67.6335   45.8522   51.9751 C   0  0  0  0  0  0  0  0  0  0  0  0
   67.4666   45.8559   53.2920 C   0  0  0  0  0  0  0  0  0  0  0  0
   68.1065   46.6190   54.2203 C   0  0  0  0  0  0  0  0  0  0  0  0
   69.0703   47.5270   53.8384 C   0  0  0  0  0  0  0  0  0  0  0  0
 11 12  3  0
 12 10  1  0
 10  7  1  0
  7  8  2  0
  7  9  1  0
  9  1  1  0
  1  2  2  0
  1  6  1  0
  2  3  1  0
  3  4  2  0
  4  5  1  0
  5 13  1  0
  5  6  2  0
 13 14  1  0
 14 15  2  0
 14 24  1  0
 15 16  1  0
 16 17  1  0
 17 18  2  0
 17 19  1  0
 19 20  1  0
 19 24  2  0
 20 21  2  0
 21 22  1  0
 22 23  2  0
 23 24  1  0
M  END
>  <minimizedAffinity>  (22) 
-9.54678

$$$$
cs_full_output_folder/data/smiles/3362.pdb
     RDKit          3D

 26 29  0  0  0  0  0  0  0  0999 V2000
   68.8629   42.8930   56.8929 C   0  0  0  0  0  0  0  0  0  0  0  0
   67.7067   42.3142   56.4117 C   0  0  0  0  0  0  0  0  0  0  0  0
   67.4714   40.9557   56.5415 C   0  0  0  0  0  0  0  0  0  0  0  0
   68.3930   40.1330   57.1625 C   0  0  0  0  0  0  0  0  0  0  0  0
   69.5699   40.6973   57.6573 C   0  0  0  0  0  0  0  0  0  0  0  0
   69.7659   42.0544   57.5080 C   0  0  0  0  0  0  0  0  0  0  0  0
   70.9979   42.2888   58.0923 C   0  0  0  0  0  0  0  0  0  0  0  0
   71.4585   41.1115   58.5428 N   0  0  0  0  0  0  0  0  0  0  0  0
   70.6145   40.1256   58.2950 N   0  0  0  0  0  0  0  0  0  0  0  0
   70.7769   38.7416   58.6305 C   0  0  0  0  0  0  0  0  0  0  0  0
   70.0417   38.1347   59.6264 C   0  0  0  0  0  0  0  0  0  0  0  0
   70.1884   36.8045   59.9543 C   0  0  0  0  0  0  0  0  0  0  0  0
   71.0944   36.0102   59.2872 C   0  0  0  0  0  0  0  0  0  0  0  0
   71.2420   34.6920   59.6078 F   0  0  0  0  0  0  0  0  0  0  0  0
   71.8379   36.6016   58.2879 C   0  0  0  0  0  0  0  0  0  0  0  0
   71.6827   37.9464   57.9629 C   0  0  0  0  0  0  0  0  0  0  0  0
   69.8697   44.9784   57.4489 O   0  0  0  0  0  0  0  0  0  0  0  0
   69.0906   44.3338   56.7403 C   0  0  0  0  0  0  0  0  0  0  0  0
   68.3720   45.0042   55.7216 N   0  0  0  0  0  0  0  0  0  0  0  0
   68.4689   46.3933   55.4270 C   0  0  0  0  0  0  0  0  0  0  0  0
   68.4715   46.5863   53.9597 C   0  0  0  0  0  0  0  0  0  0  0  0
   69.2386   47.5714   53.3507 C   0  0  0  0  0  0  0  0  0  0  0  0
   69.2610   47.7599   51.9894 C   0  0  0  0  0  0  0  0  0  0  0  0
   68.5139   46.9659   51.1909 N   0  0  0  0  0  0  0  0  0  0  0  0
   67.7616   46.0037   51.7388 C   0  0  0  0  0  0  0  0  0  0  0  0
   67.7270   45.7981   53.1173 C   0  0  0  0  0  0  0  0  0  0  0  0
 17 18  2  0
 18 19  1  0
 18  1  1  0
 19 20  1  0
 20 21  1  0
 21 22  2  0
 21 26  1  0
 22 23  1  0
 23 24  2  0
 24 25  1  0
 25 26  2  0
  1  2  2  0
  1  6  1  0
  2  3  1  0
  3  4  2  0
  4  5  1  0
  5  6  2  0
  5  9  1  0
  6  7  1  0
  7  8  2  0
  8  9  1  0
  9 10  1  0
 10 11  2  0
 10 16  1  0
 11 12  1  0
 12 13  2  0
 13 14  1  0
 13 15  1  0
 15 16  2  0
M  END
>  <minimizedAffinity>  (23) 
-9.53819

$$$$
cs_full_output_folder/data/smiles/5795.pdb
     RDKit          3D

 24 26  0  0  0  0  0  0  0  0999 V2000
   69.1098   46.1112   56.7656 C   0  0  0  0  0  0  0  0  0  0  0  0
   69.8580   47.0775   57.3612 N   0  0  0  0  0  0  0  0  0  0  0  0
   70.8757   46.7600   58.1568 C   0  0  0  0  0  0  0  0  0  0  0  0
   71.1887   45.4192   58.3908 C   0  0  0  0  0  0  0  0  0  0  0  0
   70.4454   44.4397   57.7991 C   0  0  0  0  0  0  0  0  0  0  0  0
   69.4228   44.8320   57.0002 N   0  0  0  0  0  0  0  0  0  0  0  0
   70.7569   43.0325   58.0101 C   0  0  0  0  0  0  0  0  0  0  0  0
   69.7084   42.1093   58.1276 C   0  0  0  0  0  0  0  0  0  0  0  0
   69.9502   40.7587   58.3223 C   0  0  0  0  0  0  0  0  0  0  0  0
   71.2282   40.2545   58.4120 C   0  0  0  0  0  0  0  0  0  0  0  0
   72.2647   41.1532   58.2988 C   0  0  0  0  0  0  0  0  0  0  0  0
   72.0218   42.5176   58.1018 C   0  0  0  0  0  0  0  0  0  0  0  0
   71.4822   38.8610   58.6081 N   0  0  0  0  0  0  0  0  0  0  0  0
   71.6166   38.0744   57.5368 F   0  0  0  0  0  0  0  0  0  0  0  0
   68.0357   46.4781   55.9296 N   0  0  0  0  0  0  0  0  0  0  0  0
   69.2989   47.7407   52.6622 C   0  0  0  0  0  0  0  0  0  0  0  0
   68.7174   46.8767   51.7591 C   0  0  0  0  0  0  0  0  0  0  0  0
   67.9003   45.8885   52.2628 C   0  0  0  0  0  0  0  0  0  0  0  0
   67.6784   45.7773   53.6221 C   0  0  0  0  0  0  0  0  0  0  0  0
   68.2530   46.6365   54.5432 C   0  0  0  0  0  0  0  0  0  0  0  0
   69.0662   47.6183   54.0206 C   0  0  0  0  0  0  0  0  0  0  0  0
   69.8050   49.6133   51.0521 N   0  0  0  0  0  0  0  0  0  0  0  0
   70.1875   48.7926   52.1489 C   0  0  0  0  0  0  0  0  0  0  0  0
   71.3106   48.9848   52.6783 O   0  0  0  0  0  0  0  0  0  0  0  0
 22 23  1  0
 23 24  2  0
 23 16  1  0
 16 17  2  0
 16 21  1  0
 17 18  1  0
 18 19  2  0
 19 20  1  0
 20 15  1  0
 20 21  2  0
 15  1  1  0
  1  2  2  0
  1  6  1  0
  2  3  1  0
  3  4  2  0
  4  5  1  0
  5  7  1  0
  5  6  2  0
  7  8  2  0
  7 12  1  0
  8  9  1  0
  9 10  2  0
 10 13  1  0
 10 11  1  0
 13 14  1  0
 11 12  2  0
M  END
>  <minimizedAffinity>  (24) 
-9.53715

$$$$
cs_full_output_folder/data/smiles/1674.pdb
     RDKit          3D

 24 26  0  0  0  0  0  0  0  0999 V2000
   68.2743   45.5705   55.8834 N   0  0  0  0  0  0  0  0  0  0  0  0
   69.1239   47.6385   52.9224 C   0  0  0  0  0  0  0  0  0  0  0  0
   68.5103   46.9134   51.8961 C   0  0  0  0  0  0  0  0  0  0  0  0
   67.8151   45.7584   52.1752 C   0  0  0  0  0  0  0  0  0  0  0  0
   67.7263   45.3117   53.5009 C   0  0  0  0  0  0  0  0  0  0  0  0
   68.3110   45.9863   54.5354 C   0  0  0  0  0  0  0  0  0  0  0  0
   69.0014   47.1515   54.1910 C   0  0  0  0  0  0  0  0  0  0  0  0
   69.9877   49.0843   52.4971 S   0  0  0  0  0  0  0  0  0  0  0  0
   69.9754   49.3510   51.0046 O   0  0  0  0  0  0  0  0  0  0  0  0
   71.4235   49.0514   52.9270 O   0  0  0  0  0  0  0  0  0  0  0  0
   70.1895   51.1304   54.1390 C   0  0  0  0  0  0  0  0  0  0  0  0
   69.2363   50.4902   53.2152 N   0  0  0  0  0  0  0  0  0  0  0  0
   68.5227   44.2313   56.2759 C   0  0  0  0  0  0  0  0  0  0  0  0
   67.4872   43.3388   56.1250 N   0  0  0  0  0  0  0  0  0  0  0  0
   67.6005   42.0539   56.4829 C   0  0  0  0  0  0  0  0  0  0  0  0
   68.8044   41.6002   57.0282 C   0  0  0  0  0  0  0  0  0  0  0  0
   69.8535   42.4748   57.1893 C   0  0  0  0  0  0  0  0  0  0  0  0
   69.6218   43.7380   56.7934 N   0  0  0  0  0  0  0  0  0  0  0  0
   71.1320   42.0683   57.7584 C   0  0  0  0  0  0  0  0  0  0  0  0
   72.2664   42.8274   57.6749 C   0  0  0  0  0  0  0  0  0  0  0  0
   73.4714   42.3839   58.2381 C   0  0  0  0  0  0  0  0  0  0  0  0
   73.5559   41.1766   58.8906 C   0  0  0  0  0  0  0  0  0  0  0  0
   72.4231   40.3997   58.9840 C   0  0  0  0  0  0  0  0  0  0  0  0
   71.2466   40.8480   58.4263 C   0  0  0  0  0  0  0  0  0  0  0  0
 11 12  1  0
 12  8  1  0
  8  9  2  0
  8 10  2  0
  8  2  1  0
  2  3  2  0
  2  7  1  0
  3  4  1  0
  4  5  2  0
  5  6  1  0
  6  1  1  0
  6  7  2  0
  1 13  1  0
 13 14  2  0
 13 18  1  0
 14 15  1  0
 15 16  2  0
 16 17  1  0
 17 19  1  0
 17 18  2  0
 19 20  2  0
 19 24  1  0
 20 21  1  0
 21 22  2  0
 22 23  1  0
 23 24  2  0
M  END
>  <minimizedAffinity>  (25) 
-9.53683

$$$$
cs_full_output_folder/data/smiles/1878.pdb
     RDKit          3D

 26 29  0  0  0  0  0  0  0  0999 V2000
   70.4472   45.5196   58.0967 C   0  0  0  0  0  0  0  0  0  0  0  0
   71.2707   46.4219   58.5425 C   0  0  0  0  0  0  0  0  0  0  0  0
   70.8617   47.7620   57.9884 C   0  0  0  0  0  0  0  0  0  0  0  0
   69.6875   47.4327   57.1778 C   0  0  0  0  0  0  0  0  0  0  0  0
   69.4906   46.1705   57.2652 N   0  0  0  0  0  0  0  0  0  0  0  0
   68.8666   43.6770   56.6701 O   0  0  0  0  0  0  0  0  0  0  0  0
   69.5969   43.2015   57.5948 C   0  0  0  0  0  0  0  0  0  0  0  0
   70.3969   44.0952   58.3239 N   0  0  0  0  0  0  0  0  0  0  0  0
   69.5451   41.7644   57.8247 C   0  0  0  0  0  0  0  0  0  0  0  0
   68.4021   41.0545   57.5333 C   0  0  0  0  0  0  0  0  0  0  0  0
   68.3094   39.6827   57.7377 C   0  0  0  0  0  0  0  0  0  0  0  0
   69.3729   38.9798   58.2462 C   0  0  0  0  0  0  0  0  0  0  0  0
   70.5198   39.6710   58.5423 C   0  0  0  0  0  0  0  0  0  0  0  0
   70.6025   41.0541   58.3318 C   0  0  0  0  0  0  0  0  0  0  0  0
   68.8389   48.3586   56.3644 C   0  0  0  0  0  0  0  0  0  0  0  0
   69.2722   48.4440   54.9509 C   0  0  0  0  0  0  0  0  0  0  0  0
   70.0802   49.4443   54.5608 N   0  0  0  0  0  0  0  0  0  0  0  0
   70.5189   49.5996   53.3313 N   0  0  0  0  0  0  0  0  0  0  0  0
   70.1716   48.7398   52.3637 C   0  0  0  0  0  0  0  0  0  0  0  0
   70.5794   48.8772   51.2004 O   0  0  0  0  0  0  0  0  0  0  0  0
   69.3441   47.6873   52.6925 C   0  0  0  0  0  0  0  0  0  0  0  0
   68.8842   47.5282   53.9932 C   0  0  0  0  0  0  0  0  0  0  0  0
   67.9978   46.4113   54.3599 C   0  0  0  0  0  0  0  0  0  0  0  0
   67.8005   45.4440   53.2335 C   0  0  0  0  0  0  0  0  0  0  0  0
   67.6026   46.2091   51.9185 C   0  0  0  0  0  0  0  0  0  0  0  0
   68.9838   46.7502   51.5847 C   0  0  0  0  0  0  0  0  0  0  0  0
  6  7  2  0
  7  8  1  0
  7  9  1  0
  8  1  1  0
  1  2  2  0
  1  5  1  0
  2  3  1  0
  3  4  1  0
  4 15  1  0
  4  5  2  0
 15 16  1  0
 16 17  2  0
 16 22  1  0
 17 18  1  0
 18 19  1  0
 19 20  2  0
 19 21  1  0
 21 22  2  0
 21 26  1  0
 22 23  1  0
 23 24  1  0
 24 25  1  0
 25 26  1  0
  9 10  2  0
  9 14  1  0
 10 11  1  0
 11 12  2  0
 12 13  1  0
 13 14  2  0
M  END
>  <minimizedAffinity>  (26) 
-9.53539

$$$$
cs_full_output_folder/data/smiles/944.pdb
     RDKit          3D

 26 28  0  0  0  0  0  0  0  0999 V2000
   69.0827   40.0516   57.7569 N   0  0  0  0  0  0  0  0  0  0  0  0
   68.0845   40.0654   56.9067 N   0  0  0  0  0  0  0  0  0  0  0  0
   67.8272   41.3401   56.4881 C   0  0  0  0  0  0  0  0  0  0  0  0
   68.7216   42.1864   57.1159 C   0  0  0  0  0  0  0  0  0  0  0  0
   69.4775   41.3348   57.8923 C   0  0  0  0  0  0  0  0  0  0  0  0
   70.5910   41.7499   58.7809 C   0  0  0  0  0  0  0  0  0  0  0  0
   71.2164   35.4325   60.4636 C   0  0  0  0  0  0  0  0  0  0  0  0
   70.6786   36.6501   59.7509 C   0  0  0  0  0  0  0  0  0  0  0  0
   71.3735   37.2356   58.7128 C   0  0  0  0  0  0  0  0  0  0  0  0
   70.8659   38.3543   58.0585 C   0  0  0  0  0  0  0  0  0  0  0  0
   69.6649   38.9268   58.4048 C   0  0  0  0  0  0  0  0  0  0  0  0
   68.9726   38.3275   59.4560 C   0  0  0  0  0  0  0  0  0  0  0  0
   69.4791   37.2085   60.1123 C   0  0  0  0  0  0  0  0  0  0  0  0
   68.8810   43.6426   57.0010 C   0  0  0  0  0  0  0  0  0  0  0  0
   69.5364   44.2657   57.8456 O   0  0  0  0  0  0  0  0  0  0  0  0
   68.2981   44.3839   55.9404 N   0  0  0  0  0  0  0  0  0  0  0  0
   68.4147   45.8222   55.8004 C   0  0  0  0  0  0  0  0  0  0  0  0
   68.5191   46.2133   54.3725 C   0  0  0  0  0  0  0  0  0  0  0  0
   67.7925   45.5574   53.4054 C   0  0  0  0  0  0  0  0  0  0  0  0
   67.8418   45.9050   52.0760 C   0  0  0  0  0  0  0  0  0  0  0  0
   68.6355   46.9460   51.6589 C   0  0  0  0  0  0  0  0  0  0  0  0
   69.3756   47.6269   52.5958 C   0  0  0  0  0  0  0  0  0  0  0  0
   69.3171   47.2636   53.9285 C   0  0  0  0  0  0  0  0  0  0  0  0
   70.2058   48.7461   52.1411 C   0  0  0  0  0  0  0  0  0  0  0  0
   71.2985   49.1998   52.9244 N   0  0  0  0  0  0  0  0  0  0  0  0
   69.9042   49.2748   51.0370 O   0  0  0  0  0  0  0  0  0  0  0  0
  7  8  1  0
  8  9  2  0
  8 13  1  0
  9 10  1  0
 10 11  2  0
 11  1  1  0
 11 12  1  0
  1  2  1  0
  1  5  1  0
  2  3  2  0
  3  4  1  0
  4 14  1  0
  4  5  2  0
 14 15  2  0
 14 16  1  0
 16 17  1  0
 17 18  1  0
 18 19  2  0
 18 23  1  0
 19 20  1  0
 20 21  2  0
 21 22  1  0
 22 24  1  0
 22 23  2  0
 24 25  1  0
 24 26  2  0
  5  6  1  0
 12 13  2  0
M  END
>  <minimizedAffinity>  (27) 
-9.51891

$$$$
cs_full_output_folder/data/smiles/2280.pdb
     RDKit          3D

 24 26  0  0  0  0  0  0  0  0999 V2000
   69.0702   46.7920   57.3946 O   0  0  0  0  0  0  0  0  0  0  0  0
   68.4541   47.6146   56.6216 C   0  0  0  0  0  0  0  0  0  0  0  0
   68.5155   47.4089   55.2023 C   0  0  0  0  0  0  0  0  0  0  0  0
   67.7903   46.4784   54.5107 C   0  0  0  0  0  0  0  0  0  0  0  0
   67.8830   46.2987   53.1293 C   0  0  0  0  0  0  0  0  0  0  0  0
   67.1292   45.3539   52.5101 O   0  0  0  0  0  0  0  0  0  0  0  0
   68.7545   47.1101   52.4488 C   0  0  0  0  0  0  0  0  0  0  0  0
   68.8900   46.9762   51.0566 O   0  0  0  0  0  0  0  0  0  0  0  0
   69.5171   48.0685   53.0838 C   0  0  0  0  0  0  0  0  0  0  0  0
   69.3832   48.1977   54.4345 C   0  0  0  0  0  0  0  0  0  0  0  0
   70.4038   48.8691   52.3387 N   0  0  0  0  0  0  0  0  0  0  0  0
   71.5571   49.0278   52.7842 O   0  0  0  0  0  0  0  0  0  0  0  0
   69.9949   49.4385   51.1649 O   0  0  0  0  0  0  0  0  0  0  0  0
   67.7334   48.7049   57.2657 C   0  0  0  0  0  0  0  0  0  0  0  0
   68.4401   50.0069   57.0941 C   0  0  0  0  0  0  0  0  0  0  0  0
   67.9090   50.9906   56.2987 C   0  0  0  0  0  0  0  0  0  0  0  0
   68.5700   52.1785   56.1291 C   0  0  0  0  0  0  0  0  0  0  0  0
   69.7824   52.3999   56.7566 C   0  0  0  0  0  0  0  0  0  0  0  0
   70.4431   53.6257   56.5590 C   0  0  0  0  0  0  0  0  0  0  0  0
   71.6524   53.8420   57.1777 C   0  0  0  0  0  0  0  0  0  0  0  0
   72.2019   52.8480   57.9877 C   0  0  0  0  0  0  0  0  0  0  0  0
   71.5530   51.6599   58.1758 C   0  0  0  0  0  0  0  0  0  0  0  0
   70.3392   51.4239   57.5640 C   0  0  0  0  0  0  0  0  0  0  0  0
   69.6662   50.2305   57.7312 C   0  0  0  0  0  0  0  0  0  0  0  0
  1  2  2  0
  2 14  1  0
  2  3  1  0
 14 15  1  0
 15 16  2  0
 15 24  1  0
 16 17  1  0
 17 18  2  0
 18 19  1  0
 18 23  1  0
 19 20  2  0
 20 21  1  0
 21 22  2  0
 22 23  1  0
 23 24  2  0
  3  4  2  0
  3 10  1  0
  4  5  1  0
  5  6  1  0
  5  7  2  0
  7  8  1  0
  7  9  1  0
  9 11  1  0
  9 10  2  0
 11 12  2  0
 11 13  1  0
M  CHG  2  11   1  13  -1
M  END
>  <minimizedAffinity>  (28) 
-9.51878

$$$$
cs_full_output_folder/data/smiles/7018.pdb
     RDKit          3D

 23 25  0  0  0  0  0  0  0  0999 V2000
   67.5823   42.8842   55.7547 C   0  0  0  0  0  0  0  0  0  0  0  0
   68.6837   42.8834   56.5771 N   0  0  0  0  0  0  0  0  0  0  0  0
   69.1079   41.8208   57.2446 C   0  0  0  0  0  0  0  0  0  0  0  0
   70.2170   41.8498   58.0686 C   0  0  0  0  0  0  0  0  0  0  0  0
   70.5740   40.6991   58.7211 C   0  0  0  0  0  0  0  0  0  0  0  0
   69.8879   39.5078   58.6032 C   0  0  0  0  0  0  0  0  0  0  0  0
   68.7882   39.5042   57.7765 C   0  0  0  0  0  0  0  0  0  0  0  0
   68.4015   40.6419   57.1057 C   0  0  0  0  0  0  0  0  0  0  0  0
   67.3035   40.6411   56.2874 N   0  0  0  0  0  0  0  0  0  0  0  0
   66.8854   41.7283   55.6170 C   0  0  0  0  0  0  0  0  0  0  0  0
   65.7018   41.6746   54.7545 C   0  0  0  0  0  0  0  0  0  0  0  0
   65.7535   40.5843   53.8620 O   0  0  0  0  0  0  0  0  0  0  0  0
   67.3065   44.0328   55.1662 O   0  0  0  0  0  0  0  0  0  0  0  0
   69.0288   47.4582   53.6539 C   0  0  0  0  0  0  0  0  0  0  0  0
   69.0744   47.1335   54.9888 C   0  0  0  0  0  0  0  0  0  0  0  0
   68.4870   45.9856   55.4273 C   0  0  0  0  0  0  0  0  0  0  0  0
   67.8235   45.0968   54.5764 C   0  0  0  0  0  0  0  0  0  0  0  0
   67.7837   45.4344   53.2466 C   0  0  0  0  0  0  0  0  0  0  0  0
   68.3761   46.5867   52.8159 C   0  0  0  0  0  0  0  0  0  0  0  0
   69.6582   48.7334   53.1766 C   0  0  0  0  0  0  0  0  0  0  0  0
   70.3003   47.6089   51.1085 O   0  0  0  0  0  0  0  0  0  0  0  0
   69.9440   48.6855   51.7055 C   0  0  0  0  0  0  0  0  0  0  0  0
   69.8348   49.8160   50.9155 O   0  0  0  0  0  0  0  0  0  0  0  0
 21 22  2  0
 22 23  1  0
 22 20  1  0
 20 14  1  0
 14 15  2  0
 14 19  1  0
 15 16  1  0
 16 17  2  0
 17 13  1  0
 17 18  1  0
 13  1  1  0
  1  2  2  0
  1 10  1  0
  2  3  1  0
  3  4  2  0
  3  8  1  0
  4  5  1  0
  5  6  2  0
  6  7  1  0
  7  8  2  0
  8  9  1  0
  9 10  2  0
 10 11  1  0
 11 12  1  0
 18 19  2  0
M  END
>  <minimizedAffinity>  (29) 
-9.51297

$$$$
cs_full_output_folder/data/smiles/5961.pdb
     RDKit          3D

 25 27  0  0  0  0  0  0  0  0999 V2000
   72.5349   50.4973   55.7192 C   0  0  0  0  0  0  0  0  0  0  0  0
   73.7102   51.1409   55.0725 C   0  0  2  0  0  0  0  0  0  0  0  0
   73.8170   50.6332   53.7159 N   0  0  0  0  0  0  0  0  0  0  0  0
   75.8748   49.9791   55.5054 C   0  0  0  0  0  0  0  0  0  0  0  0
   75.5891   49.2039   54.5538 O   0  0  0  0  0  0  0  0  0  0  0  0
   74.9425   50.9876   55.8078 N   0  0  0  0  0  0  0  0  0  0  0  0
   80.5580   49.4498   58.5738 N   0  0  0  0  0  0  0  0  0  0  0  0
   79.3908   49.5813   57.8043 C   0  0  0  0  0  0  0  0  0  0  0  0
   79.4415   49.3507   56.4421 C   0  0  0  0  0  0  0  0  0  0  0  0
   78.3122   49.4729   55.6655 C   0  0  0  0  0  0  0  0  0  0  0  0
   77.1275   49.8262   56.2567 C   0  0  0  0  0  0  0  0  0  0  0  0
   77.0982   50.0529   57.6277 C   0  0  0  0  0  0  0  0  0  0  0  0
   78.2059   49.9409   58.4332 C   0  0  0  0  0  0  0  0  0  0  0  0
   71.2397   50.9953   55.0768 C   0  0  0  0  0  0  0  0  0  0  0  0
   70.5943   49.8903   54.3005 C   0  0  0  0  0  0  0  0  0  0  0  0
   69.8082   48.9705   54.8943 N   0  0  0  0  0  0  0  0  0  0  0  0
   69.2229   47.9756   54.2149 C   0  0  0  0  0  0  0  0  0  0  0  0
   68.4175   47.0319   54.8191 C   0  0  0  0  0  0  0  0  0  0  0  0
   67.8128   46.0039   54.1154 C   0  0  0  0  0  0  0  0  0  0  0  0
   68.0058   45.8933   52.7569 C   0  0  0  0  0  0  0  0  0  0  0  0
   68.8075   46.8267   52.1349 C   0  0  0  0  0  0  0  0  0  0  0  0
   69.4137   47.8603   52.8526 C   0  0  0  0  0  0  0  0  0  0  0  0
   70.2178   48.7996   52.2392 C   0  0  0  0  0  0  0  0  0  0  0  0
   70.4078   48.7189   51.0014 O   0  0  0  0  0  0  0  0  0  0  0  0
   70.7856   49.7847   52.9709 N   0  0  0  0  0  0  0  0  0  0  0  0
  7  8  1  0
  8  9  2  0
  8 13  1  0
  9 10  1  0
 10 11  2  0
 11  4  1  0
 11 12  1  0
  4  5  2  0
  4  6  1  0
  6  2  1  0
  2  3  1  6
  2  1  1  0
  1 14  1  0
 14 15  1  0
 15 16  2  0
 15 25  1  0
 16 17  1  0
 17 18  2  0
 17 22  1  0
 18 19  1  0
 19 20  2  0
 20 21  1  0
 21 22  2  0
 22 23  1  0
 23 24  2  0
 23 25  1  0
 12 13  2  0
M  CHG  1   3   1
M  END
>  <minimizedAffinity>  (30) 
-9.48303

$$$$
cs_full_output_folder/data/smiles/459.pdb
     RDKit          3D

 24 27  0  0  0  0  0  0  0  0999 V2000
   69.9032   47.1911   51.0213 O   0  0  0  0  0  0  0  0  0  0  0  0
   69.7946   48.2733   51.6123 C   0  0  0  0  0  0  0  0  0  0  0  0
   70.0393   49.4900   51.0680 N   0  0  0  0  0  0  0  0  0  0  0  0
   69.8265   50.4403   51.9925 N   0  0  0  0  0  0  0  0  0  0  0  0
   69.4529   49.8530   53.1101 C   0  0  0  0  0  0  0  0  0  0  0  0
   69.4342   48.5041   52.8643 N   0  0  0  0  0  0  0  0  0  0  0  0
   69.0770   47.4779   53.7760 C   0  0  0  0  0  0  0  0  0  0  0  0
   68.5321   46.3926   53.1454 C   0  0  0  0  0  0  0  0  0  0  0  0
   68.1514   45.3233   53.9402 C   0  0  0  0  0  0  0  0  0  0  0  0
   68.2935   45.3085   55.3065 C   0  0  0  0  0  0  0  0  0  0  0  0
   68.8623   46.4624   55.8886 C   0  0  0  0  0  0  0  0  0  0  0  0
   69.2529   47.5395   55.1491 C   0  0  0  0  0  0  0  0  0  0  0  0
   69.7902   48.5904   56.0248 C   0  0  0  0  0  0  0  0  0  0  0  0
   70.1507   49.8743   55.3883 C   0  0  0  0  0  0  0  0  0  0  0  0
   69.1232   50.4533   54.4416 C   0  0  0  0  0  0  0  0  0  0  0  0
   67.9514   44.3158   56.1696 O   0  0  0  0  0  0  0  0  0  0  0  0
   67.7758   42.9870   55.8853 C   0  0  0  0  0  0  0  0  0  0  0  0
   68.4393   42.0273   56.8173 C   0  0  0  0  0  0  0  0  0  0  0  0
   69.5322   42.2857   57.4774 C   0  0  0  0  0  0  0  0  0  0  0  0
   70.2280   41.3872   58.4044 C   0  0  0  0  0  0  0  0  0  0  0  0
   69.5939   40.1171   58.5555 N   0  0  0  0  0  0  0  0  0  0  0  0
   68.4017   39.8093   57.8477 C   0  0  0  0  0  0  0  0  0  0  0  0
   67.8534   38.5726   58.0435 F   0  0  0  0  0  0  0  0  0  0  0  0
   67.8542   40.6899   57.0359 C   0  0  0  0  0  0  0  0  0  0  0  0
  1  2  2  0
  2  3  1  0
  2  6  1  0
  3  4  1  0
  4  5  2  0
  5  6  1  0
  5 15  1  0
  6  7  1  0
  7  8  2  0
  7 12  1  0
  8  9  1  0
  9 10  2  0
 10 16  1  0
 10 11  1  0
 16 17  1  0
 17 18  1  0
 18 19  2  0
 18 24  1  0
 19 20  1  0
 20 21  1  0
 21 22  1  0
 22 23  1  0
 22 24  2  0
 11 12  2  0
 12 13  1  0
 13 14  1  0
 14 15  1  0
M  END
>  <minimizedAffinity>  (31) 
-9.47613

$$$$
cs_full_output_folder/data/smiles/8348.pdb
     RDKit          3D

 25 27  0  0  0  0  0  0  0  0999 V2000
   69.9570   43.3324   57.5800 C   0  0  0  0  0  0  0  0  0  0  0  0
   70.6438   44.3159   58.2423 C   0  0  0  0  0  0  0  0  0  0  0  0
   70.4092   45.6558   57.9034 C   0  0  0  0  0  0  0  0  0  0  0  0
   69.5394   45.9624   56.9562 N   0  0  0  0  0  0  0  0  0  0  0  0
   68.8597   44.9888   56.2989 C   0  0  0  0  0  0  0  0  0  0  0  0
   69.0931   43.7410   56.6313 N   0  0  0  0  0  0  0  0  0  0  0  0
   70.4174   39.1642   58.5281 C   0  0  0  0  0  0  0  0  0  0  0  0
   69.2041   39.7002   58.1577 C   0  0  0  0  0  0  0  0  0  0  0  0
   69.0779   41.0403   57.8574 C   0  0  0  0  0  0  0  0  0  0  0  0
   70.1581   41.9307   57.9084 C   0  0  0  0  0  0  0  0  0  0  0  0
   71.3621   41.3812   58.2801 C   0  0  0  0  0  0  0  0  0  0  0  0
   71.4893   40.0226   58.5842 C   0  0  0  0  0  0  0  0  0  0  0  0
   71.7556   35.5095   58.7215 C   0  0  0  0  0  0  0  0  0  0  0  0
   71.6044   36.9495   58.4058 C   0  0  0  0  0  0  0  0  0  0  0  0
   72.4905   37.5014   57.6822 O   0  0  0  0  0  0  0  0  0  0  0  0
   70.5535   37.7685   58.8417 N   0  0  0  0  0  0  0  0  0  0  0  0
   67.9025   45.3106   55.3039 N   0  0  0  0  0  0  0  0  0  0  0  0
   68.1685   45.9067   54.0583 C   0  0  0  0  0  0  0  0  0  0  0  0
   67.5508   45.4016   52.9073 C   0  0  0  0  0  0  0  0  0  0  0  0
   67.7395   45.9320   51.6557 C   0  0  0  0  0  0  0  0  0  0  0  0
   68.5800   47.0219   51.5046 C   0  0  0  0  0  0  0  0  0  0  0  0
   69.2051   47.5476   52.6110 C   0  0  0  0  0  0  0  0  0  0  0  0
   68.9865   46.9800   53.8638 C   0  0  0  0  0  0  0  0  0  0  0  0
   70.0991   48.7185   52.4117 C   0  0  0  0  0  0  0  0  0  0  0  0
   70.1516   49.1462   51.0964 O   0  0  0  0  0  0  0  0  0  0  0  0
 13 14  1  0
 14 15  2  0
 14 16  1  0
 16  7  1  0
  7  8  2  0
  7 12  1  0
  8  9  1  0
  9 10  2  0
 10  1  1  0
 10 11  1  0
  1  2  2  0
  1  6  1  0
  2  3  1  0
  3  4  2  0
  4  5  1  0
  5 17  1  0
  5  6  2  0
 17 18  1  0
 18 19  2  0
 18 23  1  0
 19 20  1  0
 20 21  2  0
 21 22  1  0
 22 24  1  0
 22 23  2  0
 24 25  1  0
 11 12  2  0
M  END
>  <minimizedAffinity>  (32) 
-9.46267

$$$$
cs_full_output_folder/data/smiles/633.pdb
     RDKit          3D

 24 27  0  0  0  0  0  0  0  0999 V2000
   69.9054   47.2520   50.9972 O   0  0  0  0  0  0  0  0  0  0  0  0
   69.7908   48.3001   51.6658 C   0  0  0  0  0  0  0  0  0  0  0  0
   70.0577   49.5278   51.1865 N   0  0  0  0  0  0  0  0  0  0  0  0
   69.8416   50.4399   52.1511 N   0  0  0  0  0  0  0  0  0  0  0  0
   69.4362   49.8087   53.2543 C   0  0  0  0  0  0  0  0  0  0  0  0
   69.4098   48.4941   52.9341 N   0  0  0  0  0  0  0  0  0  0  0  0
   69.0314   47.4554   53.8245 C   0  0  0  0  0  0  0  0  0  0  0  0
   68.5044   46.3892   53.1536 C   0  0  0  0  0  0  0  0  0  0  0  0
   68.1100   45.2841   53.8973 C   0  0  0  0  0  0  0  0  0  0  0  0
   68.2399   45.2565   55.2628 C   0  0  0  0  0  0  0  0  0  0  0  0
   68.7903   46.3831   55.9288 C   0  0  0  0  0  0  0  0  0  0  0  0
   69.1769   47.4654   55.2056 C   0  0  0  0  0  0  0  0  0  0  0  0
   69.6984   48.5465   56.0608 C   0  0  0  0  0  0  0  0  0  0  0  0
   69.2570   49.8571   55.6708 N   0  0  0  0  0  0  0  0  0  0  0  0
   69.1175   50.4588   54.5449 C   0  0  0  0  0  0  0  0  0  0  0  0
   67.8608   44.1819   55.9996 O   0  0  0  0  0  0  0  0  0  0  0  0
   67.5275   42.8983   55.8547 C   0  0  0  0  0  0  0  0  0  0  0  0
   68.2603   41.9042   56.7252 C   0  0  0  0  0  0  0  0  0  0  0  0
   69.4360   42.3408   57.3058 C   0  0  0  0  0  0  0  0  0  0  0  0
   70.1380   41.5010   58.1283 C   0  0  0  0  0  0  0  0  0  0  0  0
   69.6914   40.2147   58.3933 C   0  0  0  0  0  0  0  0  0  0  0  0
   68.5164   39.8062   57.8015 C   0  0  0  0  0  0  0  0  0  0  0  0
   68.0793   38.5332   58.0676 F   0  0  0  0  0  0  0  0  0  0  0  0
   67.8120   40.6462   56.9773 C   0  0  0  0  0  0  0  0  0  0  0  0
  1  2  2  0
  2  3  1  0
  2  6  1  0
  3  4  1  0
  4  5  2  0
  5  6  1  0
  5 15  1  0
  6  7  1  0
  7  8  2  0
  7 12  1  0
  8  9  1  0
  9 10  2  0
 10 16  1  0
 10 11  1  0
 16 17  1  0
 17 18  1  0
 18 19  2  0
 18 24  1  0
 19 20  1  0
 20 21  2  0
 21 22  1  0
 22 23  1  0
 22 24  2  0
 11 12  2  0
 12 13  1  0
 13 14  1  0
 14 15  2  0
M  END
>  <minimizedAffinity>  (33) 
-9.46180

$$$$
cs_full_output_folder/data/smiles/1920.pdb
     RDKit          3D

 25 27  0  0  0  0  0  0  0  0999 V2000
   68.7739   43.5752   56.7122 C   0  0  0  0  0  0  0  0  0  0  0  0
   69.5349   44.2829   57.4813 O   0  0  0  0  0  0  0  0  0  0  0  0
   68.1396   44.3270   55.7055 N   0  0  0  0  0  0  0  0  0  0  0  0
   70.3799   41.7199   58.8140 C   0  0  0  0  0  0  0  0  0  0  0  0
   69.3409   41.3605   57.8462 C   0  0  0  0  0  0  0  0  0  0  0  0
   68.6760   42.1588   56.9705 C   0  0  0  0  0  0  0  0  0  0  0  0
   67.7967   41.3021   56.2868 C   0  0  0  0  0  0  0  0  0  0  0  0
   67.9927   40.0850   56.7894 N   0  0  0  0  0  0  0  0  0  0  0  0
   68.9144   40.0773   57.7299 N   0  0  0  0  0  0  0  0  0  0  0  0
   69.3622   38.9475   58.4709 C   0  0  0  0  0  0  0  0  0  0  0  0
   70.5717   38.3365   58.2393 C   0  0  0  0  0  0  0  0  0  0  0  0
   71.0097   37.2454   58.9571 C   0  0  0  0  0  0  0  0  0  0  0  0
   70.2337   36.7115   59.9591 C   0  0  0  0  0  0  0  0  0  0  0  0
   69.0145   37.3009   60.2156 C   0  0  0  0  0  0  0  0  0  0  0  0
   68.5901   38.4003   59.4807 C   0  0  0  0  0  0  0  0  0  0  0  0
   68.2884   45.7585   55.4997 C   0  0  0  0  0  0  0  0  0  0  0  0
   68.3788   46.1570   54.0939 C   0  0  0  0  0  0  0  0  0  0  0  0
   67.6488   45.4986   53.1017 C   0  0  0  0  0  0  0  0  0  0  0  0
   67.7418   45.8871   51.8197 N   0  0  0  0  0  0  0  0  0  0  0  0
   68.5255   46.9104   51.4276 C   0  0  0  0  0  0  0  0  0  0  0  0
   69.2648   47.5906   52.3634 C   0  0  0  0  0  0  0  0  0  0  0  0
   69.1749   47.1952   53.6942 C   0  0  0  0  0  0  0  0  0  0  0  0
   70.1301   48.6994   52.0058 C   0  0  0  0  0  0  0  0  0  0  0  0
   71.2022   48.9301   52.6103 O   0  0  0  0  0  0  0  0  0  0  0  0
   69.8088   49.5665   50.9657 O   0  0  0  0  0  0  0  0  0  0  0  0
  4  5  1  0
  5  6  2  0
  5  9  1  0
  6  1  1  0
  6  7  1  0
  1  2  2  0
  1  3  1  0
  3 16  1  0
 16 17  1  0
 17 18  2  0
 17 22  1  0
 18 19  1  0
 19 20  2  0
 20 21  1  0
 21 23  1  0
 21 22  2  0
 23 24  2  0
 23 25  1  0
  7  8  2  0
  8  9  1  0
  9 10  1  0
 10 11  2  0
 10 15  1  0
 11 12  1  0
 12 13  2  0
 13 14  1  0
 14 15  2  0
M  END
>  <minimizedAffinity>  (34) 
-9.45992

$$$$
cs_full_output_folder/data/smiles/341.pdb
     RDKit          3D

 23 24  0  0  0  0  0  0  0  0999 V2000
   69.5593   47.7203   54.7875 C   0  0  0  0  0  0  0  0  0  0  0  0
   69.1543   47.6456   52.3211 C   0  0  0  0  0  0  0  0  0  0  0  0
   68.4025   47.0766   51.3213 N   0  0  0  0  0  0  0  0  0  0  0  0
   67.4859   46.1337   51.5626 C   0  0  0  0  0  0  0  0  0  0  0  0
   66.8027   45.6213   50.6273 O   0  0  0  0  0  0  0  0  0  0  0  0
   67.2574   45.6961   52.8079 N   0  0  0  0  0  0  0  0  0  0  0  0
   67.9528   46.2138   53.7978 C   0  0  0  0  0  0  0  0  0  0  0  0
   67.7449   45.8050   55.0052 O   0  0  0  0  0  0  0  0  0  0  0  0
   68.9266   47.2090   53.5953 C   0  0  0  0  0  0  0  0  0  0  0  0
   71.3133   48.6460   52.4036 O   0  0  0  0  0  0  0  0  0  0  0  0
   70.1766   48.6186   51.9527 C   0  0  0  0  0  0  0  0  0  0  0  0
   69.8020   49.5813   51.0040 O   0  0  0  0  0  0  0  0  0  0  0  0
   69.5117   49.1403   55.2007 C   0  0  0  0  0  0  0  0  0  0  0  0
   68.5568   49.6493   56.1131 C   0  0  0  0  0  0  0  0  0  0  0  0
   67.8722   48.6809   56.9113 C   0  0  0  0  0  0  0  0  0  0  0  0
   66.9572   49.0270   57.8616 C   0  0  0  0  0  0  0  0  0  0  0  0
   66.6752   50.3622   58.0623 C   0  0  0  0  0  0  0  0  0  0  0  0
   67.3305   51.2994   57.2946 C   0  0  0  0  0  0  0  0  0  0  0  0
   68.2793   50.9596   56.3088 C   0  0  0  0  0  0  0  0  0  0  0  0
   68.8206   52.0086   55.5197 C   0  0  0  0  0  0  0  0  0  0  0  0
   70.0259   52.0835   55.0203 F   0  0  0  0  0  0  0  0  0  0  0  0
   67.9208   52.2078   54.4201 F   0  0  0  0  0  0  0  0  0  0  0  0
   68.6359   53.2336   56.2153 F   0  0  0  0  0  0  0  0  0  0  0  0
 10 11  2  0
 11 12  1  0
 11  2  1  0
  2  3  1  0
  2  9  2  0
  3  4  1  0
  4  5  2  0
  4  6  1  0
  6  7  1  0
  7  8  2  0
  7  9  1  0
  9  1  1  0
  1 13  1  0
 13 14  1  0
 14 15  2  0
 14 19  1  0
 15 16  1  0
 16 17  2  0
 17 18  1  0
 18 19  2  0
 19 20  1  0
 20 21  1  0
 20 22  1  0
 20 23  1  0
M  END
>  <minimizedAffinity>  (35) 
-9.43158

$$$$
cs_full_output_folder/data/smiles/3771.pdb
     RDKit          3D

 23 26  0  0  0  0  0  0  0  0999 V2000
   69.7952   47.2724   51.0420 O   0  0  0  0  0  0  0  0  0  0  0  0
   69.7522   48.3175   51.7093 C   0  0  0  0  0  0  0  0  0  0  0  0
   70.0510   49.5406   51.2436 N   0  0  0  0  0  0  0  0  0  0  0  0
   69.9135   50.4427   52.1966 N   0  0  0  0  0  0  0  0  0  0  0  0
   69.5095   49.7962   53.3351 C   0  0  0  0  0  0  0  0  0  0  0  0
   69.4216   48.4988   52.9924 N   0  0  0  0  0  0  0  0  0  0  0  0
   69.0399   47.4622   53.8829 C   0  0  0  0  0  0  0  0  0  0  0  0
   68.4905   46.4047   53.2342 C   0  0  0  0  0  0  0  0  0  0  0  0
   68.0968   45.2925   53.9689 C   0  0  0  0  0  0  0  0  0  0  0  0
   68.2294   45.1965   55.3213 C   0  0  0  0  0  0  0  0  0  0  0  0
   68.8022   46.3115   55.9775 C   0  0  0  0  0  0  0  0  0  0  0  0
   69.1873   47.3952   55.2715 C   0  0  0  0  0  0  0  0  0  0  0  0
   69.7282   48.5401   56.0917 C   0  0  0  0  0  0  0  0  0  0  0  0
   68.8659   49.7471   55.7574 C   0  0  0  0  0  0  0  0  0  0  0  0
   69.2913   50.5350   54.5897 C   0  0  0  0  0  0  0  0  0  0  0  0
   67.8743   44.1548   56.0964 O   0  0  0  0  0  0  0  0  0  0  0  0
   67.6588   42.8325   56.0078 C   0  0  0  0  0  0  0  0  0  0  0  0
   68.4055   41.8889   56.8192 C   0  0  0  0  0  0  0  0  0  0  0  0
   69.6091   42.1895   57.4182 C   0  0  0  0  0  0  0  0  0  0  0  0
   70.3020   41.3056   58.1971 C   0  0  0  0  0  0  0  0  0  0  0  0
   69.7875   40.0454   58.4070 C   0  0  0  0  0  0  0  0  0  0  0  0
   68.5989   39.7100   57.8317 C   0  0  0  0  0  0  0  0  0  0  0  0
   67.9109   40.6294   57.0417 C   0  0  0  0  0  0  0  0  0  0  0  0
  1  2  2  0
  2  3  1  0
  2  6  1  0
  3  4  1  0
  4  5  2  0
  5  6  1  0
  5 15  1  0
  6  7  1  0
  7  8  2  0
  7 12  1  0
  8  9  1  0
  9 10  2  0
 10 16  1  0
 10 11  1  0
 16 17  1  0
 17 18  1  0
 18 19  2  0
 18 23  1  0
 19 20  1  0
 20 21  2  0
 21 22  1  0
 22 23  2  0
 11 12  2  0
 12 13  1  0
 13 14  1  0
 14 15  1  0
M  END
>  <minimizedAffinity>  (36) 
-9.43017

$$$$
cs_full_output_folder/data/smiles/9004.pdb
     RDKit          3D

 25 27  0  0  0  0  0  0  0  0999 V2000
   70.2707   44.7183   57.7905 C   0  0  0  0  0  0  0  0  0  0  0  0
   69.9749   43.3947   57.6394 C   0  0  0  0  0  0  0  0  0  0  0  0
   68.9629   42.9750   56.7561 C   0  0  0  0  0  0  0  0  0  0  0  0
   68.3233   43.9331   56.0881 N   0  0  0  0  0  0  0  0  0  0  0  0
   68.5920   45.2746   56.2142 C   0  0  0  0  0  0  0  0  0  0  0  0
   69.5575   45.6132   57.0612 N   0  0  0  0  0  0  0  0  0  0  0  0
   72.4968   44.8507   60.5168 C   0  0  0  0  0  0  0  0  0  0  0  0
   72.2154   44.3400   59.3215 C   0  0  0  0  0  0  0  0  0  0  0  0
   71.3205   45.1074   58.7033 C   0  0  0  0  0  0  0  0  0  0  0  0
   71.6651   46.4645   59.1841 C   0  0  0  0  0  0  0  0  0  0  0  0
   72.3911   46.2775   60.3071 C   0  0  0  0  0  0  0  0  0  0  0  0
   72.1160   42.6798   63.6840 C   0  0  0  0  0  0  0  0  0  0  0  0
   71.8225   43.4962   62.4917 C   0  0  0  0  0  0  0  0  0  0  0  0
   70.6142   43.7112   62.2067 O   0  0  0  0  0  0  0  0  0  0  0  0
   72.8068   44.0634   61.6347 N   0  0  0  0  0  0  0  0  0  0  0  0
   67.8067   46.1197   55.4153 N   0  0  0  0  0  0  0  0  0  0  0  0
   68.1286   46.4264   54.0800 C   0  0  0  0  0  0  0  0  0  0  0  0
   67.5419   45.6828   53.0560 C   0  0  0  0  0  0  0  0  0  0  0  0
   67.8467   45.9587   51.7693 C   0  0  0  0  0  0  0  0  0  0  0  0
   68.7385   46.9781   51.4573 C   0  0  0  0  0  0  0  0  0  0  0  0
   69.3248   47.7223   52.4698 C   0  0  0  0  0  0  0  0  0  0  0  0
   69.0080   47.4338   53.7913 C   0  0  0  0  0  0  0  0  0  0  0  0
   70.2443   48.7887   52.1007 C   0  0  0  0  0  0  0  0  0  0  0  0
   71.3280   49.1803   52.9334 N   0  0  0  0  0  0  0  0  0  0  0  0
   70.0610   49.3782   50.9990 O   0  0  0  0  0  0  0  0  0  0  0  0
 12 13  1  0
 13 14  2  0
 13 15  1  0
 15  7  1  0
  7  8  2  0
  7 11  1  0
  8  9  2  0
  9  1  1  0
  9 10  1  0
  1  2  2  0
  1  6  1  0
  2  3  1  0
  3  4  2  0
  4  5  1  0
  5 16  1  0
  5  6  2  0
 16 17  1  0
 17 18  2  0
 17 22  1  0
 18 19  1  0
 19 20  2  0
 20 21  1  0
 21 23  1  0
 21 22  2  0
 23 24  1  0
 23 25  2  0
 10 11  2  0
M  END
>  <minimizedAffinity>  (37) 
-9.42608

$$$$
cs_full_output_folder/data/smiles/6743.pdb
     RDKit          3D

 25 27  0  0  0  0  0  0  0  0999 V2000
   68.9297   43.9686   56.6205 N   0  0  0  0  0  0  0  0  0  0  0  0
   68.2503   42.7332   56.6764 C   0  0  0  0  0  0  0  0  0  0  0  0
   67.1000   42.7045   56.1354 O   0  0  0  0  0  0  0  0  0  0  0  0
   68.7578   41.5186   57.2927 C   0  0  0  0  0  0  0  0  0  0  0  0
   67.9958   40.3704   57.2592 C   0  0  0  0  0  0  0  0  0  0  0  0
   68.4366   39.1798   57.8317 C   0  0  0  0  0  0  0  0  0  0  0  0
   69.6600   39.1070   58.4584 C   0  0  0  0  0  0  0  0  0  0  0  0
   70.4245   40.2477   58.4968 C   0  0  0  0  0  0  0  0  0  0  0  0
   69.9740   41.4270   57.9223 C   0  0  0  0  0  0  0  0  0  0  0  0
   70.1303   37.8591   59.0644 C   0  0  0  0  0  0  0  0  0  0  0  0
   71.2306   37.1916   58.5695 C   0  0  0  0  0  0  0  0  0  0  0  0
   71.6704   36.0156   59.1442 C   0  0  0  0  0  0  0  0  0  0  0  0
   71.0362   35.4556   60.2324 C   0  0  0  0  0  0  0  0  0  0  0  0
   69.9366   36.1184   60.7327 C   0  0  0  0  0  0  0  0  0  0  0  0
   69.4928   37.3029   60.1549 C   0  0  0  0  0  0  0  0  0  0  0  0
   69.9858   46.4567   56.9991 O   0  0  0  0  0  0  0  0  0  0  0  0
   68.9876   46.3914   56.2364 C   0  0  0  0  0  0  0  0  0  0  0  0
   68.4184   45.1173   56.0212 N   0  0  0  0  0  0  0  0  0  0  0  0
   68.4888   47.6402   55.6296 C   0  0  0  0  0  0  0  0  0  0  0  0
   68.9680   47.7851   54.2337 C   0  0  0  0  0  0  0  0  0  0  0  0
   69.8047   48.7932   53.8651 C   0  0  0  0  0  0  0  0  0  0  0  0
   70.2420   48.9065   52.5500 C   0  0  0  0  0  0  0  0  0  0  0  0
   69.8160   47.9781   51.6109 C   0  0  0  0  0  0  0  0  0  0  0  0
   68.9668   46.9441   51.9536 C   0  0  0  0  0  0  0  0  0  0  0  0
   68.5553   46.8645   53.2665 C   0  0  0  0  0  0  0  0  0  0  0  0
 16 17  2  0
 17 19  1  0
 17 18  1  0
 19 20  1  0
 20 21  2  0
 20 25  1  0
 21 22  1  0
 22 23  2  0
 23 24  1  0
 24 25  2  0
 18  1  1  0
  1  2  1  0
  2  3  2  0
  2  4  1  0
  4  5  2  0
  4  9  1  0
  5  6  1  0
  6  7  2  0
  7 10  1  0
  7  8  1  0
 10 11  2  0
 10 15  1  0
 11 12  1  0
 12 13  2  0
 13 14  1  0
 14 15  2  0
  8  9  2  0
M  END
>  <minimizedAffinity>  (38) 
-9.42419

$$$$
cs_full_output_folder/data/smiles/466.pdb
     RDKit          3D

 26 29  0  0  0  0  0  0  0  0999 V2000
   69.2451   47.6632   56.1304 N   0  0  0  0  0  0  0  0  0  0  0  0
   69.6740   48.6410   55.2973 C   0  0  0  0  0  0  0  0  0  0  0  0
   69.4915   48.5680   53.9218 C   0  0  0  0  0  0  0  0  0  0  0  0
   68.8586   47.4883   53.3326 C   0  0  0  0  0  0  0  0  0  0  0  0
   68.6654   47.3925   51.9622 C   0  0  0  0  0  0  0  0  0  0  0  0
   68.0319   46.3106   51.3849 C   0  0  0  0  0  0  0  0  0  0  0  0
   67.5934   45.3157   52.2338 C   0  0  0  0  0  0  0  0  0  0  0  0
   67.7872   45.4116   53.5965 C   0  0  0  0  0  0  0  0  0  0  0  0
   68.4220   46.4981   54.1751 C   0  0  0  0  0  0  0  0  0  0  0  0
   68.6204   46.6061   55.5266 C   0  0  0  0  0  0  0  0  0  0  0  0
   68.1921   45.6576   56.2742 O   0  0  0  0  0  0  0  0  0  0  0  0
   70.0403   49.7525   53.2776 C   0  0  0  0  0  0  0  0  0  0  0  0
   70.0732   50.0596   52.0588 O   0  0  0  0  0  0  0  0  0  0  0  0
   70.5840   50.5851   54.3392 C   0  0  0  0  0  0  0  0  0  0  0  0
   71.2199   51.8235   54.3249 C   0  0  0  0  0  0  0  0  0  0  0  0
   71.6422   52.4152   55.4854 C   0  0  0  0  0  0  0  0  0  0  0  0
   71.4107   51.7364   56.6507 C   0  0  0  0  0  0  0  0  0  0  0  0
   70.7772   50.4946   56.7064 C   0  0  0  0  0  0  0  0  0  0  0  0
   70.3557   49.9047   55.5419 C   0  0  0  0  0  0  0  0  0  0  0  0
   69.4069   47.6607   57.5488 C   0  0  0  0  0  0  0  0  0  0  0  0
   70.4361   46.7658   58.1216 C   0  0  2  0  0  0  0  0  0  0  0  0
   69.9992   45.7178   58.9128 O   0  0  0  0  0  0  0  0  0  0  0  0
   71.5418   47.4384   58.9034 C   0  0  0  0  0  0  0  0  0  0  0  0
   73.0179   47.9106   62.0208 N   0  0  0  0  0  0  0  0  0  0  0  0
   72.2342   47.7052   61.0701 N   0  0  0  0  0  0  0  0  0  0  0  0
   71.4931   47.0550   60.3016 N   0  0  0  0  0  0  0  0  0  0  0  0
 24 25  2  0
 25 26  2  0
 26 23  1  0
 23 21  1  0
 21 22  1  1
 21 20  1  0
 20  1  1  0
  1  2  1  0
  1 10  1  0
  2  3  2  0
  2 19  1  0
  3  4  1  0
  3 12  1  0
  4  5  1  0
  4  9  2  0
  5  6  2  0
  6  7  1  0
  7  8  2  0
  8  9  1  0
  9 10  1  0
 10 11  2  0
 12 13  2  0
 12 14  1  0
 14 15  1  0
 14 19  2  0
 15 16  2  0
 16 17  1  0
 17 18  2  0
 18 19  1  0
M  CHG  2  24  -1  25   1
M  END
>  <minimizedAffinity>  (39) 
-9.42010

$$$$
cs_full_output_folder/data/smiles/2827.pdb
     RDKit          3D

 23 26  0  0  0  0  0  0  0  0999 V2000
   69.9664   49.5163   53.5168 C   0  0  0  0  0  0  0  0  0  0  0  0
   70.0376   50.0532   52.2742 N   0  0  0  0  0  0  0  0  0  0  0  0
   69.5405   49.1774   51.4313 N   0  0  0  0  0  0  0  0  0  0  0  0
   69.1355   48.0629   52.0760 C   0  0  0  0  0  0  0  0  0  0  0  0
   68.5575   46.8885   51.6117 C   0  0  0  0  0  0  0  0  0  0  0  0
   68.2435   45.9013   52.5213 C   0  0  0  0  0  0  0  0  0  0  0  0
   68.4912   46.0535   53.8792 C   0  0  0  0  0  0  0  0  0  0  0  0
   69.0646   47.2359   54.2805 C   0  0  0  0  0  0  0  0  0  0  0  0
   69.3976   48.2554   53.4172 C   0  0  0  0  0  0  0  0  0  0  0  0
   68.1427   44.9811   54.8009 C   0  0  0  0  0  0  0  0  0  0  0  0
   68.5803   44.7771   56.0524 N   0  0  0  0  0  0  0  0  0  0  0  0
   68.0137   43.6721   56.5625 N   0  0  0  0  0  0  0  0  0  0  0  0
   67.2220   43.1825   55.6323 N   0  0  0  0  0  0  0  0  0  0  0  0
   67.2925   43.9694   54.5573 N   0  0  0  0  0  0  0  0  0  0  0  0
   70.4104   50.1499   54.7547 C   0  0  0  0  0  0  0  0  0  0  0  0
   70.1078   49.4490   56.0306 C   0  0  0  0  0  0  0  0  0  0  0  0
   68.4228   47.4867   57.4935 N   0  0  0  0  0  0  0  0  0  0  0  0
   68.0672   48.8525   57.3562 C   0  0  0  0  0  0  0  0  0  0  0  0
   66.8655   49.2300   57.9552 C   0  0  0  0  0  0  0  0  0  0  0  0
   66.4165   50.5286   57.8674 C   0  0  0  0  0  0  0  0  0  0  0  0
   67.1724   51.4413   57.1818 C   0  0  0  0  0  0  0  0  0  0  0  0
   68.3422   51.0605   56.6017 C   0  0  0  0  0  0  0  0  0  0  0  0
   68.8352   49.7515   56.6667 C   0  0  0  0  0  0  0  0  0  0  0  0
 17 18  1  0
 18 19  2  0
 18 23  1  0
 19 20  1  0
 20 21  2  0
 21 22  1  0
 22 23  2  0
 23 16  1  0
 16 15  1  0
 15  1  1  0
  1  2  2  0
  1  9  1  0
  2  3  1  0
  3  4  1  0
  4  5  1  0
  4  9  2  0
  5  6  2  0
  6  7  1  0
  7 10  1  0
  7  8  2  0
 10 11  2  0
 10 14  1  0
 11 12  1  0
 12 13  2  0
 13 14  1  0
  8  9  1  0
M  END
>  <minimizedAffinity>  (40) 
-9.41939

$$$$
cs_full_output_folder/data/smiles/513.pdb
     RDKit          3D

 23 25  0  0  0  0  0  0  0  0999 V2000
   68.5808   44.6055   56.3864 C   0  0  0  0  0  0  0  0  0  0  0  0
   67.8900   43.4740   56.1723 N   0  0  0  0  0  0  0  0  0  0  0  0
   68.2821   42.2740   56.6539 C   0  0  0  0  0  0  0  0  0  0  0  0
   69.4303   42.1592   57.4010 C   0  0  0  0  0  0  0  0  0  0  0  0
   70.1539   43.3288   57.6282 C   0  0  0  0  0  0  0  0  0  0  0  0
   69.7114   44.4904   57.1218 N   0  0  0  0  0  0  0  0  0  0  0  0
   69.9190   40.9067   57.9560 C   0  0  0  0  0  0  0  0  0  0  0  0
   71.2296   40.6905   58.3131 C   0  0  0  0  0  0  0  0  0  0  0  0
   71.6706   39.4858   58.8267 C   0  0  0  0  0  0  0  0  0  0  0  0
   70.7925   38.4207   59.0077 C   0  0  0  0  0  0  0  0  0  0  0  0
   69.4761   38.6254   58.6541 C   0  0  0  0  0  0  0  0  0  0  0  0
   69.0447   39.8273   58.1439 C   0  0  0  0  0  0  0  0  0  0  0  0
   68.1736   45.8826   55.8947 N   0  0  0  0  0  0  0  0  0  0  0  0
   69.1622   47.7942   52.8148 C   0  0  0  0  0  0  0  0  0  0  0  0
   68.6264   46.9801   51.8382 C   0  0  0  0  0  0  0  0  0  0  0  0
   67.9473   45.8232   52.1758 C   0  0  0  0  0  0  0  0  0  0  0  0
   67.7840   45.4485   53.5130 C   0  0  0  0  0  0  0  0  0  0  0  0
   68.3129   46.2503   54.5047 C   0  0  0  0  0  0  0  0  0  0  0  0
   68.9814   47.3897   54.1345 C   0  0  0  0  0  0  0  0  0  0  0  0
   69.3102   50.5595   53.2928 N   0  0  0  0  0  0  0  0  0  0  0  0
   70.0316   49.2609   52.4305 S   0  0  0  0  0  0  0  0  0  0  0  0
   71.4807   49.1214   52.8630 O   0  0  0  0  0  0  0  0  0  0  0  0
   69.9669   49.4737   50.9338 O   0  0  0  0  0  0  0  0  0  0  0  0
 20 21  1  0
 21 22  2  0
 21 23  2  0
 21 14  1  0
 14 15  2  0
 14 19  1  0
 15 16  1  0
 16 17  2  0
 17 18  1  0
 18 13  1  0
 18 19  2  0
 13  1  1  0
  1  2  2  0
  1  6  1  0
  2  3  1  0
  3  4  2  0
  4  7  1  0
  4  5  1  0
  7  8  2  0
  7 12  1  0
  8  9  1  0
  9 10  2  0
 10 11  1  0
 11 12  2  0
  5  6  2  0
M  END
>  <minimizedAffinity>  (41) 
-9.40862

$$$$
cs_full_output_folder/data/smiles/526.pdb
     RDKit          3D

 23 26  0  0  0  0  0  0  0  0999 V2000
   69.8248   47.2130   51.0370 O   0  0  0  0  0  0  0  0  0  0  0  0
   69.7537   48.3077   51.6266 C   0  0  0  0  0  0  0  0  0  0  0  0
   70.0046   49.5496   51.1118 N   0  0  0  0  0  0  0  0  0  0  0  0
   69.8262   50.4678   52.0449 N   0  0  0  0  0  0  0  0  0  0  0  0
   69.4567   49.8713   53.1914 C   0  0  0  0  0  0  0  0  0  0  0  0
   69.4215   48.5456   52.8926 N   0  0  0  0  0  0  0  0  0  0  0  0
   69.0714   47.5382   53.8296 C   0  0  0  0  0  0  0  0  0  0  0  0
   68.5034   46.4619   53.2068 C   0  0  0  0  0  0  0  0  0  0  0  0
   68.1364   45.4040   53.9925 C   0  0  0  0  0  0  0  0  0  0  0  0
   68.3063   45.3594   55.3955 C   0  0  0  0  0  0  0  0  0  0  0  0
   68.8855   46.4840   55.9490 C   0  0  0  0  0  0  0  0  0  0  0  0
   69.2675   47.5581   55.2156 C   0  0  0  0  0  0  0  0  0  0  0  0
   69.8417   48.7169   55.9563 C   0  0  0  0  0  0  0  0  0  0  0  0
   68.9519   49.9047   55.6610 C   0  0  0  0  0  0  0  0  0  0  0  0
   69.2066   50.6284   54.4025 C   0  0  0  0  0  0  0  0  0  0  0  0
   67.9191   44.2782   56.0931 O   0  0  0  0  0  0  0  0  0  0  0  0
   67.6558   42.9850   55.8283 C   0  0  0  0  0  0  0  0  0  0  0  0
   68.2659   41.9391   56.6826 C   0  0  0  0  0  0  0  0  0  0  0  0
   67.7815   40.6702   56.8473 C   0  0  0  0  0  0  0  0  0  0  0  0
   68.3795   39.7115   57.6416 C   0  0  0  0  0  0  0  0  0  0  0  0
   69.5401   40.0399   58.3181 C   0  0  0  0  0  0  0  0  0  0  0  0
   70.0708   41.3088   58.1862 C   0  0  0  0  0  0  0  0  0  0  0  0
   69.4477   42.2402   57.3846 C   0  0  0  0  0  0  0  0  0  0  0  0
  1  2  2  0
  2  3  1  0
  2  6  1  0
  3  4  1  0
  4  5  2  0
  5  6  1  0
  5 15  1  0
  6  7  1  0
  7  8  2  0
  7 12  1  0
  8  9  1  0
  9 10  2  0
 10 16  1  0
 10 11  1  0
 16 17  1  0
 17 18  1  0
 18 19  2  0
 18 23  1  0
 19 20  1  0
 20 21  2  0
 21 22  1  0
 22 23  2  0
 11 12  2  0
 12 13  1  0
 13 14  1  0
 14 15  1  0
M  END
>  <minimizedAffinity>  (42) 
-9.40599

$$$$
cs_full_output_folder/data/smiles/4137.pdb
     RDKit          3D

 26 29  0  0  0  0  0  0  0  0999 V2000
   69.2264   47.6959   56.1202 N   0  0  0  0  0  0  0  0  0  0  0  0
   69.6656   48.6871   55.3322 C   0  0  0  0  0  0  0  0  0  0  0  0
   69.4971   48.6315   53.9413 C   0  0  0  0  0  0  0  0  0  0  0  0
   68.8644   47.5414   53.3430 C   0  0  0  0  0  0  0  0  0  0  0  0
   68.6754   47.4461   51.9753 C   0  0  0  0  0  0  0  0  0  0  0  0
   68.0408   46.3475   51.3899 C   0  0  0  0  0  0  0  0  0  0  0  0
   67.6005   45.3466   52.2276 C   0  0  0  0  0  0  0  0  0  0  0  0
   67.7918   45.4471   53.5951 C   0  0  0  0  0  0  0  0  0  0  0  0
   68.4214   46.5378   54.1690 C   0  0  0  0  0  0  0  0  0  0  0  0
   68.6182   46.6501   55.5212 C   0  0  0  0  0  0  0  0  0  0  0  0
   68.1709   45.6601   56.2033 O   0  0  0  0  0  0  0  0  0  0  0  0
   70.0498   49.8125   53.3147 C   0  0  0  0  0  0  0  0  0  0  0  0
   70.0690   50.0890   52.0694 O   0  0  0  0  0  0  0  0  0  0  0  0
   70.5834   50.6287   54.3920 C   0  0  0  0  0  0  0  0  0  0  0  0
   71.2129   51.8529   54.3315 C   0  0  0  0  0  0  0  0  0  0  0  0
   71.6355   52.4413   55.5073 C   0  0  0  0  0  0  0  0  0  0  0  0
   71.4138   51.7838   56.7186 C   0  0  0  0  0  0  0  0  0  0  0  0
   70.7806   50.5567   56.7627 C   0  0  0  0  0  0  0  0  0  0  0  0
   70.3576   49.9622   55.5995 C   0  0  0  0  0  0  0  0  0  0  0  0
   69.4117   47.6963   57.5282 C   0  0  0  0  0  0  0  0  0  0  0  0
   70.5367   46.8553   58.0591 C   0  0  2  0  0  0  0  0  0  0  0  0
   69.8859   45.8640   58.8547 O   0  0  0  0  0  0  0  0  0  0  0  0
   71.5626   47.5672   58.8650 C   0  0  0  0  0  0  0  0  0  0  0  0
   73.0176   47.9255   61.9901 N   0  0  0  0  0  0  0  0  0  0  0  0
   72.1938   47.6107   61.1044 N   0  0  0  0  0  0  0  0  0  0  0  0
   71.4691   47.1154   60.2388 N   0  0  0  0  0  0  0  0  0  0  0  0
 24 25  2  0
 25 26  2  0
 26 23  1  0
 23 21  1  0
 21 22  1  1
 21 20  1  0
 20  1  1  0
  1  2  1  0
  1 10  1  0
  2  3  2  0
  2 19  1  0
  3  4  1  0
  3 12  1  0
  4  5  1  0
  4  9  2  0
  5  6  2  0
  6  7  1  0
  7  8  2  0
  8  9  1  0
  9 10  1  0
 10 11  2  0
 12 13  2  0
 12 14  1  0
 14 15  1  0
 14 19  2  0
 15 16  2  0
 16 17  1  0
 17 18  2  0
 18 19  1  0
M  CHG  2  24  -1  25   1
M  END
>  <minimizedAffinity>  (43) 
-9.40443

$$$$
cs_full_output_folder/data/smiles/3698.pdb
     RDKit          3D

 25 28  0  0  0  0  0  0  0  0999 V2000
   70.0402   50.9039   54.3642 C   0  0  0  0  0  0  0  0  0  0  0  0
   68.7533   51.4266   54.5658 C   0  0  0  0  0  0  0  0  0  0  0  0
   68.5586   52.5628   55.3122 C   0  0  0  0  0  0  0  0  0  0  0  0
   69.6300   53.2208   55.8858 C   0  0  0  0  0  0  0  0  0  0  0  0
   69.4779   54.3417   56.6295 F   0  0  0  0  0  0  0  0  0  0  0  0
   70.9091   52.7402   55.7130 C   0  0  0  0  0  0  0  0  0  0  0  0
   71.0741   51.5785   54.9440 C   0  0  0  0  0  0  0  0  0  0  0  0
   72.0487   53.4198   56.3090 C   0  0  0  0  0  0  0  0  0  0  0  0
   72.8793   54.1958   55.5317 C   0  0  0  0  0  0  0  0  0  0  0  0
   73.9712   54.8437   56.1202 C   0  0  0  0  0  0  0  0  0  0  0  0
   74.2262   54.7233   57.4364 N   0  0  0  0  0  0  0  0  0  0  0  0
   73.4289   53.9688   58.2225 C   0  0  0  0  0  0  0  0  0  0  0  0
   72.3492   53.3252   57.6486 C   0  0  0  0  0  0  0  0  0  0  0  0
   70.2101   49.7068   53.5368 C   0  0  0  0  0  0  0  0  0  0  0  0
   68.2064   45.2817   56.1252 O   0  0  0  0  0  0  0  0  0  0  0  0
   68.6258   46.2677   55.4699 C   0  0  0  0  0  0  0  0  0  0  0  0
   69.2632   47.2572   56.1257 N   0  0  0  0  0  0  0  0  0  0  0  0
   69.7313   48.3187   55.5140 N   0  0  0  0  0  0  0  0  0  0  0  0
   69.6088   48.5033   54.1579 C   0  0  0  0  0  0  0  0  0  0  0  0
   68.9606   47.5031   53.4747 C   0  0  0  0  0  0  0  0  0  0  0  0
   68.7731   47.6054   52.1256 C   0  0  0  0  0  0  0  0  0  0  0  0
   68.1043   46.5979   51.4266 C   0  0  0  0  0  0  0  0  0  0  0  0
   67.6097   45.4762   52.0625 C   0  0  0  0  0  0  0  0  0  0  0  0
   67.7907   45.3635   53.4214 C   0  0  0  0  0  0  0  0  0  0  0  0
   68.4523   46.3610   54.1039 C   0  0  0  0  0  0  0  0  0  0  0  0
 15 16  2  0
 16 17  1  0
 16 25  1  0
 17 18  1  0
 18 19  2  0
 19 14  1  0
 19 20  1  0
 14  1  1  0
  1  2  2  0
  1  7  1  0
  2  3  1  0
  3  4  2  0
  4  5  1  0
  4  6  1  0
  6  8  1  0
  6  7  2  0
  8  9  2  0
  8 13  1  0
  9 10  1  0
 10 11  2  0
 11 12  1  0
 12 13  2  0
 20 21  1  0
 20 25  2  0
 21 22  2  0
 22 23  1  0
 23 24  2  0
 24 25  1  0
M  END
>  <minimizedAffinity>  (44) 
-9.40024

$$$$
cs_full_output_folder/data/smiles/3731.pdb
     RDKit          3D

 23 25  0  0  0  0  0  0  0  0999 V2000
   69.0046   46.1402   56.6241 C   0  0  0  0  0  0  0  0  0  0  0  0
   69.7521   47.0999   57.2609 C   0  0  0  0  0  0  0  0  0  0  0  0
   70.7740   46.7421   58.1156 C   0  0  0  0  0  0  0  0  0  0  0  0
   71.0239   45.4163   58.3152 N   0  0  0  0  0  0  0  0  0  0  0  0
   70.2987   44.4826   57.6977 C   0  0  0  0  0  0  0  0  0  0  0  0
   69.3105   44.8541   56.8715 N   0  0  0  0  0  0  0  0  0  0  0  0
   70.5623   43.0643   57.9084 C   0  0  0  0  0  0  0  0  0  0  0  0
   71.8262   42.6019   58.2080 C   0  0  0  0  0  0  0  0  0  0  0  0
   72.1012   41.2651   58.4128 C   0  0  0  0  0  0  0  0  0  0  0  0
   71.0934   40.3260   58.3217 C   0  0  0  0  0  0  0  0  0  0  0  0
   69.8280   40.7875   58.0234 C   0  0  0  0  0  0  0  0  0  0  0  0
   68.5544   39.5829   57.9109 Cl  0  0  0  0  0  0  0  0  0  0  0  0
   69.5574   42.1235   57.8195 C   0  0  0  0  0  0  0  0  0  0  0  0
   67.9542   46.4652   55.7443 O   0  0  0  0  0  0  0  0  0  0  0  0
   69.3255   47.7824   52.5718 C   0  0  0  0  0  0  0  0  0  0  0  0
   68.7304   46.8848   51.6968 C   0  0  0  0  0  0  0  0  0  0  0  0
   67.9000   45.8766   52.1635 C   0  0  0  0  0  0  0  0  0  0  0  0
   67.6317   45.7243   53.5069 C   0  0  0  0  0  0  0  0  0  0  0  0
   68.2174   46.6095   54.3889 C   0  0  0  0  0  0  0  0  0  0  0  0
   69.0426   47.6108   53.9190 C   0  0  0  0  0  0  0  0  0  0  0  0
   69.8150   49.6534   51.0141 N   0  0  0  0  0  0  0  0  0  0  0  0
   70.1948   48.8387   52.0891 C   0  0  0  0  0  0  0  0  0  0  0  0
   71.2972   49.0174   52.6459 O   0  0  0  0  0  0  0  0  0  0  0  0
 21 22  1  0
 22 23  2  0
 22 15  1  0
 15 16  2  0
 15 20  1  0
 16 17  1  0
 17 18  2  0
 18 19  1  0
 19 14  1  0
 19 20  2  0
 14  1  1  0
  1  2  2  0
  1  6  1  0
  2  3  1  0
  3  4  2  0
  4  5  1  0
  5  7  1  0
  5  6  2  0
  7  8  2  0
  7 13  1  0
  8  9  1  0
  9 10  2  0
 10 11  1  0
 11 12  1  0
 11 13  2  0
M  END
>  <minimizedAffinity>  (45) 
-9.39722

$$$$
cs_full_output_folder/data/smiles/6295.pdb
     RDKit          3D

 25 27  0  0  0  0  0  0  0  0999 V2000
   70.5243   45.1542   58.2836 C   0  0  0  0  0  0  0  0  0  0  0  0
   70.6923   45.9068   59.2463 O   0  0  0  0  0  0  0  0  0  0  0  0
   69.6012   45.5613   57.2509 N   0  0  0  0  0  0  0  0  0  0  0  0
   71.7083   41.6690   58.2718 C   0  0  0  0  0  0  0  0  0  0  0  0
   70.7517   42.6314   58.5145 C   0  0  0  0  0  0  0  0  0  0  0  0
   71.2328   43.8803   58.1748 C   0  0  0  0  0  0  0  0  0  0  0  0
   72.4814   43.6561   57.7281 N   0  0  0  0  0  0  0  0  0  0  0  0
   72.7571   42.3553   57.7863 N   0  0  0  0  0  0  0  0  0  0  0  0
   71.4204   35.9576   59.1335 C   0  0  0  0  0  0  0  0  0  0  0  0
   71.4925   37.4299   58.9108 C   0  0  0  0  0  0  0  0  0  0  0  0
   72.6857   38.1160   58.9989 C   0  0  0  0  0  0  0  0  0  0  0  0
   72.7362   39.4793   58.7895 C   0  0  0  0  0  0  0  0  0  0  0  0
   71.6194   40.2261   58.4870 C   0  0  0  0  0  0  0  0  0  0  0  0
   70.4256   39.5470   58.3982 C   0  0  0  0  0  0  0  0  0  0  0  0
   70.3690   38.1684   58.6088 C   0  0  0  0  0  0  0  0  0  0  0  0
   68.8982   46.7088   57.2499 N   0  0  0  0  0  0  0  0  0  0  0  0
   68.4978   47.4998   56.3797 C   0  0  0  0  0  0  0  0  0  0  0  0
   68.7192   47.3662   54.9520 C   0  0  0  0  0  0  0  0  0  0  0  0
   68.1443   46.3802   54.1943 C   0  0  0  0  0  0  0  0  0  0  0  0
   68.3966   46.3099   52.8458 C   0  0  0  0  0  0  0  0  0  0  0  0
   69.2195   47.2091   52.2128 C   0  0  0  0  0  0  0  0  0  0  0  0
   69.4615   47.1206   50.8431 O   0  0  0  0  0  0  0  0  0  0  0  0
   69.8028   48.2017   52.9529 C   0  0  0  0  0  0  0  0  0  0  0  0
   70.6335   49.0972   52.2752 O   0  0  0  0  0  0  0  0  0  0  0  0
   69.5554   48.2704   54.2828 C   0  0  0  0  0  0  0  0  0  0  0  0
  9 10  1  0
 10 11  2  0
 10 15  1  0
 11 12  1  0
 12 13  2  0
 13  4  1  0
 13 14  1  0
  4  5  1  0
  4  8  2  0
  5  6  2  0
  6  1  1  0
  6  7  1  0
  1  2  2  0
  1  3  1  0
  3 16  1  0
 16 17  2  0
 17 18  1  0
 18 19  2  0
 18 25  1  0
 19 20  1  0
 20 21  2  0
 21 22  1  0
 21 23  1  0
 23 24  1  0
 23 25  2  0
  7  8  1  0
 14 15  2  0
M  END
>  <minimizedAffinity>  (46) 
-9.39620

$$$$
cs_full_output_folder/data/smiles/7620.pdb
     RDKit          3D

 23 25  0  0  0  0  0  0  0  0999 V2000
   68.8095   45.2541   56.2599 C   0  0  0  0  0  0  0  0  0  0  0  0
   69.7763   46.0138   56.9445 C   0  0  0  0  0  0  0  0  0  0  0  0
   70.6115   45.4147   57.8467 C   0  0  0  0  0  0  0  0  0  0  0  0
   71.4737   46.0887   58.4581 O   0  0  0  0  0  0  0  0  0  0  0  0
   70.4824   44.0715   58.0607 N   0  0  0  0  0  0  0  0  0  0  0  0
   69.5745   43.3179   57.4267 C   0  0  0  0  0  0  0  0  0  0  0  0
   68.7609   43.9513   56.5361 N   0  0  0  0  0  0  0  0  0  0  0  0
   69.4546   41.8807   57.6728 C   0  0  0  0  0  0  0  0  0  0  0  0
   70.4857   41.1892   58.2727 C   0  0  0  0  0  0  0  0  0  0  0  0
   70.3954   39.8148   58.5183 C   0  0  0  0  0  0  0  0  0  0  0  0
   69.2807   39.0899   58.1762 C   0  0  0  0  0  0  0  0  0  0  0  0
   68.2469   39.7691   57.5771 C   0  0  0  0  0  0  0  0  0  0  0  0
   68.3441   41.1469   57.3341 C   0  0  0  0  0  0  0  0  0  0  0  0
   68.0307   45.9129   55.3938 O   0  0  0  0  0  0  0  0  0  0  0  0
   69.2215   47.6560   52.3828 C   0  0  0  0  0  0  0  0  0  0  0  0
   68.5567   46.9353   51.4084 C   0  0  0  0  0  0  0  0  0  0  0  0
   67.7336   45.8943   51.7658 C   0  0  0  0  0  0  0  0  0  0  0  0
   67.5797   45.5808   53.0871 C   0  0  0  0  0  0  0  0  0  0  0  0
   68.2384   46.2885   54.1214 C   0  0  0  0  0  0  0  0  0  0  0  0
   69.0508   47.3208   53.7197 C   0  0  0  0  0  0  0  0  0  0  0  0
   71.2019   49.0712   52.8784 N   0  0  0  0  0  0  0  0  0  0  0  0
   70.1012   48.7638   52.0498 C   0  0  0  0  0  0  0  0  0  0  0  0
   69.9088   49.4705   51.0261 O   0  0  0  0  0  0  0  0  0  0  0  0
 21 22  1  0
 22 23  2  0
 22 15  1  0
 15 16  2  0
 15 20  1  0
 16 17  1  0
 17 18  2  0
 18 19  1  0
 19 14  1  0
 19 20  2  0
 14  1  1  0
  1  2  2  0
  1  7  1  0
  2  3  1  0
  3  4  2  0
  3  5  1  0
  5  6  1  0
  6  8  1  0
  6  7  2  0
  8  9  2  0
  8 13  1  0
  9 10  1  0
 10 11  2  0
 11 12  1  0
 12 13  2  0
M  END
>  <minimizedAffinity>  (47) 
-9.39205

$$$$
cs_full_output_folder/data/smiles/7910.pdb
     RDKit          3D

 24 26  0  0  0  0  0  0  0  0999 V2000
   68.9821   46.5078   56.7220 C   0  0  0  0  0  0  0  0  0  0  0  0
   69.6877   47.5101   57.3863 C   0  0  0  0  0  0  0  0  0  0  0  0
   70.7547   47.2233   58.2075 C   0  0  0  0  0  0  0  0  0  0  0  0
   71.4614   48.3398   58.8840 C   0  0  0  0  0  0  0  0  0  0  0  0
   71.0936   45.9371   58.3472 N   0  0  0  0  0  0  0  0  0  0  0  0
   70.4416   44.9364   57.7270 C   0  0  0  0  0  0  0  0  0  0  0  0
   69.4176   45.2497   56.9424 N   0  0  0  0  0  0  0  0  0  0  0  0
   70.8597   43.5516   57.9189 C   0  0  0  0  0  0  0  0  0  0  0  0
   72.1989   43.2396   58.0192 C   0  0  0  0  0  0  0  0  0  0  0  0
   72.5890   41.9163   58.2017 C   0  0  0  0  0  0  0  0  0  0  0  0
   71.6781   40.8874   58.2875 C   0  0  0  0  0  0  0  0  0  0  0  0
   70.3399   41.2043   58.1863 C   0  0  0  0  0  0  0  0  0  0  0  0
   69.9373   42.5313   58.0027 C   0  0  0  0  0  0  0  0  0  0  0  0
   67.9040   46.7874   55.8922 O   0  0  0  0  0  0  0  0  0  0  0  0
   67.1226   45.0276   51.3231 C   0  0  0  0  0  0  0  0  0  0  0  0
   67.7846   45.9622   52.2728 C   0  0  0  0  0  0  0  0  0  0  0  0
   67.5336   45.9356   53.6364 C   0  0  0  0  0  0  0  0  0  0  0  0
   68.1339   46.7870   54.5228 C   0  0  0  0  0  0  0  0  0  0  0  0
   69.0302   47.7112   54.0108 C   0  0  0  0  0  0  0  0  0  0  0  0
   69.3229   47.7887   52.6719 C   0  0  0  0  0  0  0  0  0  0  0  0
   68.6982   46.9160   51.8211 C   0  0  0  0  0  0  0  0  0  0  0  0
   70.2818   48.7789   52.1443 C   0  0  0  0  0  0  0  0  0  0  0  0
   71.3538   49.1787   52.9943 N   0  0  0  0  0  0  0  0  0  0  0  0
   70.1261   49.2285   50.9899 O   0  0  0  0  0  0  0  0  0  0  0  0
 15 16  1  0
 16 17  2  0
 16 21  1  0
 17 18  1  0
 18 14  1  0
 18 19  2  0
 14  1  1  0
  1  2  2  0
  1  7  1  0
  2  3  1  0
  3  4  1  0
  3  5  2  0
  5  6  1  0
  6  8  1  0
  6  7  2  0
  8  9  2  0
  8 13  1  0
  9 10  1  0
 10 11  2  0
 11 12  1  0
 12 13  2  0
 19 20  1  0
 20 22  1  0
 20 21  2  0
 22 23  1  0
 22 24  2  0
M  END
>  <minimizedAffinity>  (48) 
-9.38800

$$$$
cs_full_output_folder/data/smiles/1151.pdb
     RDKit          3D

 23 25  0  0  0  0  0  0  0  0999 V2000
   68.2818   45.5805   55.7999 N   0  0  0  0  0  0  0  0  0  0  0  0
   69.0935   47.6843   52.8171 C   0  0  0  0  0  0  0  0  0  0  0  0
   68.5031   46.9797   51.8024 C   0  0  0  0  0  0  0  0  0  0  0  0
   67.8469   45.8154   52.1421 C   0  0  0  0  0  0  0  0  0  0  0  0
   67.7641   45.3447   53.4252 C   0  0  0  0  0  0  0  0  0  0  0  0
   68.3660   46.0590   54.4733 C   0  0  0  0  0  0  0  0  0  0  0  0
   69.0090   47.2056   54.1250 C   0  0  0  0  0  0  0  0  0  0  0  0
   69.9425   49.1698   52.4734 S   0  0  0  0  0  0  0  0  0  0  0  0
   69.9311   49.4494   50.9833 O   0  0  0  0  0  0  0  0  0  0  0  0
   71.3619   49.0231   52.9631 O   0  0  0  0  0  0  0  0  0  0  0  0
   70.1085   51.3490   53.9564 C   0  0  0  0  0  0  0  0  0  0  0  0
   69.2004   50.4961   53.2595 N   0  0  0  0  0  0  0  0  0  0  0  0
   68.5402   44.2810   56.2520 C   0  0  0  0  0  0  0  0  0  0  0  0
   67.5334   43.3606   56.1097 N   0  0  0  0  0  0  0  0  0  0  0  0
   67.6212   42.0931   56.4831 C   0  0  0  0  0  0  0  0  0  0  0  0
   68.8134   41.6729   57.0554 C   0  0  0  0  0  0  0  0  0  0  0  0
   69.8686   42.5565   57.2269 C   0  0  0  0  0  0  0  0  0  0  0  0
   69.6583   43.8138   56.8088 N   0  0  0  0  0  0  0  0  0  0  0  0
   71.1272   42.1246   57.8272 C   0  0  0  0  0  0  0  0  0  0  0  0
   72.2809   42.7679   57.8306 C   0  0  0  0  0  0  0  0  0  0  0  0
   73.3313   41.9985   58.5475 C   0  0  0  0  0  0  0  0  0  0  0  0
   72.5973   40.7954   58.9631 C   0  0  0  0  0  0  0  0  0  0  0  0
   71.3389   40.8894   58.5412 C   0  0  0  0  0  0  0  0  0  0  0  0
 11 12  1  0
 12  8  1  0
  8  9  2  0
  8 10  2  0
  8  2  1  0
  2  3  2  0
  2  7  1  0
  3  4  1  0
  4  5  2  0
  5  6  1  0
  6  1  1  0
  6  7  2  0
  1 13  1  0
 13 14  2  0
 13 18  1  0
 14 15  1  0
 15 16  2  0
 16 17  1  0
 17 19  1  0
 17 18  2  0
 19 20  2  0
 19 23  1  0
 20 21  1  0
 21 22  1  0
 22 23  2  0
M  END
>  <minimizedAffinity>  (49) 
-9.38606

$$$$
cs_full_output_folder/data/smiles/3059.pdb
     RDKit          3D

 26 29  0  0  0  0  0  0  0  0999 V2000
   74.2626   50.7482   54.8945 C   0  0  0  0  0  0  0  0  0  0  0  0
   74.3821   52.0642   54.5282 C   0  0  0  0  0  0  0  0  0  0  0  0
   73.2115   52.8062   54.4044 C   0  0  0  0  0  0  0  0  0  0  0  0
   71.9750   52.2056   54.6506 C   0  0  0  0  0  0  0  0  0  0  0  0
   71.9059   50.8933   55.0120 C   0  0  0  0  0  0  0  0  0  0  0  0
   73.0618   50.2122   55.1204 N   0  0  0  0  0  0  0  0  0  0  0  0
   75.6460   50.5471   57.2325 O   0  0  0  0  0  0  0  0  0  0  0  0
   76.1138   49.8724   56.2784 C   0  0  0  0  0  0  0  0  0  0  0  0
   75.4265   49.9457   55.0345 N   0  0  0  0  0  0  0  0  0  0  0  0
   77.3318   49.0596   56.5082 C   0  0  0  0  0  0  0  0  0  0  0  0
   78.0999   49.5406   57.6859 C   0  0  0  0  0  0  0  0  0  0  0  0
   79.2896   49.9433   57.2728 C   0  0  0  0  0  0  0  0  0  0  0  0
   79.4133   49.7704   55.8299 C   0  0  0  0  0  0  0  0  0  0  0  0
   78.2784   49.2566   55.3802 C   0  0  0  0  0  0  0  0  0  0  0  0
   70.6365   50.1808   55.2814 C   0  0  0  0  0  0  0  0  0  0  0  0
   70.3311   49.2727   54.1573 C   0  0  0  0  0  0  0  0  0  0  0  0
   70.9960   49.4182   52.9672 N   0  0  0  0  0  0  0  0  0  0  0  0
   70.7417   48.6733   51.9128 N   0  0  0  0  0  0  0  0  0  0  0  0
   69.8106   47.7251   51.9511 C   0  0  0  0  0  0  0  0  0  0  0  0
   69.5391   46.9888   50.9533 O   0  0  0  0  0  0  0  0  0  0  0  0
   69.1067   47.5261   53.1139 C   0  0  0  0  0  0  0  0  0  0  0  0
   69.3869   48.3215   54.2240 C   0  0  0  0  0  0  0  0  0  0  0  0
   68.6391   48.0496   55.4565 C   0  0  0  0  0  0  0  0  0  0  0  0
   68.6789   46.5273   55.6739 C   0  0  0  0  0  0  0  0  0  0  0  0
   68.2722   45.7316   54.4977 C   0  0  0  0  0  0  0  0  0  0  0  0
   68.0495   46.5123   53.2495 C   0  0  0  0  0  0  0  0  0  0  0  0
  7  8  2  0
  8  9  1  0
  8 10  1  0
  9  1  1  0
  1  2  2  0
  1  6  1  0
  2  3  1  0
  3  4  2  0
  4  5  1  0
  5 15  1  0
  5  6  2  0
 15 16  1  0
 16 17  2  0
 16 22  1  0
 17 18  1  0
 18 19  1  0
 19 20  2  0
 19 21  1  0
 21 22  2  0
 21 26  1  0
 22 23  1  0
 23 24  1  0
 24 25  1  0
 25 26  1  0
 10 11  1  0
 10 14  1  0
 11 12  2  0
 12 13  1  0
 13 14  2  0
M  END
>  <minimizedAffinity>  (50) 
-9.38101

$$$$
cs_full_output_folder/data/smiles/1873.pdb
     RDKit          3D

 25 27  0  0  0  0  0  0  0  0999 V2000
   68.1636   45.5801   54.6264 C   0  0  0  0  0  0  0  0  0  0  0  0
   68.5660   46.6206   55.2408 C   0  0  0  0  0  0  0  0  0  0  0  0
   68.9900   47.8860   54.7888 C   0  0  0  0  0  0  0  0  0  0  0  0
   68.9433   47.9639   53.3637 C   0  0  0  0  0  0  0  0  0  0  0  0
   68.5183   46.8716   52.7000 C   0  0  0  0  0  0  0  0  0  0  0  0
   68.1200   45.6831   53.1563 N   0  0  0  0  0  0  0  0  0  0  0  0
   68.1947   43.5097   56.0987 C   0  0  0  0  0  0  0  0  0  0  0  0
   69.1060   43.9505   56.8282 O   0  0  0  0  0  0  0  0  0  0  0  0
   67.7727   44.2812   55.0265 N   0  0  0  0  0  0  0  0  0  0  0  0
   68.4006   41.4635   57.2263 C   0  0  0  0  0  0  0  0  0  0  0  0
   67.6446   42.2068   56.4501 C   0  0  0  0  0  0  0  0  0  0  0  0
   68.0711   39.0314   58.3154 C   0  0  0  0  0  0  0  0  0  0  0  0
   68.2298   40.2505   57.7590 C   0  0  0  0  0  0  0  0  0  0  0  0
   69.3375   49.2210   52.6326 C   0  0  0  0  0  0  0  0  0  0  0  0
   70.3032   49.9986   53.4617 C   0  0  0  0  0  0  0  0  0  0  0  0
   71.5798   49.5529   53.4550 N   0  0  0  0  0  0  0  0  0  0  0  0
   72.4811   50.2416   54.1140 N   0  0  0  0  0  0  0  0  0  0  0  0
   72.1698   51.3605   54.7839 C   0  0  0  0  0  0  0  0  0  0  0  0
   73.1325   51.9750   55.3902 O   0  0  0  0  0  0  0  0  0  0  0  0
   70.8676   51.8295   54.8097 C   0  0  0  0  0  0  0  0  0  0  0  0
   69.8983   51.1142   54.1193 C   0  0  0  0  0  0  0  0  0  0  0  0
   68.5203   51.5629   54.3904 C   0  0  0  0  0  0  0  0  0  0  0  0
   68.4507   51.6265   55.9717 C   0  0  0  0  0  0  0  0  0  0  0  0
   69.2638   52.7895   56.4376 C   0  0  0  0  0  0  0  0  0  0  0  0
   70.5132   53.0272   55.6012 C   0  0  0  0  0  0  0  0  0  0  0  0
 12 13  3  0
 13 10  1  0
 10 11  2  0
 11  7  1  0
  7  8  2  0
  7  9  1  0
  9  1  1  0
  1  2  2  0
  1  6  1  0
  2  3  1  0
  3  4  2  0
  4 14  1  0
  4  5  1  0
 14 15  1  0
 15 16  2  0
 15 21  1  0
 16 17  1  0
 17 18  1  0
 18 19  2  0
 18 20  1  0
 20 21  2  0
 20 25  1  0
 21 22  1  0
 22 23  1  0
 23 24  1  0
 24 25  1  0
  5  6  2  0
M  END
>  <minimizedAffinity>  (51) 
-9.37618

$$$$
cs_full_output_folder/data/smiles/8050.pdb
     RDKit          3D

 25 27  0  0  0  0  0  0  0  0999 V2000
   70.2157   43.4676   57.8100 C   0  0  0  0  0  0  0  0  0  0  0  0
   71.0375   44.3614   58.4419 C   0  0  0  0  0  0  0  0  0  0  0  0
   70.8676   45.7266   58.2022 C   0  0  0  0  0  0  0  0  0  0  0  0
   69.9156   46.1370   57.3692 N   0  0  0  0  0  0  0  0  0  0  0  0
   69.0833   45.2646   56.7282 C   0  0  0  0  0  0  0  0  0  0  0  0
   69.2850   43.9781   56.9889 N   0  0  0  0  0  0  0  0  0  0  0  0
   70.6876   39.2266   58.4338 C   0  0  0  0  0  0  0  0  0  0  0  0
   69.4380   39.7931   58.1979 C   0  0  0  0  0  0  0  0  0  0  0  0
   69.2799   41.1695   57.9932 C   0  0  0  0  0  0  0  0  0  0  0  0
   70.3540   42.0172   58.0177 C   0  0  0  0  0  0  0  0  0  0  0  0
   71.5853   41.4511   58.2518 C   0  0  0  0  0  0  0  0  0  0  0  0
   71.7499   40.0817   58.4566 C   0  0  0  0  0  0  0  0  0  0  0  0
   71.7234   35.4937   58.7127 C   0  0  0  0  0  0  0  0  0  0  0  0
   71.8416   36.9836   58.4714 C   0  0  0  0  0  0  0  0  0  0  0  0
   72.9497   37.4527   58.1342 O   0  0  0  0  0  0  0  0  0  0  0  0
   70.7214   37.8336   58.6246 N   0  0  0  0  0  0  0  0  0  0  0  0
   68.1225   45.8141   55.8650 N   0  0  0  0  0  0  0  0  0  0  0  0
   68.2849   46.2005   54.5199 C   0  0  0  0  0  0  0  0  0  0  0  0
   67.7270   45.4449   53.4800 C   0  0  0  0  0  0  0  0  0  0  0  0
   67.8549   45.7564   52.1522 C   0  0  0  0  0  0  0  0  0  0  0  0
   68.5731   46.8816   51.7947 C   0  0  0  0  0  0  0  0  0  0  0  0
   69.1423   47.6617   52.7621 C   0  0  0  0  0  0  0  0  0  0  0  0
   68.9897   47.3087   54.1096 C   0  0  0  0  0  0  0  0  0  0  0  0
   69.9113   48.8654   52.3710 C   0  0  0  0  0  0  0  0  0  0  0  0
   70.5117   48.7118   51.0548 N   0  0  0  0  0  0  0  0  0  0  0  0
 13 14  1  0
 14 15  2  0
 14 16  1  0
 16  7  1  0
  7  8  2  0
  7 12  1  0
  8  9  1  0
  9 10  2  0
 10  1  1  0
 10 11  1  0
  1  2  2  0
  1  6  1  0
  2  3  1  0
  3  4  2  0
  4  5  1  0
  5 17  1  0
  5  6  2  0
 17 18  1  0
 18 19  2  0
 18 23  1  0
 19 20  1  0
 20 21  2  0
 21 22  1  0
 22 24  1  0
 22 23  2  0
 24 25  1  0
 11 12  2  0
M  CHG  1  25   1
M  END
>  <minimizedAffinity>  (52) 
-9.36803

$$$$
cs_full_output_folder/data/smiles/27.pdb
     RDKit          3D

 26 29  0  0  0  0  0  0  0  0999 V2000
   69.2672   47.6485   56.1046 N   0  0  0  0  0  0  0  0  0  0  0  0
   69.6912   48.6427   55.2994 C   0  0  0  0  0  0  0  0  0  0  0  0
   69.4849   48.5760   53.9181 C   0  0  0  0  0  0  0  0  0  0  0  0
   68.8501   47.5072   53.3270 C   0  0  0  0  0  0  0  0  0  0  0  0
   68.6420   47.4400   51.9546 C   0  0  0  0  0  0  0  0  0  0  0  0
   67.9984   46.3463   51.3842 C   0  0  0  0  0  0  0  0  0  0  0  0
   67.5814   45.3441   52.2371 C   0  0  0  0  0  0  0  0  0  0  0  0
   67.7896   45.4123   53.6124 C   0  0  0  0  0  0  0  0  0  0  0  0
   68.4318   46.5072   54.1621 C   0  0  0  0  0  0  0  0  0  0  0  0
   68.6424   46.5892   55.5148 C   0  0  0  0  0  0  0  0  0  0  0  0
   68.2477   45.6396   56.2640 O   0  0  0  0  0  0  0  0  0  0  0  0
   70.0757   49.7603   53.3160 C   0  0  0  0  0  0  0  0  0  0  0  0
   70.1161   50.1086   52.0961 O   0  0  0  0  0  0  0  0  0  0  0  0
   70.6536   50.5450   54.3862 C   0  0  0  0  0  0  0  0  0  0  0  0
   71.3528   51.7403   54.3877 C   0  0  0  0  0  0  0  0  0  0  0  0
   71.8285   52.2736   55.5591 C   0  0  0  0  0  0  0  0  0  0  0  0
   71.6066   51.6117   56.7364 C   0  0  0  0  0  0  0  0  0  0  0  0
   70.9132   50.4234   56.7598 C   0  0  0  0  0  0  0  0  0  0  0  0
   70.4357   49.8869   55.6015 C   0  0  0  0  0  0  0  0  0  0  0  0
   69.3264   47.6302   57.5428 C   0  0  0  0  0  0  0  0  0  0  0  0
   70.4851   46.8269   58.0658 C   0  0  2  0  0  0  0  0  0  0  0  0
   69.9113   45.7500   58.8426 O   0  0  0  0  0  0  0  0  0  0  0  0
   71.4588   47.4424   58.9681 C   0  0  0  0  0  0  0  0  0  0  0  0
   73.0840   48.0409   61.9206 N   0  0  0  0  0  0  0  0  0  0  0  0
   72.2193   47.6450   61.1095 N   0  0  0  0  0  0  0  0  0  0  0  0
   71.4933   47.0407   60.3308 N   0  0  0  0  0  0  0  0  0  0  0  0
 24 25  2  0
 25 26  2  0
 26 23  1  0
 23 21  1  0
 21 22  1  1
 21 20  1  0
 20  1  1  0
  1  2  1  0
  1 10  1  0
  2  3  2  0
  2 19  1  0
  3  4  1  0
  3 12  1  0
  4  5  1  0
  4  9  2  0
  5  6  2  0
  6  7  1  0
  7  8  2  0
  8  9  1  0
  9 10  1  0
 10 11  2  0
 12 13  2  0
 12 14  1  0
 14 15  1  0
 14 19  2  0
 15 16  2  0
 16 17  1  0
 17 18  2  0
 18 19  1  0
M  CHG  2  24  -1  25   1
M  END
>  <minimizedAffinity>  (53) 
-9.36526

$$$$
cs_full_output_folder/data/smiles/3204.pdb
     RDKit          3D

 25 28  0  0  0  0  0  0  0  0999 V2000
   70.3895   45.7141   58.2057 C   0  0  0  0  0  0  0  0  0  0  0  0
   71.5005   46.2424   58.8377 C   0  0  0  0  0  0  0  0  0  0  0  0
   71.9479   47.5134   58.6553 C   0  0  0  0  0  0  0  0  0  0  0  0
   71.2583   48.3277   57.7921 C   0  0  0  0  0  0  0  0  0  0  0  0
   70.1249   47.8590   57.1179 C   0  0  0  0  0  0  0  0  0  0  0  0
   69.7167   46.5785   57.3344 C   0  0  0  0  0  0  0  0  0  0  0  0
   69.9704   44.3781   58.4376 N   0  0  0  0  0  0  0  0  0  0  0  0
   71.3932   42.3815   58.1430 C   0  0  0  0  0  0  0  0  0  0  0  0
   70.3044   43.2532   57.6202 C   0  0  1  0  0  0  0  0  0  0  0  0
   69.0822   42.4627   57.2393 C   0  0  0  0  0  0  0  0  0  0  0  0
   68.6367   41.3025   57.6078 C   0  0  0  0  0  0  0  0  0  0  0  0
   67.5151   41.4440   56.7544 N   0  0  0  0  0  0  0  0  0  0  0  0
   67.9465   42.5950   56.3817 C   0  0  0  0  0  0  0  0  0  0  0  0
   69.4432   48.7664   56.2031 C   0  0  0  0  0  0  0  0  0  0  0  0
   69.7672   48.5907   54.7750 C   0  0  0  0  0  0  0  0  0  0  0  0
   70.7796   49.3010   54.2081 N   0  0  0  0  0  0  0  0  0  0  0  0
   71.0425   49.1793   52.9282 N   0  0  0  0  0  0  0  0  0  0  0  0
   70.3468   48.3675   52.1174 C   0  0  0  0  0  0  0  0  0  0  0  0
   70.6118   48.2638   50.8917 O   0  0  0  0  0  0  0  0  0  0  0  0
   69.2872   47.6006   52.6268 C   0  0  0  0  0  0  0  0  0  0  0  0
   69.0332   47.7479   53.9854 C   0  0  0  0  0  0  0  0  0  0  0  0
   67.9182   46.8850   54.5357 C   0  0  0  0  0  0  0  0  0  0  0  0
   68.0555   45.5451   53.7827 C   0  0  0  0  0  0  0  0  0  0  0  0
   67.5912   45.8247   52.3879 C   0  0  0  0  0  0  0  0  0  0  0  0
   68.5406   46.7374   51.6908 C   0  0  0  0  0  0  0  0  0  0  0  0
  9  8  1  1
  9  7  1  0
  9 10  1  0
  7  1  1  0
  1  2  2  0
  1  6  1  0
  2  3  1  0
  3  4  2  0
  4  5  1  0
  5 14  1  0
  5  6  2  0
 14 15  1  0
 15 16  2  0
 15 21  1  0
 16 17  1  0
 17 18  1  0
 18 19  2  0
 18 20  1  0
 20 21  2  0
 20 25  1  0
 21 22  1  0
 22 23  1  0
 23 24  1  0
 24 25  1  0
 10 11  2  0
 10 13  1  0
 11 12  1  0
 12 13  2  0
M  END
>  <minimizedAffinity>  (54) 
-9.36390

$$$$
cs_full_output_folder/data/smiles/4478.pdb
     RDKit          3D

 26 28  0  0  0  0  0  0  0  0999 V2000
   70.4061   45.1070   58.3385 C   0  0  0  0  0  0  0  0  0  0  0  0
   70.6724   45.9697   59.2579 O   0  0  0  0  0  0  0  0  0  0  0  0
   69.4910   45.5102   57.3349 N   0  0  0  0  0  0  0  0  0  0  0  0
   74.2777   41.9018   58.5040 C   0  0  0  0  0  0  0  0  0  0  0  0
   72.8236   42.1828   58.4534 C   0  0  0  0  0  0  0  0  0  0  0  0
   72.3462   43.5054   58.4209 C   0  0  0  0  0  0  0  0  0  0  0  0
   73.2858   44.4974   58.4377 O   0  0  0  0  0  0  0  0  0  0  0  0
   71.0279   43.8213   58.3746 C   0  0  0  0  0  0  0  0  0  0  0  0
   70.1565   42.7167   58.3612 C   0  0  0  0  0  0  0  0  0  0  0  0
   70.5904   41.4134   58.3924 C   0  0  0  0  0  0  0  0  0  0  0  0
   69.7054   40.3405   58.3787 C   0  0  0  0  0  0  0  0  0  0  0  0
   70.1557   39.0361   58.4100 C   0  0  0  0  0  0  0  0  0  0  0  0
   71.5068   38.7502   58.4565 C   0  0  0  0  0  0  0  0  0  0  0  0
   72.3742   39.8212   58.4704 C   0  0  0  0  0  0  0  0  0  0  0  0
   71.9338   41.1343   58.4388 C   0  0  0  0  0  0  0  0  0  0  0  0
   68.9102   46.7822   57.3465 N   0  0  0  0  0  0  0  0  0  0  0  0
   68.5415   47.5313   56.4275 C   0  0  0  0  0  0  0  0  0  0  0  0
   68.6123   47.2863   55.0067 C   0  0  0  0  0  0  0  0  0  0  0  0
   67.9515   46.1725   54.4495 C   0  0  0  0  0  0  0  0  0  0  0  0
   67.9991   45.9117   53.1041 C   0  0  0  0  0  0  0  0  0  0  0  0
   68.6898   46.7144   52.2236 C   0  0  0  0  0  0  0  0  0  0  0  0
   69.3430   47.8042   52.7337 C   0  0  0  0  0  0  0  0  0  0  0  0
   69.2863   48.0566   54.0998 C   0  0  0  0  0  0  0  0  0  0  0  0
   70.0689   48.6607   51.8649 N   0  0  0  0  0  0  0  0  0  0  0  0
   70.5819   48.1827   50.8407 O   0  0  0  0  0  0  0  0  0  0  0  0
   70.1908   49.9870   52.1706 O   0  0  0  0  0  0  0  0  0  0  0  0
  4  5  1  0
  5  6  2  0
  5 15  1  0
  6  7  1  0
  6  8  1  0
  8  1  1  0
  8  9  2  0
  1  2  2  0
  1  3  1  0
  3 16  1  0
 16 17  2  0
 17 18  1  0
 18 19  2  0
 18 23  1  0
 19 20  1  0
 20 21  2  0
 21 22  1  0
 22 24  1  0
 22 23  2  0
 24 25  2  0
 24 26  1  0
  9 10  1  0
 10 11  1  0
 10 15  2  0
 11 12  2  0
 12 13  1  0
 13 14  2  0
 14 15  1  0
M  CHG  2  24   1  26  -1
M  END
>  <minimizedAffinity>  (55) 
-9.36162

$$$$
cs_full_output_folder/data/smiles/46.pdb
     RDKit          3D

 23 24  0  0  0  0  0  0  0  0999 V2000
   69.2706   47.9119   53.4308 C   0  0  0  0  0  0  0  0  0  0  0  0
   68.6279   47.0068   52.6140 C   0  0  0  0  0  0  0  0  0  0  0  0
   68.6077   47.2733   51.2827 F   0  0  0  0  0  0  0  0  0  0  0  0
   68.0217   45.8622   53.1365 C   0  0  0  0  0  0  0  0  0  0  0  0
   67.3990   44.9949   52.2962 F   0  0  0  0  0  0  0  0  0  0  0  0
   68.0459   45.5975   54.4879 C   0  0  0  0  0  0  0  0  0  0  0  0
   68.6890   46.5029   55.3019 C   0  0  0  0  0  0  0  0  0  0  0  0
   68.7254   46.2624   56.6403 F   0  0  0  0  0  0  0  0  0  0  0  0
   69.2948   47.6483   54.7830 C   0  0  0  0  0  0  0  0  0  0  0  0
   69.9289   48.5361   55.6047 F   0  0  0  0  0  0  0  0  0  0  0  0
   69.9642   49.4066   51.0746 N   0  0  0  0  0  0  0  0  0  0  0  0
   70.0375   49.3569   52.7881 S   0  0  0  0  0  0  0  0  0  0  0  0
   69.3269   50.5590   53.3335 O   0  0  0  0  0  0  0  0  0  0  0  0
   71.5039   49.3851   53.1758 O   0  0  0  0  0  0  0  0  0  0  0  0
   67.4349   44.4372   55.0404 N   0  0  0  0  0  0  0  0  0  0  0  0
   68.1567   43.5417   55.8315 N   0  0  0  0  0  0  0  0  0  0  0  0
   67.6748   42.4049   56.2046 C   0  0  0  0  0  0  0  0  0  0  0  0
   68.4733   41.4833   57.0445 C   0  0  0  0  0  0  0  0  0  0  0  0
   69.6776   41.8788   57.5757 C   0  0  0  0  0  0  0  0  0  0  0  0
   70.4047   40.9869   58.3624 C   0  0  0  0  0  0  0  0  0  0  0  0
   69.9141   39.7087   58.6069 C   0  0  0  0  0  0  0  0  0  0  0  0
   68.7095   39.3089   58.0772 C   0  0  0  0  0  0  0  0  0  0  0  0
   68.0148   40.2095   57.3055 C   0  0  0  0  0  0  0  0  0  0  0  0
 11 12  1  0
 12 13  2  0
 12 14  2  0
 12  1  1  0
  1  2  2  0
  1  9  1  0
  2  3  1  0
  2  4  1  0
  4  5  1  0
  4  6  2  0
  6 15  1  0
  6  7  1  0
 15 16  1  0
 16 17  2  0
 17 18  1  0
 18 19  2  0
 18 23  1  0
 19 20  1  0
 20 21  2  0
 21 22  1  0
 22 23  2  0
  7  8  1  0
  7  9  2  0
  9 10  1  0
M  END
>  <minimizedAffinity>  (56) 
-9.35250

$$$$
cs_full_output_folder/data/smiles/404.pdb
     RDKit          3D

 22 24  0  0  0  0  0  0  0  0999 V2000
   68.2649   45.5988   55.8354 N   0  0  0  0  0  0  0  0  0  0  0  0
   69.1059   47.6542   52.8620 C   0  0  0  0  0  0  0  0  0  0  0  0
   68.5069   46.9306   51.8715 C   0  0  0  0  0  0  0  0  0  0  0  0
   67.8323   45.7738   52.1804 C   0  0  0  0  0  0  0  0  0  0  0  0
   67.7755   45.3700   53.4900 C   0  0  0  0  0  0  0  0  0  0  0  0
   68.3693   46.0707   54.5446 C   0  0  0  0  0  0  0  0  0  0  0  0
   69.0276   47.2101   54.1937 C   0  0  0  0  0  0  0  0  0  0  0  0
   69.2187   50.4270   53.2912 N   0  0  0  0  0  0  0  0  0  0  0  0
   69.9657   49.1341   52.4578 S   0  0  0  0  0  0  0  0  0  0  0  0
   71.4032   49.0488   52.9312 O   0  0  0  0  0  0  0  0  0  0  0  0
   69.9640   49.4034   50.9936 O   0  0  0  0  0  0  0  0  0  0  0  0
   68.5255   44.2926   56.2585 C   0  0  0  0  0  0  0  0  0  0  0  0
   67.5302   43.3557   56.0875 N   0  0  0  0  0  0  0  0  0  0  0  0
   67.6846   42.0779   56.4599 C   0  0  0  0  0  0  0  0  0  0  0  0
   68.8885   41.6721   57.0388 C   0  0  0  0  0  0  0  0  0  0  0  0
   69.8973   42.5939   57.2184 C   0  0  0  0  0  0  0  0  0  0  0  0
   69.6528   43.8351   56.8202 N   0  0  0  0  0  0  0  0  0  0  0  0
   71.1550   42.1658   57.8252 C   0  0  0  0  0  0  0  0  0  0  0  0
   71.3796   41.0914   58.5709 C   0  0  0  0  0  0  0  0  0  0  0  0
   72.7988   41.0131   58.9987 C   0  0  0  0  0  0  0  0  0  0  0  0
   73.3752   42.2146   58.3839 C   0  0  0  0  0  0  0  0  0  0  0  0
   72.4343   42.8541   57.7260 C   0  0  0  0  0  0  0  0  0  0  0  0
  8  9  1  0
  9 10  2  0
  9 11  2  0
  9  2  1  0
  2  3  2  0
  2  7  1  0
  3  4  1  0
  4  5  2  0
  5  6  1  0
  6  1  1  0
  6  7  2  0
  1 12  1  0
 12 13  2  0
 12 17  1  0
 13 14  1  0
 14 15  2  0
 15 16  1  0
 16 18  1  0
 16 17  2  0
 18 19  2  0
 18 22  1  0
 19 20  1  0
 20 21  1  0
 21 22  2  0
M  END
>  <minimizedAffinity>  (57) 
-9.35056

$$$$
cs_full_output_folder/data/smiles/4932.pdb
     RDKit          3D

 25 27  0  0  0  0  0  0  0  0999 V2000
   71.1995   45.5286   58.2406 O   0  0  0  0  0  0  0  0  0  0  0  0
   70.5151   44.5773   57.8007 C   0  0  0  0  0  0  0  0  0  0  0  0
   69.3170   44.9628   57.0874 N   0  0  0  0  0  0  0  0  0  0  0  0
   70.9228   43.2062   58.0105 C   0  0  0  0  0  0  0  0  0  0  0  0
   72.2673   42.9308   58.1676 C   0  0  0  0  0  0  0  0  0  0  0  0
   72.7502   41.6557   58.3725 C   0  0  0  0  0  0  0  0  0  0  0  0
   71.8796   40.6027   58.4277 C   0  0  0  0  0  0  0  0  0  0  0  0
   72.3052   39.3195   58.6290 C   0  0  0  0  0  0  0  0  0  0  0  0
   71.4186   38.2522   58.6848 C   0  0  0  0  0  0  0  0  0  0  0  0
   70.0722   38.5401   58.5258 C   0  0  0  0  0  0  0  0  0  0  0  0
   69.6127   39.8175   58.3217 C   0  0  0  0  0  0  0  0  0  0  0  0
   70.5241   40.8353   58.2749 C   0  0  0  0  0  0  0  0  0  0  0  0
   70.0664   42.1358   58.0687 C   0  0  0  0  0  0  0  0  0  0  0  0
   68.9278   46.2258   56.8866 N   0  0  0  0  0  0  0  0  0  0  0  0
   68.6656   47.0783   56.0557 C   0  0  0  0  0  0  0  0  0  0  0  0
   68.6747   47.0469   54.6061 C   0  0  0  0  0  0  0  0  0  0  0  0
   67.9691   46.0223   53.9451 C   0  0  0  0  0  0  0  0  0  0  0  0
   67.9418   45.9423   52.5759 C   0  0  0  0  0  0  0  0  0  0  0  0
   68.6069   46.8649   51.8174 C   0  0  0  0  0  0  0  0  0  0  0  0
   69.3028   47.8734   52.4332 C   0  0  0  0  0  0  0  0  0  0  0  0
   69.3354   47.9626   53.8227 C   0  0  0  0  0  0  0  0  0  0  0  0
   70.0467   48.9911   54.4048 O   0  0  0  0  0  0  0  0  0  0  0  0
   70.0009   48.8432   51.6352 N   0  0  0  0  0  0  0  0  0  0  0  0
   70.7879   48.4624   50.7486 O   0  0  0  0  0  0  0  0  0  0  0  0
   69.8436   50.1969   51.7993 O   0  0  0  0  0  0  0  0  0  0  0  0
  1  2  2  0
  2  3  1  0
  2  4  1  0
  3 14  1  0
 14 15  2  0
 15 16  1  0
 16 17  2  0
 16 21  1  0
 17 18  1  0
 18 19  2  0
 19 20  1  0
 20 23  1  0
 20 21  2  0
 23 24  2  0
 23 25  1  0
 21 22  1  0
  4  5  2  0
  4 13  1  0
  5  6  1  0
  6  7  2  0
  7  8  1  0
  7 12  1  0
  8  9  2  0
  9 10  1  0
 10 11  2  0
 11 12  1  0
 12 13  2  0
M  CHG  2  23   1  25  -1
M  END
>  <minimizedAffinity>  (58) 
-9.34859

$$$$
cs_full_output_folder/data/smiles/8811.pdb
     RDKit          3D

 23 25  0  0  0  0  0  0  0  0999 V2000
   69.0321   46.5296   57.1300 N   0  0  0  0  0  0  0  0  0  0  0  0
   68.7014   47.5914   56.6007 C   0  0  0  0  0  0  0  0  0  0  0  0
   69.1275   48.0114   55.2855 C   0  0  0  0  0  0  0  0  0  0  0  0
   69.9603   49.0849   55.0906 C   0  0  0  0  0  0  0  0  0  0  0  0
   70.4330   49.5017   53.8427 C   0  0  0  0  0  0  0  0  0  0  0  0
   70.0523   48.8086   52.7340 C   0  0  0  0  0  0  0  0  0  0  0  0
   69.2200   47.7308   52.8655 C   0  0  0  0  0  0  0  0  0  0  0  0
   68.8420   47.0500   51.7009 C   0  0  0  0  0  0  0  0  0  0  0  0
   68.0054   45.9851   51.8538 C   0  0  0  0  0  0  0  0  0  0  0  0
   67.5343   45.5640   53.0613 C   0  0  0  0  0  0  0  0  0  0  0  0
   67.9247   46.2576   54.2122 C   0  0  0  0  0  0  0  0  0  0  0  0
   68.7559   47.3259   54.1149 C   0  0  0  0  0  0  0  0  0  0  0  0
   69.7926   44.8087   59.2451 O   0  0  0  0  0  0  0  0  0  0  0  0
   70.1227   44.5454   58.0667 C   0  0  0  0  0  0  0  0  0  0  0  0
   69.7332   45.3999   57.0000 N   0  0  0  0  0  0  0  0  0  0  0  0
   70.9325   43.3106   57.7695 C   0  0  0  0  0  0  0  0  0  0  0  0
   70.0297   42.1266   57.7476 C   0  0  0  0  0  0  0  0  0  0  0  0
   70.4545   40.9600   58.4005 C   0  0  0  0  0  0  0  0  0  0  0  0
   69.6861   39.8016   58.4045 C   0  0  0  0  0  0  0  0  0  0  0  0
   68.4691   39.7756   57.7527 C   0  0  0  0  0  0  0  0  0  0  0  0
   67.7078   38.6411   57.7455 F   0  0  0  0  0  0  0  0  0  0  0  0
   68.0447   40.9156   57.1081 C   0  0  0  0  0  0  0  0  0  0  0  0
   68.8263   42.0719   57.1120 C   0  0  0  0  0  0  0  0  0  0  0  0
 13 14  2  0
 14 16  1  0
 14 15  1  0
 16 17  1  0
 17 18  2  0
 17 23  1  0
 18 19  1  0
 19 20  2  0
 20 21  1  0
 20 22  1  0
 22 23  2  0
 15  1  1  0
  1  2  2  0
  2  3  1  0
  3  4  2  0
  3 12  1  0
  4  5  1  0
  5  6  2  0
  6  7  1  0
  7  8  1  0
  7 12  2  0
  8  9  2  0
  9 10  1  0
 10 11  2  0
 11 12  1  0
M  END
>  <minimizedAffinity>  (59) 
-9.34646

$$$$
cs_full_output_folder/data/smiles/512.pdb
     RDKit          3D

 23 24  0  0  0  0  0  0  0  0999 V2000
   69.2758   47.8982   53.4287 C   0  0  0  0  0  0  0  0  0  0  0  0
   68.6468   47.0062   52.5947 C   0  0  0  0  0  0  0  0  0  0  0  0
   68.6145   47.2175   51.2572 F   0  0  0  0  0  0  0  0  0  0  0  0
   68.0457   45.8907   53.1347 C   0  0  0  0  0  0  0  0  0  0  0  0
   67.4054   44.9742   52.3321 F   0  0  0  0  0  0  0  0  0  0  0  0
   68.0422   45.6189   54.4786 C   0  0  0  0  0  0  0  0  0  0  0  0
   68.6768   46.5237   55.2938 C   0  0  0  0  0  0  0  0  0  0  0  0
   68.7248   46.3395   56.6224 F   0  0  0  0  0  0  0  0  0  0  0  0
   69.2939   47.6621   54.7762 C   0  0  0  0  0  0  0  0  0  0  0  0
   69.9201   48.5452   55.6223 F   0  0  0  0  0  0  0  0  0  0  0  0
   70.0190   49.3595   51.0720 N   0  0  0  0  0  0  0  0  0  0  0  0
   70.0511   49.3290   52.7865 S   0  0  0  0  0  0  0  0  0  0  0  0
   71.4869   49.3956   53.2263 O   0  0  0  0  0  0  0  0  0  0  0  0
   69.3420   50.5200   53.3088 O   0  0  0  0  0  0  0  0  0  0  0  0
   67.4253   44.4745   55.0195 N   0  0  0  0  0  0  0  0  0  0  0  0
   68.1599   43.5910   55.8332 N   0  0  0  0  0  0  0  0  0  0  0  0
   67.7449   42.4446   56.1896 C   0  0  0  0  0  0  0  0  0  0  0  0
   68.4952   41.5205   57.0312 C   0  0  0  0  0  0  0  0  0  0  0  0
   69.7065   41.8683   57.5985 C   0  0  0  0  0  0  0  0  0  0  0  0
   70.3882   40.9565   58.3950 C   0  0  0  0  0  0  0  0  0  0  0  0
   69.9041   39.6907   58.6523 C   0  0  0  0  0  0  0  0  0  0  0  0
   68.6958   39.3465   58.0834 C   0  0  0  0  0  0  0  0  0  0  0  0
   68.0201   40.2559   57.2928 C   0  0  0  0  0  0  0  0  0  0  0  0
 11 12  1  0
 12 13  2  0
 12 14  2  0
 12  1  1  0
  1  2  2  0
  1  9  1  0
  2  3  1  0
  2  4  1  0
  4  5  1  0
  4  6  2  0
  6 15  1  0
  6  7  1  0
 15 16  1  0
 16 17  2  0
 17 18  1  0
 18 19  2  0
 18 23  1  0
 19 20  1  0
 20 21  2  0
 21 22  1  0
 22 23  2  0
  7  8  1  0
  7  9  2  0
  9 10  1  0
M  END
>  <minimizedAffinity>  (60) 
-9.34045

$$$$
cs_full_output_folder/data/smiles/5225.pdb
     RDKit          3D

 22 23  0  0  0  0  0  0  0  0999 V2000
   69.3604   47.7875   52.9912 C   0  0  0  0  0  0  0  0  0  0  0  0
   69.2214   47.7049   54.3489 C   0  0  0  0  0  0  0  0  0  0  0  0
   68.3683   46.7934   54.9549 C   0  0  0  0  0  0  0  0  0  0  0  0
   67.6632   45.9677   54.1212 C   0  0  0  0  0  0  0  0  0  0  0  0
   67.7794   46.0217   52.7243 C   0  0  0  0  0  0  0  0  0  0  0  0
   68.6273   46.9314   52.1740 C   0  0  0  0  0  0  0  0  0  0  0  0
   68.7856   47.0336   50.7976 O   0  0  0  0  0  0  0  0  0  0  0  0
   71.3963   49.0090   52.9244 O   0  0  0  0  0  0  0  0  0  0  0  0
   70.2762   48.7705   52.4137 C   0  0  0  0  0  0  0  0  0  0  0  0
   69.8981   49.4550   51.2750 O   0  0  0  0  0  0  0  0  0  0  0  0
   67.0097   45.1266   51.9127 N   0  0  0  0  0  0  0  0  0  0  0  0
   66.6931   43.9892   52.3255 O   0  0  0  0  0  0  0  0  0  0  0  0
   66.5992   45.4952   50.6623 O   0  0  0  0  0  0  0  0  0  0  0  0
   68.3003   46.7858   56.2958 O   0  0  0  0  0  0  0  0  0  0  0  0
   68.9079   47.5158   57.2885 C   0  0  0  0  0  0  0  0  0  0  0  0
   68.5852   48.9604   57.3188 C   0  0  0  0  0  0  0  0  0  0  0  0
   69.4835   49.9680   57.0553 C   0  0  0  0  0  0  0  0  0  0  0  0
   69.1301   51.3025   57.0687 C   0  0  0  0  0  0  0  0  0  0  0  0
   67.8460   51.6887   57.3496 C   0  0  0  0  0  0  0  0  0  0  0  0
   66.9148   50.7156   57.6192 C   0  0  0  0  0  0  0  0  0  0  0  0
   67.2830   49.3912   57.6017 C   0  0  0  0  0  0  0  0  0  0  0  0
   66.3732   48.4274   57.8670 F   0  0  0  0  0  0  0  0  0  0  0  0
  8  9  2  0
  9 10  1  0
  9  1  1  0
  1  2  2  0
  1  6  1  0
  2  3  1  0
  3 14  1  0
  3  4  2  0
 14 15  1  0
 15 16  1  0
 16 17  2  0
 16 21  1  0
 17 18  1  0
 18 19  2  0
 19 20  1  0
 20 21  2  0
 21 22  1  0
  4  5  1  0
  5 11  1  0
  5  6  2  0
 11 12  2  0
 11 13  1  0
  6  7  1  0
M  CHG  2  11   1  13  -1
M  END
>  <minimizedAffinity>  (61) 
-9.33462

$$$$
cs_full_output_folder/data/smiles/4947.pdb
     RDKit          3D

 24 26  0  0  0  0  0  0  0  0999 V2000
   68.5041   51.3195   56.2289 C   0  0  0  0  0  0  0  0  0  0  0  0
   67.5157   51.2270   57.1894 C   0  0  0  0  0  0  0  0  0  0  0  0
   67.1576   49.9843   57.6664 C   0  0  0  0  0  0  0  0  0  0  0  0
   66.1894   49.8639   58.6100 F   0  0  0  0  0  0  0  0  0  0  0  0
   67.8035   48.8317   57.1691 C   0  0  0  0  0  0  0  0  0  0  0  0
   67.4067   47.7477   57.6727 O   0  0  0  0  0  0  0  0  0  0  0  0
   68.7504   48.8996   56.2497 N   0  0  0  0  0  0  0  0  0  0  0  0
   69.0737   50.1582   55.8043 C   0  0  0  0  0  0  0  0  0  0  0  0
   68.8942   52.6274   55.7166 C   0  0  0  0  0  0  0  0  0  0  0  0
   68.6646   52.9022   54.5184 O   0  0  0  0  0  0  0  0  0  0  0  0
   69.5038   53.5620   56.5127 O   0  0  0  0  0  0  0  0  0  0  0  0
   70.8536   53.9623   56.3987 C   0  0  0  0  0  0  0  0  0  0  0  0
   72.8498   53.5818   57.8019 C   0  0  0  0  0  0  0  0  0  0  0  0
   71.6866   53.1538   57.3331 C   0  0  0  0  0  0  0  0  0  0  0  0
   69.4168   47.7752   55.6827 C   0  0  0  0  0  0  0  0  0  0  0  0
   68.9372   47.2840   54.3928 C   0  0  0  0  0  0  0  0  0  0  0  0
   67.9598   46.2767   54.4199 C   0  0  0  0  0  0  0  0  0  0  0  0
   67.5562   45.7513   53.2223 C   0  0  0  0  0  0  0  0  0  0  0  0
   68.0915   46.1979   52.0342 C   0  0  0  0  0  0  0  0  0  0  0  0
   69.0501   47.1882   51.9847 C   0  0  0  0  0  0  0  0  0  0  0  0
   69.6980   47.8039   50.9761 N   0  0  0  0  0  0  0  0  0  0  0  0
   70.4976   48.7070   51.5066 N   0  0  0  0  0  0  0  0  0  0  0  0
   70.3857   48.6918   52.8410 C   0  0  0  0  0  0  0  0  0  0  0  0
   69.4722   47.7343   53.2051 C   0  0  0  0  0  0  0  0  0  0  0  0
 13 14  2  0
 14 12  1  0
 12 11  1  0
 11  9  1  0
  9 10  2  0
  9  1  1  0
  1  2  1  0
  1  8  2  0
  2  3  2  0
  3  4  1  0
  3  5  1  0
  5  6  2  0
  5  7  1  0
  7 15  1  0
  7  8  1  0
 15 16  1  0
 16 17  2  0
 16 24  1  0
 17 18  1  0
 18 19  2  0
 19 20  1  0
 20 21  1  0
 20 24  2  0
 21 22  1  0
 22 23  2  0
 23 24  1  0
M  END
>  <minimizedAffinity>  (62) 
-9.33007

$$$$
cs_full_output_folder/data/smiles/1230.pdb
     RDKit          3D

 23 24  0  0  0  0  0  0  0  0999 V2000
   69.6143   47.7826   54.7541 C   0  0  0  0  0  0  0  0  0  0  0  0
   69.1550   47.6309   52.2756 C   0  0  0  0  0  0  0  0  0  0  0  0
   68.4461   47.0316   51.2653 N   0  0  0  0  0  0  0  0  0  0  0  0
   67.5069   46.1388   51.5613 C   0  0  0  0  0  0  0  0  0  0  0  0
   66.8405   45.5764   50.6224 O   0  0  0  0  0  0  0  0  0  0  0  0
   67.2193   45.7945   52.8115 N   0  0  0  0  0  0  0  0  0  0  0  0
   67.8782   46.3459   53.8176 C   0  0  0  0  0  0  0  0  0  0  0  0
   67.6277   46.0413   55.0022 O   0  0  0  0  0  0  0  0  0  0  0  0
   68.8988   47.3086   53.5740 C   0  0  0  0  0  0  0  0  0  0  0  0
   69.7858   49.5363   51.0777 O   0  0  0  0  0  0  0  0  0  0  0  0
   70.1337   48.6431   51.9177 C   0  0  0  0  0  0  0  0  0  0  0  0
   71.3864   48.7227   52.4074 O   0  0  0  0  0  0  0  0  0  0  0  0
   69.5609   49.1800   55.1831 C   0  0  0  0  0  0  0  0  0  0  0  0
   68.6073   49.6846   56.1465 C   0  0  0  0  0  0  0  0  0  0  0  0
   67.9506   48.6918   56.9154 C   0  0  0  0  0  0  0  0  0  0  0  0
   67.0144   49.0171   57.8376 C   0  0  0  0  0  0  0  0  0  0  0  0
   66.6669   50.3372   58.0618 C   0  0  0  0  0  0  0  0  0  0  0  0
   67.2850   51.3276   57.3354 C   0  0  0  0  0  0  0  0  0  0  0  0
   68.2444   50.9850   56.3913 C   0  0  0  0  0  0  0  0  0  0  0  0
   68.8986   52.1060   55.7046 C   0  0  0  0  0  0  0  0  0  0  0  0
   70.2799   51.9834   55.8732 F   0  0  0  0  0  0  0  0  0  0  0  0
   68.6325   53.3024   56.4298 F   0  0  0  0  0  0  0  0  0  0  0  0
   68.4917   52.3549   54.4650 F   0  0  0  0  0  0  0  0  0  0  0  0
 10 11  2  0
 11 12  1  0
 11  2  1  0
  2  3  1  0
  2  9  2  0
  3  4  1  0
  4  5  2  0
  4  6  1  0
  6  7  1  0
  7  8  2  0
  7  9  1  0
  9  1  1  0
  1 13  1  0
 13 14  1  0
 14 15  2  0
 14 19  1  0
 15 16  1  0
 16 17  2  0
 17 18  1  0
 18 19  2  0
 19 20  1  0
 20 21  1  0
 20 22  1  0
 20 23  1  0
M  END
>  <minimizedAffinity>  (63) 
-9.31589

$$$$
cs_full_output_folder/data/smiles/6317.pdb
     RDKit          3D

 26 29  0  0  0  0  0  0  0  0999 V2000
   71.4452   47.1177   58.8504 C   0  0  0  0  0  0  0  0  0  0  0  0
   71.4111   45.7353   58.7493 C   0  0  0  0  0  0  0  0  0  0  0  0
   70.5610   45.1468   57.8401 C   0  0  0  0  0  0  0  0  0  0  0  0
   69.7223   45.8891   57.0068 C   0  0  0  0  0  0  0  0  0  0  0  0
   69.7658   47.2378   57.1152 C   0  0  0  0  0  0  0  0  0  0  0  0
   70.6241   47.8644   58.0347 C   0  0  0  0  0  0  0  0  0  0  0  0
   72.0016   47.6967   61.0143 O   0  0  0  0  0  0  0  0  0  0  0  0
   72.3020   47.8088   59.7890 C   0  0  0  0  0  0  0  0  0  0  0  0
   73.4006   48.5580   59.3404 N   0  0  0  0  0  0  0  0  0  0  0  0
   74.2182   49.2490   60.3377 C   0  0  0  0  0  0  0  0  0  0  0  0
   74.5935   50.5836   59.7650 C   0  0  0  0  0  0  0  0  0  0  0  0
   73.6871   51.0565   58.6568 C   0  0  0  0  0  0  0  0  0  0  0  0
   73.6592   50.1092   57.4798 C   0  0  0  0  0  0  0  0  0  0  0  0
   73.7350   48.6654   57.9369 C   0  0  0  0  0  0  0  0  0  0  0  0
   68.9277   48.1604   56.2978 C   0  0  0  0  0  0  0  0  0  0  0  0
   69.3512   48.2775   54.9012 C   0  0  0  0  0  0  0  0  0  0  0  0
   70.2653   49.2230   54.5523 N   0  0  0  0  0  0  0  0  0  0  0  0
   70.6650   49.4139   53.3129 N   0  0  0  0  0  0  0  0  0  0  0  0
   70.1690   48.6565   52.3275 C   0  0  0  0  0  0  0  0  0  0  0  0
   70.5573   48.8427   51.1326 O   0  0  0  0  0  0  0  0  0  0  0  0
   69.2382   47.6688   52.5718 C   0  0  0  0  0  0  0  0  0  0  0  0
   68.7510   46.8947   51.5471 C   0  0  0  0  0  0  0  0  0  0  0  0
   67.8341   45.9064   51.8205 C   0  0  0  0  0  0  0  0  0  0  0  0
   67.4191   45.7114   53.1334 C   0  0  0  0  0  0  0  0  0  0  0  0
   67.9225   46.4986   54.1312 C   0  0  0  0  0  0  0  0  0  0  0  0
   68.8380   47.4985   53.9104 C   0  0  0  0  0  0  0  0  0  0  0  0
  7  8  2  0
  8  1  1  0
  8  9  1  0
  1  2  2  0
  1  6  1  0
  2  3  1  0
  3  4  2  0
  4  5  1  0
  5 15  1  0
  5  6  2  0
 15 16  1  0
 16 17  2  0
 16 26  1  0
 17 18  1  0
 18 19  1  0
 19 20  2  0
 19 21  1  0
 21 22  1  0
 21 26  2  0
 22 23  2  0
 23 24  1  0
 24 25  2  0
 25 26  1  0
  9 10  1  0
  9 14  1  0
 10 11  1  0
 11 12  1  0
 12 13  1  0
 13 14  1  0
M  END
>  <minimizedAffinity>  (64) 
-9.31487

$$$$
cs_full_output_folder/data/smiles/795.pdb
     RDKit          3D

 25 27  0  0  0  0  0  0  0  0999 V2000
   69.0491   43.9182   56.9390 C   0  0  0  0  0  0  0  0  0  0  0  0
   69.9258   44.4252   57.6769 O   0  0  0  0  0  0  0  0  0  0  0  0
   68.3656   44.7428   56.0467 N   0  0  0  0  0  0  0  0  0  0  0  0
   68.9097   40.3312   57.7038 N   0  0  0  0  0  0  0  0  0  0  0  0
   69.4343   41.5795   57.8837 C   0  0  0  0  0  0  0  0  0  0  0  0
   68.7916   42.4787   57.0572 C   0  0  0  0  0  0  0  0  0  0  0  0
   67.8642   41.7227   56.3749 C   0  0  0  0  0  0  0  0  0  0  0  0
   67.9747   40.4698   56.7909 N   0  0  0  0  0  0  0  0  0  0  0  0
   70.7835   35.7009   60.4810 C   0  0  0  0  0  0  0  0  0  0  0  0
   70.2858   36.9105   59.7632 C   0  0  0  0  0  0  0  0  0  0  0  0
   69.0680   37.4718   60.0579 C   0  0  0  0  0  0  0  0  0  0  0  0
   68.5896   38.5880   59.4052 C   0  0  0  0  0  0  0  0  0  0  0  0
   69.3554   39.1792   58.4104 C   0  0  0  0  0  0  0  0  0  0  0  0
   70.5632   38.6255   58.1145 C   0  0  0  0  0  0  0  0  0  0  0  0
   71.0367   37.5100   58.7698 C   0  0  0  0  0  0  0  0  0  0  0  0
   68.5512   46.1648   55.8581 C   0  0  0  0  0  0  0  0  0  0  0  0
   68.5848   46.4440   54.4079 C   0  0  0  0  0  0  0  0  0  0  0  0
   67.8764   45.6125   53.5619 C   0  0  0  0  0  0  0  0  0  0  0  0
   67.8451   45.7985   52.2015 C   0  0  0  0  0  0  0  0  0  0  0  0
   68.5368   46.8429   51.6431 C   0  0  0  0  0  0  0  0  0  0  0  0
   69.2601   47.7030   52.4446 C   0  0  0  0  0  0  0  0  0  0  0  0
   69.2650   47.4792   53.8159 C   0  0  0  0  0  0  0  0  0  0  0  0
   69.9927   48.8087   51.8506 C   0  0  0  0  0  0  0  0  0  0  0  0
   69.9526   50.1168   52.3804 N   0  0  0  0  0  0  0  0  0  0  0  0
   70.6840   48.5849   50.8300 O   0  0  0  0  0  0  0  0  0  0  0  0
  9 10  1  0
 10 11  2  0
 10 15  1  0
 11 12  1  0
 12 13  2  0
 13  4  1  0
 13 14  1  0
  4  5  1  0
  4  8  1  0
  5  6  2  0
  6  1  1  0
  6  7  1  0
  1  2  2  0
  1  3  1  0
  3 16  1  0
 16 17  1  0
 17 18  2  0
 17 22  1  0
 18 19  1  0
 19 20  2  0
 20 21  1  0
 21 23  1  0
 21 22  2  0
 23 24  1  0
 23 25  2  0
  7  8  2  0
 14 15  2  0
M  END
>  <minimizedAffinity>  (65) 
-9.31457

$$$$
cs_full_output_folder/data/smiles/1501.pdb
     RDKit          3D

 24 26  0  0  0  0  0  0  0  0999 V2000
   70.0054   43.3605   57.4531 C   0  0  0  0  0  0  0  0  0  0  0  0
   70.7933   44.3315   58.0344 C   0  0  0  0  0  0  0  0  0  0  0  0
   70.6038   45.6720   57.7182 C   0  0  0  0  0  0  0  0  0  0  0  0
   69.6340   46.0639   56.8258 C   0  0  0  0  0  0  0  0  0  0  0  0
   68.8234   45.1033   56.2247 C   0  0  0  0  0  0  0  0  0  0  0  0
   69.0376   43.7822   56.5597 C   0  0  0  0  0  0  0  0  0  0  0  0
   70.8529   37.8134   58.8071 C   0  0  0  0  0  0  0  0  0  0  0  0
   70.6156   39.2413   58.4561 C   0  0  0  0  0  0  0  0  0  0  0  0
   69.3607   39.7329   58.1591 C   0  0  0  0  0  0  0  0  0  0  0  0
   69.1664   41.0625   57.8363 C   0  0  0  0  0  0  0  0  0  0  0  0
   70.2164   41.9571   57.7956 C   0  0  0  0  0  0  0  0  0  0  0  0
   71.4697   41.4544   58.0939 C   0  0  0  0  0  0  0  0  0  0  0  0
   71.6710   40.1266   58.4174 C   0  0  0  0  0  0  0  0  0  0  0  0
   67.8505   45.5477   55.2982 N   0  0  0  0  0  0  0  0  0  0  0  0
   68.1131   46.0964   54.0241 C   0  0  0  0  0  0  0  0  0  0  0  0
   67.6394   45.4432   52.8898 C   0  0  0  0  0  0  0  0  0  0  0  0
   67.9149   45.9683   51.6546 C   0  0  0  0  0  0  0  0  0  0  0  0
   68.6303   47.0972   51.5029 N   0  0  0  0  0  0  0  0  0  0  0  0
   69.0853   47.7225   52.5866 C   0  0  0  0  0  0  0  0  0  0  0  0
   68.8414   47.2434   53.8586 C   0  0  0  0  0  0  0  0  0  0  0  0
   70.0122   49.1876   52.3564 S   0  0  0  0  0  0  0  0  0  0  0  0
   69.3222   50.4860   53.2735 N   0  0  0  0  0  0  0  0  0  0  0  0
   71.4244   49.0075   52.8753 O   0  0  0  0  0  0  0  0  0  0  0  0
   70.0303   49.4977   50.8898 O   0  0  0  0  0  0  0  0  0  0  0  0
  7  8  1  0
  8  9  2  0
  8 13  1  0
  9 10  1  0
 10 11  2  0
 11  1  1  0
 11 12  1  0
  1  2  2  0
  1  6  1  0
  2  3  1  0
  3  4  2  0
  4  5  1  0
  5 14  1  0
  5  6  2  0
 14 15  1  0
 15 16  2  0
 15 20  1  0
 16 17  1  0
 17 18  2  0
 18 19  1  0
 19 21  1  0
 19 20  2  0
 21 22  1  0
 21 23  2  0
 21 24  2  0
 12 13  2  0
M  END
>  <minimizedAffinity>  (66) 
-9.31220

$$$$
cs_full_output_folder/data/smiles/1488.pdb
     RDKit          3D

 22 24  0  0  0  0  0  0  0  0999 V2000
   70.6364   49.4156   54.1463 C   0  0  0  0  0  0  0  0  0  0  0  0
   71.8450   49.6833   53.5687 N   0  0  0  0  0  0  0  0  0  0  0  0
   72.4328   50.6877   54.1968 N   0  0  0  0  0  0  0  0  0  0  0  0
   71.6561   51.1345   55.2131 C   0  0  0  0  0  0  0  0  0  0  0  0
   70.5357   50.3220   55.1619 C   0  0  0  0  0  0  0  0  0  0  0  0
   69.5062   48.0541   52.4096 C   0  0  0  0  0  0  0  0  0  0  0  0
   69.7250   48.3879   53.7318 C   0  0  0  0  0  0  0  0  0  0  0  0
   69.0084   47.6697   54.6795 C   0  0  0  0  0  0  0  0  0  0  0  0
   68.1180   46.6714   54.3819 C   0  0  0  0  0  0  0  0  0  0  0  0
   67.9271   46.3672   53.0490 C   0  0  0  0  0  0  0  0  0  0  0  0
   67.0225   45.3488   52.6819 O   0  0  0  0  0  0  0  0  0  0  0  0
   68.6030   47.0382   52.0579 C   0  0  0  0  0  0  0  0  0  0  0  0
   68.4331   46.7562   50.6955 O   0  0  0  0  0  0  0  0  0  0  0  0
   69.6589   49.9002   50.9372 N   0  0  0  0  0  0  0  0  0  0  0  0
   70.1823   48.7247   51.4007 O   0  0  0  0  0  0  0  0  0  0  0  0
   69.3883   50.4158   56.0733 C   0  0  0  0  0  0  0  0  0  0  0  0
   69.2947   49.6436   57.1996 C   0  0  0  0  0  0  0  0  0  0  0  0
   68.2056   49.7670   58.0184 C   0  0  0  0  0  0  0  0  0  0  0  0
   67.1712   50.6471   57.7695 C   0  0  0  0  0  0  0  0  0  0  0  0
   67.3073   51.4081   56.6200 C   0  0  0  0  0  0  0  0  0  0  0  0
   68.3785   51.3069   55.7860 C   0  0  0  0  0  0  0  0  0  0  0  0
   68.5004   52.3144   54.3242 Cl  0  0  0  0  0  0  0  0  0  0  0  0
 14 15  1  0
 15  6  1  0
  6  7  2  0
  6 12  1  0
  7  1  1  0
  7  8  1  0
  1  2  2  0
  1  5  1  0
  2  3  1  0
  3  4  1  0
  4  5  2  0
  5 16  1  0
 16 17  2  0
 16 21  1  0
 17 18  1  0
 18 19  2  0
 19 20  1  0
 20 21  2  0
 21 22  1  0
  8  9  2  0
  9 10  1  0
 10 11  1  0
 10 12  2  0
 12 13  1  0
M  END
>  <minimizedAffinity>  (67) 
-9.31011

$$$$
cs_full_output_folder/data/smiles/180.pdb
     RDKit          3D

 24 26  0  0  0  0  0  0  0  0999 V2000
   68.0050   45.8908   55.7920 N   0  0  0  0  0  0  0  0  0  0  0  0
   69.1613   47.7579   52.7732 C   0  0  0  0  0  0  0  0  0  0  0  0
   68.6858   46.9578   51.7722 C   0  0  0  0  0  0  0  0  0  0  0  0
   67.9917   45.8044   52.0825 C   0  0  0  0  0  0  0  0  0  0  0  0
   67.7914   45.4821   53.4132 C   0  0  0  0  0  0  0  0  0  0  0  0
   68.2545   46.2641   54.4519 C   0  0  0  0  0  0  0  0  0  0  0  0
   68.9404   47.4009   54.1094 C   0  0  0  0  0  0  0  0  0  0  0  0
   70.0317   49.2297   52.4218 S   0  0  0  0  0  0  0  0  0  0  0  0
   70.0131   49.4997   50.9256 O   0  0  0  0  0  0  0  0  0  0  0  0
   71.4639   49.1193   52.8539 O   0  0  0  0  0  0  0  0  0  0  0  0
   70.2618   51.2402   54.0985 C   0  0  0  0  0  0  0  0  0  0  0  0
   69.3240   50.6090   53.1743 N   0  0  0  0  0  0  0  0  0  0  0  0
   68.9606   45.2093   56.5766 C   0  0  0  0  0  0  0  0  0  0  0  0
   69.9628   45.8957   57.1315 N   0  0  0  0  0  0  0  0  0  0  0  0
   70.9082   45.3081   57.8960 C   0  0  0  0  0  0  0  0  0  0  0  0
   70.8449   43.9415   58.1190 C   0  0  0  0  0  0  0  0  0  0  0  0
   69.8161   43.2289   57.5524 C   0  0  0  0  0  0  0  0  0  0  0  0
   68.9235   43.8892   56.8099 N   0  0  0  0  0  0  0  0  0  0  0  0
   69.6717   41.7937   57.7595 C   0  0  0  0  0  0  0  0  0  0  0  0
   68.4842   41.1719   57.4034 C   0  0  0  0  0  0  0  0  0  0  0  0
   68.2344   39.8362   57.5708 C   0  0  0  0  0  0  0  0  0  0  0  0
   69.2280   39.0513   58.1292 C   0  0  0  0  0  0  0  0  0  0  0  0
   70.4237   39.6306   58.4975 C   0  0  0  0  0  0  0  0  0  0  0  0
   70.6368   40.9900   58.3112 C   0  0  0  0  0  0  0  0  0  0  0  0
 11 12  1  0
 12  8  1  0
  8  9  2  0
  8 10  2  0
  8  2  1  0
  2  3  2  0
  2  7  1  0
  3  4  1  0
  4  5  2  0
  5  6  1  0
  6  1  1  0
  6  7  2  0
  1 13  1  0
 13 14  2  0
 13 18  1  0
 14 15  1  0
 15 16  2  0
 16 17  1  0
 17 19  1  0
 17 18  2  0
 19 20  2  0
 19 24  1  0
 20 21  1  0
 21 22  2  0
 22 23  1  0
 23 24  2  0
M  END
>  <minimizedAffinity>  (68) 
-9.29920

$$$$
cs_full_output_folder/data/smiles/593.pdb
     RDKit          3D

 26 29  0  0  0  0  0  0  0  0999 V2000
   72.8367   46.3294   60.1590 C   0  0  0  0  0  0  0  0  0  0  0  0
   71.8248   46.8063   59.1833 C   0  0  0  0  0  0  0  0  0  0  0  0
   71.5606   48.1458   59.0328 C   0  0  0  0  0  0  0  0  0  0  0  0
   70.6231   48.5618   58.1304 C   0  0  0  0  0  0  0  0  0  0  0  0
   69.8874   47.6739   57.3176 C   0  0  0  0  0  0  0  0  0  0  0  0
   70.1970   46.3557   57.5154 C   0  0  0  0  0  0  0  0  0  0  0  0
   71.1402   45.8920   58.4197 C   0  0  0  0  0  0  0  0  0  0  0  0
   71.4134   44.5088   58.5877 N   0  0  0  0  0  0  0  0  0  0  0  0
   72.5097   43.8121   57.9275 C   0  0  0  0  0  0  0  0  0  0  0  0
   72.0012   42.3988   57.6744 C   0  0  0  0  0  0  0  0  0  0  0  0
   71.8358   41.6408   58.9723 C   0  0  0  0  0  0  0  0  0  0  0  0
   71.1887   42.4886   60.0389 C   0  0  0  0  0  0  0  0  0  0  0  0
   70.5786   43.7281   59.4374 C   0  0  0  0  0  0  0  0  0  0  0  0
   69.3872   44.0608   59.6748 O   0  0  0  0  0  0  0  0  0  0  0  0
   68.8951   48.2187   56.3592 C   0  0  0  0  0  0  0  0  0  0  0  0
   69.3474   48.3015   54.9690 C   0  0  0  0  0  0  0  0  0  0  0  0
   70.2498   49.2463   54.5845 N   0  0  0  0  0  0  0  0  0  0  0  0
   70.6506   49.4180   53.3433 N   0  0  0  0  0  0  0  0  0  0  0  0
   70.1994   48.6673   52.3318 C   0  0  0  0  0  0  0  0  0  0  0  0
   70.5669   48.8151   51.1392 O   0  0  0  0  0  0  0  0  0  0  0  0
   69.2676   47.6720   52.6547 C   0  0  0  0  0  0  0  0  0  0  0  0
   68.7830   46.8478   51.6417 C   0  0  0  0  0  0  0  0  0  0  0  0
   67.8844   45.8408   51.9044 C   0  0  0  0  0  0  0  0  0  0  0  0
   67.4937   45.6969   53.2314 C   0  0  0  0  0  0  0  0  0  0  0  0
   67.9699   46.5068   54.2294 C   0  0  0  0  0  0  0  0  0  0  0  0
   68.8539   47.4963   53.9465 C   0  0  0  0  0  0  0  0  0  0  0  0
  1  2  1  0
  2  3  2  0
  2  7  1  0
  3  4  1  0
  4  5  2  0
  5 15  1  0
  5  6  1  0
 15 16  1  0
 16 17  2  0
 16 26  1  0
 17 18  1  0
 18 19  1  0
 19 20  2  0
 19 21  1  0
 21 22  1  0
 21 26  2  0
 22 23  2  0
 23 24  1  0
 24 25  2  0
 25 26  1  0
  6  7  2  0
  7  8  1  0
  8  9  1  0
  8 13  1  0
  9 10  1  0
 10 11  1  0
 11 12  1  0
 12 13  1  0
 13 14  2  0
M  END
>  <minimizedAffinity>  (69) 
-9.29892

$$$$
cs_full_output_folder/data/smiles/7707.pdb
     RDKit          3D

 25 27  0  0  0  0  0  0  0  0999 V2000
   67.2021   41.5454   57.7490 C   0  0  0  0  0  0  0  0  0  0  0  0
   68.4140   40.7053   57.9777 C   0  0  0  0  0  0  0  0  0  0  0  0
   69.6752   41.2535   58.0874 C   0  0  0  0  0  0  0  0  0  0  0  0
   70.7930   40.4719   58.2971 C   0  0  0  0  0  0  0  0  0  0  0  0
   70.7073   39.1011   58.4091 C   0  0  0  0  0  0  0  0  0  0  0  0
   69.4418   38.5587   58.2987 C   0  0  0  0  0  0  0  0  0  0  0  0
   68.3211   39.3340   58.0884 C   0  0  0  0  0  0  0  0  0  0  0  0
   71.8881   38.2677   58.6313 C   0  0  0  0  0  0  0  0  0  0  0  0
   72.0725   37.1347   57.8668 C   0  0  0  0  0  0  0  0  0  0  0  0
   73.1759   36.3114   58.0371 C   0  0  0  0  0  0  0  0  0  0  0  0
   74.1321   36.6052   58.9877 C   0  0  0  0  0  0  0  0  0  0  0  0
   73.9650   37.7293   59.7581 C   0  0  0  0  0  0  0  0  0  0  0  0
   72.8539   38.5465   59.5760 C   0  0  0  0  0  0  0  0  0  0  0  0
   66.8247   41.7584   55.3925 O   0  0  0  0  0  0  0  0  0  0  0  0
   67.2971   42.2435   56.4193 C   0  0  0  0  0  0  0  0  0  0  0  0
   67.9500   43.4792   56.3903 N   0  0  0  0  0  0  0  0  0  0  0  0
   68.1872   44.3367   55.3432 N   0  0  0  0  0  0  0  0  0  0  0  0
   68.3103   45.7296   55.3046 C   0  0  0  0  0  0  0  0  0  0  0  0
   68.1966   46.3619   56.3792 O   0  0  0  0  0  0  0  0  0  0  0  0
   68.5678   46.4878   54.0706 C   0  0  0  0  0  0  0  0  0  0  0  0
   69.1765   47.7138   54.1902 C   0  0  0  0  0  0  0  0  0  0  0  0
   69.4700   48.5202   53.0901 C   0  0  0  0  0  0  0  0  0  0  0  0
   69.1320   48.0647   51.8347 C   0  0  0  0  0  0  0  0  0  0  0  0
   68.5281   46.8459   51.7245 C   0  0  0  0  0  0  0  0  0  0  0  0
   68.2354   46.0381   52.8327 C   0  0  0  0  0  0  0  0  0  0  0  0
 14 15  2  0
 15  1  1  0
 15 16  1  0
  1  2  1  0
  2  3  2  0
  2  7  1  0
  3  4  1  0
  4  5  2  0
  5  8  1  0
  5  6  1  0
  8  9  2  0
  8 13  1  0
  9 10  1  0
 10 11  2  0
 11 12  1  0
 12 13  2  0
  6  7  2  0
 16 17  1  0
 17 18  1  0
 18 19  2  0
 18 20  1  0
 20 21  2  0
 20 25  1  0
 21 22  1  0
 22 23  2  0
 23 24  1  0
 24 25  2  0
M  END
>  <minimizedAffinity>  (70) 
-9.28962

$$$$
cs_full_output_folder/data/smiles/2447.pdb
     RDKit          3D

 24 26  0  0  0  0  0  0  0  0999 V2000
   67.3557   47.5210   57.1137 O   0  0  0  0  0  0  0  0  0  0  0  0
   68.4706   47.7537   56.5346 C   0  0  0  0  0  0  0  0  0  0  0  0
   68.5412   47.5099   55.1094 C   0  0  0  0  0  0  0  0  0  0  0  0
   67.7654   46.5625   54.4802 C   0  0  0  0  0  0  0  0  0  0  0  0
   67.8363   46.3327   53.1109 C   0  0  0  0  0  0  0  0  0  0  0  0
   67.0483   45.3764   52.4936 O   0  0  0  0  0  0  0  0  0  0  0  0
   68.7178   47.0871   52.3688 C   0  0  0  0  0  0  0  0  0  0  0  0
   68.7889   46.8587   50.9975 O   0  0  0  0  0  0  0  0  0  0  0  0
   69.5048   48.0438   52.9893 C   0  0  0  0  0  0  0  0  0  0  0  0
   69.4188   48.2538   54.3411 C   0  0  0  0  0  0  0  0  0  0  0  0
   70.3885   48.7743   52.1466 N   0  0  2  0  0  0  0  0  0  0  0  0
   71.5149   49.1184   52.7797 O   0  0  0  0  0  0  0  0  0  0  0  0
   69.7261   49.8398   51.6605 F   0  0  0  0  0  0  0  0  0  0  0  0
   69.6031   48.2459   57.3321 C   0  0  0  0  0  0  0  0  0  0  0  0
   69.5296   49.7208   57.5293 C   0  0  0  0  0  0  0  0  0  0  0  0
   70.7176   50.3583   57.9301 C   0  0  0  0  0  0  0  0  0  0  0  0
   70.9009   51.7181   57.9581 C   0  0  0  0  0  0  0  0  0  0  0  0
   70.7613   52.5801   56.9001 C   0  0  0  0  0  0  0  0  0  0  0  0
   70.6716   52.2961   55.5639 C   0  0  0  0  0  0  0  0  0  0  0  0
   69.6610   51.6590   54.8963 C   0  0  0  0  0  0  0  0  0  0  0  0
   68.3194   51.6434   55.1466 C   0  0  0  0  0  0  0  0  0  0  0  0
   67.8206   51.2341   56.3498 C   0  0  0  0  0  0  0  0  0  0  0  0
   67.0505   50.9805   57.5050 C   0  0  0  0  0  0  0  0  0  0  0  0
   68.3809   50.3922   57.3491 C   0  0  0  0  0  0  0  0  0  0  0  0
  1  2  2  0
  2 14  1  0
  2  3  1  0
 14 15  1  0
 15 16  2  0
 15 24  1  0
 16 17  1  0
 17 18  2  0
 18 19  1  0
 19 20  2  0
 20 21  1  0
 21 22  2  0
 22 23  1  0
 22 24  1  0
 23 24  2  0
  3  4  2  0
  3 10  1  0
  4  5  1  0
  5  6  1  0
  5  7  2  0
  7  8  1  0
  7  9  1  0
  9 11  1  0
  9 10  2  0
 11 12  1  1
 11 13  1  0
M  CHG  2  11   1  12  -1
M  END
>  <minimizedAffinity>  (71) 
-9.28520

$$$$
cs_full_output_folder/data/smiles/3905.pdb
     RDKit          3D

 22 24  0  0  0  0  0  0  0  0999 V2000
   68.2640   46.0471   55.9767 N   0  0  0  0  0  0  0  0  0  0  0  0
   69.1593   47.7799   52.8110 C   0  0  0  0  0  0  0  0  0  0  0  0
   68.5961   46.9600   51.8819 C   0  0  0  0  0  0  0  0  0  0  0  0
   67.9165   45.8194   52.2933 C   0  0  0  0  0  0  0  0  0  0  0  0
   67.8222   45.5327   53.6467 C   0  0  0  0  0  0  0  0  0  0  0  0
   68.3890   46.3569   54.5918 C   0  0  0  0  0  0  0  0  0  0  0  0
   69.0522   47.4739   54.1422 C   0  0  0  0  0  0  0  0  0  0  0  0
   69.2798   50.5245   53.3171 N   0  0  0  0  0  0  0  0  0  0  0  0
   70.0349   49.2587   52.3795 S   0  0  0  0  0  0  0  0  0  0  0  0
   71.4395   49.1469   52.8836 O   0  0  0  0  0  0  0  0  0  0  0  0
   69.9528   49.5169   50.9187 O   0  0  0  0  0  0  0  0  0  0  0  0
   68.7510   44.8111   56.4688 C   0  0  0  0  0  0  0  0  0  0  0  0
   69.8731   44.7595   57.2094 N   0  0  0  0  0  0  0  0  0  0  0  0
   70.3875   43.6207   57.7068 C   0  0  0  0  0  0  0  0  0  0  0  0
   69.7445   42.4337   57.4530 C   0  0  0  0  0  0  0  0  0  0  0  0
   68.5785   42.4476   56.6893 C   0  0  0  0  0  0  0  0  0  0  0  0
   68.1358   43.6312   56.2332 N   0  0  0  0  0  0  0  0  0  0  0  0
   67.8576   41.1701   56.4013 C   0  0  0  0  0  0  0  0  0  0  0  0
   67.7900   40.4187   57.7249 C   0  0  0  0  0  0  0  0  0  0  0  0
   68.2745   39.2934   58.1558 C   0  0  0  0  0  0  0  0  0  0  0  0
   67.6909   39.4469   59.4718 C   0  0  0  0  0  0  0  0  0  0  0  0
   67.1386   40.7075   58.9921 C   0  0  0  0  0  0  0  0  0  0  0  0
  8  9  1  0
  9 10  2  0
  9 11  2  0
  9  2  1  0
  2  3  2  0
  2  7  1  0
  3  4  1  0
  4  5  2  0
  5  6  1  0
  6  1  1  0
  6  7  2  0
  1 12  1  0
 12 13  2  0
 12 17  1  0
 13 14  1  0
 14 15  2  0
 15 16  1  0
 16 18  1  0
 16 17  2  0
 18 19  1  0
 19 20  2  0
 19 22  1  0
 20 21  1  0
 21 22  1  0
M  END
>  <minimizedAffinity>  (72) 
-9.28187

$$$$
cs_full_output_folder/data/smiles/7971.pdb
     RDKit          3D

 26 28  0  0  0  0  0  0  0  0999 V2000
   69.2101   46.8419   57.2567 N   0  0  0  0  0  0  0  0  0  0  0  0
   68.6755   47.5073   56.2915 C   0  0  0  0  0  0  0  0  0  0  0  0
   68.6735   47.0649   54.9178 C   0  0  0  0  0  0  0  0  0  0  0  0
   69.2634   47.7899   53.9141 C   0  0  0  0  0  0  0  0  0  0  0  0
   69.1846   47.4635   52.5597 C   0  0  0  0  0  0  0  0  0  0  0  0
   68.4872   46.3589   52.1845 C   0  0  0  0  0  0  0  0  0  0  0  0
   67.8752   45.5877   53.1386 C   0  0  0  0  0  0  0  0  0  0  0  0
   67.9646   45.9337   54.4885 C   0  0  0  0  0  0  0  0  0  0  0  0
   68.0258   48.7741   56.6944 C   0  0  0  0  0  0  0  0  0  0  0  0
   68.5840   49.9927   56.2868 C   0  0  0  0  0  0  0  0  0  0  0  0
   68.1482   51.2141   56.7083 C   0  0  0  0  0  0  0  0  0  0  0  0
   67.0749   51.2435   57.6037 C   0  0  0  0  0  0  0  0  0  0  0  0
   66.4970   50.0936   58.0338 C   0  0  0  0  0  0  0  0  0  0  0  0
   66.9945   48.8641   57.5636 C   0  0  0  0  0  0  0  0  0  0  0  0
   70.6677   45.2164   58.3446 C   0  0  0  0  0  0  0  0  0  0  0  0
   70.7569   45.9820   59.3293 O   0  0  0  0  0  0  0  0  0  0  0  0
   69.8478   45.6690   57.2439 N   0  0  0  0  0  0  0  0  0  0  0  0
   70.6343   42.7856   58.6026 C   0  0  0  0  0  0  0  0  0  0  0  0
   71.2114   41.5176   58.5318 C   0  0  0  0  0  0  0  0  0  0  0  0
   72.5268   41.4076   58.1147 C   0  0  0  0  0  0  0  0  0  0  0  0
   73.2617   42.5203   57.7734 C   0  0  0  0  0  0  0  0  0  0  0  0
   72.6471   43.7653   57.8579 C   0  0  0  0  0  0  0  0  0  0  0  0
   71.3431   43.9170   58.2671 C   0  0  0  0  0  0  0  0  0  0  0  0
   68.2726   42.5499   58.3602 O   0  0  0  0  0  0  0  0  0  0  0  0
   69.2565   42.8943   59.0549 C   0  0  0  0  0  0  0  0  0  0  0  0
   68.9761   43.3997   60.3180 O   0  0  0  0  0  0  0  0  0  0  0  0
 24 25  2  0
 25 26  1  0
 25 18  1  0
 18 19  2  0
 18 23  1  0
 19 20  1  0
 20 21  2  0
 21 22  1  0
 22 23  2  0
 23 15  1  0
 15 16  2  0
 15 17  1  0
 17  1  1  0
  1  2  2  0
  2  3  1  0
  2  9  1  0
  3  4  2  0
  3  8  1  0
  4  5  1  0
  5  6  2  0
  6  7  1  0
  7  8  2  0
  9 10  2  0
  9 14  1  0
 10 11  1  0
 11 12  2  0
 12 13  1  0
 13 14  2  0
M  END
>  <minimizedAffinity>  (73) 
-9.27808

$$$$
cs_full_output_folder/data/smiles/342.pdb
     RDKit          3D

 22 24  0  0  0  0  0  0  0  0999 V2000
   70.5394   50.9623   53.2136 N   0  0  0  0  0  0  0  0  0  0  0  0
   69.9231   49.7156   52.9426 C   0  0  0  0  0  0  0  0  0  0  0  0
   69.5989   48.9106   54.0200 C   0  0  0  0  0  0  0  0  0  0  0  0
   68.9891   47.6784   53.7458 C   0  0  0  0  0  0  0  0  0  0  0  0
   68.6460   46.8406   54.8001 C   0  0  0  0  0  0  0  0  0  0  0  0
   68.0517   45.6475   54.5030 C   0  0  0  0  0  0  0  0  0  0  0  0
   67.7703   45.2202   53.2257 C   0  0  0  0  0  0  0  0  0  0  0  0
   68.1093   46.0484   52.1877 C   0  0  0  0  0  0  0  0  0  0  0  0
   68.7107   47.2606   52.4553 C   0  0  0  0  0  0  0  0  0  0  0  0
   69.0503   48.0864   51.4793 O   0  0  0  0  0  0  0  0  0  0  0  0
   69.6225   49.2468   51.6856 C   0  0  0  0  0  0  0  0  0  0  0  0
   69.9082   49.9664   50.6672 O   0  0  0  0  0  0  0  0  0  0  0  0
   69.8232   49.3602   55.3117 N   0  0  0  0  0  0  0  0  0  0  0  0
   68.7845   49.7635   56.1848 C   0  0  0  0  0  0  0  0  0  0  0  0
   68.1753   48.7551   56.9746 C   0  0  0  0  0  0  0  0  0  0  0  0
   67.1629   48.9925   57.8562 C   0  0  0  0  0  0  0  0  0  0  0  0
   66.7179   50.2829   57.9760 C   0  0  0  0  0  0  0  0  0  0  0  0
   67.2737   51.2975   57.2354 C   0  0  0  0  0  0  0  0  0  0  0  0
   68.3225   51.0386   56.3264 C   0  0  0  0  0  0  0  0  0  0  0  0
   68.8789   52.1766   55.6166 C   0  0  0  0  0  0  0  0  0  0  0  0
   68.3817   52.6345   54.5785 O   0  0  0  0  0  0  0  0  0  0  0  0
   70.3524   53.0148   56.2032 S   0  0  0  0  0  0  0  0  0  0  0  0
  1  2  1  0
  2  3  2  0
  2 11  1  0
  3 13  1  0
  3  4  1  0
 13 14  1  0
 14 15  2  0
 14 19  1  0
 15 16  1  0
 16 17  2  0
 17 18  1  0
 18 19  2  0
 19 20  1  0
 20 21  2  0
 20 22  1  0
  4  5  2  0
  4  9  1  0
  5  6  1  0
  6  7  2  0
  7  8  1  0
  8  9  2  0
  9 10  1  0
 10 11  1  0
 11 12  2  0
M  END
>  <minimizedAffinity>  (74) 
-9.27670

$$$$
cs_full_output_folder/data/smiles/5822.pdb
     RDKit          3D

 26 29  0  0  0  0  0  0  0  0999 V2000
   70.8877   45.7386   58.1022 C   0  0  0  0  0  0  0  0  0  0  0  0
   70.0276   46.3758   57.2351 C   0  0  0  0  0  0  0  0  0  0  0  0
   69.8196   47.7290   57.1833 C   0  0  0  0  0  0  0  0  0  0  0  0
   70.5684   48.4796   58.1074 C   0  0  0  0  0  0  0  0  0  0  0  0
   71.4420   47.9095   58.9984 C   0  0  0  0  0  0  0  0  0  0  0  0
   71.5940   46.5238   58.9858 C   0  0  0  0  0  0  0  0  0  0  0  0
   72.4687   46.0125   59.8868 F   0  0  0  0  0  0  0  0  0  0  0  0
   71.5976   40.0941   58.2393 N   0  0  0  0  0  0  0  0  0  0  0  0
   71.4194   41.5012   58.2053 C   0  0  0  0  0  0  0  0  0  0  0  0
   72.4503   42.3303   57.8308 C   0  0  0  0  0  0  0  0  0  0  0  0
   72.2973   43.7155   57.7911 C   0  0  0  0  0  0  0  0  0  0  0  0
   71.0855   44.2961   58.1321 C   0  0  0  0  0  0  0  0  0  0  0  0
   70.0667   43.4459   58.5037 C   0  0  0  0  0  0  0  0  0  0  0  0
   70.2179   42.0655   58.5440 C   0  0  0  0  0  0  0  0  0  0  0  0
   68.8827   48.4297   56.2621 C   0  0  0  0  0  0  0  0  0  0  0  0
   69.3318   48.4484   54.8539 C   0  0  0  0  0  0  0  0  0  0  0  0
   70.2400   49.3991   54.4659 N   0  0  0  0  0  0  0  0  0  0  0  0
   70.6601   49.5212   53.2295 N   0  0  0  0  0  0  0  0  0  0  0  0
   70.1821   48.6819   52.3032 C   0  0  0  0  0  0  0  0  0  0  0  0
   70.5534   48.7567   51.0929 O   0  0  0  0  0  0  0  0  0  0  0  0
   69.2557   47.6854   52.6112 C   0  0  0  0  0  0  0  0  0  0  0  0
   68.7988   46.8340   51.6282 C   0  0  0  0  0  0  0  0  0  0  0  0
   67.8965   45.8585   51.9867 C   0  0  0  0  0  0  0  0  0  0  0  0
   67.4694   45.7451   53.2930 C   0  0  0  0  0  0  0  0  0  0  0  0
   67.9136   46.5810   54.2740 C   0  0  0  0  0  0  0  0  0  0  0  0
   68.8308   47.5798   53.9290 C   0  0  0  0  0  0  0  0  0  0  0  0
  8  9  1  0
  9 10  2  0
  9 14  1  0
 10 11  1  0
 11 12  2  0
 12  1  1  0
 12 13  1  0
  1  2  2  0
  1  6  1  0
  2  3  1  0
  3 15  1  0
  3  4  2  0
 15 16  1  0
 16 17  2  0
 16 26  1  0
 17 18  1  0
 18 19  1  0
 19 20  2  0
 19 21  1  0
 21 22  1  0
 21 26  2  0
 22 23  2  0
 23 24  1  0
 24 25  2  0
 25 26  1  0
  4  5  1  0
  5  6  2  0
  6  7  1  0
 13 14  2  0
M  END
>  <minimizedAffinity>  (75) 
-9.27578

$$$$
cs_full_output_folder/data/smiles/7444.pdb
     RDKit          3D

 24 27  0  0  0  0  0  0  0  0999 V2000
   69.0632   47.4387   55.9331 C   0  0  0  0  0  0  0  0  0  0  0  0
   68.5928   48.7921   56.3147 C   0  0  0  0  0  0  0  0  0  0  0  0
   67.7298   48.9769   57.3650 C   0  0  0  0  0  0  0  0  0  0  0  0
   67.3108   50.2709   57.6991 C   0  0  0  0  0  0  0  0  0  0  0  0
   67.7838   51.3363   56.9538 C   0  0  0  0  0  0  0  0  0  0  0  0
   68.6575   51.1107   55.8954 C   0  0  0  0  0  0  0  0  0  0  0  0
   69.0746   49.8432   55.5589 C   0  0  0  0  0  0  0  0  0  0  0  0
   70.0114   49.5851   54.4025 C   0  0  0  0  0  0  0  0  0  0  0  0
   69.4186   48.4026   53.7195 C   0  0  0  0  0  0  0  0  0  0  0  0
   69.3373   48.3633   52.3479 C   0  0  0  0  0  0  0  0  0  0  0  0
   68.7825   47.2719   51.6738 C   0  0  0  0  0  0  0  0  0  0  0  0
   68.3120   46.2187   52.4515 C   0  0  0  0  0  0  0  0  0  0  0  0
   68.3985   46.2668   53.8366 C   0  0  0  0  0  0  0  0  0  0  0  0
   68.9457   47.3449   54.4688 C   0  0  0  0  0  0  0  0  0  0  0  0
   68.4826   46.3632   56.6637 N   0  0  0  0  0  0  0  0  0  0  0  0
   70.0194   45.8408   58.8590 O   0  0  0  0  0  0  0  0  0  0  0  0
   70.2111   45.0799   57.8815 C   0  0  0  0  0  0  0  0  0  0  0  0
   69.4237   45.3295   56.7261 N   0  0  0  0  0  0  0  0  0  0  0  0
   71.1998   44.0141   57.9828 C   0  0  0  0  0  0  0  0  0  0  0  0
   70.8867   42.6757   57.9769 C   0  0  0  0  0  0  0  0  0  0  0  0
   71.8544   41.6876   58.0748 C   0  0  0  0  0  0  0  0  0  0  0  0
   73.1895   42.0169   58.1850 C   0  0  0  0  0  0  0  0  0  0  0  0
   73.5104   43.3571   58.1928 C   0  0  0  0  0  0  0  0  0  0  0  0
   72.5387   44.3299   58.0941 C   0  0  0  0  0  0  0  0  0  0  0  0
 16 17  2  0
 17 18  1  0
 17 19  1  0
 18 15  1  0
 15  1  1  0
  1  2  1  0
  1 14  1  0
  2  3  2  0
  2  7  1  0
  3  4  1  0
  4  5  2  0
  5  6  1  0
  6  7  2  0
  7  8  1  0
  8  9  1  0
  9 10  2  0
  9 14  1  0
 10 11  1  0
 11 12  2  0
 12 13  1  0
 13 14  2  0
 19 20  2  0
 19 24  1  0
 20 21  1  0
 21 22  2  0
 22 23  1  0
 23 24  2  0
M  END
>  <minimizedAffinity>  (76) 
-9.26856

$$$$
cs_full_output_folder/data/smiles/4685.pdb
     RDKit          3D

 23 25  0  0  0  0  0  0  0  0999 V2000
   71.5639   47.9142   58.9501 C   0  0  0  0  0  0  0  0  0  0  0  0
   70.7857   46.8651   58.2326 C   0  0  0  0  0  0  0  0  0  0  0  0
   69.7460   47.1947   57.3594 C   0  0  0  0  0  0  0  0  0  0  0  0
   69.0381   46.2169   56.7050 C   0  0  0  0  0  0  0  0  0  0  0  0
   69.3979   44.9491   56.9482 N   0  0  0  0  0  0  0  0  0  0  0  0
   70.4098   44.6367   57.7980 C   0  0  0  0  0  0  0  0  0  0  0  0
   71.1077   45.5859   58.4429 N   0  0  0  0  0  0  0  0  0  0  0  0
   70.7018   43.2167   57.9753 C   0  0  0  0  0  0  0  0  0  0  0  0
   69.6999   42.2618   57.8902 C   0  0  0  0  0  0  0  0  0  0  0  0
   70.0147   40.9272   58.0636 C   0  0  0  0  0  0  0  0  0  0  0  0
   71.2940   40.4825   58.3204 C   0  0  0  0  0  0  0  0  0  0  0  0
   72.2940   41.4344   58.4043 C   0  0  0  0  0  0  0  0  0  0  0  0
   71.9761   42.7730   58.2304 C   0  0  0  0  0  0  0  0  0  0  0  0
   68.0113   46.5336   55.8431 O   0  0  0  0  0  0  0  0  0  0  0  0
   68.2689   46.6705   54.4841 C   0  0  0  0  0  0  0  0  0  0  0  0
   67.6917   45.7959   53.5875 C   0  0  0  0  0  0  0  0  0  0  0  0
   67.9337   45.9094   52.2164 C   0  0  0  0  0  0  0  0  0  0  0  0
   68.7594   46.9040   51.7339 C   0  0  0  0  0  0  0  0  0  0  0  0
   69.3438   47.7859   52.6163 C   0  0  0  0  0  0  0  0  0  0  0  0
   69.0905   47.6566   53.9811 C   0  0  0  0  0  0  0  0  0  0  0  0
   70.2067   48.8251   52.1125 C   0  0  0  0  0  0  0  0  0  0  0  0
   69.7828   49.6266   51.0329 N   0  0  0  0  0  0  0  0  0  0  0  0
   71.3229   49.0183   52.6247 O   0  0  0  0  0  0  0  0  0  0  0  0
  1  2  1  0
  2  3  2  0
  2  7  1  0
  3  4  1  0
  4 14  1  0
  4  5  2  0
 14 15  1  0
 15 16  2  0
 15 20  1  0
 16 17  1  0
 17 18  2  0
 18 19  1  0
 19 21  1  0
 19 20  2  0
 21 22  1  0
 21 23  2  0
  5  6  1  0
  6  8  1  0
  6  7  2  0
  8  9  2  0
  8 13  1  0
  9 10  1  0
 10 11  2  0
 11 12  1  0
 12 13  2  0
M  END
>  <minimizedAffinity>  (77) 
-9.26597

$$$$
cs_full_output_folder/data/smiles/6619.pdb
     RDKit          3D

 23 25  0  0  0  0  0  0  0  0999 V2000
   68.8183   45.4757   56.4014 C   0  0  0  0  0  0  0  0  0  0  0  0
   69.8796   46.0857   57.0319 C   0  0  0  0  0  0  0  0  0  0  0  0
   70.7614   45.3731   57.8371 C   0  0  0  0  0  0  0  0  0  0  0  0
   71.8020   45.9917   58.4508 F   0  0  0  0  0  0  0  0  0  0  0  0
   70.5451   44.0557   57.9858 N   0  0  0  0  0  0  0  0  0  0  0  0
   69.5145   43.4442   57.3776 C   0  0  0  0  0  0  0  0  0  0  0  0
   68.6602   44.1537   56.5926 N   0  0  0  0  0  0  0  0  0  0  0  0
   69.3309   42.0071   57.5770 C   0  0  0  0  0  0  0  0  0  0  0  0
   70.2801   41.2668   58.2473 C   0  0  0  0  0  0  0  0  0  0  0  0
   70.1307   39.9218   58.4461 C   0  0  0  0  0  0  0  0  0  0  0  0
   69.0200   39.2544   57.9809 C   0  0  0  0  0  0  0  0  0  0  0  0
   68.0577   39.9801   57.3061 C   0  0  0  0  0  0  0  0  0  0  0  0
   68.2223   41.3409   57.1126 C   0  0  0  0  0  0  0  0  0  0  0  0
   67.9749   46.2432   55.6101 O   0  0  0  0  0  0  0  0  0  0  0  0
   69.2999   47.7467   52.4837 C   0  0  0  0  0  0  0  0  0  0  0  0
   68.6764   46.8989   51.5893 C   0  0  0  0  0  0  0  0  0  0  0  0
   67.8500   45.8665   51.9842 C   0  0  0  0  0  0  0  0  0  0  0  0
   67.6317   45.6706   53.3508 C   0  0  0  0  0  0  0  0  0  0  0  0
   68.2297   46.4875   54.2674 C   0  0  0  0  0  0  0  0  0  0  0  0
   69.0430   47.5008   53.8278 C   0  0  0  0  0  0  0  0  0  0  0  0
   69.8017   49.6915   51.0066 N   0  0  0  0  0  0  0  0  0  0  0  0
   70.1685   48.8292   52.0519 C   0  0  0  0  0  0  0  0  0  0  0  0
   71.2667   48.9917   52.6280 O   0  0  0  0  0  0  0  0  0  0  0  0
 21 22  1  0
 22 23  2  0
 22 15  1  0
 15 16  2  0
 15 20  1  0
 16 17  1  0
 17 18  2  0
 18 19  1  0
 19 14  1  0
 19 20  2  0
 14  1  1  0
  1  2  2  0
  1  7  1  0
  2  3  1  0
  3  4  1  0
  3  5  2  0
  5  6  1  0
  6  8  1  0
  6  7  2  0
  8  9  2  0
  8 13  1  0
  9 10  1  0
 10 11  2  0
 11 12  1  0
 12 13  2  0
M  END
>  <minimizedAffinity>  (78) 
-9.26572

$$$$
cs_full_output_folder/data/smiles/6421.pdb
     RDKit          3D

 24 26  0  0  0  0  0  0  0  0999 V2000
   71.1980   46.5223   58.4767 C   0  0  0  0  0  0  0  0  0  0  0  0
   70.2513   45.6892   57.6955 C   0  0  0  0  0  0  0  0  0  0  0  0
   69.4847   46.3187   56.7403 C   0  0  0  0  0  0  0  0  0  0  0  0
   68.6036   45.5418   56.0136 C   0  0  0  0  0  0  0  0  0  0  0  0
   68.5227   44.2211   56.2573 N   0  0  0  0  0  0  0  0  0  0  0  0
   69.2690   43.6052   57.1887 C   0  0  0  0  0  0  0  0  0  0  0  0
   70.1270   44.3598   57.8968 N   0  0  0  0  0  0  0  0  0  0  0  0
   69.1717   42.1684   57.4446 C   0  0  0  0  0  0  0  0  0  0  0  0
   68.1047   41.4475   56.9498 C   0  0  0  0  0  0  0  0  0  0  0  0
   67.9913   40.0902   57.1786 C   0  0  0  0  0  0  0  0  0  0  0  0
   68.9348   39.3981   57.9072 C   0  0  0  0  0  0  0  0  0  0  0  0
   70.0021   40.1199   58.4016 C   0  0  0  0  0  0  0  0  0  0  0  0
   70.1212   41.4878   58.1749 C   0  0  0  0  0  0  0  0  0  0  0  0
   67.8015   46.1296   55.0304 O   0  0  0  0  0  0  0  0  0  0  0  0
   68.3834   46.7296   53.9410 C   0  0  0  0  0  0  0  0  0  0  0  0
   68.2883   46.2100   52.6675 C   0  0  0  0  0  0  0  0  0  0  0  0
   68.8754   46.8174   51.5776 C   0  0  0  0  0  0  0  0  0  0  0  0
   69.5897   47.9824   51.7137 C   0  0  0  0  0  0  0  0  0  0  0  0
   69.7034   48.5314   52.9819 C   0  0  0  0  0  0  0  0  0  0  0  0
   69.1140   47.9167   54.0623 C   0  0  0  0  0  0  0  0  0  0  0  0
   70.4618   49.7663   53.1231 C   0  0  0  0  0  0  0  0  0  0  0  0
   70.0910   50.8362   52.5623 O   0  0  0  0  0  0  0  0  0  0  0  0
   71.6369   49.8309   53.8880 N   0  0  0  0  0  0  0  0  0  0  0  0
   72.3789   51.0272   54.0305 N   0  0  0  0  0  0  0  0  0  0  0  0
  1  2  1  0
  2  3  2  0
  2  7  1  0
  3  4  1  0
  4 14  1  0
  4  5  2  0
 14 15  1  0
 15 16  2  0
 15 20  1  0
 16 17  1  0
 17 18  2  0
 18 19  1  0
 19 21  1  0
 19 20  2  0
 21 22  2  0
 21 23  1  0
 23 24  1  0
  5  6  1  0
  6  8  1  0
  6  7  2  0
  8  9  2  0
  8 13  1  0
  9 10  1  0
 10 11  2  0
 11 12  1  0
 12 13  2  0
M  END
>  <minimizedAffinity>  (79) 
-9.26349

$$$$
cs_full_output_folder/data/smiles/36.pdb
     RDKit          3D

 24 26  0  0  0  0  0  0  0  0999 V2000
   70.0498   39.5311   58.8357 C   0  0  0  0  0  0  0  0  0  0  0  0
   70.6113   40.7902   58.8350 C   0  0  0  0  0  0  0  0  0  0  0  0
   70.0663   41.8036   58.0727 C   0  0  0  0  0  0  0  0  0  0  0  0
   68.9495   41.6175   57.2817 C   0  0  0  0  0  0  0  0  0  0  0  0
   68.3807   40.3608   57.2765 C   0  0  0  0  0  0  0  0  0  0  0  0
   68.9334   39.3481   58.0449 C   0  0  0  0  0  0  0  0  0  0  0  0
   67.2660   40.4445   56.3957 N   0  0  0  0  0  0  0  0  0  0  0  0
   67.1320   41.7415   55.8502 C   0  0  0  0  0  0  0  0  0  0  0  0
   66.2680   42.1848   55.0381 O   0  0  0  0  0  0  0  0  0  0  0  0
   68.2079   42.5272   56.4046 C   0  0  0  0  0  0  0  0  0  0  0  0
   68.4374   43.7737   56.1538 N   0  0  0  0  0  0  0  0  0  0  0  0
   71.2536   37.3861   58.7419 C   0  0  0  0  0  0  0  0  0  0  0  0
   70.6211   38.4153   59.6531 C   0  0  0  0  0  0  0  0  0  0  0  0
   67.6404   44.5310   55.2867 N   0  0  0  0  0  0  0  0  0  0  0  0
   68.2081   45.6978   54.6877 C   0  0  0  0  0  0  0  0  0  0  0  0
   68.7659   46.6958   55.4610 C   0  0  0  0  0  0  0  0  0  0  0  0
   69.3154   47.8216   54.8900 C   0  0  0  0  0  0  0  0  0  0  0  0
   69.3130   47.9683   53.5235 C   0  0  0  0  0  0  0  0  0  0  0  0
   68.7605   46.9835   52.7316 C   0  0  0  0  0  0  0  0  0  0  0  0
   68.2078   45.8495   53.3088 C   0  0  0  0  0  0  0  0  0  0  0  0
   70.0267   49.4260   52.8528 S   0  0  0  0  0  0  0  0  0  0  0  0
   69.9021   49.4580   51.1312 N   0  0  0  0  0  0  0  0  0  0  0  0
   71.4770   49.5206   53.2338 O   0  0  0  0  0  0  0  0  0  0  0  0
   69.3229   50.6423   53.3805 O   0  0  0  0  0  0  0  0  0  0  0  0
 12 13  1  0
 13  1  1  0
  1  2  2  0
  1  6  1  0
  2  3  1  0
  3  4  2  0
  4  5  1  0
  4 10  1  0
  5  6  2  0
  5  7  1  0
  7  8  1  0
  8  9  2  0
  8 10  1  0
 10 11  2  0
 11 14  1  0
 14 15  1  0
 15 16  2  0
 15 20  1  0
 16 17  1  0
 17 18  2  0
 18 21  1  0
 18 19  1  0
 21 22  1  0
 21 23  2  0
 21 24  2  0
 19 20  2  0
M  END
>  <minimizedAffinity>  (80) 
-9.25973

$$$$
cs_full_output_folder/data/smiles/6340.pdb
     RDKit          3D

 25 28  0  0  0  0  0  0  0  0999 V2000
   70.5270   45.5799   57.8750 C   0  0  0  0  0  0  0  0  0  0  0  0
   71.5887   46.1989   58.5083 C   0  0  0  0  0  0  0  0  0  0  0  0
   71.7919   47.5564   58.4153 C   0  0  0  0  0  0  0  0  0  0  0  0
   70.9302   48.3712   57.6731 C   0  0  0  0  0  0  0  0  0  0  0  0
   69.8763   47.7816   57.0402 C   0  0  0  0  0  0  0  0  0  0  0  0
   69.6953   46.4000   57.1533 C   0  0  0  0  0  0  0  0  0  0  0  0
   68.6715   44.0822   56.3909 O   0  0  0  0  0  0  0  0  0  0  0  0
   69.3964   43.4693   57.2166 C   0  0  0  0  0  0  0  0  0  0  0  0
   70.3541   44.1745   57.9969 N   0  0  0  0  0  0  0  0  0  0  0  0
   69.2467   42.0003   57.3748 C   0  0  0  0  0  0  0  0  0  0  0  0
   68.7212   41.5565   58.7090 C   0  0  0  0  0  0  0  0  0  0  0  0
   67.8260   40.5755   57.9813 C   0  0  0  0  0  0  0  0  0  0  0  0
   67.9723   41.4446   56.7475 C   0  0  0  0  0  0  0  0  0  0  0  0
   68.9160   48.5968   56.2499 C   0  0  0  0  0  0  0  0  0  0  0  0
   69.3038   48.6049   54.8105 C   0  0  0  0  0  0  0  0  0  0  0  0
   70.1991   49.5470   54.3763 N   0  0  0  0  0  0  0  0  0  0  0  0
   70.6420   49.6059   53.1448 N   0  0  0  0  0  0  0  0  0  0  0  0
   70.1882   48.6967   52.2800 C   0  0  0  0  0  0  0  0  0  0  0  0
   70.6003   48.7298   51.0800 O   0  0  0  0  0  0  0  0  0  0  0  0
   69.2852   47.7113   52.6207 C   0  0  0  0  0  0  0  0  0  0  0  0
   68.8303   46.7951   51.6861 C   0  0  0  0  0  0  0  0  0  0  0  0
   67.9222   45.8435   52.0629 C   0  0  0  0  0  0  0  0  0  0  0  0
   67.4532   45.7797   53.3525 C   0  0  0  0  0  0  0  0  0  0  0  0
   67.9188   46.7018   54.2744 C   0  0  0  0  0  0  0  0  0  0  0  0
   68.8381   47.6767   53.9280 C   0  0  0  0  0  0  0  0  0  0  0  0
  7  8  2  0
  8  9  1  0
  8 10  1  0
  9  1  1  0
  1  2  2  0
  1  6  1  0
  2  3  1  0
  3  4  2  0
  4  5  1  0
  5 14  1  0
  5  6  2  0
 14 15  1  0
 15 16  2  0
 15 25  1  0
 16 17  1  0
 17 18  1  0
 18 19  2  0
 18 20  1  0
 20 21  1  0
 20 25  2  0
 21 22  2  0
 22 23  1  0
 23 24  2  0
 24 25  1  0
 10 11  1  0
 10 13  1  0
 11 12  1  0
 12 13  1  0
M  END
>  <minimizedAffinity>  (81) 
-9.25835

$$$$
cs_full_output_folder/data/smiles/4871.pdb
     RDKit          3D

 23 25  0  0  0  0  0  0  0  0999 V2000
   68.8786   45.4241   56.3576 C   0  0  0  0  0  0  0  0  0  0  0  0
   69.8964   46.0968   56.9227 N   0  0  0  0  0  0  0  0  0  0  0  0
   70.7844   45.4471   57.7212 C   0  0  0  0  0  0  0  0  0  0  0  0
   70.6330   44.0935   57.9464 C   0  0  0  0  0  0  0  0  0  0  0  0
   69.6100   43.4007   57.3827 C   0  0  0  0  0  0  0  0  0  0  0  0
   68.7611   44.1264   56.5939 N   0  0  0  0  0  0  0  0  0  0  0  0
   69.3993   41.9757   57.5827 C   0  0  0  0  0  0  0  0  0  0  0  0
   70.3356   41.2159   58.2524 C   0  0  0  0  0  0  0  0  0  0  0  0
   70.1662   39.8564   58.4599 C   0  0  0  0  0  0  0  0  0  0  0  0
   69.0277   39.2462   57.9823 C   0  0  0  0  0  0  0  0  0  0  0  0
   68.0768   39.9891   57.3087 C   0  0  0  0  0  0  0  0  0  0  0  0
   68.2830   41.3472   57.1208 C   0  0  0  0  0  0  0  0  0  0  0  0
   67.9906   46.1301   55.5457 O   0  0  0  0  0  0  0  0  0  0  0  0
   69.3783   47.7436   52.5493 C   0  0  0  0  0  0  0  0  0  0  0  0
   68.8487   46.9156   51.5751 C   0  0  0  0  0  0  0  0  0  0  0  0
   68.0530   45.8502   51.9059 C   0  0  0  0  0  0  0  0  0  0  0  0
   67.7840   45.6130   53.2411 C   0  0  0  0  0  0  0  0  0  0  0  0
   67.0015   44.5689   53.5979 F   0  0  0  0  0  0  0  0  0  0  0  0
   68.2917   46.4147   54.2366 C   0  0  0  0  0  0  0  0  0  0  0  0
   69.0858   47.4721   53.8731 C   0  0  0  0  0  0  0  0  0  0  0  0
   69.9387   49.5237   51.1270 O   0  0  0  0  0  0  0  0  0  0  0  0
   70.2133   48.8542   52.1424 C   0  0  0  0  0  0  0  0  0  0  0  0
   71.3307   49.1909   52.8783 O   0  0  0  0  0  0  0  0  0  0  0  0
 21 22  2  0
 22 23  1  0
 22 14  1  0
 14 15  2  0
 14 20  1  0
 15 16  1  0
 16 17  2  0
 17 18  1  0
 17 19  1  0
 19 13  1  0
 19 20  2  0
 13  1  1  0
  1  2  2  0
  1  6  1  0
  2  3  1  0
  3  4  2  0
  4  5  1  0
  5  7  1  0
  5  6  2  0
  7  8  2  0
  7 12  1  0
  8  9  1  0
  9 10  2  0
 10 11  1  0
 11 12  2  0
M  END
>  <minimizedAffinity>  (82) 
-9.25820

$$$$
cs_full_output_folder/data/smiles/2752.pdb
     RDKit          3D

 24 26  0  0  0  0  0  0  0  0999 V2000
   68.2682   43.5979   55.9364 N   0  0  0  0  0  0  0  0  0  0  0  0
   67.8272   42.3047   56.2921 C   0  0  0  0  0  0  0  0  0  0  0  0
   66.6991   41.9586   55.8334 O   0  0  0  0  0  0  0  0  0  0  0  0
   68.5321   41.3470   57.1235 C   0  0  0  0  0  0  0  0  0  0  0  0
   67.8656   40.1595   57.3941 C   0  0  0  0  0  0  0  0  0  0  0  0
   68.4565   39.1756   58.1881 C   0  0  0  0  0  0  0  0  0  0  0  0
   69.7177   39.3981   58.7040 C   0  0  0  0  0  0  0  0  0  0  0  0
   70.4031   40.5656   58.4534 C   0  0  0  0  0  0  0  0  0  0  0  0
   71.6561   40.7640   58.9821 C   0  0  0  0  0  0  0  0  0  0  0  0
   72.3326   41.9320   58.7307 C   0  0  0  0  0  0  0  0  0  0  0  0
   71.7095   42.8738   57.9407 C   0  0  0  0  0  0  0  0  0  0  0  0
   70.4501   42.7024   57.3960 C   0  0  0  0  0  0  0  0  0  0  0  0
   69.7857   41.5340   57.6538 C   0  0  0  0  0  0  0  0  0  0  0  0
   67.5407   44.4799   55.1378 N   0  0  0  0  0  0  0  0  0  0  0  0
   69.2411   47.9262   53.4122 C   0  0  0  0  0  0  0  0  0  0  0  0
   69.2770   47.7391   54.7813 C   0  0  0  0  0  0  0  0  0  0  0  0
   68.7191   46.5922   55.3512 C   0  0  0  0  0  0  0  0  0  0  0  0
   68.1231   45.6239   54.5831 C   0  0  0  0  0  0  0  0  0  0  0  0
   68.0989   45.8332   53.2215 C   0  0  0  0  0  0  0  0  0  0  0  0
   68.6449   46.9582   52.6408 C   0  0  0  0  0  0  0  0  0  0  0  0
   69.8570   49.4942   51.0781 N   0  0  0  0  0  0  0  0  0  0  0  0
   69.9619   49.3812   52.7949 S   0  0  0  0  0  0  0  0  0  0  0  0
   71.4353   49.4026   53.1750 O   0  0  0  0  0  0  0  0  0  0  0  0
   69.3329   50.6060   53.3811 O   0  0  0  0  0  0  0  0  0  0  0  0
 21 22  1  0
 22 23  2  0
 22 24  2  0
 22 15  1  0
 15 16  2  0
 15 20  1  0
 16 17  1  0
 17 18  2  0
 18 14  1  0
 18 19  1  0
 14  1  1  0
  1  2  1  0
  2  3  2  0
  2  4  1  0
  4  5  2  0
  4 13  1  0
  5  6  1  0
  6  7  2  0
  7  8  1  0
  8  9  1  0
  8 13  2  0
  9 10  2  0
 10 11  1  0
 11 12  2  0
 12 13  1  0
 19 20  2  0
M  END
>  <minimizedAffinity>  (83) 
-9.25200

$$$$
cs_full_output_folder/data/smiles/6296.pdb
     RDKit          3D

 26 29  0  0  0  0  0  0  0  0999 V2000
   74.9850   35.3634   53.6714 C   0  0  0  0  0  0  0  0  0  0  0  0
   75.6135   35.0787   54.8544 C   0  0  0  0  0  0  0  0  0  0  0  0
   74.9261   34.8699   56.0379 C   0  0  0  0  0  0  0  0  0  0  0  0
   73.5528   34.9349   56.1113 C   0  0  0  0  0  0  0  0  0  0  0  0
   72.9071   35.2258   54.9021 C   0  0  0  0  0  0  0  0  0  0  0  0
   73.6078   35.4300   53.7313 C   0  0  0  0  0  0  0  0  0  0  0  0
   72.7769   34.7485   57.3326 C   0  0  0  0  0  0  0  0  0  0  0  0
   72.6153   33.5145   57.8797 N   0  0  0  0  0  0  0  0  0  0  0  0
   71.9305   33.2584   58.9666 N   0  0  0  0  0  0  0  0  0  0  0  0
   71.3243   34.2656   59.6212 C   0  0  0  0  0  0  0  0  0  0  0  0
   70.6793   33.9743   60.6591 O   0  0  0  0  0  0  0  0  0  0  0  0
   71.4219   35.5566   59.1539 C   0  0  0  0  0  0  0  0  0  0  0  0
   70.7748   36.5415   59.8496 C   0  0  0  0  0  0  0  0  0  0  0  0
   70.8680   37.8325   59.3591 C   0  0  0  0  0  0  0  0  0  0  0  0
   71.5914   38.0848   58.2103 C   0  0  0  0  0  0  0  0  0  0  0  0
   72.2411   37.0760   57.5177 C   0  0  0  0  0  0  0  0  0  0  0  0
   72.1626   35.7936   57.9889 C   0  0  0  0  0  0  0  0  0  0  0  0
   75.4975   33.4325   51.7997 O   0  0  0  0  0  0  0  0  0  0  0  0
   75.9006   34.5767   51.4829 C   0  0  0  0  0  0  0  0  0  0  0  0
   75.6398   35.5825   52.4451 N   0  0  0  0  0  0  0  0  0  0  0  0
   76.5796   34.8094   50.2147 C   0  0  0  0  0  0  0  0  0  0  0  0
   77.6160   35.6733   50.0329 C   0  0  0  0  0  0  0  0  0  0  0  0
   78.2325   35.8599   48.7972 C   0  0  0  0  0  0  0  0  0  0  0  0
   77.7915   35.1522   47.6980 C   0  0  0  0  0  0  0  0  0  0  0  0
   76.7409   34.2700   47.8561 C   0  0  0  0  0  0  0  0  0  0  0  0
   76.1438   34.1057   49.1122 C   0  0  0  0  0  0  0  0  0  0  0  0
 18 19  2  0
 19 20  1  0
 19 21  1  0
 20  1  1  0
  1  2  2  0
  1  6  1  0
  2  3  1  0
  3  4  2  0
  4  7  1  0
  4  5  1  0
  7  8  2  0
  7 17  1  0
  8  9  1  0
  9 10  1  0
 10 11  2  0
 10 12  1  0
 12 13  1  0
 12 17  2  0
 13 14  2  0
 14 15  1  0
 15 16  2  0
 16 17  1  0
  5  6  2  0
 21 22  2  0
 21 26  1  0
 22 23  1  0
 23 24  2  0
 24 25  1  0
 25 26  2  0
M  END
>  <minimizedAffinity>  (84) 
-9.25156

$$$$
cs_full_output_folder/data/smiles/747.pdb
     RDKit          3D

 24 26  0  0  0  0  0  0  0  0999 V2000
   68.3248   43.4722   55.9601 N   0  0  0  0  0  0  0  0  0  0  0  0
   67.7823   42.3288   56.4846 C   0  0  0  0  0  0  0  0  0  0  0  0
   66.4960   42.1791   56.3283 O   0  0  0  0  0  0  0  0  0  0  0  0
   68.4736   41.2534   57.2105 C   0  0  0  0  0  0  0  0  0  0  0  0
   67.8410   40.0728   57.4955 C   0  0  0  0  0  0  0  0  0  0  0  0
   68.4259   39.0514   58.1933 C   0  0  0  0  0  0  0  0  0  0  0  0
   69.7508   39.2299   58.6393 C   0  0  0  0  0  0  0  0  0  0  0  0
   70.4122   40.3983   58.3702 C   0  0  0  0  0  0  0  0  0  0  0  0
   71.7007   40.5541   58.8045 C   0  0  0  0  0  0  0  0  0  0  0  0
   72.3895   41.7224   58.5380 C   0  0  0  0  0  0  0  0  0  0  0  0
   71.7463   42.7121   57.8324 C   0  0  0  0  0  0  0  0  0  0  0  0
   70.4290   42.5555   57.3876 C   0  0  0  0  0  0  0  0  0  0  0  0
   69.7658   41.4147   57.6501 C   0  0  0  0  0  0  0  0  0  0  0  0
   67.6984   44.4970   55.3083 N   0  0  0  0  0  0  0  0  0  0  0  0
   69.2966   47.9088   53.4114 C   0  0  0  0  0  0  0  0  0  0  0  0
   69.3137   47.7394   54.7680 C   0  0  0  0  0  0  0  0  0  0  0  0
   68.7843   46.6309   55.3628 C   0  0  0  0  0  0  0  0  0  0  0  0
   68.1899   45.5999   54.6256 C   0  0  0  0  0  0  0  0  0  0  0  0
   68.1647   45.7609   53.2585 C   0  0  0  0  0  0  0  0  0  0  0  0
   68.7133   46.9041   52.6740 C   0  0  0  0  0  0  0  0  0  0  0  0
   69.2263   50.7428   53.2930 N   0  0  0  0  0  0  0  0  0  0  0  0
   69.9950   49.3371   52.6462 S   0  0  0  0  0  0  0  0  0  0  0  0
   71.4392   49.4041   53.1179 O   0  0  0  0  0  0  0  0  0  0  0  0
   69.9252   49.2673   51.1594 O   0  0  0  0  0  0  0  0  0  0  0  0
 21 22  1  0
 22 23  2  0
 22 24  2  0
 22 15  1  0
 15 16  2  0
 15 20  1  0
 16 17  1  0
 17 18  2  0
 18 14  1  0
 18 19  1  0
 14  1  1  0
  1  2  1  0
  2  3  2  0
  2  4  1  0
  4  5  2  0
  4 13  1  0
  5  6  1  0
  6  7  2  0
  7  8  1  0
  8  9  1  0
  8 13  2  0
  9 10  2  0
 10 11  1  0
 11 12  2  0
 12 13  1  0
 19 20  2  0
M  END
>  <minimizedAffinity>  (85) 
-9.25045

$$$$
cs_full_output_folder/data/smiles/992.pdb
     RDKit          3D

 24 26  0  0  0  0  0  0  0  0999 V2000
   68.1860   44.2756   55.9821 N   0  0  0  0  0  0  0  0  0  0  0  0
   68.1005   42.9130   56.3603 C   0  0  0  0  0  0  0  0  0  0  0  0
   67.4450   42.1453   55.6286 O   0  0  0  0  0  0  0  0  0  0  0  0
   68.7512   42.4231   57.5550 C   0  0  0  0  0  0  0  0  0  0  0  0
   69.2109   43.2606   58.3942 O   0  0  0  0  0  0  0  0  0  0  0  0
   68.9072   41.0052   57.8452 C   0  0  0  0  0  0  0  0  0  0  0  0
   67.9550   40.0086   57.8430 C   0  0  0  0  0  0  0  0  0  0  0  0
   68.5419   38.8252   58.1743 N   0  0  0  0  0  0  0  0  0  0  0  0
   69.8542   39.0118   58.3944 C   0  0  0  0  0  0  0  0  0  0  0  0
   70.8935   38.1466   58.7553 C   0  0  0  0  0  0  0  0  0  0  0  0
   72.1808   38.6051   58.9211 C   0  0  0  0  0  0  0  0  0  0  0  0
   72.4323   39.9441   58.7247 C   0  0  0  0  0  0  0  0  0  0  0  0
   71.3878   40.7894   58.3666 C   0  0  0  0  0  0  0  0  0  0  0  0
   70.0950   40.3483   58.1962 C   0  0  0  0  0  0  0  0  0  0  0  0
   67.5777   44.7626   54.8560 O   0  0  0  0  0  0  0  0  0  0  0  0
   69.3409   47.9726   52.7892 C   0  0  0  0  0  0  0  0  0  0  0  0
   68.7764   46.9017   52.0939 C   0  0  0  0  0  0  0  0  0  0  0  0
   68.2003   45.8523   52.7800 C   0  0  0  0  0  0  0  0  0  0  0  0
   68.1541   45.8115   54.1565 C   0  0  0  0  0  0  0  0  0  0  0  0
   68.7242   46.8929   54.8291 C   0  0  0  0  0  0  0  0  0  0  0  0
   69.3033   47.9469   54.1615 C   0  0  0  0  0  0  0  0  0  0  0  0
   69.8811   50.3364   52.5228 N   0  0  0  0  0  0  0  0  0  0  0  0
   69.9206   49.0233   52.0450 N   0  0  0  0  0  0  0  0  0  0  0  0
   70.4634   48.7273   50.9592 O   0  0  0  0  0  0  0  0  0  0  0  0
 22 23  1  0
 23 24  2  0
 23 16  1  0
 16 17  2  0
 16 21  1  0
 17 18  1  0
 18 19  2  0
 19 15  1  0
 19 20  1  0
 15  1  1  0
  1  2  1  0
  2  3  2  0
  2  4  1  0
  4  5  2  0
  4  6  1  0
  6  7  2  0
  6 14  1  0
  7  8  1  0
  8  9  1  0
  9 10  1  0
  9 14  2  0
 10 11  2  0
 11 12  1  0
 12 13  2  0
 13 14  1  0
 20 21  2  0
M  CHG  1  23   1
M  END
>  <minimizedAffinity>  (86) 
-9.24921

$$$$
cs_full_output_folder/data/smiles/416.pdb
     RDKit          3D

 26 29  0  0  0  0  0  0  0  0999 V2000
   73.7972   50.2912   56.5868 C   0  0  0  0  0  0  0  0  0  0  0  0
   73.0428   51.1818   55.8666 C   0  0  0  0  0  0  0  0  0  0  0  0
   71.6744   51.1010   55.7606 C   0  0  0  0  0  0  0  0  0  0  0  0
   70.9859   50.0660   56.4110 C   0  0  0  0  0  0  0  0  0  0  0  0
   71.7572   49.1900   57.1210 C   0  0  0  0  0  0  0  0  0  0  0  0
   73.1143   49.3111   57.1984 N   0  0  0  0  0  0  0  0  0  0  0  0
   75.5331   49.4578   54.6477 O   0  0  0  0  0  0  0  0  0  0  0  0
   76.0911   49.8902   55.6873 C   0  0  0  0  0  0  0  0  0  0  0  0
   75.2036   50.3359   56.7254 N   0  0  0  0  0  0  0  0  0  0  0  0
   77.5368   49.9367   55.8317 C   0  0  0  0  0  0  0  0  0  0  0  0
   78.3516   49.0515   55.2890 C   0  0  0  0  0  0  0  0  0  0  0  0
   79.7461   49.3961   55.6339 C   0  0  0  0  0  0  0  0  0  0  0  0
   79.6305   50.4852   56.3551 C   0  0  0  0  0  0  0  0  0  0  0  0
   78.3802   50.8810   56.5426 C   0  0  0  0  0  0  0  0  0  0  0  0
   69.5321   50.0053   56.2527 C   0  0  0  0  0  0  0  0  0  0  0  0
   69.0923   48.6557   55.8139 C   0  0  0  0  0  0  0  0  0  0  0  0
   68.8170   47.7105   56.7698 N   0  0  0  0  0  0  0  0  0  0  0  0
   68.4634   46.4853   56.4692 N   0  0  0  0  0  0  0  0  0  0  0  0
   68.3404   46.0470   55.1882 C   0  0  0  0  0  0  0  0  0  0  0  0
   67.9971   44.8549   54.9969 O   0  0  0  0  0  0  0  0  0  0  0  0
   68.5996   46.9398   54.1847 C   0  0  0  0  0  0  0  0  0  0  0  0
   68.9742   48.2412   54.5201 C   0  0  0  0  0  0  0  0  0  0  0  0
   69.1967   49.1641   53.3907 C   0  0  0  0  0  0  0  0  0  0  0  0
   70.0706   48.4365   52.4039 C   0  0  0  0  0  0  0  0  0  0  0  0
   69.4967   47.1650   51.8838 C   0  0  0  0  0  0  0  0  0  0  0  0
   68.4862   46.5005   52.7830 C   0  0  0  0  0  0  0  0  0  0  0  0
  7  8  2  0
  8  9  1  0
  8 10  1  0
  9  1  1  0
  1  2  2  0
  1  6  1  0
  2  3  1  0
  3  4  2  0
  4 15  1  0
  4  5  1  0
 15 16  1  0
 16 17  2  0
 16 22  1  0
 17 18  1  0
 18 19  1  0
 19 20  2  0
 19 21  1  0
 21 22  2  0
 21 26  1  0
 22 23  1  0
 23 24  1  0
 24 25  1  0
 25 26  1  0
  5  6  2  0
 10 11  2  0
 10 14  1  0
 11 12  1  0
 12 13  2  0
 13 14  2  0
M  END
>  <minimizedAffinity>  (87) 
-9.24827

$$$$
cs_full_output_folder/data/smiles/514.pdb
     RDKit          3D

 26 29  0  0  0  0  0  0  0  0999 V2000
   73.8444   50.1871   56.3200 C   0  0  0  0  0  0  0  0  0  0  0  0
   73.0544   49.5535   57.2575 C   0  0  0  0  0  0  0  0  0  0  0  0
   71.6918   49.4299   57.0664 C   0  0  0  0  0  0  0  0  0  0  0  0
   71.0609   49.9261   55.9475 C   0  0  0  0  0  0  0  0  0  0  0  0
   71.8934   50.5630   55.0177 C   0  0  0  0  0  0  0  0  0  0  0  0
   73.2128   50.6656   55.2343 N   0  0  0  0  0  0  0  0  0  0  0  0
   75.7656   49.2677   54.5658 O   0  0  0  0  0  0  0  0  0  0  0  0
   76.2161   49.8358   55.5964 C   0  0  0  0  0  0  0  0  0  0  0  0
   75.2596   50.3173   56.5124 N   0  0  0  0  0  0  0  0  0  0  0  0
   77.6536   49.9598   55.7776 C   0  0  0  0  0  0  0  0  0  0  0  0
   78.5472   49.0005   55.3595 C   0  0  0  0  0  0  0  0  0  0  0  0
   79.9238   49.1672   55.5583 C   0  0  0  0  0  0  0  0  0  0  0  0
   80.3987   50.2714   56.1618 N   0  0  0  0  0  0  0  0  0  0  0  0
   79.5492   51.2294   56.5814 C   0  0  0  0  0  0  0  0  0  0  0  0
   78.1758   51.0773   56.3912 C   0  0  0  0  0  0  0  0  0  0  0  0
   69.6103   49.8105   55.7007 C   0  0  0  0  0  0  0  0  0  0  0  0
   69.1507   48.4262   55.4391 C   0  0  0  0  0  0  0  0  0  0  0  0
   68.8075   47.6536   56.5087 N   0  0  0  0  0  0  0  0  0  0  0  0
   68.3866   46.4083   56.3759 N   0  0  0  0  0  0  0  0  0  0  0  0
   68.2671   45.8132   55.1742 C   0  0  0  0  0  0  0  0  0  0  0  0
   67.8616   44.6232   55.0970 O   0  0  0  0  0  0  0  0  0  0  0  0
   68.5946   46.5264   54.0371 C   0  0  0  0  0  0  0  0  0  0  0  0
   69.0385   47.8444   54.1980 C   0  0  0  0  0  0  0  0  0  0  0  0
   69.3209   48.3771   52.8637 C   0  0  0  0  0  0  0  0  0  0  0  0
   69.0008   47.2481   51.9539 C   0  0  0  0  0  0  0  0  0  0  0  0
   68.5872   46.1965   52.6203 C   0  0  0  0  0  0  0  0  0  0  0  0
  7  8  2  0
  8  9  1  0
  8 10  1  0
  9  1  1  0
  1  2  2  0
  1  6  1  0
  2  3  1  0
  3  4  2  0
  4 16  1  0
  4  5  1  0
 16 17  1  0
 17 18  2  0
 17 23  1  0
 18 19  1  0
 19 20  1  0
 20 21  2  0
 20 22  1  0
 22 23  2  0
 22 26  1  0
 23 24  1  0
 24 25  1  0
 25 26  2  0
  5  6  2  0
 10 11  2  0
 10 15  1  0
 11 12  1  0
 12 13  2  0
 13 14  1  0
 14 15  2  0
M  END
>  <minimizedAffinity>  (88) 
-9.24545

$$$$
cs_full_output_folder/data/smiles/29.pdb
     RDKit          3D

 23 25  0  0  0  0  0  0  0  0999 V2000
   68.9539   45.0825   56.5490 C   0  0  0  0  0  0  0  0  0  0  0  0
   69.9036   45.8842   57.1247 N   0  0  0  0  0  0  0  0  0  0  0  0
   70.8660   45.4217   57.9231 C   0  0  0  0  0  0  0  0  0  0  0  0
   70.8936   44.0460   58.1763 C   0  0  0  0  0  0  0  0  0  0  0  0
   69.9577   43.2287   57.6133 C   0  0  0  0  0  0  0  0  0  0  0  0
   69.0312   43.8002   56.8240 N   0  0  0  0  0  0  0  0  0  0  0  0
   69.9392   41.8005   57.8569 C   0  0  0  0  0  0  0  0  0  0  0  0
   71.1122   41.1350   58.2422 C   0  0  0  0  0  0  0  0  0  0  0  0
   71.1525   39.7856   58.4883 C   0  0  0  0  0  0  0  0  0  0  0  0
   70.0258   39.0078   58.3651 C   0  0  0  0  0  0  0  0  0  0  0  0
   68.8622   39.6256   57.9890 C   0  0  0  0  0  0  0  0  0  0  0  0
   68.8322   41.0004   57.7419 C   0  0  0  0  0  0  0  0  0  0  0  0
   67.9857   45.7208   55.7481 N   0  0  0  0  0  0  0  0  0  0  0  0
   69.1680   47.7617   52.8161 C   0  0  0  0  0  0  0  0  0  0  0  0
   68.6998   47.0123   51.7632 C   0  0  0  0  0  0  0  0  0  0  0  0
   68.0133   45.8521   52.0570 C   0  0  0  0  0  0  0  0  0  0  0  0
   67.8068   45.4643   53.3630 C   0  0  0  0  0  0  0  0  0  0  0  0
   68.2760   46.2124   54.4521 C   0  0  0  0  0  0  0  0  0  0  0  0
   68.9522   47.3566   54.1411 C   0  0  0  0  0  0  0  0  0  0  0  0
   69.2986   50.5814   53.2622 N   0  0  0  0  0  0  0  0  0  0  0  0
   70.0460   49.2384   52.4858 S   0  0  0  0  0  0  0  0  0  0  0  0
   71.4898   49.1081   52.8785 O   0  0  0  0  0  0  0  0  0  0  0  0
   69.9737   49.4770   51.0030 O   0  0  0  0  0  0  0  0  0  0  0  0
 20 21  1  0
 21 22  2  0
 21 23  2  0
 21 14  1  0
 14 15  2  0
 14 19  1  0
 15 16  1  0
 16 17  2  0
 17 18  1  0
 18 13  1  0
 18 19  2  0
 13  1  1  0
  1  2  2  0
  1  6  1  0
  2  3  1  0
  3  4  2  0
  4  5  1  0
  5  7  1  0
  5  6  2  0
  7  8  2  0
  7 12  1  0
  8  9  1  0
  9 10  2  0
 10 11  1  0
 11 12  2  0
M  END
>  <minimizedAffinity>  (89) 
-9.24300

$$$$
cs_full_output_folder/data/smiles/3074.pdb
     RDKit          3D

 26 29  0  0  0  0  0  0  0  0999 V2000
   70.7677   46.4798   58.4772 C   0  0  0  0  0  0  0  0  0  0  0  0
   69.8665   46.9842   57.5328 C   0  0  0  0  0  0  0  0  0  0  0  0
   69.8787   48.3031   57.1654 C   0  0  0  0  0  0  0  0  0  0  0  0
   70.8049   49.1583   57.7376 C   0  0  0  0  0  0  0  0  0  0  0  0
   71.6886   48.6791   58.6590 C   0  0  0  0  0  0  0  0  0  0  0  0
   71.6815   47.3451   59.0362 C   0  0  0  0  0  0  0  0  0  0  0  0
   72.5617   46.8852   59.9487 F   0  0  0  0  0  0  0  0  0  0  0  0
   69.6703   44.6093   59.3697 O   0  0  0  0  0  0  0  0  0  0  0  0
   70.6961   45.0500   58.8294 C   0  0  0  0  0  0  0  0  0  0  0  0
   71.7764   44.1832   58.5595 N   0  0  0  0  0  0  0  0  0  0  0  0
   73.0238   44.4786   57.9601 C   0  0  0  0  0  0  0  0  0  0  0  0
   73.5762   43.3695   57.4996 C   0  0  0  0  0  0  0  0  0  0  0  0
   72.6859   42.1927   57.7747 C   0  0  0  0  0  0  0  0  0  0  0  0
   71.7763   42.7492   58.8660 C   0  0  0  0  0  0  0  0  0  0  0  0
   68.8946   48.8241   56.1691 C   0  0  0  0  0  0  0  0  0  0  0  0
   69.3100   48.6993   54.7664 C   0  0  0  0  0  0  0  0  0  0  0  0
   70.2183   49.5665   54.2229 N   0  0  0  0  0  0  0  0  0  0  0  0
   70.6514   49.4956   52.9957 N   0  0  0  0  0  0  0  0  0  0  0  0
   70.2379   48.5430   52.1250 C   0  0  0  0  0  0  0  0  0  0  0  0
   70.6661   48.4877   50.9439 O   0  0  0  0  0  0  0  0  0  0  0  0
   69.3310   47.6393   52.5881 C   0  0  0  0  0  0  0  0  0  0  0  0
   68.8608   46.6547   51.7381 C   0  0  0  0  0  0  0  0  0  0  0  0
   67.9398   45.7483   52.1740 C   0  0  0  0  0  0  0  0  0  0  0  0
   67.4916   45.8376   53.4719 C   0  0  0  0  0  0  0  0  0  0  0  0
   67.9304   46.7988   54.3546 C   0  0  0  0  0  0  0  0  0  0  0  0
   68.8641   47.7136   53.9059 C   0  0  0  0  0  0  0  0  0  0  0  0
  8  9  2  0
  9  1  1  0
  9 10  1  0
  1  2  2  0
  1  6  1  0
  2  3  1  0
  3 15  1  0
  3  4  2  0
 15 16  1  0
 16 17  2  0
 16 26  1  0
 17 18  1  0
 18 19  1  0
 19 20  2  0
 19 21  1  0
 21 22  1  0
 21 26  2  0
 22 23  2  0
 23 24  1  0
 24 25  2  0
 25 26  1  0
  4  5  1  0
  5  6  2  0
  6  7  1  0
 10 11  1  0
 10 14  1  0
 11 12  2  0
 12 13  1  0
 13 14  1  0
M  END
>  <minimizedAffinity>  (90) 
-9.23931

$$$$
cs_full_output_folder/data/smiles/2614.pdb
     RDKit          3D

 23 26  0  0  0  0  0  0  0  0999 V2000
   68.8282   48.1682   56.2498 C   0  0  0  0  0  0  0  0  0  0  0  0
   70.6163   48.7848   51.0498 O   0  0  0  0  0  0  0  0  0  0  0  0
   70.1575   48.5798   52.2132 C   0  0  0  0  0  0  0  0  0  0  0  0
   70.5938   49.3155   53.2387 N   0  0  0  0  0  0  0  0  0  0  0  0
   70.1690   49.1627   54.4572 N   0  0  0  0  0  0  0  0  0  0  0  0
   69.2145   48.2153   54.8159 C   0  0  0  0  0  0  0  0  0  0  0  0
   68.7731   47.4688   53.7768 C   0  0  0  0  0  0  0  0  0  0  0  0
   67.8268   46.4925   54.0207 C   0  0  0  0  0  0  0  0  0  0  0  0
   67.3585   45.7140   52.9935 C   0  0  0  0  0  0  0  0  0  0  0  0
   67.7887   45.8570   51.7084 C   0  0  0  0  0  0  0  0  0  0  0  0
   68.7327   46.8315   51.4636 C   0  0  0  0  0  0  0  0  0  0  0  0
   69.2163   47.6212   52.4765 C   0  0  0  0  0  0  0  0  0  0  0  0
   69.4360   47.0609   57.0220 C   0  0  0  0  0  0  0  0  0  0  0  0
   69.0850   45.7785   56.7193 N   0  0  0  0  0  0  0  0  0  0  0  0
   69.6361   44.7196   57.2601 N   0  0  0  0  0  0  0  0  0  0  0  0
   70.6036   44.8674   58.1688 C   0  0  0  0  0  0  0  0  0  0  0  0
   71.1522   43.8744   58.7048 O   0  0  0  0  0  0  0  0  0  0  0  0
   71.0441   46.1136   58.5614 C   0  0  0  0  0  0  0  0  0  0  0  0
   72.0020   46.2666   59.5385 C   0  0  0  0  0  0  0  0  0  0  0  0
   72.4092   47.5008   59.9839 C   0  0  0  0  0  0  0  0  0  0  0  0
   71.8076   48.5892   59.4000 C   0  0  0  0  0  0  0  0  0  0  0  0
   70.8518   48.4432   58.4237 C   0  0  0  0  0  0  0  0  0  0  0  0
   70.4248   47.2129   57.9534 C   0  0  0  0  0  0  0  0  0  0  0  0
  2  3  2  0
  3  4  1  0
  3 12  1  0
  4  5  1  0
  5  6  2  0
  6  1  1  0
  6  7  1  0
  1 13  1  0
 13 14  2  0
 13 23  1  0
 14 15  1  0
 15 16  1  0
 16 17  2  0
 16 18  1  0
 18 19  1  0
 18 23  2  0
 19 20  2  0
 20 21  1  0
 21 22  2  0
 22 23  1  0
  7  8  1  0
  7 12  2  0
  8  9  2  0
  9 10  1  0
 10 11  2  0
 11 12  1  0
M  END
>  <minimizedAffinity>  (91) 
-9.23798

$$$$
cs_full_output_folder/data/smiles/2318.pdb
     RDKit          3D

 24 26  0  0  0  0  0  0  0  0999 V2000
   69.1864   46.5048   57.2636 O   0  0  0  0  0  0  0  0  0  0  0  0
   68.5507   47.3455   56.5230 C   0  0  0  0  0  0  0  0  0  0  0  0
   68.5637   47.1922   55.0782 C   0  0  0  0  0  0  0  0  0  0  0  0
   67.8107   46.3094   54.4007 C   0  0  0  0  0  0  0  0  0  0  0  0
   67.8510   46.2072   53.0013 C   0  0  0  0  0  0  0  0  0  0  0  0
   67.0680   45.2911   52.3549 O   0  0  0  0  0  0  0  0  0  0  0  0
   68.6784   47.0238   52.2628 C   0  0  0  0  0  0  0  0  0  0  0  0
   68.6944   46.9000   50.8837 O   0  0  0  0  0  0  0  0  0  0  0  0
   69.4623   47.9384   52.9365 C   0  0  0  0  0  0  0  0  0  0  0  0
   69.4075   48.0241   54.3258 C   0  0  0  0  0  0  0  0  0  0  0  0
   70.3290   48.7632   52.1916 N   0  0  0  0  0  0  0  0  0  0  0  0
   71.5179   48.8654   52.5167 O   0  0  0  0  0  0  0  0  0  0  0  0
   69.8699   49.4530   51.1065 O   0  0  0  0  0  0  0  0  0  0  0  0
   67.8561   48.4104   57.2257 C   0  0  0  0  0  0  0  0  0  0  0  0
   68.5900   49.7137   57.3177 C   0  0  0  0  0  0  0  0  0  0  0  0
   67.9008   50.8650   56.8806 C   0  0  0  0  0  0  0  0  0  0  0  0
   68.3400   52.1517   57.0763 C   0  0  0  0  0  0  0  0  0  0  0  0
   69.5451   52.6857   56.6273 C   0  0  0  0  0  0  0  0  0  0  0  0
   70.2621   52.3265   55.5244 C   0  0  0  0  0  0  0  0  0  0  0  0
   70.8283   51.1401   55.1529 C   0  0  0  0  0  0  0  0  0  0  0  0
   71.4949   50.2257   55.9296 C   0  0  0  0  0  0  0  0  0  0  0  0
   71.1277   50.0090   57.2214 C   0  0  0  0  0  0  0  0  0  0  0  0
   71.0655   49.8082   58.6049 C   0  0  0  0  0  0  0  0  0  0  0  0
   69.8384   49.7806   57.8172 C   0  0  0  0  0  0  0  0  0  0  0  0
  1  2  2  0
  2 14  1  0
  2  3  1  0
 14 15  1  0
 15 16  2  0
 15 24  1  0
 16 17  1  0
 17 18  2  0
 18 19  1  0
 19 20  2  0
 20 21  1  0
 21 22  2  0
 22 23  1  0
 22 24  1  0
 23 24  2  0
  3  4  2  0
  3 10  1  0
  4  5  1  0
  5  6  1  0
  5  7  2  0
  7  8  1  0
  7  9  1  0
  9 11  1  0
  9 10  2  0
 11 12  2  0
 11 13  1  0
M  CHG  2  11   1  13  -1
M  END
>  <minimizedAffinity>  (92) 
-9.23401

$$$$
cs_full_output_folder/data/smiles/2901.pdb
     RDKit          3D

 23 25  0  0  0  0  0  0  0  0999 V2000
   68.4951   47.8986   56.5139 C   0  0  0  0  0  0  0  0  0  0  0  0
   67.3414   47.6406   56.9519 O   0  0  0  0  0  0  0  0  0  0  0  0
   68.3267   46.4822   53.0493 C   0  0  0  0  0  0  0  0  0  0  0  0
   68.1065   46.6781   54.3951 C   0  0  0  0  0  0  0  0  0  0  0  0
   68.7472   47.6773   55.0898 C   0  0  0  0  0  0  0  0  0  0  0  0
   69.6259   48.4738   54.3751 C   0  0  0  0  0  0  0  0  0  0  0  0
   69.8713   48.3052   53.0287 C   0  0  0  0  0  0  0  0  0  0  0  0
   70.7445   49.0876   52.2901 O   0  0  0  0  0  0  0  0  0  0  0  0
   69.2068   47.2930   52.3700 C   0  0  0  0  0  0  0  0  0  0  0  0
   69.4147   47.0696   50.9945 O   0  0  0  0  0  0  0  0  0  0  0  0
   66.8226   45.7038   51.4342 O   0  0  0  0  0  0  0  0  0  0  0  0
   67.6083   45.3983   52.3555 C   0  0  0  0  0  0  0  0  0  0  0  0
   69.5596   48.3987   57.4133 C   0  0  0  0  0  0  0  0  0  0  0  0
   69.3086   49.8120   57.8533 C   0  0  0  0  0  0  0  0  0  0  0  0
   70.3185   50.4232   58.6017 C   0  0  0  0  0  0  0  0  0  0  0  0
   70.7353   51.7231   58.3920 C   0  0  0  0  0  0  0  0  0  0  0  0
   71.1187   52.2694   57.1901 C   0  0  0  0  0  0  0  0  0  0  0  0
   70.9529   51.7812   55.9308 C   0  0  0  0  0  0  0  0  0  0  0  0
   69.7915   51.5994   55.2206 C   0  0  0  0  0  0  0  0  0  0  0  0
   68.5113   51.9386   55.5338 C   0  0  0  0  0  0  0  0  0  0  0  0
   67.7460   51.3843   56.5478 C   0  0  0  0  0  0  0  0  0  0  0  0
   66.8071   50.9312   57.5031 C   0  0  0  0  0  0  0  0  0  0  0  0
   68.1478   50.4522   57.5340 C   0  0  0  0  0  0  0  0  0  0  0  0
 11 12  2  0
 12  3  1  0
  3  4  2  0
  3  9  1  0
  4  5  1  0
  5  1  1  0
  5  6  2  0
  1  2  2  0
  1 13  1  0
 13 14  1  0
 14 15  2  0
 14 23  1  0
 15 16  1  0
 16 17  2  0
 17 18  1  0
 18 19  2  0
 19 20  1  0
 20 21  2  0
 21 22  1  0
 21 23  1  0
 22 23  2  0
  6  7  1  0
  7  8  1  0
  7  9  2  0
  9 10  1  0
M  END
>  <minimizedAffinity>  (93) 
-9.23337

$$$$
cs_full_output_folder/data/smiles/6508.pdb
     RDKit          3D

 25 27  0  0  0  0  0  0  0  0999 V2000
   69.7930   46.3812   57.3265 N   0  0  0  0  0  0  0  0  0  0  0  0
   69.3243   45.1642   57.1360 N   0  0  0  0  0  0  0  0  0  0  0  0
   69.8494   44.0335   57.6352 C   0  0  0  0  0  0  0  0  0  0  0  0
   70.9722   44.1459   58.4142 C   0  0  0  0  0  0  0  0  0  0  0  0
   71.5173   45.4132   58.6530 C   0  0  0  0  0  0  0  0  0  0  0  0
   70.8929   46.5124   58.0866 C   0  0  0  0  0  0  0  0  0  0  0  0
   71.3582   47.6884   58.2791 O   0  0  0  0  0  0  0  0  0  0  0  0
   69.2612   42.7311   57.3702 C   0  0  0  0  0  0  0  0  0  0  0  0
   69.6648   41.6139   58.1016 C   0  0  0  0  0  0  0  0  0  0  0  0
   69.1301   40.3630   57.8791 C   0  0  0  0  0  0  0  0  0  0  0  0
   69.5491   39.2890   58.6147 F   0  0  0  0  0  0  0  0  0  0  0  0
   68.1652   40.1601   56.9168 C   0  0  0  0  0  0  0  0  0  0  0  0
   67.7548   41.2515   56.1862 C   0  0  0  0  0  0  0  0  0  0  0  0
   66.8036   41.0594   55.2357 F   0  0  0  0  0  0  0  0  0  0  0  0
   68.3023   42.5226   56.4157 C   0  0  0  0  0  0  0  0  0  0  0  0
   69.1433   47.5518   56.7400 C   0  0  0  0  0  0  0  0  0  0  0  0
   69.3306   47.7681   52.9619 C   0  0  0  0  0  0  0  0  0  0  0  0
   68.5155   46.7396   52.5683 C   0  0  0  0  0  0  0  0  0  0  0  0
   67.9024   45.9766   53.5376 C   0  0  0  0  0  0  0  0  0  0  0  0
   68.1070   46.2421   54.8798 C   0  0  0  0  0  0  0  0  0  0  0  0
   68.9287   47.2790   55.2985 C   0  0  0  0  0  0  0  0  0  0  0  0
   69.5289   48.0266   54.3076 C   0  0  0  0  0  0  0  0  0  0  0  0
   70.0781   49.9714   52.1341 N   0  0  0  0  0  0  0  0  0  0  0  0
   69.9754   48.5705   51.9450 C   0  0  0  0  0  0  0  0  0  0  0  0
   70.4505   48.0958   50.8963 O   0  0  0  0  0  0  0  0  0  0  0  0
 23 24  1  0
 24 25  2  0
 24 17  1  0
 17 18  2  0
 17 22  1  0
 18 19  1  0
 19 20  2  0
 20 21  1  0
 21 16  1  0
 21 22  2  0
 16  1  1  0
  1  2  1  0
  1  6  1  0
  2  3  2  0
  3  8  1  0
  3  4  1  0
  8  9  2  0
  8 15  1  0
  9 10  1  0
 10 11  1  0
 10 12  2  0
 12 13  1  0
 13 14  1  0
 13 15  2  0
  4  5  2  0
  5  6  1  0
  6  7  2  0
M  END
>  <minimizedAffinity>  (94) 
-9.23329

$$$$
cs_full_output_folder/data/smiles/601.pdb
     RDKit          3D

 24 26  0  0  0  0  0  0  0  0999 V2000
   72.3024   51.0332   55.0292 C   0  0  2  0  0  0  0  0  0  0  0  0
   70.3318   50.8702   53.1466 O   0  0  0  0  0  0  0  0  0  0  0  0
   70.5653   49.7415   53.7088 C   0  0  0  0  0  0  0  0  0  0  0  0
   71.5806   49.7933   54.6855 N   0  0  0  0  0  0  0  0  0  0  0  0
   69.7947   48.5920   53.2956 C   0  0  0  0  0  0  0  0  0  0  0  0
   69.0117   47.9408   54.2528 C   0  0  0  0  0  0  0  0  0  0  0  0
   68.2410   46.8360   53.9645 C   0  0  0  0  0  0  0  0  0  0  0  0
   68.2149   46.3224   52.6877 C   0  0  0  0  0  0  0  0  0  0  0  0
   68.9808   46.9558   51.7411 C   0  0  0  0  0  0  0  0  0  0  0  0
   69.7716   48.0860   52.0301 C   0  0  0  0  0  0  0  0  0  0  0  0
   70.5098   48.6590   51.0171 O   0  0  0  0  0  0  0  0  0  0  0  0
   73.6978   50.9880   54.6702 C   0  0  0  0  0  0  0  0  0  0  0  0
   74.5613   51.6003   55.3409 O   0  0  0  0  0  0  0  0  0  0  0  0
   74.1270   50.2651   53.5770 O   0  0  0  0  0  0  0  0  0  0  0  0
   71.9676   51.4180   56.4537 C   0  0  0  0  0  0  0  0  0  0  0  0
   70.5529   51.7759   56.6600 C   0  0  0  0  0  0  0  0  0  0  0  0
   69.9834   53.0393   56.4536 C   0  0  0  0  0  0  0  0  0  0  0  0
   68.6660   53.0035   56.6954 N   0  0  0  0  0  0  0  0  0  0  0  0
   68.3424   51.7518   57.0570 C   0  0  0  0  0  0  0  0  0  0  0  0
   67.1089   51.2363   57.4065 C   0  0  0  0  0  0  0  0  0  0  0  0
   66.9944   49.9194   57.7557 C   0  0  0  0  0  0  0  0  0  0  0  0
   68.1376   49.1398   57.7457 C   0  0  0  0  0  0  0  0  0  0  0  0
   69.3712   49.6668   57.3936 C   0  0  0  0  0  0  0  0  0  0  0  0
   69.5000   50.9927   57.0387 C   0  0  0  0  0  0  0  0  0  0  0  0
  2  3  2  0
  3  4  1  0
  3  5  1  0
  4  1  1  0
  1 15  1  1
  1 12  1  0
 15 16  1  0
 16 17  2  0
 16 24  1  0
 17 18  1  0
 18 19  1  0
 19 20  1  0
 19 24  2  0
 20 21  2  0
 21 22  1  0
 22 23  2  0
 23 24  1  0
 12 13  2  0
 12 14  1  0
  5  6  2  0
  5 10  1  0
  6  7  1  0
  7  8  2  0
  8  9  1  0
  9 10  2  0
 10 11  1  0
M  END
>  <minimizedAffinity>  (95) 
-9.23262

$$$$
cs_full_output_folder/data/smiles/4606.pdb
     RDKit          3D

 23 25  0  0  0  0  0  0  0  0999 V2000
   68.3466   47.3992   56.4919 C   0  0  0  0  0  0  0  0  0  0  0  0
   67.2088   47.7123   56.9434 O   0  0  0  0  0  0  0  0  0  0  0  0
   70.0142   49.6585   57.6820 C   0  0  0  0  0  0  0  0  0  0  0  0
   70.2331   48.2266   57.9845 C   0  0  0  0  0  0  0  0  0  0  0  0
   69.4582   47.2075   57.4093 C   0  0  0  0  0  0  0  0  0  0  0  0
   69.9620   46.0771   57.9290 N   0  0  0  0  0  0  0  0  0  0  0  0
   70.9950   46.3489   58.7830 C   0  0  0  0  0  0  0  0  0  0  0  0
   71.8180   45.5429   59.5456 C   0  0  0  0  0  0  0  0  0  0  0  0
   72.8131   46.0903   60.3451 C   0  0  0  0  0  0  0  0  0  0  0  0
   73.0126   47.4559   60.4024 C   0  0  0  0  0  0  0  0  0  0  0  0
   72.1777   48.2317   59.6327 C   0  0  0  0  0  0  0  0  0  0  0  0
   71.1827   47.7118   58.8313 C   0  0  0  0  0  0  0  0  0  0  0  0
   68.4812   47.2441   55.0518 C   0  0  0  0  0  0  0  0  0  0  0  0
   67.7384   46.3016   54.3686 C   0  0  0  0  0  0  0  0  0  0  0  0
   67.8563   46.1932   53.0146 C   0  0  0  0  0  0  0  0  0  0  0  0
   67.1171   45.2517   52.3116 O   0  0  0  0  0  0  0  0  0  0  0  0
   68.6984   46.9962   52.2718 C   0  0  0  0  0  0  0  0  0  0  0  0
   68.8213   46.8902   50.8969 O   0  0  0  0  0  0  0  0  0  0  0  0
   69.4563   47.9528   52.9315 C   0  0  0  0  0  0  0  0  0  0  0  0
   69.3241   48.0479   54.3023 C   0  0  0  0  0  0  0  0  0  0  0  0
   70.3434   48.8101   52.2156 N   0  0  0  0  0  0  0  0  0  0  0  0
   71.4727   49.0157   52.7195 O   0  0  0  0  0  0  0  0  0  0  0  0
   70.0172   49.3946   51.0372 O   0  0  0  0  0  0  0  0  0  0  0  0
  3  4  1  0
  4  5  2  0
  4 12  1  0
  5  1  1  0
  5  6  1  0
  1  2  2  0
  1 13  1  0
 13 14  2  0
 13 20  1  0
 14 15  1  0
 15 16  1  0
 15 17  2  0
 17 18  1  0
 17 19  1  0
 19 21  1  0
 19 20  2  0
 21 22  2  0
 21 23  1  0
  6  7  1  0
  7  8  1  0
  7 12  2  0
  8  9  2  0
  9 10  1  0
 10 11  2  0
 11 12  1  0
M  CHG  2  21   1  23  -1
M  END
>  <minimizedAffinity>  (96) 
-9.23021

$$$$
cs_full_output_folder/data/smiles/388.pdb
     RDKit          3D

 24 26  0  0  0  0  0  0  0  0999 V2000
   70.6134   46.3630   59.1793 O   0  0  0  0  0  0  0  0  0  0  0  0
   70.7631   45.6423   58.1666 C   0  0  0  0  0  0  0  0  0  0  0  0
   69.8358   45.8325   57.0934 N   0  0  0  0  0  0  0  0  0  0  0  0
   71.8429   44.6728   58.1279 C   0  0  0  0  0  0  0  0  0  0  0  0
   71.6600   43.3507   57.8178 C   0  0  0  0  0  0  0  0  0  0  0  0
   72.7034   42.4415   57.7867 C   0  0  0  0  0  0  0  0  0  0  0  0
   73.9732   42.8899   58.0796 C   0  0  0  0  0  0  0  0  0  0  0  0
   75.0113   42.0240   58.0574 N   0  0  0  0  0  0  0  0  0  0  0  0
   76.2600   42.4330   58.3383 C   0  0  0  0  0  0  0  0  0  0  0  0
   76.4891   43.7620   58.6578 C   0  0  0  0  0  0  0  0  0  0  0  0
   75.4517   44.6603   58.6875 C   0  0  0  0  0  0  0  0  0  0  0  0
   74.1981   44.2107   58.3961 C   0  0  0  0  0  0  0  0  0  0  0  0
   73.1305   45.0743   58.4140 C   0  0  0  0  0  0  0  0  0  0  0  0
   68.8461   46.7609   57.1979 N   0  0  0  0  0  0  0  0  0  0  0  0
   68.1996   47.3529   56.3044 C   0  0  0  0  0  0  0  0  0  0  0  0
   68.3774   47.1615   54.8920 C   0  0  0  0  0  0  0  0  0  0  0  0
   67.7006   46.2571   54.1231 C   0  0  0  0  0  0  0  0  0  0  0  0
   67.9198   46.1150   52.7393 C   0  0  0  0  0  0  0  0  0  0  0  0
   68.8398   46.8997   52.1210 C   0  0  0  0  0  0  0  0  0  0  0  0
   69.5404   47.8178   52.8513 C   0  0  0  0  0  0  0  0  0  0  0  0
   69.3124   47.9409   54.1953 C   0  0  0  0  0  0  0  0  0  0  0  0
   70.4980   48.6301   52.1910 N   0  0  0  0  0  0  0  0  0  0  0  0
   70.3330   48.9394   50.9857 O   0  0  0  0  0  0  0  0  0  0  0  0
   71.5949   49.0818   52.8386 O   0  0  0  0  0  0  0  0  0  0  0  0
  1  2  2  0
  2  3  1  0
  2  4  1  0
  3 14  1  0
 14 15  2  0
 15 16  1  0
 16 17  2  0
 16 21  1  0
 17 18  1  0
 18 19  2  0
 19 20  1  0
 20 22  1  0
 20 21  2  0
 22 23  2  0
 22 24  1  0
  4  5  2  0
  4 13  1  0
  5  6  1  0
  6  7  2  0
  7  8  1  0
  7 12  1  0
  8  9  2  0
  9 10  1  0
 10 11  2  0
 11 12  1  0
 12 13  2  0
M  CHG  2  22   1  24  -1
M  END
>  <minimizedAffinity>  (97) 
-9.22802

$$$$
cs_full_output_folder/data/smiles/34.pdb
     RDKit          3D

 24 26  0  0  0  0  0  0  0  0999 V2000
   72.3070   51.0130   54.9417 C   0  0  2  0  0  0  0  0  0  0  0  0
   70.2319   50.8399   53.1055 O   0  0  0  0  0  0  0  0  0  0  0  0
   70.5126   49.7596   53.6882 C   0  0  0  0  0  0  0  0  0  0  0  0
   71.5593   49.7891   54.6324 N   0  0  0  0  0  0  0  0  0  0  0  0
   69.7452   48.5841   53.3433 C   0  0  0  0  0  0  0  0  0  0  0  0
   68.9635   47.9229   54.2625 C   0  0  0  0  0  0  0  0  0  0  0  0
   68.2250   46.7847   53.9191 C   0  0  0  0  0  0  0  0  0  0  0  0
   68.2833   46.3090   52.6156 C   0  0  0  0  0  0  0  0  0  0  0  0
   69.0575   46.9590   51.6945 C   0  0  0  0  0  0  0  0  0  0  0  0
   69.7681   48.0721   52.0664 C   0  0  0  0  0  0  0  0  0  0  0  0
   70.5646   48.7390   51.1131 O   0  0  0  0  0  0  0  0  0  0  0  0
   73.7119   50.9148   54.5709 C   0  0  0  0  0  0  0  0  0  0  0  0
   74.1085   50.2140   53.5620 O   0  0  0  0  0  0  0  0  0  0  0  0
   74.7789   51.5329   55.2086 O   0  0  0  0  0  0  0  0  0  0  0  0
   71.9522   51.5558   56.2730 C   0  0  0  0  0  0  0  0  0  0  0  0
   70.5327   51.9236   56.4935 C   0  0  0  0  0  0  0  0  0  0  0  0
   69.9523   53.1504   56.2527 C   0  0  0  0  0  0  0  0  0  0  0  0
   68.6661   53.0599   56.5426 N   0  0  0  0  0  0  0  0  0  0  0  0
   68.3594   51.8070   56.9718 C   0  0  0  0  0  0  0  0  0  0  0  0
   67.1405   51.2687   57.3901 C   0  0  0  0  0  0  0  0  0  0  0  0
   67.1049   49.9544   57.7950 C   0  0  0  0  0  0  0  0  0  0  0  0
   68.2858   49.2435   57.7640 C   0  0  0  0  0  0  0  0  0  0  0  0
   69.4864   49.7684   57.3542 C   0  0  0  0  0  0  0  0  0  0  0  0
   69.5344   51.0924   56.9413 C   0  0  0  0  0  0  0  0  0  0  0  0
  2  3  2  0
  3  4  1  0
  3  5  1  0
  4  1  1  0
  1 15  1  1
  1 12  1  0
 15 16  1  0
 16 17  2  0
 16 24  1  0
 17 18  1  0
 18 19  1  0
 19 20  1  0
 19 24  2  0
 20 21  2  0
 21 22  1  0
 22 23  2  0
 23 24  1  0
 12 13  2  0
 12 14  1  0
  5  6  2  0
  5 10  1  0
  6  7  1  0
  7  8  2  0
  8  9  1  0
  9 10  2  0
 10 11  1  0
M  END
>  <minimizedAffinity>  (98) 
-9.22324

$$$$
cs_full_output_folder/data/smiles/1403.pdb
     RDKit          3D

 25 27  0  0  0  0  0  0  0  0999 V2000
   68.9542   47.6161   56.6454 C   0  0  0  0  0  0  0  0  0  0  0  0
   67.7128   47.4405   56.9278 O   0  0  0  0  0  0  0  0  0  0  0  0
   69.2405   48.0001   55.2851 C   0  0  0  0  0  0  0  0  0  0  0  0
   69.9926   49.1576   55.0130 C   0  0  0  0  0  0  0  0  0  0  0  0
   70.2843   49.5517   53.7439 C   0  0  0  0  0  0  0  0  0  0  0  0
   70.9649   50.6041   53.5799 O   0  0  0  0  0  0  0  0  0  0  0  0
   69.8520   48.8310   52.6990 N   0  0  0  0  0  0  0  0  0  0  0  0
   69.1215   47.7028   52.8665 C   0  0  0  0  0  0  0  0  0  0  0  0
   68.7161   47.0218   51.7443 C   0  0  0  0  0  0  0  0  0  0  0  0
   67.9750   45.8750   51.8951 C   0  0  0  0  0  0  0  0  0  0  0  0
   67.6630   45.4483   53.1547 C   0  0  0  0  0  0  0  0  0  0  0  0
   68.0833   46.1547   54.2872 C   0  0  0  0  0  0  0  0  0  0  0  0
   68.8282   47.3061   54.1682 C   0  0  0  0  0  0  0  0  0  0  0  0
   69.8060   47.4091   57.6834 O   0  0  0  0  0  0  0  0  0  0  0  0
   70.6946   46.3768   57.9054 C   0  0  0  0  0  0  0  0  0  0  0  0
   69.7567   44.7256   59.3102 O   0  0  0  0  0  0  0  0  0  0  0  0
   70.0608   45.0291   58.1361 C   0  0  0  0  0  0  0  0  0  0  0  0
   69.8103   44.1247   57.0980 N   0  0  0  0  0  0  0  0  0  0  0  0
   69.2096   42.8546   57.1668 C   0  0  0  0  0  0  0  0  0  0  0  0
   69.8372   41.8527   57.9364 C   0  0  0  0  0  0  0  0  0  0  0  0
   69.3570   40.5743   58.0478 C   0  0  0  0  0  0  0  0  0  0  0  0
   68.2068   40.1847   57.4010 C   0  0  0  0  0  0  0  0  0  0  0  0
   67.5746   41.1292   56.6481 C   0  0  0  0  0  0  0  0  0  0  0  0
   68.0715   42.4387   56.5355 C   0  0  0  0  0  0  0  0  0  0  0  0
   67.4007   43.3117   55.7331 F   0  0  0  0  0  0  0  0  0  0  0  0
 16 17  2  0
 17 15  1  0
 17 18  1  0
 15 14  1  0
 14  1  1  0
  1  2  2  0
  1  3  1  0
  3  4  2  0
  3 13  1  0
  4  5  1  0
  5  6  2  0
  5  7  1  0
  7  8  1  0
  8  9  1  0
  8 13  2  0
  9 10  2  0
 10 11  1  0
 11 12  2  0
 12 13  1  0
 18 19  1  0
 19 20  2  0
 19 24  1  0
 20 21  1  0
 21 22  2  0
 22 23  1  0
 23 24  2  0
 24 25  1  0
M  END
>  <minimizedAffinity>  (99) 
-9.22089

$$$$
cs_full_output_folder/data/smiles/1084.pdb
     RDKit          3D

 21 23  0  0  0  0  0  0  0  0999 V2000
   70.5426   48.6979   50.9175 O   0  0  0  0  0  0  0  0  0  0  0  0
   70.2910   48.5154   52.1402 C   0  0  0  0  0  0  0  0  0  0  0  0
   70.9052   49.1996   53.1134 N   0  0  0  0  0  0  0  0  0  0  0  0
   70.6157   48.9780   54.3703 N   0  0  0  0  0  0  0  0  0  0  0  0
   69.6899   48.0591   54.7627 C   0  0  0  0  0  0  0  0  0  0  0  0
   69.0282   47.3316   53.8099 C   0  0  0  0  0  0  0  0  0  0  0  0
   68.0767   46.4119   54.1839 C   0  0  0  0  0  0  0  0  0  0  0  0
   67.4211   45.7062   53.1832 C   0  0  0  0  0  0  0  0  0  0  0  0
   67.7109   45.9182   51.8512 C   0  0  0  0  0  0  0  0  0  0  0  0
   68.6708   46.8510   51.5068 C   0  0  0  0  0  0  0  0  0  0  0  0
   69.3315   47.5582   52.4589 C   0  0  0  0  0  0  0  0  0  0  0  0
   69.4478   47.8039   56.1991 C   0  0  0  0  0  0  0  0  0  0  0  0
   68.4971   48.8079   56.7965 C   0  0  0  0  0  0  0  0  0  0  0  0
   67.3039   48.5268   57.3820 C   0  0  0  0  0  0  0  0  0  0  0  0
   66.5078   49.5123   57.9155 C   0  0  0  0  0  0  0  0  0  0  0  0
   66.8809   50.8404   57.8832 C   0  0  0  0  0  0  0  0  0  0  0  0
   68.1051   51.1559   57.2845 C   0  0  0  0  0  0  0  0  0  0  0  0
   68.8756   50.1482   56.7619 C   0  0  0  0  0  0  0  0  0  0  0  0
   68.4668   52.4842   57.2573 O   0  0  0  0  0  0  0  0  0  0  0  0
   69.2351   53.0876   56.2629 C   0  0  0  0  0  0  0  0  0  0  0  0
   68.6516   52.5550   54.6694 Cl  0  0  0  0  0  0  0  0  0  0  0  0
  1  2  2  0
  2  3  1  0
  2 11  1  0
  3  4  1  0
  4  5  2  0
  5 12  1  0
  5  6  1  0
 12 13  1  0
 13 14  2  0
 13 18  1  0
 14 15  1  0
 15 16  2  0
 16 17  1  0
 17 19  1  0
 17 18  2  0
 19 20  1  0
 20 21  1  0
  6  7  1  0
  6 11  2  0
  7  8  2  0
  8  9  1  0
  9 10  2  0
 10 11  1  0
M  END
>  <minimizedAffinity>  (100) 
-9.22045

$$$$
cs_full_output_folder/data/smiles/8668.pdb
     RDKit          3D

 25 27  0  0  0  0  0  0  0  0999 V2000
   70.0241   45.0218   57.2871 N   0  0  0  0  0  0  0  0  0  0  0  0
   70.1104   44.0949   58.3898 C   0  0  0  0  0  0  0  0  0  0  0  0
   69.5925   44.4152   59.4818 O   0  0  0  0  0  0  0  0  0  0  0  0
   70.7773   42.8144   58.2545 C   0  0  0  0  0  0  0  0  0  0  0  0
   70.3053   41.5878   58.6897 C   0  0  0  0  0  0  0  0  0  0  0  0
   71.2144   40.5975   58.3861 C   0  0  0  0  0  0  0  0  0  0  0  0
   72.2268   41.2313   57.7699 N   0  0  0  0  0  0  0  0  0  0  0  0
   71.9655   42.5335   57.6949 N   0  0  0  0  0  0  0  0  0  0  0  0
   71.1282   39.1654   58.6608 C   0  0  0  0  0  0  0  0  0  0  0  0
   71.9640   38.2643   58.0360 C   0  0  0  0  0  0  0  0  0  0  0  0
   71.9311   36.9082   58.2560 C   0  0  0  0  0  0  0  0  0  0  0  0
   71.0057   36.4267   59.1552 C   0  0  0  0  0  0  0  0  0  0  0  0
   70.1378   37.3039   59.8118 C   0  0  0  0  0  0  0  0  0  0  0  0
   70.2113   38.6541   59.5568 C   0  0  0  0  0  0  0  0  0  0  0  0
   68.8927   47.0147   56.5746 C   0  0  0  0  0  0  0  0  0  0  0  0
   69.4254   46.2179   57.3389 N   0  0  0  0  0  0  0  0  0  0  0  0
   69.7491   49.1351   54.9913 C   0  0  0  0  0  0  0  0  0  0  0  0
   69.1630   47.9446   54.3198 C   0  0  0  0  0  0  0  0  0  0  0  0
   69.0749   47.9152   52.9556 C   0  0  0  0  0  0  0  0  0  0  0  0
   68.5283   46.8165   52.3358 C   0  0  0  0  0  0  0  0  0  0  0  0
   68.4451   46.8034   50.9361 O   0  0  0  0  0  0  0  0  0  0  0  0
   68.0755   45.7586   53.0802 C   0  0  0  0  0  0  0  0  0  0  0  0
   68.1853   45.8287   54.4776 C   0  0  0  0  0  0  0  0  0  0  0  0
   67.7235   44.7389   55.1949 O   0  0  0  0  0  0  0  0  0  0  0  0
   68.7188   46.8951   55.1478 C   0  0  0  0  0  0  0  0  0  0  0  0
 17 18  1  0
 18 19  2  0
 18 25  1  0
 19 20  1  0
 20 21  1  0
 20 22  2  0
 22 23  1  0
 23 24  1  0
 23 25  2  0
 25 15  1  0
 15 16  2  0
 16  1  1  0
  1  2  1  0
  2  3  2  0
  2  4  1  0
  4  5  2  0
  4  8  1  0
  5  6  1  0
  6  9  1  0
  6  7  2  0
  9 10  2  0
  9 14  1  0
 10 11  1  0
 11 12  2  0
 12 13  1  0
 13 14  2  0
  7  8  1  0
M  END
>  <minimizedAffinity>  (101) 
-9.21859

$$$$
cs_full_output_folder/data/smiles/1222.pdb
     RDKit          3D

 24 26  0  0  0  0  0  0  0  0999 V2000
   68.2687   43.4658   55.7555 N   0  0  0  0  0  0  0  0  0  0  0  0
   67.6820   42.3575   56.4717 C   0  0  0  0  0  0  0  0  0  0  0  0
   66.4311   42.3294   56.4200 O   0  0  0  0  0  0  0  0  0  0  0  0
   68.4874   41.3680   57.1832 C   0  0  0  0  0  0  0  0  0  0  0  0
   68.0162   40.0919   57.4088 C   0  0  0  0  0  0  0  0  0  0  0  0
   68.7967   39.1505   58.0866 C   0  0  0  0  0  0  0  0  0  0  0  0
   70.0522   39.4631   58.5503 C   0  0  0  0  0  0  0  0  0  0  0  0
   70.5504   40.7477   58.3347 C   0  0  0  0  0  0  0  0  0  0  0  0
   71.8063   41.0827   58.7916 C   0  0  0  0  0  0  0  0  0  0  0  0
   72.3076   42.3465   58.5874 C   0  0  0  0  0  0  0  0  0  0  0  0
   71.5002   43.2371   57.9140 C   0  0  0  0  0  0  0  0  0  0  0  0
   70.2362   42.9376   57.4400 C   0  0  0  0  0  0  0  0  0  0  0  0
   69.7499   41.6557   57.6579 C   0  0  0  0  0  0  0  0  0  0  0  0
   67.4830   44.3923   55.0837 N   0  0  0  0  0  0  0  0  0  0  0  0
   69.2503   47.8601   53.4584 C   0  0  0  0  0  0  0  0  0  0  0  0
   69.2303   47.6703   54.8166 C   0  0  0  0  0  0  0  0  0  0  0  0
   68.6505   46.5392   55.3372 C   0  0  0  0  0  0  0  0  0  0  0  0
   68.0746   45.5599   54.5579 C   0  0  0  0  0  0  0  0  0  0  0  0
   68.1076   45.7729   53.1896 C   0  0  0  0  0  0  0  0  0  0  0  0
   68.6921   46.9161   52.6451 C   0  0  0  0  0  0  0  0  0  0  0  0
   69.9224   49.3747   51.1137 N   0  0  0  0  0  0  0  0  0  0  0  0
   69.9990   49.3144   52.8337 S   0  0  0  0  0  0  0  0  0  0  0  0
   71.4103   49.4044   53.2852 O   0  0  0  0  0  0  0  0  0  0  0  0
   69.2575   50.5087   53.3575 O   0  0  0  0  0  0  0  0  0  0  0  0
 21 22  1  0
 22 23  2  0
 22 24  2  0
 22 15  1  0
 15 16  2  0
 15 20  1  0
 16 17  1  0
 17 18  2  0
 18 14  1  0
 18 19  1  0
 14  1  1  0
  1  2  1  0
  2  3  2  0
  2  4  1  0
  4  5  2  0
  4 13  1  0
  5  6  1  0
  6  7  2  0
  7  8  1  0
  8  9  1  0
  8 13  2  0
  9 10  2  0
 10 11  1  0
 11 12  2  0
 12 13  1  0
 19 20  2  0
M  END
>  <minimizedAffinity>  (102) 
-9.21849

$$$$
cs_full_output_folder/data/smiles/3019.pdb
     RDKit          3D

 25 27  0  0  0  0  0  0  0  0999 V2000
   69.1372   43.8916   57.0110 C   0  0  0  0  0  0  0  0  0  0  0  0
   69.8838   44.5902   57.7890 O   0  0  0  0  0  0  0  0  0  0  0  0
   68.4675   44.6486   56.0484 N   0  0  0  0  0  0  0  0  0  0  0  0
   71.0180   41.9874   58.7492 C   0  0  0  0  0  0  0  0  0  0  0  0
   69.8459   41.6263   57.9548 C   0  0  0  0  0  0  0  0  0  0  0  0
   69.3598   40.3348   57.8327 C   0  0  0  0  0  0  0  0  0  0  0  0
   68.2941   40.4272   57.0033 N   0  0  0  0  0  0  0  0  0  0  0  0
   68.1301   41.6725   56.6415 N   0  0  0  0  0  0  0  0  0  0  0  0
   69.0826   42.4603   57.2165 C   0  0  0  0  0  0  0  0  0  0  0  0
   69.8365   39.0952   58.4249 C   0  0  0  0  0  0  0  0  0  0  0  0
   69.1792   38.4017   59.4131 C   0  0  0  0  0  0  0  0  0  0  0  0
   69.6625   37.2406   59.9555 C   0  0  0  0  0  0  0  0  0  0  0  0
   70.8543   36.7205   59.5137 C   0  0  0  0  0  0  0  0  0  0  0  0
   71.5391   37.3811   58.5305 C   0  0  0  0  0  0  0  0  0  0  0  0
   71.0383   38.5403   58.0016 C   0  0  0  0  0  0  0  0  0  0  0  0
   68.5335   46.0822   55.8534 C   0  0  0  0  0  0  0  0  0  0  0  0
   68.5595   46.3518   54.4090 C   0  0  0  0  0  0  0  0  0  0  0  0
   67.8282   45.6157   53.5187 C   0  0  0  0  0  0  0  0  0  0  0  0
   67.8503   45.8919   52.1439 C   0  0  0  0  0  0  0  0  0  0  0  0
   68.6250   46.9275   51.6677 C   0  0  0  0  0  0  0  0  0  0  0  0
   69.3645   47.6741   52.5522 C   0  0  0  0  0  0  0  0  0  0  0  0
   69.3362   47.3955   53.9000 C   0  0  0  0  0  0  0  0  0  0  0  0
   70.1722   48.7577   52.0325 C   0  0  0  0  0  0  0  0  0  0  0  0
   71.2836   49.0128   52.5585 O   0  0  0  0  0  0  0  0  0  0  0  0
   69.7691   49.5411   50.9633 O   0  0  0  0  0  0  0  0  0  0  0  0
  4  5  1  0
  5  6  1  0
  5  9  2  0
  6 10  1  0
  6  7  2  0
 10 11  2  0
 10 15  1  0
 11 12  1  0
 12 13  2  0
 13 14  1  0
 14 15  2  0
  7  8  1  0
  8  9  1  0
  9  1  1  0
  1  2  2  0
  1  3  1  0
  3 16  1  0
 16 17  1  0
 17 18  2  0
 17 22  1  0
 18 19  1  0
 19 20  2  0
 20 21  1  0
 21 23  1  0
 21 22  2  0
 23 24  2  0
 23 25  1  0
M  END
>  <minimizedAffinity>  (103) 
-9.21826

$$$$
cs_full_output_folder/data/smiles/6753.pdb
     RDKit          3D

 24 25  0  0  0  0  0  0  0  0999 V2000
   69.9759   45.4385   59.1790 O   0  0  0  0  0  0  0  0  0  0  0  0
   70.4276   45.0896   58.0667 C   0  0  0  0  0  0  0  0  0  0  0  0
   69.8113   45.6591   56.8912 N   0  0  0  0  0  0  0  0  0  0  0  0
   71.5248   44.1514   58.0077 C   0  0  0  0  0  0  0  0  0  0  0  0
   72.8493   44.6002   58.0564 C   0  0  0  0  0  0  0  0  0  0  0  0
   73.9278   43.7444   57.9939 C   0  0  0  0  0  0  0  0  0  0  0  0
   73.6738   42.3910   57.8793 C   0  0  0  0  0  0  0  0  0  0  0  0
   72.3782   41.9332   57.8298 C   0  0  0  0  0  0  0  0  0  0  0  0
   71.2870   42.8114   57.8939 C   0  0  0  0  0  0  0  0  0  0  0  0
   69.9140   42.2937   57.8515 C   0  0  0  0  0  0  0  0  0  0  0  0
   69.2095   42.6629   56.7222 F   0  0  0  0  0  0  0  0  0  0  0  0
   70.0148   40.8830   57.8331 F   0  0  0  0  0  0  0  0  0  0  0  0
   69.1749   42.5711   58.9777 F   0  0  0  0  0  0  0  0  0  0  0  0
   68.7825   46.5404   56.9195 N   0  0  0  0  0  0  0  0  0  0  0  0
   68.1514   47.1144   56.0293 C   0  0  0  0  0  0  0  0  0  0  0  0
   68.3418   47.0048   54.6025 C   0  0  0  0  0  0  0  0  0  0  0  0
   67.7161   46.0783   53.7962 C   0  0  0  0  0  0  0  0  0  0  0  0
   67.9591   46.0498   52.4395 C   0  0  0  0  0  0  0  0  0  0  0  0
   68.8161   46.9163   51.8049 C   0  0  0  0  0  0  0  0  0  0  0  0
   69.4575   47.8586   52.5935 C   0  0  0  0  0  0  0  0  0  0  0  0
   69.2163   47.8874   53.9437 C   0  0  0  0  0  0  0  0  0  0  0  0
   70.3563   48.7883   52.0121 N   0  0  0  0  0  0  0  0  0  0  0  0
   71.4747   48.9528   52.5085 O   0  0  0  0  0  0  0  0  0  0  0  0
   69.9941   49.5017   50.9069 O   0  0  0  0  0  0  0  0  0  0  0  0
  1  2  2  0
  2  3  1  0
  2  4  1  0
  3 14  1  0
 14 15  2  0
 15 16  1  0
 16 17  2  0
 16 21  1  0
 17 18  1  0
 18 19  2  0
 19 20  1  0
 20 22  1  0
 20 21  2  0
 22 23  2  0
 22 24  1  0
  4  5  2  0
  4  9  1  0
  5  6  1  0
  6  7  2  0
  7  8  1  0
  8  9  2  0
  9 10  1  0
 10 11  1  0
 10 12  1  0
 10 13  1  0
M  CHG  2  22   1  24  -1
M  END
>  <minimizedAffinity>  (104) 
-9.21756

$$$$
cs_full_output_folder/data/smiles/1997.pdb
     RDKit          3D

 22 24  0  0  0  0  0  0  0  0999 V2000
   68.2797   45.6091   55.8590 N   0  0  0  0  0  0  0  0  0  0  0  0
   69.1125   47.7717   52.9370 C   0  0  0  0  0  0  0  0  0  0  0  0
   68.5315   47.0410   51.9121 C   0  0  0  0  0  0  0  0  0  0  0  0
   67.8748   45.8525   52.1381 C   0  0  0  0  0  0  0  0  0  0  0  0
   67.7925   45.3667   53.4493 C   0  0  0  0  0  0  0  0  0  0  0  0
   68.3550   46.0601   54.5002 C   0  0  0  0  0  0  0  0  0  0  0  0
   69.0021   47.2483   54.2051 C   0  0  0  0  0  0  0  0  0  0  0  0
   69.7923   49.6925   50.9896 N   0  0  0  0  0  0  0  0  0  0  0  0
   69.9300   49.2898   52.6395 S   0  0  0  0  0  0  0  0  0  0  0  0
   71.4066   49.0982   52.9665 O   0  0  0  0  0  0  0  0  0  0  0  0
   69.3535   50.3405   53.5499 O   0  0  0  0  0  0  0  0  0  0  0  0
   68.4412   44.2536   56.2489 C   0  0  0  0  0  0  0  0  0  0  0  0
   67.4913   43.3151   56.0957 N   0  0  0  0  0  0  0  0  0  0  0  0
   67.6416   42.0247   56.4590 C   0  0  0  0  0  0  0  0  0  0  0  0
   68.8287   41.6134   57.0250 C   0  0  0  0  0  0  0  0  0  0  0  0
   69.8182   42.5598   57.1928 C   0  0  0  0  0  0  0  0  0  0  0  0
   69.6097   43.8261   56.8120 N   0  0  0  0  0  0  0  0  0  0  0  0
   71.1107   42.1489   57.7962 C   0  0  0  0  0  0  0  0  0  0  0  0
   71.3184   41.0492   58.4998 C   0  0  0  0  0  0  0  0  0  0  0  0
   72.7270   40.9585   58.9492 C   0  0  0  0  0  0  0  0  0  0  0  0
   73.3168   42.2150   58.3835 C   0  0  0  0  0  0  0  0  0  0  0  0
   72.3746   42.8589   57.7407 C   0  0  0  0  0  0  0  0  0  0  0  0
  8  9  1  0
  9 10  2  0
  9 11  2  0
  9  2  1  0
  2  3  2  0
  2  7  1  0
  3  4  1  0
  4  5  2  0
  5  6  1  0
  6  1  1  0
  6  7  2  0
  1 12  1  0
 12 13  2  0
 12 17  1  0
 13 14  1  0
 14 15  2  0
 15 16  1  0
 16 18  1  0
 16 17  2  0
 18 19  2  0
 18 22  1  0
 19 20  1  0
 20 21  1  0
 21 22  2  0
M  END
>  <minimizedAffinity>  (105) 
-9.21419

$$$$
cs_full_output_folder/data/smiles/146.pdb
     RDKit          3D

 24 26  0  0  0  0  0  0  0  0999 V2000
   68.2655   44.2536   56.1525 N   0  0  0  0  0  0  0  0  0  0  0  0
   68.1488   42.8548   56.5106 C   0  0  0  0  0  0  0  0  0  0  0  0
   67.5261   42.1522   55.6842 O   0  0  0  0  0  0  0  0  0  0  0  0
   68.7257   42.3548   57.7452 C   0  0  0  0  0  0  0  0  0  0  0  0
   69.1122   43.1906   58.6126 O   0  0  0  0  0  0  0  0  0  0  0  0
   68.8469   40.9286   57.9527 C   0  0  0  0  0  0  0  0  0  0  0  0
   67.8911   39.9542   57.9157 C   0  0  0  0  0  0  0  0  0  0  0  0
   68.4599   38.7392   58.1737 N   0  0  0  0  0  0  0  0  0  0  0  0
   69.7721   38.9305   58.3756 C   0  0  0  0  0  0  0  0  0  0  0  0
   70.7736   38.0353   58.6662 C   0  0  0  0  0  0  0  0  0  0  0  0
   72.0759   38.4337   58.8389 C   0  0  0  0  0  0  0  0  0  0  0  0
   72.3573   39.7940   58.7090 C   0  0  0  0  0  0  0  0  0  0  0  0
   71.3581   40.6976   58.4172 C   0  0  0  0  0  0  0  0  0  0  0  0
   70.0582   40.2863   58.2466 C   0  0  0  0  0  0  0  0  0  0  0  0
   67.7122   44.7239   54.9719 N   0  0  0  0  0  0  0  0  0  0  0  0
   69.3189   47.9318   52.7428 C   0  0  0  0  0  0  0  0  0  0  0  0
   68.7345   46.8376   52.1275 C   0  0  0  0  0  0  0  0  0  0  0  0
   68.2048   45.7824   52.8261 C   0  0  0  0  0  0  0  0  0  0  0  0
   68.2477   45.7948   54.2073 C   0  0  0  0  0  0  0  0  0  0  0  0
   68.8143   46.8531   54.8748 C   0  0  0  0  0  0  0  0  0  0  0  0
   69.3371   47.8976   54.1188 C   0  0  0  0  0  0  0  0  0  0  0  0
   69.7268   50.3339   52.4249 N   0  0  0  0  0  0  0  0  0  0  0  0
   69.8620   49.0152   51.9947 N   0  0  0  0  0  0  0  0  0  0  0  0
   70.4614   48.7864   50.9483 O   0  0  0  0  0  0  0  0  0  0  0  0
 22 23  1  0
 23 24  2  0
 23 16  1  0
 16 17  2  0
 16 21  1  0
 17 18  1  0
 18 19  2  0
 19 15  1  0
 19 20  1  0
 15  1  1  0
  1  2  1  0
  2  3  2  0
  2  4  1  0
  4  5  2  0
  4  6  1  0
  6  7  2  0
  6 14  1  0
  7  8  1  0
  8  9  1  0
  9 10  1  0
  9 14  2  0
 10 11  2  0
 11 12  1  0
 12 13  2  0
 13 14  1  0
 20 21  2  0
M  CHG  1  23   1
M  END
>  <minimizedAffinity>  (106) 
-9.20926

$$$$
cs_full_output_folder/data/smiles/308.pdb
     RDKit          3D

 25 28  0  0  0  0  0  0  0  0999 V2000
   70.9251   45.9433   58.2796 C   0  0  0  0  0  0  0  0  0  0  0  0
   70.0499   46.4722   57.3523 C   0  0  0  0  0  0  0  0  0  0  0  0
   69.8509   47.8084   57.2429 C   0  0  0  0  0  0  0  0  0  0  0  0
   70.5717   48.6410   58.1101 C   0  0  0  0  0  0  0  0  0  0  0  0
   71.4537   48.1567   59.0486 C   0  0  0  0  0  0  0  0  0  0  0  0
   71.6178   46.7909   59.1171 C   0  0  0  0  0  0  0  0  0  0  0  0
   72.4828   46.2424   60.0327 F   0  0  0  0  0  0  0  0  0  0  0  0
   69.2598   43.8956   59.7801 O   0  0  0  0  0  0  0  0  0  0  0  0
   70.2505   43.6113   59.0271 C   0  0  0  0  0  0  0  0  0  0  0  0
   70.6528   42.2138   58.7101 C   0  0  0  0  0  0  0  0  0  0  0  0
   71.9152   42.3450   57.9236 C   0  0  0  0  0  0  0  0  0  0  0  0
   72.2253   43.8125   57.8266 C   0  0  0  0  0  0  0  0  0  0  0  0
   71.1174   44.5212   58.3785 N   0  0  0  0  0  0  0  0  0  0  0  0
   68.9255   48.4190   56.2880 C   0  0  0  0  0  0  0  0  0  0  0  0
   69.3234   48.4133   54.8875 C   0  0  0  0  0  0  0  0  0  0  0  0
   70.2153   49.3574   54.4652 N   0  0  0  0  0  0  0  0  0  0  0  0
   70.6280   49.4990   53.2440 N   0  0  0  0  0  0  0  0  0  0  0  0
   70.1795   48.6845   52.2786 C   0  0  0  0  0  0  0  0  0  0  0  0
   70.5494   48.7811   51.0782 O   0  0  0  0  0  0  0  0  0  0  0  0
   69.2752   47.7025   52.6253 C   0  0  0  0  0  0  0  0  0  0  0  0
   68.7709   46.8144   51.7033 C   0  0  0  0  0  0  0  0  0  0  0  0
   67.8772   45.8130   52.0015 C   0  0  0  0  0  0  0  0  0  0  0  0
   67.4826   45.7151   53.3110 C   0  0  0  0  0  0  0  0  0  0  0  0
   67.9510   46.5735   54.2814 C   0  0  0  0  0  0  0  0  0  0  0  0
   68.8328   47.5549   53.9501 C   0  0  0  0  0  0  0  0  0  0  0  0
  8  9  2  0
  9 10  1  0
  9 13  1  0
 10 11  1  0
 11 12  1  0
 12 13  1  0
 13  1  1  0
  1  2  2  0
  1  6  1  0
  2  3  1  0
  3 14  1  0
  3  4  2  0
 14 15  1  0
 15 16  2  0
 15 25  1  0
 16 17  1  0
 17 18  1  0
 18 19  2  0
 18 20  1  0
 20 21  1  0
 20 25  2  0
 21 22  2  0
 22 23  1  0
 23 24  2  0
 24 25  1  0
  4  5  1  0
  5  6  2  0
  6  7  1  0
M  END
>  <minimizedAffinity>  (107) 
-9.20780

$$$$
cs_full_output_folder/data/smiles/6634.pdb
     RDKit          3D

 26 29  0  0  0  0  0  0  0  0999 V2000
   70.9988   45.7325   58.0640 C   0  0  0  0  0  0  0  0  0  0  0  0
   71.7923   46.5234   58.8714 C   0  0  0  0  0  0  0  0  0  0  0  0
   71.6283   47.8909   58.8969 C   0  0  0  0  0  0  0  0  0  0  0  0
   70.6517   48.4955   58.1014 C   0  0  0  0  0  0  0  0  0  0  0  0
   69.8459   47.7440   57.2871 C   0  0  0  0  0  0  0  0  0  0  0  0
   70.0517   46.3646   57.2978 C   0  0  0  0  0  0  0  0  0  0  0  0
   70.5241   40.6259   58.4327 C   0  0  0  0  0  0  0  0  0  0  0  0
   71.0613   41.9884   58.2279 C   0  0  0  0  0  0  0  0  0  0  0  0
   72.2985   42.2671   57.8911 C   0  0  0  0  0  0  0  0  0  0  0  0
   72.4576   43.7236   57.7796 C   0  0  0  0  0  0  0  0  0  0  0  0
   73.5243   44.3306   57.4715 O   0  0  0  0  0  0  0  0  0  0  0  0
   71.2091   44.3339   58.0765 N   0  0  0  0  0  0  0  0  0  0  0  0
   70.3305   43.2515   58.3574 C   0  0  0  0  0  0  0  0  0  0  0  0
   69.1284   43.3928   58.6644 O   0  0  0  0  0  0  0  0  0  0  0  0
   68.7817   48.3151   56.3892 C   0  0  0  0  0  0  0  0  0  0  0  0
   69.2440   48.3607   54.9844 C   0  0  0  0  0  0  0  0  0  0  0  0
   70.1521   49.3201   54.6155 N   0  0  0  0  0  0  0  0  0  0  0  0
   70.5830   49.4572   53.3796 N   0  0  0  0  0  0  0  0  0  0  0  0
   70.1674   48.6669   52.3746 C   0  0  0  0  0  0  0  0  0  0  0  0
   70.5836   48.8040   51.1898 O   0  0  0  0  0  0  0  0  0  0  0  0
   69.2604   47.6785   52.6520 C   0  0  0  0  0  0  0  0  0  0  0  0
   68.8241   46.8414   51.6382 C   0  0  0  0  0  0  0  0  0  0  0  0
   67.9208   45.8410   51.9332 C   0  0  0  0  0  0  0  0  0  0  0  0
   67.4773   45.7046   53.2376 C   0  0  0  0  0  0  0  0  0  0  0  0
   67.9113   46.5387   54.2428 C   0  0  0  0  0  0  0  0  0  0  0  0
   68.8102   47.5420   53.9690 C   0  0  0  0  0  0  0  0  0  0  0  0
  7  8  1  0
  8  9  2  0
  8 13  1  0
  9 10  1  0
 10 11  2  0
 10 12  1  0
 12  1  1  0
 12 13  1  0
  1  2  2  0
  1  6  1  0
  2  3  1  0
  3  4  2  0
  4  5  1  0
  5 15  1  0
  5  6  2  0
 15 16  1  0
 16 17  2  0
 16 26  1  0
 17 18  1  0
 18 19  1  0
 19 20  2  0
 19 21  1  0
 21 22  1  0
 21 26  2  0
 22 23  2  0
 23 24  1  0
 24 25  2  0
 25 26  1  0
 13 14  2  0
M  END
>  <minimizedAffinity>  (108) 
-9.20520

$$$$
cs_full_output_folder/data/smiles/2611.pdb
     RDKit          3D

 25 28  0  0  0  0  0  0  0  0999 V2000
   71.0995   44.7970   58.5007 C   0  0  0  0  0  0  0  0  0  0  0  0
   71.8711   45.4928   59.3826 C   0  0  0  0  0  0  0  0  0  0  0  0
   71.8049   46.8749   59.4620 C   0  0  0  0  0  0  0  0  0  0  0  0
   70.9032   47.4888   58.5840 C   0  0  0  0  0  0  0  0  0  0  0  0
   70.1435   46.7594   57.7104 C   0  0  0  0  0  0  0  0  0  0  0  0
   70.2598   45.4273   57.6887 N   0  0  0  0  0  0  0  0  0  0  0  0
   68.9278   43.0601   58.7755 O   0  0  0  0  0  0  0  0  0  0  0  0
   70.0769   42.5310   58.5954 C   0  0  0  0  0  0  0  0  0  0  0  0
   71.1982   43.3794   58.4530 N   0  0  0  0  0  0  0  0  0  0  0  0
   70.1871   41.0898   58.5447 C   0  0  0  0  0  0  0  0  0  0  0  0
   69.1323   40.2166   58.4550 C   0  0  0  0  0  0  0  0  0  0  0  0
   69.3097   38.8387   58.4105 C   0  0  0  0  0  0  0  0  0  0  0  0
   70.5627   38.2843   58.4546 C   0  0  0  0  0  0  0  0  0  0  0  0
   71.6444   39.1347   58.5446 C   0  0  0  0  0  0  0  0  0  0  0  0
   71.4565   40.4971   58.5884 C   0  0  0  0  0  0  0  0  0  0  0  0
   69.2169   47.4216   56.8030 C   0  0  0  0  0  0  0  0  0  0  0  0
   68.6855   46.6080   55.7100 C   0  0  0  0  0  0  0  0  0  0  0  0
   68.1884   45.3515   55.8979 N   0  0  0  0  0  0  0  0  0  0  0  0
   67.7809   44.8442   54.7521 N   0  0  0  0  0  0  0  0  0  0  0  0
   67.9806   45.7237   53.7406 C   0  0  0  0  0  0  0  0  0  0  0  0
   68.5546   46.8373   54.3651 C   0  0  0  0  0  0  0  0  0  0  0  0
   68.9232   48.0377   53.5694 C   0  0  0  0  0  0  0  0  0  0  0  0
   69.4461   47.4755   52.2358 C   0  0  0  0  0  0  0  0  0  0  0  0
   68.3644   46.7352   51.5198 C   0  0  0  0  0  0  0  0  0  0  0  0
   67.7005   45.6519   52.2880 C   0  0  0  0  0  0  0  0  0  0  0  0
  7  8  2  0
  8  9  1  0
  8 10  1  0
  9  1  1  0
  1  2  2  0
  1  6  1  0
  2  3  1  0
  3  4  2  0
  4  5  1  0
  5 16  1  0
  5  6  2  0
 16 17  1  0
 17 18  2  0
 17 21  1  0
 18 19  1  0
 19 20  1  0
 20 21  2  0
 20 25  1  0
 21 22  1  0
 22 23  1  0
 23 24  1  0
 24 25  1  0
 10 11  2  0
 10 15  1  0
 11 12  1  0
 12 13  2  0
 13 14  1  0
 14 15  2  0
M  END
>  <minimizedAffinity>  (109) 
-9.20204

$$$$
cs_full_output_folder/data/smiles/7959.pdb
     RDKit          3D

 23 25  0  0  0  0  0  0  0  0999 V2000
   68.9415   47.9594   56.2630 C   0  0  0  0  0  0  0  0  0  0  0  0
   69.4025   48.1810   54.8994 C   0  0  0  0  0  0  0  0  0  0  0  0
   70.3345   49.0864   54.5690 N   0  0  0  0  0  0  0  0  0  0  0  0
   70.7322   49.2609   53.3093 N   0  0  0  0  0  0  0  0  0  0  0  0
   70.2429   48.5553   52.2791 C   0  0  0  0  0  0  0  0  0  0  0  0
   70.6124   48.7137   51.0897 O   0  0  0  0  0  0  0  0  0  0  0  0
   69.2786   47.6058   52.5538 C   0  0  0  0  0  0  0  0  0  0  0  0
   68.7215   46.8331   51.5325 C   0  0  0  0  0  0  0  0  0  0  0  0
   67.7604   45.8913   51.8300 C   0  0  0  0  0  0  0  0  0  0  0  0
   67.3366   45.6974   53.1253 C   0  0  0  0  0  0  0  0  0  0  0  0
   67.9012   46.4713   54.1122 C   0  0  0  0  0  0  0  0  0  0  0  0
   68.8664   47.4268   53.8666 C   0  0  0  0  0  0  0  0  0  0  0  0
   70.6021   47.0846   57.7871 O   0  0  0  0  0  0  0  0  0  0  0  0
   69.6713   46.8832   56.9761 C   0  0  0  0  0  0  0  0  0  0  0  0
   69.2763   45.5418   56.7078 N   0  0  0  0  0  0  0  0  0  0  0  0
   69.8676   44.3860   57.3038 C   0  0  0  0  0  0  0  0  0  0  0  0
   69.1294   43.1408   57.0849 C   0  0  0  0  0  0  0  0  0  0  0  0
   69.4814   42.0076   57.7811 C   0  0  0  0  0  0  0  0  0  0  0  0
   68.8206   40.8102   57.6137 C   0  0  0  0  0  0  0  0  0  0  0  0
   67.7701   40.7240   56.7248 C   0  0  0  0  0  0  0  0  0  0  0  0
   67.4324   41.8742   56.0353 C   0  0  0  0  0  0  0  0  0  0  0  0
   66.0853   41.7479   54.9020 Cl  0  0  0  0  0  0  0  0  0  0  0  0
   68.0840   43.0751   56.1936 C   0  0  0  0  0  0  0  0  0  0  0  0
 13 14  2  0
 14  1  1  0
 14 15  1  0
  1  2  1  0
  2  3  2  0
  2 12  1  0
  3  4  1  0
  4  5  1  0
  5  6  2  0
  5  7  1  0
  7  8  1  0
  7 12  2  0
  8  9  2  0
  9 10  1  0
 10 11  2  0
 11 12  1  0
 15 16  1  0
 16 17  1  0
 17 18  2  0
 17 23  1  0
 18 19  1  0
 19 20  2  0
 20 21  1  0
 21 22  1  0
 21 23  2  0
M  END
>  <minimizedAffinity>  (110) 
-9.20128

$$$$
cs_full_output_folder/data/smiles/2353.pdb
     RDKit          3D

 23 25  0  0  0  0  0  0  0  0999 V2000
   68.3439   45.7156   56.0024 N   0  0  0  0  0  0  0  0  0  0  0  0
   69.1441   47.6935   52.9404 C   0  0  0  0  0  0  0  0  0  0  0  0
   68.5832   46.9070   51.9580 C   0  0  0  0  0  0  0  0  0  0  0  0
   67.9505   45.7454   52.3362 C   0  0  0  0  0  0  0  0  0  0  0  0
   67.8788   45.3737   53.6669 C   0  0  0  0  0  0  0  0  0  0  0  0
   68.4266   46.1371   54.6478 C   0  0  0  0  0  0  0  0  0  0  0  0
   69.0680   47.3151   54.2766 C   0  0  0  0  0  0  0  0  0  0  0  0
   69.9689   49.1723   52.5321 S   0  0  0  0  0  0  0  0  0  0  0  0
   71.4407   48.9772   52.8604 O   0  0  0  0  0  0  0  0  0  0  0  0
   69.8556   49.4714   51.0640 O   0  0  0  0  0  0  0  0  0  0  0  0
   70.3436   50.9672   54.4913 C   0  0  0  0  0  0  0  0  0  0  0  0
   69.3051   50.4855   53.5128 C   0  0  0  0  0  0  0  0  0  0  0  0
   68.5898   44.3539   56.3552 C   0  0  0  0  0  0  0  0  0  0  0  0
   67.5933   43.4696   56.1510 N   0  0  0  0  0  0  0  0  0  0  0  0
   67.7406   42.1796   56.4623 C   0  0  0  0  0  0  0  0  0  0  0  0
   68.9390   41.7478   57.0038 C   0  0  0  0  0  0  0  0  0  0  0  0
   69.9620   42.6437   57.2159 C   0  0  0  0  0  0  0  0  0  0  0  0
   69.7425   43.9120   56.8807 N   0  0  0  0  0  0  0  0  0  0  0  0
   71.2214   42.1613   57.8111 C   0  0  0  0  0  0  0  0  0  0  0  0
   72.3977   42.7374   57.6912 C   0  0  0  0  0  0  0  0  0  0  0  0
   73.3885   41.9434   58.4317 C   0  0  0  0  0  0  0  0  0  0  0  0
   72.6368   40.8261   59.0031 C   0  0  0  0  0  0  0  0  0  0  0  0
   71.3707   40.9548   58.6381 C   0  0  0  0  0  0  0  0  0  0  0  0
 11 12  1  0
 12  8  1  0
  8  9  2  0
  8 10  2  0
  8  2  1  0
  2  3  2  0
  2  7  1  0
  3  4  1  0
  4  5  2  0
  5  6  1  0
  6  1  1  0
  6  7  2  0
  1 13  1  0
 13 14  2  0
 13 18  1  0
 14 15  1  0
 15 16  2  0
 16 17  1  0
 17 19  1  0
 17 18  2  0
 19 20  2  0
 19 23  1  0
 20 21  1  0
 21 22  1  0
 22 23  2  0
M  END
>  <minimizedAffinity>  (111) 
-9.19425

$$$$
cs_full_output_folder/data/smiles/1057.pdb
     RDKit          3D

 24 26  0  0  0  0  0  0  0  0999 V2000
   70.2297   39.7357   58.8763 C   0  0  0  0  0  0  0  0  0  0  0  0
   70.7893   40.9951   58.8211 C   0  0  0  0  0  0  0  0  0  0  0  0
   70.2509   42.0181   58.0644 C   0  0  0  0  0  0  0  0  0  0  0  0
   69.1058   41.8042   57.3228 C   0  0  0  0  0  0  0  0  0  0  0  0
   68.5357   40.5481   57.3701 C   0  0  0  0  0  0  0  0  0  0  0  0
   69.0851   39.5226   58.1349 C   0  0  0  0  0  0  0  0  0  0  0  0
   67.3918   40.6190   56.5262 N   0  0  0  0  0  0  0  0  0  0  0  0
   67.2421   41.9004   55.9542 C   0  0  0  0  0  0  0  0  0  0  0  0
   66.3804   42.3592   55.1731 O   0  0  0  0  0  0  0  0  0  0  0  0
   68.3517   42.7020   56.4577 C   0  0  0  0  0  0  0  0  0  0  0  0
   68.5813   43.9461   56.1717 N   0  0  0  0  0  0  0  0  0  0  0  0
   70.8519   38.6659   59.7098 C   0  0  0  0  0  0  0  0  0  0  0  0
   72.1803   37.3623   58.0450 C   0  0  0  0  0  0  0  0  0  0  0  0
   70.9178   37.4087   58.8682 C   0  0  0  0  0  0  0  0  0  0  0  0
   70.9350   36.1756   59.7792 C   0  0  0  0  0  0  0  0  0  0  0  0
   67.7600   44.6715   55.3210 N   0  0  0  0  0  0  0  0  0  0  0  0
   68.2441   45.7527   54.5333 C   0  0  0  0  0  0  0  0  0  0  0  0
   68.8127   46.8763   55.0912 C   0  0  0  0  0  0  0  0  0  0  0  0
   69.2692   47.9018   54.2960 C   0  0  0  0  0  0  0  0  0  0  0  0
   69.1733   47.8367   52.9408 C   0  0  0  0  0  0  0  0  0  0  0  0
   68.6135   46.7350   52.3390 C   0  0  0  0  0  0  0  0  0  0  0  0
   68.1602   45.7175   53.1394 C   0  0  0  0  0  0  0  0  0  0  0  0
   69.6619   48.9345   52.0925 C   0  0  0  0  0  0  0  0  0  0  0  0
   70.4880   48.6934   51.1729 O   0  0  0  0  0  0  0  0  0  0  0  0
 13 14  1  0
 14 15  1  0
 14 12  1  0
 12  1  1  0
  1  2  2  0
  1  6  1  0
  2  3  1  0
  3  4  2  0
  4  5  1  0
  4 10  1  0
  5  6  2  0
  5  7  1  0
  7  8  1  0
  8  9  2  0
  8 10  1  0
 10 11  2  0
 11 16  1  0
 16 17  1  0
 17 18  2  0
 17 22  1  0
 18 19  1  0
 19 20  2  0
 20 23  1  0
 20 21  1  0
 23 24  2  0
 21 22  2  0
M  END
>  <minimizedAffinity>  (112) 
-9.19359

$$$$
cs_full_output_folder/data/smiles/1161.pdb
     RDKit          3D

 23 24  0  0  0  0  0  0  0  0999 V2000
   68.2176   45.1989   55.2393 C   0  0  0  0  0  0  0  0  0  0  0  0
   68.5090   45.7750   56.3196 O   0  0  0  0  0  0  0  0  0  0  0  0
   67.7966   43.8459   55.3338 N   0  0  0  0  0  0  0  0  0  0  0  0
   69.0820   47.7481   52.5983 C   0  0  0  0  0  0  0  0  0  0  0  0
   68.4422   47.1721   51.5233 C   0  0  0  0  0  0  0  0  0  0  0  0
   67.7399   45.9868   51.6245 C   0  0  0  0  0  0  0  0  0  0  0  0
   67.6885   45.3620   52.8730 C   0  0  0  0  0  0  0  0  0  0  0  0
   68.3151   45.9065   53.9707 C   0  0  0  0  0  0  0  0  0  0  0  0
   68.9973   47.0865   53.8060 C   0  0  0  0  0  0  0  0  0  0  0  0
   69.3142   50.3941   53.6372 C   0  0  0  0  0  0  0  0  0  0  0  0
   69.9644   49.2509   52.4437 S   0  0  0  0  0  0  0  0  0  0  0  0
   71.4022   48.9683   52.7808 O   0  0  0  0  0  0  0  0  0  0  0  0
   69.8525   49.7757   51.0421 O   0  0  0  0  0  0  0  0  0  0  0  0
   67.7253   43.2186   56.6037 N   0  0  0  0  0  0  0  0  0  0  0  0
   67.4350   41.8511   56.7433 C   0  0  0  0  0  0  0  0  0  0  0  0
   67.2456   41.2363   55.6386 O   0  0  0  0  0  0  0  0  0  0  0  0
   67.3308   41.0862   57.9617 C   0  0  0  0  0  0  0  0  0  0  0  0
   66.6042   41.5928   59.0444 C   0  0  0  0  0  0  0  0  0  0  0  0
   66.4718   40.9071   60.2302 C   0  0  0  0  0  0  0  0  0  0  0  0
   67.0534   39.6737   60.4144 C   0  0  0  0  0  0  0  0  0  0  0  0
   67.7697   39.1580   59.3657 C   0  0  0  0  0  0  0  0  0  0  0  0
   67.9011   39.8639   58.1580 C   0  0  0  0  0  0  0  0  0  0  0  0
   68.6253   39.2799   57.1779 F   0  0  0  0  0  0  0  0  0  0  0  0
 10 11  1  0
 11 12  2  0
 11 13  2  0
 11  4  1  0
  4  5  2  0
  4  9  1  0
  5  6  1  0
  6  7  2  0
  7  8  1  0
  8  1  1  0
  8  9  2  0
  1  2  2  0
  1  3  1  0
  3 14  1  0
 14 15  1  0
 15 16  2  0
 15 17  1  0
 17 18  2  0
 17 22  1  0
 18 19  1  0
 19 20  2  0
 20 21  1  0
 21 22  2  0
 22 23  1  0
M  END
>  <minimizedAffinity>  (113) 
-9.18837

$$$$
cs_full_output_folder/data/smiles/658.pdb
     RDKit          3D

 22 24  0  0  0  0  0  0  0  0999 V2000
   69.4769   48.2619   53.9621 C   0  0  0  0  0  0  0  0  0  0  0  0
   69.2149   48.0615   55.3497 C   0  0  0  0  0  0  0  0  0  0  0  0
   68.3284   47.1484   55.8236 C   0  0  0  0  0  0  0  0  0  0  0  0
   68.1252   47.0041   57.0623 O   0  0  0  0  0  0  0  0  0  0  0  0
   67.6754   46.4054   54.9795 O   0  0  0  0  0  0  0  0  0  0  0  0
   67.8452   46.5084   53.6649 C   0  0  0  0  0  0  0  0  0  0  0  0
   67.1541   45.7163   52.8324 N   0  0  0  0  0  0  0  0  0  0  0  0
   67.3163   45.7933   51.4954 C   0  0  0  0  0  0  0  0  0  0  0  0
   66.6487   45.0324   50.7425 O   0  0  0  0  0  0  0  0  0  0  0  0
   68.1929   46.6853   51.0020 N   0  0  0  0  0  0  0  0  0  0  0  0
   68.9025   47.4984   51.8040 C   0  0  0  0  0  0  0  0  0  0  0  0
   69.7031   48.3009   51.3405 O   0  0  0  0  0  0  0  0  0  0  0  0
   68.7563   47.4450   53.1519 C   0  0  0  0  0  0  0  0  0  0  0  0
   70.3520   49.3465   53.5713 C   0  0  0  0  0  0  0  0  0  0  0  0
   70.4100   50.4880   54.5409 C   0  0  0  0  0  0  0  0  0  0  0  0
   69.3405   51.3817   54.8560 C   0  0  0  0  0  0  0  0  0  0  0  0
   69.1882   51.8793   56.2862 C   0  0  1  0  0  0  0  0  0  0  0  0
   67.8229   51.4418   56.8689 C   0  0  0  0  0  0  0  0  0  0  0  0
   69.1653   50.9951   57.4060 C   0  0  0  0  0  0  0  0  0  0  0  0
   69.6921   50.2684   58.3524 N   0  0  0  0  0  0  0  0  0  0  0  0
   70.7788   53.8224   56.2835 C   0  0  0  0  0  0  0  0  0  0  0  0
   69.3303   53.4073   56.4018 C   0  0  0  0  0  0  0  0  0  0  0  0
 21 22  1  0
 17 22  1  1
 17 16  1  0
 17 18  1  0
 17 19  1  0
 16 15  1  0
 15 14  1  0
 14  1  1  0
  1  2  2  0
  1 13  1  0
  2  3  1  0
  3  4  2  0
  3  5  1  0
  5  6  1  0
  6  7  1  0
  6 13  2  0
  7  8  1  0
  8  9  2  0
  8 10  1  0
 10 11  1  0
 11 12  2  0
 11 13  1  0
 18 19  1  0
 19 20  2  0
M  END
>  <minimizedAffinity>  (114) 
-9.18698

$$$$
cs_full_output_folder/data/smiles/1033.pdb
     RDKit          3D

 24 26  0  0  0  0  0  0  0  0999 V2000
   70.4453   39.4465   58.7970 C   0  0  0  0  0  0  0  0  0  0  0  0
   71.0165   40.7029   58.7707 C   0  0  0  0  0  0  0  0  0  0  0  0
   70.4352   41.7508   58.0852 C   0  0  0  0  0  0  0  0  0  0  0  0
   69.2513   41.5871   57.3933 C   0  0  0  0  0  0  0  0  0  0  0  0
   68.6730   40.3349   57.4143 C   0  0  0  0  0  0  0  0  0  0  0  0
   69.2581   39.2865   58.1016 C   0  0  0  0  0  0  0  0  0  0  0  0
   67.4753   40.4082   56.6412 N   0  0  0  0  0  0  0  0  0  0  0  0
   67.2983   41.7170   56.1295 C   0  0  0  0  0  0  0  0  0  0  0  0
   66.3860   42.1966   55.4101 O   0  0  0  0  0  0  0  0  0  0  0  0
   68.4306   42.4919   56.6015 C   0  0  0  0  0  0  0  0  0  0  0  0
   68.6625   43.7377   56.3654 N   0  0  0  0  0  0  0  0  0  0  0  0
   71.7577   37.4453   58.4816 C   0  0  0  0  0  0  0  0  0  0  0  0
   71.0760   38.3193   59.5374 C   0  0  0  0  0  0  0  0  0  0  0  0
   67.8121   44.5289   55.5899 N   0  0  0  0  0  0  0  0  0  0  0  0
   68.3241   45.6972   54.9398 C   0  0  0  0  0  0  0  0  0  0  0  0
   68.2478   45.8492   53.5656 C   0  0  0  0  0  0  0  0  0  0  0  0
   68.7569   47.0036   52.9584 C   0  0  0  0  0  0  0  0  0  0  0  0
   69.3396   48.0034   53.7091 C   0  0  0  0  0  0  0  0  0  0  0  0
   69.3909   47.8047   55.0735 C   0  0  0  0  0  0  0  0  0  0  0  0
   68.9059   46.6952   55.6981 C   0  0  0  0  0  0  0  0  0  0  0  0
   69.9701   49.4378   52.9320 S   0  0  0  0  0  0  0  0  0  0  0  0
   69.9077   49.2724   51.2141 N   0  0  0  0  0  0  0  0  0  0  0  0
   71.3891   49.7154   53.3228 O   0  0  0  0  0  0  0  0  0  0  0  0
   69.0703   50.5831   53.3423 O   0  0  0  0  0  0  0  0  0  0  0  0
 12 13  1  0
 13  1  1  0
  1  2  2  0
  1  6  1  0
  2  3  1  0
  3  4  2  0
  4  5  1  0
  4 10  1  0
  5  6  2  0
  5  7  1  0
  7  8  1  0
  8  9  2  0
  8 10  1  0
 10 11  2  0
 11 14  1  0
 14 15  1  0
 15 16  2  0
 15 20  1  0
 16 17  1  0
 17 18  2  0
 18 21  1  0
 18 19  1  0
 21 22  1  0
 21 23  2  0
 21 24  2  0
 19 20  2  0
M  END
>  <minimizedAffinity>  (115) 
-9.18390

$$$$
cs_full_output_folder/data/smiles/967.pdb
     RDKit          3D

 23 25  0  0  0  0  0  0  0  0999 V2000
   68.5234   44.3922   56.2394 N   0  0  0  0  0  0  0  0  0  0  0  0
   68.6092   43.0092   56.6963 C   0  0  0  0  0  0  0  0  0  0  0  0
   67.9147   42.2339   56.0218 O   0  0  0  0  0  0  0  0  0  0  0  0
   69.4290   42.6718   57.8076 C   0  0  0  0  0  0  0  0  0  0  0  0
   69.1828   43.4079   58.8880 O   0  0  0  0  0  0  0  0  0  0  0  0
   70.4596   41.7245   58.0385 C   0  0  0  0  0  0  0  0  0  0  0  0
   71.8372   42.0246   57.9886 C   0  0  0  0  0  0  0  0  0  0  0  0
   72.5596   40.9441   58.2454 N   0  0  0  0  0  0  0  0  0  0  0  0
   71.7362   39.9307   58.4668 C   0  0  0  0  0  0  0  0  0  0  0  0
   72.0703   38.6247   58.7703 C   0  0  0  0  0  0  0  0  0  0  0  0
   71.0578   37.7109   58.9659 C   0  0  0  0  0  0  0  0  0  0  0  0
   69.7487   38.1355   58.8503 C   0  0  0  0  0  0  0  0  0  0  0  0
   69.4452   39.4500   58.5451 C   0  0  0  0  0  0  0  0  0  0  0  0
   70.4297   40.3869   58.3441 C   0  0  0  0  0  0  0  0  0  0  0  0
   67.7194   44.7213   55.1505 N   0  0  0  0  0  0  0  0  0  0  0  0
   68.9932   47.6475   52.3858 C   0  0  0  0  0  0  0  0  0  0  0  0
   69.2355   47.8167   53.7399 C   0  0  0  0  0  0  0  0  0  0  0  0
   68.8119   46.8500   54.6271 C   0  0  0  0  0  0  0  0  0  0  0  0
   68.1445   45.6973   54.2231 C   0  0  0  0  0  0  0  0  0  0  0  0
   67.9076   45.5395   52.8639 C   0  0  0  0  0  0  0  0  0  0  0  0
   68.3302   46.5060   51.9752 C   0  0  0  0  0  0  0  0  0  0  0  0
   70.5679   48.7965   51.0869 O   0  0  0  0  0  0  0  0  0  0  0  0
   69.3995   48.5990   51.4235 N   0  0  0  0  0  0  0  0  0  0  0  0
 22 23  2  0
 23 16  1  0
 16 17  2  0
 16 21  1  0
 17 18  1  0
 18 19  2  0
 19 15  1  0
 19 20  1  0
 15  1  1  0
  1  2  1  0
  2  3  2  0
  2  4  1  0
  4  5  2  0
  4  6  1  0
  6  7  2  0
  6 14  1  0
  7  8  1  0
  8  9  1  0
  9 10  1  0
  9 14  2  0
 10 11  2  0
 11 12  1  0
 12 13  2  0
 13 14  1  0
 20 21  2  0
M  END
>  <minimizedAffinity>  (116) 
-9.18314

$$$$
cs_full_output_folder/data/smiles/4061.pdb
     RDKit          3D

 23 25  0  0  0  0  0  0  0  0999 V2000
   69.0142   45.5616   56.8161 O   0  0  0  0  0  0  0  0  0  0  0  0
   69.0517   46.7480   56.2713 C   0  0  0  0  0  0  0  0  0  0  0  0
   68.8529   46.7973   54.8420 C   0  0  0  0  0  0  0  0  0  0  0  0
   68.0317   45.8529   54.2108 C   0  0  0  0  0  0  0  0  0  0  0  0
   67.8129   45.8327   52.8520 C   0  0  0  0  0  0  0  0  0  0  0  0
   68.4047   46.7564   52.0358 C   0  0  0  0  0  0  0  0  0  0  0  0
   68.2079   46.7655   50.6602 O   0  0  0  0  0  0  0  0  0  0  0  0
   69.2159   47.7014   52.6093 C   0  0  0  0  0  0  0  0  0  0  0  0
   69.4242   47.7059   53.9876 C   0  0  0  0  0  0  0  0  0  0  0  0
   69.8378   48.6626   51.7669 N   0  0  0  0  0  0  0  0  0  0  0  0
   70.6093   48.2349   50.8888 O   0  0  0  0  0  0  0  0  0  0  0  0
   69.6467   50.0130   51.8520 O   0  0  0  0  0  0  0  0  0  0  0  0
   69.2936   47.7895   57.2385 C   0  0  0  0  0  0  0  0  0  0  0  0
   68.4808   48.9859   57.2776 C   0  0  0  0  0  0  0  0  0  0  0  0
   67.2137   49.0203   57.8364 C   0  0  0  0  0  0  0  0  0  0  0  0
   66.4572   50.1557   57.9341 C   0  0  0  0  0  0  0  0  0  0  0  0
   66.9919   51.3324   57.4448 C   0  0  0  0  0  0  0  0  0  0  0  0
   68.2552   51.3333   56.8782 C   0  0  0  0  0  0  0  0  0  0  0  0
   68.7495   52.5251   56.3904 C   0  0  0  0  0  0  0  0  0  0  0  0
   70.0021   52.5632   55.8070 C   0  0  0  0  0  0  0  0  0  0  0  0
   70.7599   51.4179   55.7102 C   0  0  0  0  0  0  0  0  0  0  0  0
   70.2474   50.2497   56.2028 C   0  0  0  0  0  0  0  0  0  0  0  0
   68.9916   50.1777   56.7952 C   0  0  0  0  0  0  0  0  0  0  0  0
  1  2  2  0
  2 13  1  0
  2  3  1  0
 13 14  1  0
 14 15  2  0
 14 23  1  0
 15 16  1  0
 16 17  2  0
 17 18  1  0
 18 19  1  0
 18 23  2  0
 19 20  2  0
 20 21  1  0
 21 22  2  0
 22 23  1  0
  3  4  2  0
  3  9  1  0
  4  5  1  0
  5  6  2  0
  6  7  1  0
  6  8  1  0
  8 10  1  0
  8  9  2  0
 10 11  2  0
 10 12  1  0
M  CHG  2  10   1  12  -1
M  END
>  <minimizedAffinity>  (117) 
-9.18171

$$$$
cs_full_output_folder/data/smiles/8780.pdb
     RDKit          3D

 25 27  0  0  0  0  0  0  0  0999 V2000
   69.4151   43.9383   57.7953 N   0  0  0  0  0  0  0  0  0  0  0  0
   69.8705   42.8855   57.2744 C   0  0  0  0  0  0  0  0  0  0  0  0
   69.7579   41.5136   57.7046 C   0  0  0  0  0  0  0  0  0  0  0  0
   68.5391   40.8396   57.5823 C   0  0  0  0  0  0  0  0  0  0  0  0
   67.4479   41.4883   57.0367 O   0  0  0  0  0  0  0  0  0  0  0  0
   68.4005   39.5459   57.9939 C   0  0  0  0  0  0  0  0  0  0  0  0
   69.4306   38.8358   58.5428 C   0  0  0  0  0  0  0  0  0  0  0  0
   70.6522   39.5066   58.6663 C   0  0  0  0  0  0  0  0  0  0  0  0
   71.7008   38.8189   59.2151 C   0  0  0  0  0  0  0  0  0  0  0  0
   72.9469   39.3887   59.3844 C   0  0  0  0  0  0  0  0  0  0  0  0
   73.1000   40.6794   58.9797 C   0  0  0  0  0  0  0  0  0  0  0  0
   72.0599   41.4155   58.4161 C   0  0  0  0  0  0  0  0  0  0  0  0
   70.8126   40.8305   58.2517 C   0  0  0  0  0  0  0  0  0  0  0  0
   68.8595   45.7276   56.1402 C   0  0  0  0  0  0  0  0  0  0  0  0
   68.0269   44.9312   55.6730 O   0  0  0  0  0  0  0  0  0  0  0  0
   69.5971   45.1869   57.2762 N   0  0  0  0  0  0  0  0  0  0  0  0
   69.1653   47.0893   55.6924 C   0  0  0  0  0  0  0  0  0  0  0  0
   68.4286   47.7114   54.5961 C   0  0  0  0  0  0  0  0  0  0  0  0
   67.7138   45.6051   52.2867 C   0  0  0  0  0  0  0  0  0  0  0  0
   68.6901   46.7397   52.2498 C   0  0  0  0  0  0  0  0  0  0  0  0
   69.4486   47.0680   51.1740 N   0  0  0  0  0  0  0  0  0  0  0  0
   70.1612   48.1444   51.4272 N   0  0  0  0  0  0  0  0  0  0  0  0
   69.8763   48.5355   52.6800 C   0  0  0  0  0  0  0  0  0  0  0  0
   70.4546   49.6969   53.3740 C   0  0  0  0  0  0  0  0  0  0  0  0
   68.9372   47.6540   53.2338 C   0  0  0  0  0  0  0  0  0  0  0  0
 19 20  1  0
 20 21  2  0
 20 25  1  0
 21 22  1  0
 22 23  1  0
 23 24  1  0
 23 25  2  0
 25 18  1  0
 18 17  1  0
 17 14  1  0
 14 15  2  0
 14 16  1  0
 16  1  1  0
  1  2  2  0
  2  3  1  0
  3  4  2  0
  3 13  1  0
  4  5  1  0
  4  6  1  0
  6  7  2  0
  7  8  1  0
  8  9  1  0
  8 13  2  0
  9 10  2  0
 10 11  1  0
 11 12  2  0
 12 13  1  0
M  END
>  <minimizedAffinity>  (118) 
-9.17491

$$$$
cs_full_output_folder/data/smiles/135.pdb
     RDKit          3D

 24 26  0  0  0  0  0  0  0  0999 V2000
   69.9435   39.5925   58.8514 C   0  0  0  0  0  0  0  0  0  0  0  0
   70.4988   40.8804   58.8511 C   0  0  0  0  0  0  0  0  0  0  0  0
   69.9892   41.8862   58.0827 C   0  0  0  0  0  0  0  0  0  0  0  0
   68.9028   41.6453   57.2826 C   0  0  0  0  0  0  0  0  0  0  0  0
   68.3463   40.3829   57.2731 C   0  0  0  0  0  0  0  0  0  0  0  0
   68.8585   39.3509   58.0528 C   0  0  0  0  0  0  0  0  0  0  0  0
   67.2609   40.4212   56.3765 N   0  0  0  0  0  0  0  0  0  0  0  0
   67.1180   41.7257   55.8005 C   0  0  0  0  0  0  0  0  0  0  0  0
   66.2573   42.1067   54.9664 O   0  0  0  0  0  0  0  0  0  0  0  0
   68.1784   42.5343   56.3800 C   0  0  0  0  0  0  0  0  0  0  0  0
   68.4037   43.7847   56.1234 N   0  0  0  0  0  0  0  0  0  0  0  0
   70.8233   37.3862   59.3129 C   0  0  0  0  0  0  0  0  0  0  0  0
   70.5595   38.6037   59.7012 C   0  0  0  0  0  0  0  0  0  0  0  0
   67.6321   44.5286   55.2334 N   0  0  0  0  0  0  0  0  0  0  0  0
   68.1952   45.7156   54.6709 C   0  0  0  0  0  0  0  0  0  0  0  0
   68.6869   46.7097   55.4759 C   0  0  0  0  0  0  0  0  0  0  0  0
   69.2287   47.8486   54.9448 C   0  0  0  0  0  0  0  0  0  0  0  0
   69.2780   47.9952   53.5834 C   0  0  0  0  0  0  0  0  0  0  0  0
   68.7787   46.9853   52.7642 C   0  0  0  0  0  0  0  0  0  0  0  0
   68.2358   45.8431   53.2942 C   0  0  0  0  0  0  0  0  0  0  0  0
   69.9755   49.4616   52.9119 S   0  0  0  0  0  0  0  0  0  0  0  0
   69.8437   49.3746   51.1787 N   0  0  0  0  0  0  0  0  0  0  0  0
   71.4370   49.5243   53.2557 O   0  0  0  0  0  0  0  0  0  0  0  0
   69.2231   50.6571   53.3774 O   0  0  0  0  0  0  0  0  0  0  0  0
 12 13  2  0
 13  1  1  0
  1  2  2  0
  1  6  1  0
  2  3  1  0
  3  4  2  0
  4  5  1  0
  4 10  1  0
  5  6  2  0
  5  7  1  0
  7  8  1  0
  8  9  2  0
  8 10  1  0
 10 11  2  0
 11 14  1  0
 14 15  1  0
 15 16  2  0
 15 20  1  0
 16 17  1  0
 17 18  2  0
 18 21  1  0
 18 19  1  0
 21 22  1  0
 21 23  2  0
 21 24  2  0
 19 20  2  0
M  END
>  <minimizedAffinity>  (119) 
-9.17234

$$$$
cs_full_output_folder/data/smiles/1572.pdb
     RDKit          3D

 26 29  0  0  0  0  0  0  0  0999 V2000
   71.4983   47.2386   58.7841 C   0  0  0  0  0  0  0  0  0  0  0  0
   71.4078   45.8586   58.6802 C   0  0  0  0  0  0  0  0  0  0  0  0
   70.5418   45.2068   57.8286 C   0  0  0  0  0  0  0  0  0  0  0  0
   69.7195   45.9802   57.0308 C   0  0  0  0  0  0  0  0  0  0  0  0
   69.7672   47.3551   57.0901 C   0  0  0  0  0  0  0  0  0  0  0  0
   70.6424   47.9652   57.9523 C   0  0  0  0  0  0  0  0  0  0  0  0
   72.0239   47.8244   60.9561 O   0  0  0  0  0  0  0  0  0  0  0  0
   72.3950   47.8399   59.7281 C   0  0  0  0  0  0  0  0  0  0  0  0
   73.6265   48.4465   59.4747 N   0  0  0  0  0  0  0  0  0  0  0  0
   74.1979   48.5405   58.1505 C   0  0  0  0  0  0  0  0  0  0  0  0
   74.2238   50.0290   57.8161 C   0  0  0  0  0  0  0  0  0  0  0  0
   73.8633   50.8425   58.9506 N   0  0  0  0  0  0  0  0  0  0  0  0
   74.6145   50.5041   60.1395 C   0  0  0  0  0  0  0  0  0  0  0  0
   74.4245   49.0515   60.5406 C   0  0  0  0  0  0  0  0  0  0  0  0
   68.8549   48.1506   56.2729 C   0  0  0  0  0  0  0  0  0  0  0  0
   69.2790   48.2587   54.8543 C   0  0  0  0  0  0  0  0  0  0  0  0
   70.1881   49.2038   54.4891 N   0  0  0  0  0  0  0  0  0  0  0  0
   70.6191   49.4036   53.2807 N   0  0  0  0  0  0  0  0  0  0  0  0
   70.1718   48.6526   52.2620 C   0  0  0  0  0  0  0  0  0  0  0  0
   70.5694   48.8240   51.0871 O   0  0  0  0  0  0  0  0  0  0  0  0
   69.2448   47.6667   52.5484 C   0  0  0  0  0  0  0  0  0  0  0  0
   68.7409   46.8558   51.5479 C   0  0  0  0  0  0  0  0  0  0  0  0
   67.8158   45.8681   51.8060 C   0  0  0  0  0  0  0  0  0  0  0  0
   67.3970   45.7042   53.1070 C   0  0  0  0  0  0  0  0  0  0  0  0
   67.8632   46.4807   54.1465 C   0  0  0  0  0  0  0  0  0  0  0  0
   68.7888   47.4610   53.8503 C   0  0  0  0  0  0  0  0  0  0  0  0
  7  8  2  0
  8  1  1  0
  8  9  1  0
  1  2  2  0
  1  6  1  0
  2  3  1  0
  3  4  2  0
  4  5  1  0
  5 15  1  0
  5  6  2  0
 15 16  1  0
 16 17  2  0
 16 26  1  0
 17 18  1  0
 18 19  1  0
 19 20  2  0
 19 21  1  0
 21 22  1  0
 21 26  2  0
 22 23  2  0
 23 24  1  0
 24 25  2  0
 25 26  1  0
  9 10  1  0
  9 14  1  0
 10 11  1  0
 11 12  1  0
 12 13  1  0
 13 14  1  0
M  CHG  1  12   1
M  END
>  <minimizedAffinity>  (120) 
-9.17196

$$$$
cs_full_output_folder/data/smiles/33.pdb
     RDKit          3D

 24 26  0  0  0  0  0  0  0  0999 V2000
   67.0871   42.2456   55.5372 O   0  0  0  0  0  0  0  0  0  0  0  0
   67.9027   42.7706   56.2911 C   0  0  0  0  0  0  0  0  0  0  0  0
   68.1676   44.1578   55.8896 N   0  0  0  0  0  0  0  0  0  0  0  0
   68.5693   42.2183   57.4291 C   0  0  0  0  0  0  0  0  0  0  0  0
   68.9336   43.1252   58.3034 O   0  0  0  0  0  0  0  0  0  0  0  0
   68.9127   40.8684   57.7821 C   0  0  0  0  0  0  0  0  0  0  0  0
   67.9588   39.8039   57.8251 C   0  0  0  0  0  0  0  0  0  0  0  0
   68.5558   38.6956   58.2410 N   0  0  0  0  0  0  0  0  0  0  0  0
   69.8542   38.9041   58.4909 C   0  0  0  0  0  0  0  0  0  0  0  0
   70.8223   38.0258   58.9241 C   0  0  0  0  0  0  0  0  0  0  0  0
   72.1029   38.5345   59.0788 C   0  0  0  0  0  0  0  0  0  0  0  0
   72.3741   39.8533   58.8088 C   0  0  0  0  0  0  0  0  0  0  0  0
   71.3540   40.6937   58.3744 C   0  0  0  0  0  0  0  0  0  0  0  0
   70.0631   40.2488   58.2033 C   0  0  0  0  0  0  0  0  0  0  0  0
   67.5543   44.7394   54.7978 N   0  0  0  0  0  0  0  0  0  0  0  0
   68.1690   45.8509   54.1789 C   0  0  0  0  0  0  0  0  0  0  0  0
   68.2733   45.9220   52.7907 C   0  0  0  0  0  0  0  0  0  0  0  0
   68.8684   47.0105   52.1919 C   0  0  0  0  0  0  0  0  0  0  0  0
   69.3826   48.0656   52.9157 C   0  0  0  0  0  0  0  0  0  0  0  0
   69.2805   47.9976   54.2813 C   0  0  0  0  0  0  0  0  0  0  0  0
   68.6913   46.9211   54.8997 C   0  0  0  0  0  0  0  0  0  0  0  0
   69.9948   49.1822   52.2554 N   0  0  0  0  0  0  0  0  0  0  0  0
   70.0729   49.2139   51.0133 O   0  0  0  0  0  0  0  0  0  0  0  0
   70.5023   50.2270   52.9731 O   0  0  0  0  0  0  0  0  0  0  0  0
  1  2  2  0
  2  3  1  0
  2  4  1  0
  3 15  1  0
 15 16  1  0
 16 17  2  0
 16 21  1  0
 17 18  1  0
 18 19  2  0
 19 22  1  0
 19 20  1  0
 22 23  2  0
 22 24  1  0
 20 21  2  0
  4  5  2  0
  4  6  1  0
  6  7  2  0
  6 14  1  0
  7  8  1  0
  8  9  1  0
  9 10  1  0
  9 14  2  0
 10 11  2  0
 11 12  1  0
 12 13  2  0
 13 14  1  0
M  CHG  2  22   1  24  -1
M  END
>  <minimizedAffinity>  (121) 
-9.16837

$$$$
cs_full_output_folder/data/smiles/6034.pdb
     RDKit          3D

 25 27  0  0  0  0  0  0  0  0999 V2000
   69.1099   43.8979   56.9867 N   0  0  0  0  0  0  0  0  0  0  0  0
   68.5232   42.6037   56.9610 C   0  0  0  0  0  0  0  0  0  0  0  0
   67.4907   42.4702   56.2499 O   0  0  0  0  0  0  0  0  0  0  0  0
   69.0943   41.4491   57.7376 C   0  0  1  0  0  0  0  0  0  0  0  0
   68.8271   41.6819   59.1871 C   0  0  0  0  0  0  0  0  0  0  0  0
   67.5841   40.8992   59.5651 C   0  0  0  0  0  0  0  0  0  0  0  0
   67.8588   39.4140   59.5873 C   0  0  2  0  0  0  0  0  0  0  0  0
   68.5216   39.0523   58.2798 C   0  0  0  0  0  0  0  0  0  0  0  0
   68.3742   40.1966   57.3101 C   0  0  0  0  0  0  0  0  0  0  0  0
   66.6670   38.6081   59.8644 C   0  0  0  0  0  0  0  0  0  0  0  0
   66.6264   37.2311   59.7678 C   0  0  0  0  0  0  0  0  0  0  0  0
   65.4779   36.5217   60.0413 C   0  0  0  0  0  0  0  0  0  0  0  0
   64.3122   37.1496   60.4262 C   0  0  0  0  0  0  0  0  0  0  0  0
   64.3535   38.5255   60.5225 C   0  0  0  0  0  0  0  0  0  0  0  0
   65.4995   39.2375   60.2495 C   0  0  0  0  0  0  0  0  0  0  0  0
   70.0483   46.4251   57.1489 O   0  0  0  0  0  0  0  0  0  0  0  0
   69.0733   46.2550   56.3691 C   0  0  0  0  0  0  0  0  0  0  0  0
   68.5447   44.9451   56.2495 N   0  0  0  0  0  0  0  0  0  0  0  0
   68.5417   47.4256   55.6295 C   0  0  0  0  0  0  0  0  0  0  0  0
   68.6193   47.2601   54.1753 C   0  0  0  0  0  0  0  0  0  0  0  0
   69.4301   47.9974   53.3367 C   0  0  0  0  0  0  0  0  0  0  0  0
   69.4378   47.7734   51.9763 C   0  0  0  0  0  0  0  0  0  0  0  0
   68.6212   46.7931   51.4271 C   0  0  0  0  0  0  0  0  0  0  0  0
   67.8144   46.0573   52.2429 C   0  0  0  0  0  0  0  0  0  0  0  0
   67.8150   46.2881   53.5881 C   0  0  0  0  0  0  0  0  0  0  0  0
 16 17  2  0
 17 19  1  0
 17 18  1  0
 19 20  1  0
 20 21  2  0
 20 25  1  0
 21 22  1  0
 22 23  2  0
 23 24  1  0
 24 25  2  0
 18  1  1  0
  1  2  1  0
  2  3  2  0
  4  2  1  6
  4  5  1  0
  4  9  1  0
  5  6  1  0
  6  7  1  0
  7 10  1  6
  7  8  1  0
 10 11  2  0
 10 15  1  0
 11 12  1  0
 12 13  2  0
 13 14  1  0
 14 15  2  0
  8  9  1  0
M  END
>  <minimizedAffinity>  (122) 
-9.15977

$$$$
cs_full_output_folder/data/smiles/242.pdb
     RDKit          3D

 23 25  0  0  0  0  0  0  0  0999 V2000
   69.1623   45.2951   56.8826 C   0  0  0  0  0  0  0  0  0  0  0  0
   70.2861   45.9667   57.3779 C   0  0  0  0  0  0  0  0  0  0  0  0
   71.2294   45.2215   58.0400 C   0  0  0  0  0  0  0  0  0  0  0  0
   71.0514   43.8543   58.1980 C   0  0  0  0  0  0  0  0  0  0  0  0
   69.9417   43.2013   57.7070 C   0  0  0  0  0  0  0  0  0  0  0  0
   69.0510   43.9811   57.0672 N   0  0  0  0  0  0  0  0  0  0  0  0
   69.7167   41.7675   57.8478 C   0  0  0  0  0  0  0  0  0  0  0  0
   68.5096   41.2183   57.4703 C   0  0  0  0  0  0  0  0  0  0  0  0
   68.2464   39.8610   57.5862 C   0  0  0  0  0  0  0  0  0  0  0  0
   69.2102   39.0134   58.0922 C   0  0  0  0  0  0  0  0  0  0  0  0
   70.4179   39.5345   58.4743 C   0  0  0  0  0  0  0  0  0  0  0  0
   70.6605   40.9021   58.3498 C   0  0  0  0  0  0  0  0  0  0  0  0
   68.2097   46.0578   56.1892 N   0  0  0  0  0  0  0  0  0  0  0  0
   69.2321   47.7833   53.0096 C   0  0  0  0  0  0  0  0  0  0  0  0
   68.6683   46.9163   52.1040 C   0  0  0  0  0  0  0  0  0  0  0  0
   67.9632   45.7959   52.5058 C   0  0  0  0  0  0  0  0  0  0  0  0
   67.8450   45.5769   53.8507 C   0  0  0  0  0  0  0  0  0  0  0  0
   68.3921   46.4152   54.8341 C   0  0  0  0  0  0  0  0  0  0  0  0
   69.0794   47.5088   54.3690 C   0  0  0  0  0  0  0  0  0  0  0  0
   69.4005   50.6311   53.1291 N   0  0  0  0  0  0  0  0  0  0  0  0
   70.1183   49.1913   52.4824 S   0  0  0  0  0  0  0  0  0  0  0  0
   70.0707   49.2975   50.9808 O   0  0  0  0  0  0  0  0  0  0  0  0
   71.5679   49.1226   52.8982 O   0  0  0  0  0  0  0  0  0  0  0  0
 20 21  1  0
 21 22  2  0
 21 23  2  0
 21 14  1  0
 14 15  2  0
 14 19  1  0
 15 16  1  0
 16 17  2  0
 17 18  1  0
 18 13  1  0
 18 19  2  0
 13  1  1  0
  1  2  2  0
  1  6  1  0
  2  3  1  0
  3  4  2  0
  4  5  1  0
  5  7  1  0
  5  6  2  0
  7  8  2  0
  7 12  1  0
  8  9  1  0
  9 10  2  0
 10 11  1  0
 11 12  2  0
M  END
>  <minimizedAffinity>  (123) 
-9.15958

$$$$
cs_full_output_folder/data/smiles/556.pdb
     RDKit          3D

 22 24  0  0  0  0  0  0  0  0999 V2000
   69.0542   45.0954   56.6522 C   0  0  0  0  0  0  0  0  0  0  0  0
   70.1439   45.7294   57.1994 N   0  0  0  0  0  0  0  0  0  0  0  0
   71.0695   45.1014   57.9231 C   0  0  0  0  0  0  0  0  0  0  0  0
   70.9610   43.7268   58.1620 C   0  0  0  0  0  0  0  0  0  0  0  0
   69.8785   43.0900   57.6200 C   0  0  0  0  0  0  0  0  0  0  0  0
   68.9880   43.7924   56.9007 N   0  0  0  0  0  0  0  0  0  0  0  0
   69.6762   41.6587   57.8290 C   0  0  0  0  0  0  0  0  0  0  0  0
   70.7214   40.8941   58.3709 C   0  0  0  0  0  0  0  0  0  0  0  0
   70.5365   39.5462   58.5754 C   0  0  0  0  0  0  0  0  0  0  0  0
   69.3674   38.8837   58.2763 C   0  0  0  0  0  0  0  0  0  0  0  0
   68.3526   39.6452   57.7459 C   0  0  0  0  0  0  0  0  0  0  0  0
   68.5194   41.0131   57.5314 C   0  0  0  0  0  0  0  0  0  0  0  0
   68.1505   45.8896   55.9299 N   0  0  0  0  0  0  0  0  0  0  0  0
   69.1738   47.7589   52.8425 C   0  0  0  0  0  0  0  0  0  0  0  0
   68.6327   46.9682   51.8692 C   0  0  0  0  0  0  0  0  0  0  0  0
   67.9493   45.8367   52.2399 C   0  0  0  0  0  0  0  0  0  0  0  0
   67.8023   45.4883   53.5619 C   0  0  0  0  0  0  0  0  0  0  0  0
   68.3428   46.2741   54.5946 C   0  0  0  0  0  0  0  0  0  0  0  0
   69.0146   47.3919   54.1653 C   0  0  0  0  0  0  0  0  0  0  0  0
   71.4609   49.1780   52.9263 O   0  0  0  0  0  0  0  0  0  0  0  0
   70.0671   49.2327   52.4345 S   0  0  0  0  0  0  0  0  0  0  0  0
   69.9779   49.4441   50.9485 O   0  0  0  0  0  0  0  0  0  0  0  0
 20 21  2  0
 21 22  2  0
 21 14  1  0
 14 15  2  0
 14 19  1  0
 15 16  1  0
 16 17  2  0
 17 18  1  0
 18 13  1  0
 18 19  2  0
 13  1  1  0
  1  2  2  0
  1  6  1  0
  2  3  1  0
  3  4  2  0
  4  5  1  0
  5  7  1  0
  5  6  2  0
  7  8  2  0
  7 12  1  0
  8  9  1  0
  9 10  2  0
 10 11  1  0
 11 12  2  0
M  END
>  <minimizedAffinity>  (124) 
-9.15727

$$$$
cs_full_output_folder/data/smiles/9001.pdb
     RDKit          3D

 23 26  0  0  0  0  0  0  0  0999 V2000
   68.8452   48.1267   56.2390 C   0  0  0  0  0  0  0  0  0  0  0  0
   71.0393   43.6582   58.5667 O   0  0  0  0  0  0  0  0  0  0  0  0
   70.5533   44.7223   58.0565 C   0  0  0  0  0  0  0  0  0  0  0  0
   69.5145   44.6644   57.2097 N   0  0  0  0  0  0  0  0  0  0  0  0
   68.9958   45.7284   56.6715 N   0  0  0  0  0  0  0  0  0  0  0  0
   69.4975   46.9798   56.9505 C   0  0  0  0  0  0  0  0  0  0  0  0
   70.5522   47.0766   57.8083 C   0  0  0  0  0  0  0  0  0  0  0  0
   71.1187   45.9387   58.3924 C   0  0  0  0  0  0  0  0  0  0  0  0
   72.2728   45.9284   59.3038 C   0  0  0  0  0  0  0  0  0  0  0  0
   72.9309   47.2869   59.3289 C   0  0  0  0  0  0  0  0  0  0  0  0
   71.8250   48.2983   59.5211 C   0  0  0  0  0  0  0  0  0  0  0  0
   71.1052   48.3913   58.1859 C   0  0  0  0  0  0  0  0  0  0  0  0
   69.3387   48.1394   54.8429 C   0  0  0  0  0  0  0  0  0  0  0  0
   70.3296   49.0495   54.5510 N   0  0  0  0  0  0  0  0  0  0  0  0
   70.7580   49.2525   53.3307 N   0  0  0  0  0  0  0  0  0  0  0  0
   70.2511   48.5782   52.2838 C   0  0  0  0  0  0  0  0  0  0  0  0
   70.6469   48.7604   51.0979 O   0  0  0  0  0  0  0  0  0  0  0  0
   69.2576   47.6432   52.4754 C   0  0  0  0  0  0  0  0  0  0  0  0
   68.7420   46.8943   51.4434 C   0  0  0  0  0  0  0  0  0  0  0  0
   67.7712   45.9113   51.6625 C   0  0  0  0  0  0  0  0  0  0  0  0
   67.3304   45.6960   52.9462 C   0  0  0  0  0  0  0  0  0  0  0  0
   67.8627   46.4643   53.9706 C   0  0  0  0  0  0  0  0  0  0  0  0
   68.8204   47.4449   53.7785 C   0  0  0  0  0  0  0  0  0  0  0  0
  2  3  2  0
  3  4  1  0
  3  8  1  0
  4  5  1  0
  5  6  2  0
  6  1  1  0
  6  7  1  0
  1 13  1  0
 13 14  2  0
 13 23  1  0
 14 15  1  0
 15 16  1  0
 16 17  2  0
 16 18  1  0
 18 19  1  0
 18 23  2  0
 19 20  2  0
 20 21  1  0
 21 22  2  0
 22 23  1  0
  7  8  2  0
  7 12  1  0
  8  9  1  0
  9 10  1  0
 10 11  1  0
 11 12  1  0
M  END
>  <minimizedAffinity>  (125) 
-9.15698

$$$$
cs_full_output_folder/data/smiles/3697.pdb
     RDKit          3D

 25 28  0  0  0  0  0  0  0  0999 V2000
   71.2857   47.2490   58.4078 C   0  0  0  0  0  0  0  0  0  0  0  0
   71.0088   45.9000   58.3569 C   0  0  0  0  0  0  0  0  0  0  0  0
   70.0914   45.3953   57.4507 C   0  0  0  0  0  0  0  0  0  0  0  0
   69.4970   46.3073   56.6322 C   0  0  0  0  0  0  0  0  0  0  0  0
   69.7208   47.6477   56.6269 N   0  0  0  0  0  0  0  0  0  0  0  0
   70.6077   48.0963   57.5119 C   0  0  0  0  0  0  0  0  0  0  0  0
   70.8967   49.3119   57.6104 O   0  0  0  0  0  0  0  0  0  0  0  0
   69.8340   43.9614   57.4426 C   0  0  0  0  0  0  0  0  0  0  0  0
   70.6654   43.1615   57.9413 O   0  0  0  0  0  0  0  0  0  0  0  0
   68.6657   43.3745   56.8913 N   0  0  0  0  0  0  0  0  0  0  0  0
   68.4524   41.9278   56.9083 C   0  0  0  0  0  0  0  0  0  0  0  0
   67.2425   41.3917   57.5694 C   0  0  0  0  0  0  0  0  0  0  0  0
   67.2528   41.4792   56.0592 C   0  0  0  0  0  0  0  0  0  0  0  0
   71.8876   48.2368   60.4508 O   0  0  0  0  0  0  0  0  0  0  0  0
   72.2479   47.7918   59.3547 C   0  0  0  0  0  0  0  0  0  0  0  0
   69.0128   48.4808   55.6619 C   0  0  0  0  0  0  0  0  0  0  0  0
   68.7875   47.7119   54.4366 C   0  0  0  0  0  0  0  0  0  0  0  0
   67.9359   46.6136   54.5010 C   0  0  0  0  0  0  0  0  0  0  0  0
   67.7215   45.7755   53.4280 C   0  0  0  0  0  0  0  0  0  0  0  0
   68.3767   46.0371   52.2480 C   0  0  0  0  0  0  0  0  0  0  0  0
   69.2295   47.1190   52.1393 C   0  0  0  0  0  0  0  0  0  0  0  0
   69.9403   47.5831   51.0986 N   0  0  0  0  0  0  0  0  0  0  0  0
   70.5605   48.6576   51.5059 N   0  0  0  0  0  0  0  0  0  0  0  0
   70.2709   48.9144   52.8028 C   0  0  0  0  0  0  0  0  0  0  0  0
   69.4195   47.9466   53.2541 C   0  0  0  0  0  0  0  0  0  0  0  0
 14 15  2  0
 15  1  1  0
  1  2  2  0
  1  6  1  0
  2  3  1  0
  3  8  1  0
  3  4  2  0
  8  9  2  0
  8 10  1  0
 10 11  1  0
 11 12  1  0
 11 13  1  0
 12 13  1  0
  4  5  1  0
  5 16  1  0
  5  6  1  0
 16 17  1  0
 17 18  2  0
 17 25  1  0
 18 19  1  0
 19 20  2  0
 20 21  1  0
 21 22  1  0
 21 25  2  0
 22 23  1  0
 23 24  2  0
 24 25  1  0
  6  7  2  0
M  END
>  <minimizedAffinity>  (126) 
-9.15682

$$$$
cs_full_output_folder/data/smiles/1863.pdb
     RDKit          3D

 24 26  0  0  0  0  0  0  0  0999 V2000
   68.6083   46.5824   55.3481 C   0  0  0  0  0  0  0  0  0  0  0  0
   68.9699   47.7765   54.7478 C   0  0  0  0  0  0  0  0  0  0  0  0
   68.9366   48.0343   53.4144 C   0  0  0  0  0  0  0  0  0  0  0  0
   68.4906   46.9775   52.5980 C   0  0  0  0  0  0  0  0  0  0  0  0
   68.1195   45.7689   53.1457 C   0  0  0  0  0  0  0  0  0  0  0  0
   68.1721   45.5583   54.5063 C   0  0  0  0  0  0  0  0  0  0  0  0
   67.8055   44.3667   55.0421 F   0  0  0  0  0  0  0  0  0  0  0  0
   68.6830   46.3868   56.7536 N   0  0  0  0  0  0  0  0  0  0  0  0
   69.7989   46.9342   57.4803 C   0  0  0  0  0  0  0  0  0  0  0  0
   71.7292   45.6578   58.1042 O   0  0  0  0  0  0  0  0  0  0  0  0
   70.4988   45.8747   58.2500 C   0  0  0  0  0  0  0  0  0  0  0  0
   69.8246   45.0781   59.1646 O   0  0  0  0  0  0  0  0  0  0  0  0
   69.3202   49.2686   52.7221 C   0  0  0  0  0  0  0  0  0  0  0  0
   70.3310   50.0276   53.4837 C   0  0  0  0  0  0  0  0  0  0  0  0
   71.6480   49.6146   53.4604 N   0  0  0  0  0  0  0  0  0  0  0  0
   72.5626   50.2494   54.1739 N   0  0  0  0  0  0  0  0  0  0  0  0
   72.2412   51.3275   54.9534 C   0  0  0  0  0  0  0  0  0  0  0  0
   73.1596   51.8703   55.5968 O   0  0  0  0  0  0  0  0  0  0  0  0
   70.9455   51.7755   55.0093 C   0  0  0  0  0  0  0  0  0  0  0  0
   69.9839   51.0916   54.2431 C   0  0  0  0  0  0  0  0  0  0  0  0
   68.6320   51.6348   54.2999 C   0  0  0  0  0  0  0  0  0  0  0  0
   68.2464   51.7763   55.7585 C   0  0  0  0  0  0  0  0  0  0  0  0
   69.2857   52.4128   56.6135 C   0  0  0  0  0  0  0  0  0  0  0  0
   70.5020   52.9227   55.8317 C   0  0  0  0  0  0  0  0  0  0  0  0
 10 11  2  0
 11 12  1  0
 11  9  1  0
  9  8  1  0
  8  1  1  0
  1  2  2  0
  1  6  1  0
  2  3  1  0
  3 13  1  0
  3  4  2  0
 13 14  1  0
 14 15  2  0
 14 20  1  0
 15 16  1  0
 16 17  1  0
 17 18  2  0
 17 19  1  0
 19 20  2  0
 19 24  1  0
 20 21  1  0
 21 22  1  0
 22 23  1  0
 23 24  1  0
  4  5  1  0
  5  6  2  0
  6  7  1  0
M  END
>  <minimizedAffinity>  (127) 
-9.15432

$$$$
cs_full_output_folder/data/smiles/1397.pdb
     RDKit          3D

 26 28  0  0  0  0  0  0  0  0999 V2000
   71.4498   41.7754   58.5125 N   0  0  0  0  0  0  0  0  0  0  0  0
   72.4568   42.6063   58.8010 N   0  0  0  0  0  0  0  0  0  0  0  0
   72.0767   43.8685   58.5810 C   0  0  0  0  0  0  0  0  0  0  0  0
   70.7615   43.8708   58.1298 C   0  0  0  0  0  0  0  0  0  0  0  0
   70.4083   42.5538   58.1008 C   0  0  0  0  0  0  0  0  0  0  0  0
   69.1083   41.9935   57.7120 C   0  0  0  0  0  0  0  0  0  0  0  0
   71.7441   36.0757   58.7039 C   0  0  0  0  0  0  0  0  0  0  0  0
   71.6548   37.5652   58.6763 C   0  0  0  0  0  0  0  0  0  0  0  0
   70.4640   38.2099   58.4349 C   0  0  0  0  0  0  0  0  0  0  0  0
   70.3544   39.5701   58.3855 C   0  0  0  0  0  0  0  0  0  0  0  0
   71.4632   40.3585   58.5812 C   0  0  0  0  0  0  0  0  0  0  0  0
   72.6815   39.7279   58.8280 C   0  0  0  0  0  0  0  0  0  0  0  0
   72.7849   38.3484   58.8769 C   0  0  0  0  0  0  0  0  0  0  0  0
   70.0204   45.0573   57.7526 C   0  0  0  0  0  0  0  0  0  0  0  0
   69.8282   45.9389   58.6733 O   0  0  0  0  0  0  0  0  0  0  0  0
   69.4795   45.3956   56.5136 N   0  0  0  0  0  0  0  0  0  0  0  0
   68.7611   46.6483   56.2222 C   0  0  0  0  0  0  0  0  0  0  0  0
   68.7192   46.6931   54.7215 C   0  0  0  0  0  0  0  0  0  0  0  0
   67.9985   45.7860   53.9778 C   0  0  0  0  0  0  0  0  0  0  0  0
   67.9165   45.8970   52.5840 C   0  0  0  0  0  0  0  0  0  0  0  0
   68.5538   46.9086   51.9315 C   0  0  0  0  0  0  0  0  0  0  0  0
   69.2873   47.8345   52.6715 C   0  0  0  0  0  0  0  0  0  0  0  0
   69.3619   47.7134   54.0606 C   0  0  0  0  0  0  0  0  0  0  0  0
   69.9656   48.9226   51.9838 C   0  0  0  0  0  0  0  0  0  0  0  0
   70.5693   48.7406   50.8876 O   0  0  0  0  0  0  0  0  0  0  0  0
   69.9948   50.2164   52.4718 O   0  0  0  0  0  0  0  0  0  0  0  0
  7  8  1  0
  8  9  2  0
  8 13  1  0
  9 10  1  0
 10 11  2  0
 11  1  1  0
 11 12  1  0
  1  2  1  0
  1  5  1  0
  2  3  2  0
  3  4  1  0
  4 14  1  0
  4  5  2  0
 14 15  2  0
 14 16  1  0
 16 17  1  0
 17 18  1  0
 18 19  2  0
 18 23  1  0
 19 20  1  0
 20 21  2  0
 21 22  1  0
 22 24  1  0
 22 23  2  0
 24 25  2  0
 24 26  1  0
  5  6  1  0
 12 13  2  0
M  END
>  <minimizedAffinity>  (128) 
-9.14511

$$$$
cs_full_output_folder/data/smiles/44.pdb
     RDKit          3D

 24 26  0  0  0  0  0  0  0  0999 V2000
   68.8537   43.4335   56.6178 C   0  0  0  0  0  0  0  0  0  0  0  0
   69.9891   43.9749   57.0872 N   0  0  0  0  0  0  0  0  0  0  0  0
   70.9353   43.2297   57.6986 C   0  0  0  0  0  0  0  0  0  0  0  0
   72.1003   43.8008   58.1768 C   0  0  0  0  0  0  0  0  0  0  0  0
   73.0728   43.0363   58.8061 C   0  0  0  0  0  0  0  0  0  0  0  0
   72.9209   41.6758   58.9828 C   0  0  0  0  0  0  0  0  0  0  0  0
   71.7576   41.1150   58.5027 C   0  0  0  0  0  0  0  0  0  0  0  0
   70.7787   41.8721   57.8720 C   0  0  0  0  0  0  0  0  0  0  0  0
   69.6439   41.3207   57.4065 N   0  0  0  0  0  0  0  0  0  0  0  0
   68.6942   42.0635   56.7923 C   0  0  0  0  0  0  0  0  0  0  0  0
   67.4841   41.4602   56.2985 C   0  0  0  0  0  0  0  0  0  0  0  0
   67.5731   40.4833   55.5127 O   0  0  0  0  0  0  0  0  0  0  0  0
   66.2331   41.9025   56.6430 O   0  0  0  0  0  0  0  0  0  0  0  0
   67.8514   44.1550   55.9823 O   0  0  0  0  0  0  0  0  0  0  0  0
   68.8096   47.5944   53.8047 C   0  0  0  0  0  0  0  0  0  0  0  0
   69.0348   47.5386   55.1558 C   0  0  0  0  0  0  0  0  0  0  0  0
   68.7160   46.3994   55.8681 C   0  0  0  0  0  0  0  0  0  0  0  0
   68.1679   45.2879   55.2742 C   0  0  0  0  0  0  0  0  0  0  0  0
   67.9462   45.3536   53.9224 C   0  0  0  0  0  0  0  0  0  0  0  0
   68.2622   46.4965   53.1860 C   0  0  0  0  0  0  0  0  0  0  0  0
   69.1340   48.7957   52.9894 C   0  0  0  0  0  0  0  0  0  0  0  0
   71.5062   48.9518   52.6585 O   0  0  0  0  0  0  0  0  0  0  0  0
   70.3976   48.5542   52.2324 C   0  0  0  0  0  0  0  0  0  0  0  0
   70.3461   47.8735   51.0234 O   0  0  0  0  0  0  0  0  0  0  0  0
 22 23  2  0
 23 24  1  0
 23 21  1  0
 21 15  1  0
 15 16  2  0
 15 20  1  0
 16 17  1  0
 17 18  2  0
 18 14  1  0
 18 19  1  0
 14  1  1  0
  1  2  2  0
  1 10  1  0
  2  3  1  0
  3  4  2  0
  3  8  1  0
  4  5  1  0
  5  6  2  0
  6  7  1  0
  7  8  2  0
  8  9  1  0
  9 10  2  0
 10 11  1  0
 11 12  2  0
 11 13  1  0
 19 20  2  0
M  END
>  <minimizedAffinity>  (129) 
-9.14380

$$$$
cs_full_output_folder/data/smiles/418.pdb
     RDKit          3D

 25 27  0  0  0  0  0  0  0  0999 V2000
   73.1927   51.3011   53.8546 O   0  0  0  0  0  0  0  0  0  0  0  0
   72.6150   50.6629   54.7993 C   0  0  0  0  0  0  0  0  0  0  0  0
   73.3963   49.9313   55.7289 N   0  0  0  0  0  0  0  0  0  0  0  0
   74.7819   49.9760   55.5352 N   0  0  0  0  0  0  0  0  0  0  0  0
   75.7428   49.7910   56.5610 C   0  0  0  0  0  0  0  0  0  0  0  0
   75.2981   49.5755   57.7159 O   0  0  0  0  0  0  0  0  0  0  0  0
   77.1903   49.8363   56.3644 C   0  0  0  0  0  0  0  0  0  0  0  0
   77.7697   49.1030   55.3527 C   0  0  0  0  0  0  0  0  0  0  0  0
   79.1507   49.1127   55.1253 C   0  0  0  0  0  0  0  0  0  0  0  0
   79.9805   49.8673   55.9176 C   0  0  0  0  0  0  0  0  0  0  0  0
   81.3362   49.8844   55.6815 F   0  0  0  0  0  0  0  0  0  0  0  0
   79.4143   50.6061   56.9331 C   0  0  0  0  0  0  0  0  0  0  0  0
   78.0372   50.5943   57.1563 C   0  0  0  0  0  0  0  0  0  0  0  0
   71.1325   50.7583   54.8248 C   0  0  0  0  0  0  0  0  0  0  0  0
   70.4937   49.6521   54.0913 C   0  0  0  0  0  0  0  0  0  0  0  0
   69.6526   48.8046   54.7014 N   0  0  0  0  0  0  0  0  0  0  0  0
   69.0694   47.7700   54.1009 C   0  0  0  0  0  0  0  0  0  0  0  0
   68.1958   46.8925   54.7314 C   0  0  0  0  0  0  0  0  0  0  0  0
   67.6031   45.8294   54.0903 C   0  0  0  0  0  0  0  0  0  0  0  0
   67.8973   45.6300   52.7457 C   0  0  0  0  0  0  0  0  0  0  0  0
   68.7534   46.4777   52.0939 C   0  0  0  0  0  0  0  0  0  0  0  0
   69.3458   47.5549   52.7659 C   0  0  0  0  0  0  0  0  0  0  0  0
   70.2044   48.4148   52.1304 C   0  0  0  0  0  0  0  0  0  0  0  0
   70.4611   48.2155   50.8937 O   0  0  0  0  0  0  0  0  0  0  0  0
   70.7777   49.4625   52.7931 N   0  0  0  0  0  0  0  0  0  0  0  0
  1  2  2  0
  2 14  1  0
  2  3  1  0
 14 15  1  0
 15 16  2  0
 15 25  1  0
 16 17  1  0
 17 18  2  0
 17 22  1  0
 18 19  1  0
 19 20  2  0
 20 21  1  0
 21 22  2  0
 22 23  1  0
 23 24  2  0
 23 25  1  0
  3  4  1  0
  4  5  1  0
  5  6  2  0
  5  7  1  0
  7  8  2  0
  7 13  1  0
  8  9  1  0
  9 10  2  0
 10 11  1  0
 10 12  1  0
 12 13  2  0
M  END
>  <minimizedAffinity>  (130) 
-9.14177

$$$$
cs_full_output_folder/data/smiles/5279.pdb
     RDKit          3D

 23 24  0  0  0  0  0  0  0  0999 V2000
   69.0422   46.9520   57.4178 N   0  0  0  0  0  0  0  0  0  0  0  0
   68.3304   47.4231   56.5066 C   0  0  0  0  0  0  0  0  0  0  0  0
   68.5353   47.3324   55.0704 C   0  0  0  0  0  0  0  0  0  0  0  0
   67.8200   46.3192   54.4055 C   0  0  0  0  0  0  0  0  0  0  0  0
   67.9583   46.1657   53.0505 C   0  0  0  0  0  0  0  0  0  0  0  0
   68.7948   47.0008   52.3350 C   0  0  0  0  0  0  0  0  0  0  0  0
   68.9384   46.8504   50.9599 O   0  0  0  0  0  0  0  0  0  0  0  0
   69.5098   48.0014   52.9521 C   0  0  0  0  0  0  0  0  0  0  0  0
   69.3511   48.1365   54.3334 C   0  0  0  0  0  0  0  0  0  0  0  0
   70.3694   48.8579   52.2134 N   0  0  0  0  0  0  0  0  0  0  0  0
   70.0425   49.4235   51.1550 O   0  0  0  0  0  0  0  0  0  0  0  0
   71.6423   49.0874   52.6804 O   0  0  0  0  0  0  0  0  0  0  0  0
   70.5640   45.2062   58.2739 C   0  0  0  0  0  0  0  0  0  0  0  0
   69.7619   44.9979   59.2025 O   0  0  0  0  0  0  0  0  0  0  0  0
   70.1882   46.2334   57.3342 N   0  0  0  0  0  0  0  0  0  0  0  0
   74.2719   43.0650   58.0431 C   0  0  0  0  0  0  0  0  0  0  0  0
   73.0750   42.4096   57.8441 C   0  0  0  0  0  0  0  0  0  0  0  0
   71.8747   43.0925   57.9170 C   0  0  0  0  0  0  0  0  0  0  0  0
   71.7933   44.4360   58.1849 C   0  0  0  0  0  0  0  0  0  0  0  0
   73.0178   45.0797   58.3825 C   0  0  0  0  0  0  0  0  0  0  0  0
   74.2182   44.4062   58.3132 C   0  0  0  0  0  0  0  0  0  0  0  0
   76.6276   43.2542   58.6847 C   0  0  0  0  0  0  0  0  0  0  0  0
   75.5873   42.3876   57.9783 C   0  0  0  0  0  0  0  0  0  0  0  0
 22 23  1  0
 23 16  1  0
 16 17  2  0
 16 21  1  0
 17 18  1  0
 18 19  2  0
 19 13  1  0
 19 20  1  0
 13 14  2  0
 13 15  1  0
 15  1  1  0
  1  2  2  0
  2  3  1  0
  3  4  2  0
  3  9  1  0
  4  5  1  0
  5  6  2  0
  6  7  1  0
  6  8  1  0
  8 10  1  0
  8  9  2  0
 10 11  2  0
 10 12  1  0
 20 21  2  0
M  CHG  2  10   1  12  -1
M  END
>  <minimizedAffinity>  (131) 
-9.14158

$$$$
cs_full_output_folder/data/smiles/250.pdb
     RDKit          3D

 22 24  0  0  0  0  0  0  0  0999 V2000
   70.1775   51.1750   53.2761 O   0  0  0  0  0  0  0  0  0  0  0  0
   70.7343   50.0600   53.3611 C   0  0  0  0  0  0  0  0  0  0  0  0
   70.2321   48.8953   52.6507 C   0  0  0  0  0  0  0  0  0  0  0  0
   70.5536   48.5494   51.3657 N   0  0  0  0  0  0  0  0  0  0  0  0
   69.9366   47.4456   51.0162 N   0  0  0  0  0  0  0  0  0  0  0  0
   69.1759   46.9820   52.0176 C   0  0  0  0  0  0  0  0  0  0  0  0
   68.3420   45.8987   52.1986 C   0  0  0  0  0  0  0  0  0  0  0  0
   67.6831   45.7028   53.3946 C   0  0  0  0  0  0  0  0  0  0  0  0
   67.8724   46.6252   54.4310 C   0  0  0  0  0  0  0  0  0  0  0  0
   68.7056   47.7071   54.2482 C   0  0  0  0  0  0  0  0  0  0  0  0
   69.3659   47.9051   53.0538 C   0  0  0  0  0  0  0  0  0  0  0  0
   71.8601   49.9778   54.1673 O   0  0  0  0  0  0  0  0  0  0  0  0
   71.8719   50.5061   55.4817 C   0  0  0  0  0  0  0  0  0  0  0  0
   71.1266   49.6623   56.4517 C   0  0  0  0  0  0  0  0  0  0  0  0
   69.7647   50.0804   56.7696 C   0  0  0  0  0  0  0  0  0  0  0  0
   69.3213   51.3958   56.6649 C   0  0  0  0  0  0  0  0  0  0  0  0
   68.0317   51.7695   56.9788 C   0  0  0  0  0  0  0  0  0  0  0  0
   67.1251   50.8310   57.4159 C   0  0  0  0  0  0  0  0  0  0  0  0
   65.8451   51.1796   57.7326 F   0  0  0  0  0  0  0  0  0  0  0  0
   67.5375   49.5228   57.5291 C   0  0  0  0  0  0  0  0  0  0  0  0
   66.6535   48.5742   57.9606 F   0  0  0  0  0  0  0  0  0  0  0  0
   68.8412   49.1583   57.2086 C   0  0  0  0  0  0  0  0  0  0  0  0
  1  2  2  0
  2 12  1  0
  2  3  1  0
 12 13  1  0
 13 14  1  0
 14 15  1  0
 15 16  2  0
 15 22  1  0
 16 17  1  0
 17 18  2  0
 18 19  1  0
 18 20  1  0
 20 21  1  0
 20 22  2  0
  3  4  1  0
  3 11  2  0
  4  5  1  0
  5  6  2  0
  6  7  1  0
  6 11  1  0
  7  8  2  0
  8  9  1  0
  9 10  2  0
 10 11  1  0
M  END
>  <minimizedAffinity>  (132) 
-9.13844

$$$$
cs_full_output_folder/data/smiles/2926.pdb
     RDKit          3D

 23 25  0  0  0  0  0  0  0  0999 V2000
   67.6791   47.1706   56.8470 O   0  0  0  0  0  0  0  0  0  0  0  0
   68.6996   47.6249   56.2781 C   0  0  0  0  0  0  0  0  0  0  0  0
   68.8238   47.3829   54.8400 C   0  0  0  0  0  0  0  0  0  0  0  0
   68.0082   46.3828   54.3589 C   0  0  0  0  0  0  0  0  0  0  0  0
   67.9016   46.2035   53.0140 C   0  0  0  0  0  0  0  0  0  0  0  0
   67.0520   45.2694   52.5088 O   0  0  0  0  0  0  0  0  0  0  0  0
   68.6235   46.9922   52.0981 C   0  0  0  0  0  0  0  0  0  0  0  0
   69.4425   47.9697   52.6237 C   0  0  0  0  0  0  0  0  0  0  0  0
   69.5630   48.1775   53.9998 C   0  0  0  0  0  0  0  0  0  0  0  0
   70.0503   48.9329   51.7419 N   0  0  0  0  0  0  0  0  0  0  0  0
   70.7365   48.5454   50.7918 O   0  0  0  0  0  0  0  0  0  0  0  0
   69.8026   50.2636   51.8877 O   0  0  0  0  0  0  0  0  0  0  0  0
   69.6791   48.3839   57.0335 C   0  0  0  0  0  0  0  0  0  0  0  0
   69.5370   49.8619   57.1364 C   0  0  0  0  0  0  0  0  0  0  0  0
   70.7455   50.6173   57.2441 C   0  0  0  0  0  0  0  0  0  0  0  0
   70.8336   51.9248   57.5655 C   0  0  0  0  0  0  0  0  0  0  0  0
   70.4304   53.0233   56.8108 C   0  0  0  0  0  0  0  0  0  0  0  0
   70.2855   53.0473   55.4463 C   0  0  0  0  0  0  0  0  0  0  0  0
   69.4998   52.1889   54.7130 C   0  0  0  0  0  0  0  0  0  0  0  0
   68.2592   51.6758   54.9700 C   0  0  0  0  0  0  0  0  0  0  0  0
   67.8414   51.3841   56.2188 C   0  0  0  0  0  0  0  0  0  0  0  0
   67.1367   51.2334   57.3767 C   0  0  0  0  0  0  0  0  0  0  0  0
   68.3515   50.5006   57.3208 C   0  0  0  0  0  0  0  0  0  0  0  0
  1  2  2  0
  2 13  1  0
  2  3  1  0
 13 14  1  0
 14 15  2  0
 14 23  1  0
 15 16  1  0
 16 17  2  0
 17 18  1  0
 18 19  2  0
 19 20  1  0
 20 21  2  0
 21 22  1  0
 21 23  1  0
 22 23  2  0
  3  4  2  0
  3  9  1  0
  4  5  1  0
  5  6  1  0
  5  7  2  0
  7  8  1  0
  8 10  1  0
  8  9  2  0
 10 11  2  0
 10 12  1  0
M  CHG  2  10   1  12  -1
M  END
>  <minimizedAffinity>  (133) 
-9.13601

$$$$
cs_full_output_folder/data/smiles/5385.pdb
     RDKit          3D

 25 27  0  0  0  0  0  0  0  0999 V2000
   70.7250   47.5281   57.9092 O   0  0  0  0  0  0  0  0  0  0  0  0
   69.7292   47.1454   57.2483 C   0  0  0  0  0  0  0  0  0  0  0  0
   69.5107   45.7310   57.1782 N   0  0  0  0  0  0  0  0  0  0  0  0
   68.8016   48.1063   56.5565 C   0  0  0  0  0  0  0  0  0  0  0  0
   69.2456   48.3619   55.1866 C   0  0  0  0  0  0  0  0  0  0  0  0
   70.0893   49.4065   54.9056 C   0  0  0  0  0  0  0  0  0  0  0  0
   70.5324   49.6817   53.6286 C   0  0  0  0  0  0  0  0  0  0  0  0
   70.0898   48.8511   52.6027 C   0  0  0  0  0  0  0  0  0  0  0  0
   69.2360   47.7823   52.8416 C   0  0  0  0  0  0  0  0  0  0  0  0
   68.8028   46.9659   51.8251 C   0  0  0  0  0  0  0  0  0  0  0  0
   67.9542   45.9088   52.0713 C   0  0  0  0  0  0  0  0  0  0  0  0
   67.5338   45.6636   53.3545 C   0  0  0  0  0  0  0  0  0  0  0  0
   67.9740   46.4874   54.3619 C   0  0  0  0  0  0  0  0  0  0  0  0
   68.8316   47.5649   54.1528 C   0  0  0  0  0  0  0  0  0  0  0  0
   70.3624   44.7743   57.8172 C   0  0  0  0  0  0  0  0  0  0  0  0
   69.8907   43.3909   57.8058 C   0  0  0  0  0  0  0  0  0  0  0  0
   68.8888   42.9930   56.9508 C   0  0  0  0  0  0  0  0  0  0  0  0
   68.4121   41.7011   56.9016 C   0  0  0  0  0  0  0  0  0  0  0  0
   68.9547   40.7584   57.7412 C   0  0  0  0  0  0  0  0  0  0  0  0
   69.9640   41.1284   58.6131 C   0  0  0  0  0  0  0  0  0  0  0  0
   70.4299   42.4301   58.6474 C   0  0  0  0  0  0  0  0  0  0  0  0
   71.4438   42.7343   59.5447 O   0  0  0  0  0  0  0  0  0  0  0  0
   67.3745   41.3739   55.9851 N   0  0  0  0  0  0  0  0  0  0  0  0
   66.3382   42.0562   55.8914 O   0  0  0  0  0  0  0  0  0  0  0  0
   67.5176   40.2739   55.1783 O   0  0  0  0  0  0  0  0  0  0  0  0
  1  2  2  0
  2  4  1  0
  2  3  1  0
  4  5  1  0
  5  6  2  0
  5 14  1  0
  6  7  1  0
  7  8  2  0
  8  9  1  0
  9 10  1  0
  9 14  2  0
 10 11  2  0
 11 12  1  0
 12 13  2  0
 13 14  1  0
  3 15  1  0
 15 16  1  0
 16 17  2  0
 16 21  1  0
 17 18  1  0
 18 23  1  0
 18 19  2  0
 23 24  2  0
 23 25  1  0
 19 20  1  0
 20 21  2  0
 21 22  1  0
M  CHG  2  23   1  25  -1
M  END
>  <minimizedAffinity>  (134) 
-9.13561

$$$$
cs_full_output_folder/data/smiles/8462.pdb
     RDKit          3D

 25 27  0  0  0  0  0  0  0  0999 V2000
   70.6268   46.2761   58.2820 C   0  0  0  0  0  0  0  0  0  0  0  0
   69.7456   46.8640   57.3548 C   0  0  0  0  0  0  0  0  0  0  0  0
   69.7122   48.2011   57.0987 C   0  0  0  0  0  0  0  0  0  0  0  0
   70.6252   48.9707   57.8267 C   0  0  0  0  0  0  0  0  0  0  0  0
   71.4851   48.4381   58.7227 C   0  0  0  0  0  0  0  0  0  0  0  0
   71.5036   47.0639   58.9728 C   0  0  0  0  0  0  0  0  0  0  0  0
   72.4089   46.5936   59.8787 F   0  0  0  0  0  0  0  0  0  0  0  0
   71.3132   43.9115   57.7683 N   0  0  0  0  0  0  0  0  0  0  0  0
   70.5549   44.8401   58.4877 C   0  0  0  0  0  0  0  0  0  0  0  0
   69.7503   44.4115   59.3830 O   0  0  0  0  0  0  0  0  0  0  0  0
   71.1697   42.4890   58.0552 C   0  0  0  0  0  0  0  0  0  0  0  0
   73.6072   42.7451   57.6033 C   0  0  0  0  0  0  0  0  0  0  0  0
   72.5220   41.8752   58.2520 C   0  0  0  0  0  0  0  0  0  0  0  0
   68.8295   48.9174   56.1673 C   0  0  0  0  0  0  0  0  0  0  0  0
   69.2608   48.7472   54.7953 C   0  0  0  0  0  0  0  0  0  0  0  0
   70.1554   49.6459   54.2822 N   0  0  0  0  0  0  0  0  0  0  0  0
   70.5863   49.6160   53.0444 N   0  0  0  0  0  0  0  0  0  0  0  0
   70.1698   48.6791   52.1757 C   0  0  0  0  0  0  0  0  0  0  0  0
   70.6201   48.6960   50.9823 O   0  0  0  0  0  0  0  0  0  0  0  0
   69.2761   47.7377   52.5981 C   0  0  0  0  0  0  0  0  0  0  0  0
   68.8462   46.7649   51.7277 C   0  0  0  0  0  0  0  0  0  0  0  0
   67.9559   45.8121   52.1637 C   0  0  0  0  0  0  0  0  0  0  0  0
   67.5122   45.8652   53.4925 C   0  0  0  0  0  0  0  0  0  0  0  0
   67.9554   46.8479   54.3463 C   0  0  0  0  0  0  0  0  0  0  0  0
   68.8319   47.7885   53.9170 C   0  0  0  0  0  0  0  0  0  0  0  0
 12 13  1  0
 13 11  1  0
 11  8  1  0
  8  9  1  0
  9 10  2  0
  9  1  1  0
  1  2  2  0
  1  6  1  0
  2  3  1  0
  3 14  1  0
  3  4  2  0
 14 15  1  0
 15 16  2  0
 15 25  1  0
 16 17  1  0
 17 18  1  0
 18 19  2  0
 18 20  1  0
 20 21  1  0
 20 25  2  0
 21 22  2  0
 22 23  1  0
 23 24  2  0
 24 25  1  0
  4  5  1  0
  5  6  2  0
  6  7  1  0
M  END
>  <minimizedAffinity>  (135) 
-9.13495

$$$$
cs_full_output_folder/data/smiles/4716.pdb
     RDKit          3D

 23 25  0  0  0  0  0  0  0  0999 V2000
   68.9481   50.4555   57.2565 C   0  0  0  0  0  0  0  0  0  0  0  0
   67.7666   50.7511   57.9426 C   0  0  0  0  0  0  0  0  0  0  0  0
   66.7576   49.8247   58.0669 C   0  0  0  0  0  0  0  0  0  0  0  0
   66.8879   48.5728   57.5140 C   0  0  0  0  0  0  0  0  0  0  0  0
   68.0471   48.2303   56.8201 C   0  0  0  0  0  0  0  0  0  0  0  0
   69.0417   49.1980   56.7181 C   0  0  0  0  0  0  0  0  0  0  0  0
   68.9180   52.4573   55.1567 C   0  0  0  0  0  0  0  0  0  0  0  0
   69.9429   52.4606   56.2022 C   0  0  0  0  0  0  0  0  0  0  0  0
   70.9143   53.4414   56.1889 C   0  0  0  0  0  0  0  0  0  0  0  0
   71.9161   53.4881   57.1348 C   0  0  0  0  0  0  0  0  0  0  0  0
   71.9388   52.5172   58.1198 C   0  0  0  0  0  0  0  0  0  0  0  0
   70.9599   51.5487   58.1138 C   0  0  0  0  0  0  0  0  0  0  0  0
   69.9509   51.4951   57.1691 C   0  0  0  0  0  0  0  0  0  0  0  0
   68.1802   46.9370   56.2722 N   0  0  0  0  0  0  0  0  0  0  0  0
   68.3004   46.7371   54.8745 C   0  0  0  0  0  0  0  0  0  0  0  0
   67.6788   45.6889   54.2203 C   0  0  0  0  0  0  0  0  0  0  0  0
   67.8198   45.5521   52.8470 C   0  0  0  0  0  0  0  0  0  0  0  0
   68.5763   46.4595   52.1454 C   0  0  0  0  0  0  0  0  0  0  0  0
   69.1983   47.5133   52.8134 C   0  0  0  0  0  0  0  0  0  0  0  0
   69.0271   47.5931   54.1335 N   0  0  0  0  0  0  0  0  0  0  0  0
   69.9969   48.4896   52.0672 C   0  0  0  0  0  0  0  0  0  0  0  0
   70.2115   49.8041   52.5388 N   0  0  0  0  0  0  0  0  0  0  0  0
   70.5113   48.1255   50.9554 O   0  0  0  0  0  0  0  0  0  0  0  0
  7  8  1  0
  8  9  2  0
  8 13  1  0
  9 10  1  0
 10 11  2  0
 11 12  1  0
 12 13  2  0
 13  1  1  0
  1  2  2  0
  1  6  1  0
  2  3  1  0
  3  4  2  0
  4  5  1  0
  5 14  1  0
  5  6  2  0
 14 15  1  0
 15 16  2  0
 15 20  1  0
 16 17  1  0
 17 18  2  0
 18 19  1  0
 19 21  1  0
 19 20  2  0
 21 22  1  0
 21 23  2  0
M  END
>  <minimizedAffinity>  (136) 
-9.13286

$$$$
cs_full_output_folder/data/smiles/3008.pdb
     RDKit          3D

 23 25  0  0  0  0  0  0  0  0999 V2000
   68.5218   47.1875   56.4393 C   0  0  0  0  0  0  0  0  0  0  0  0
   69.4255   47.8475   52.8431 C   0  0  0  0  0  0  0  0  0  0  0  0
   69.3936   47.9271   54.2051 C   0  0  0  0  0  0  0  0  0  0  0  0
   68.5913   47.1030   54.9936 C   0  0  0  0  0  0  0  0  0  0  0  0
   67.8250   46.1952   54.3083 C   0  0  0  0  0  0  0  0  0  0  0  0
   67.8345   46.0889   52.9279 C   0  0  0  0  0  0  0  0  0  0  0  0
   67.0565   45.1676   52.2379 O   0  0  0  0  0  0  0  0  0  0  0  0
   68.6426   46.9252   52.1975 C   0  0  0  0  0  0  0  0  0  0  0  0
   68.6744   46.8440   50.8116 O   0  0  0  0  0  0  0  0  0  0  0  0
   71.4571   48.8155   52.4217 O   0  0  0  0  0  0  0  0  0  0  0  0
   70.2655   48.7150   52.1129 N   0  0  0  0  0  0  0  0  0  0  0  0
   69.7815   49.4430   51.0684 O   0  0  0  0  0  0  0  0  0  0  0  0
   69.5424   47.9458   57.1693 C   0  0  0  0  0  0  0  0  0  0  0  0
   69.5214   49.4187   56.9667 C   0  0  0  0  0  0  0  0  0  0  0  0
   68.3014   50.0658   57.0930 C   0  0  0  0  0  0  0  0  0  0  0  0
   68.1097   51.4014   57.4020 C   0  0  0  0  0  0  0  0  0  0  0  0
   68.7543   52.5118   56.9272 C   0  0  0  0  0  0  0  0  0  0  0  0
   68.9380   52.9339   55.6297 C   0  0  0  0  0  0  0  0  0  0  0  0
   69.2318   52.1037   54.5524 C   0  0  0  0  0  0  0  0  0  0  0  0
   70.2783   51.2108   54.4915 C   0  0  0  0  0  0  0  0  0  0  0  0
   71.0564   50.9308   55.5695 C   0  0  0  0  0  0  0  0  0  0  0  0
   71.9531   50.7058   56.6484 C   0  0  0  0  0  0  0  0  0  0  0  0
   70.6857   50.1065   56.6898 C   0  0  0  0  0  0  0  0  0  0  0  0
 10 11  2  0
 11 12  1  0
 11  2  1  0
  2  3  2  0
  2  8  1  0
  3  4  1  0
  4  1  1  0
  4  5  2  0
  1 13  1  0
 13 14  1  0
 14 15  2  0
 14 23  1  0
 15 16  1  0
 16 17  2  0
 17 18  1  0
 18 19  2  0
 19 20  1  0
 20 21  2  0
 21 22  1  0
 21 23  1  0
 22 23  2  0
  5  6  1  0
  6  7  1  0
  6  8  2  0
  8  9  1  0
M  CHG  2  11   1  12  -1
M  END
>  <minimizedAffinity>  (137) 
-9.13060

$$$$
cs_full_output_folder/data/smiles/519.pdb
     RDKit          3D

 25 27  0  0  0  0  0  0  0  0999 V2000
   68.8059   47.6720   56.6988 C   0  0  0  0  0  0  0  0  0  0  0  0
   67.5565   47.5742   56.9844 O   0  0  0  0  0  0  0  0  0  0  0  0
   69.2068   48.0309   55.3548 C   0  0  0  0  0  0  0  0  0  0  0  0
   70.0391   49.1472   55.1704 C   0  0  0  0  0  0  0  0  0  0  0  0
   70.4204   49.4904   53.8958 C   0  0  0  0  0  0  0  0  0  0  0  0
   71.1713   50.4939   53.7043 O   0  0  0  0  0  0  0  0  0  0  0  0
   70.0408   48.8133   52.8091 N   0  0  0  0  0  0  0  0  0  0  0  0
   69.2493   47.7443   52.9460 C   0  0  0  0  0  0  0  0  0  0  0  0
   68.8673   47.0601   51.8205 C   0  0  0  0  0  0  0  0  0  0  0  0
   68.0565   45.9606   51.9250 C   0  0  0  0  0  0  0  0  0  0  0  0
   67.6310   45.5523   53.1630 C   0  0  0  0  0  0  0  0  0  0  0  0
   68.0321   46.2637   54.2860 C   0  0  0  0  0  0  0  0  0  0  0  0
   68.8457   47.3723   54.2195 C   0  0  0  0  0  0  0  0  0  0  0  0
   69.5902   47.4013   57.7919 O   0  0  0  0  0  0  0  0  0  0  0  0
   70.6632   46.4869   57.8164 C   0  0  0  0  0  0  0  0  0  0  0  0
   69.7417   44.7727   59.1560 O   0  0  0  0  0  0  0  0  0  0  0  0
   70.0906   45.1363   58.0090 C   0  0  0  0  0  0  0  0  0  0  0  0
   69.9072   44.2065   56.9599 N   0  0  0  0  0  0  0  0  0  0  0  0
   69.3574   42.9056   57.1393 C   0  0  0  0  0  0  0  0  0  0  0  0
   69.9551   41.9582   57.9391 C   0  0  0  0  0  0  0  0  0  0  0  0
   69.3827   40.6997   58.0854 C   0  0  0  0  0  0  0  0  0  0  0  0
   68.2107   40.3492   57.4471 C   0  0  0  0  0  0  0  0  0  0  0  0
   67.6129   41.2990   56.6459 C   0  0  0  0  0  0  0  0  0  0  0  0
   68.1860   42.5579   56.5002 C   0  0  0  0  0  0  0  0  0  0  0  0
   67.5988   43.4803   55.7184 F   0  0  0  0  0  0  0  0  0  0  0  0
 16 17  2  0
 17 15  1  0
 17 18  1  0
 15 14  1  0
 14  1  1  0
  1  2  2  0
  1  3  1  0
  3  4  2  0
  3 13  1  0
  4  5  1  0
  5  6  2  0
  5  7  1  0
  7  8  1  0
  8  9  1  0
  8 13  2  0
  9 10  2  0
 10 11  1  0
 11 12  2  0
 12 13  1  0
 18 19  1  0
 19 20  2  0
 19 24  1  0
 20 21  1  0
 21 22  2  0
 22 23  1  0
 23 24  2  0
 24 25  1  0
M  END
>  <minimizedAffinity>  (138) 
-9.12452

$$$$
cs_full_output_folder/data/smiles/557.pdb
     RDKit          3D

 23 25  0  0  0  0  0  0  0  0999 V2000
   69.6048   49.1319   52.2014 C   0  0  0  0  0  0  0  0  0  0  0  0
   70.4019   49.8732   53.1764 C   0  0  0  0  0  0  0  0  0  0  0  0
   71.7280   49.5970   53.2520 N   0  0  0  0  0  0  0  0  0  0  0  0
   72.5670   50.2365   54.0615 N   0  0  0  0  0  0  0  0  0  0  0  0
   72.1605   51.2286   54.8854 C   0  0  0  0  0  0  0  0  0  0  0  0
   72.9888   51.8070   55.6325 O   0  0  0  0  0  0  0  0  0  0  0  0
   70.8246   51.5588   54.8582 C   0  0  0  0  0  0  0  0  0  0  0  0
   70.3271   52.5463   55.6826 C   0  0  0  0  0  0  0  0  0  0  0  0
   69.0033   52.8789   55.6877 C   0  0  0  0  0  0  0  0  0  0  0  0
   68.1537   52.1861   54.8300 C   0  0  0  0  0  0  0  0  0  0  0  0
   68.6490   51.2042   54.0095 C   0  0  0  0  0  0  0  0  0  0  0  0
   69.9689   50.8733   54.0026 C   0  0  0  0  0  0  0  0  0  0  0  0
   68.7584   46.6089   54.8337 C   0  0  0  0  0  0  0  0  0  0  0  0
   69.2155   47.6985   54.1696 C   0  0  0  0  0  0  0  0  0  0  0  0
   69.0757   47.8887   52.7884 C   0  0  0  0  0  0  0  0  0  0  0  0
   68.4378   46.9016   52.1019 C   0  0  0  0  0  0  0  0  0  0  0  0
   67.9567   45.7622   52.7738 C   0  0  0  0  0  0  0  0  0  0  0  0
   67.3246   44.8026   52.0469 F   0  0  0  0  0  0  0  0  0  0  0  0
   68.1142   45.6107   54.1349 C   0  0  0  0  0  0  0  0  0  0  0  0
   67.6277   44.4901   54.7289 F   0  0  0  0  0  0  0  0  0  0  0  0
   68.1370   47.0643   57.0506 O   0  0  0  0  0  0  0  0  0  0  0  0
   68.9283   46.4603   56.2765 C   0  0  0  0  0  0  0  0  0  0  0  0
   69.8868   45.7109   56.8413 F   0  0  0  0  0  0  0  0  0  0  0  0
 21 22  2  0
 22 23  1  0
 22 13  1  0
 13 14  2  0
 13 19  1  0
 14 15  1  0
 15  1  1  0
 15 16  2  0
  1  2  1  0
  2  3  2  0
  2 12  1  0
  3  4  1  0
  4  5  1  0
  5  6  2  0
  5  7  1  0
  7  8  1  0
  7 12  2  0
  8  9  2  0
  9 10  1  0
 10 11  2  0
 11 12  1  0
 16 17  1  0
 17 18  1  0
 17 19  2  0
 19 20  1  0
M  END
>  <minimizedAffinity>  (139) 
-9.11980

$$$$
cs_full_output_folder/data/smiles/4208.pdb
     RDKit          3D

 24 25  0  0  0  0  0  0  0  0999 V2000
   68.3777   45.9397   56.1619 O   0  0  0  0  0  0  0  0  0  0  0  0
   68.1165   45.2859   55.1265 C   0  0  0  0  0  0  0  0  0  0  0  0
   67.6721   43.9662   55.2600 N   0  0  0  0  0  0  0  0  0  0  0  0
   68.2846   45.9238   53.8361 C   0  0  0  0  0  0  0  0  0  0  0  0
   67.5511   45.4592   52.7377 C   0  0  0  0  0  0  0  0  0  0  0  0
   67.6535   46.0109   51.4798 C   0  0  0  0  0  0  0  0  0  0  0  0
   68.5035   47.0707   51.2444 C   0  0  0  0  0  0  0  0  0  0  0  0
   69.2291   47.5356   52.3185 C   0  0  0  0  0  0  0  0  0  0  0  0
   69.1288   46.9837   53.5805 C   0  0  0  0  0  0  0  0  0  0  0  0
   70.1109   48.6224   52.1065 N   0  0  0  0  0  0  0  0  0  0  0  0
   71.0367   48.8895   52.8822 O   0  0  0  0  0  0  0  0  0  0  0  0
   69.9569   49.4258   51.0070 O   0  0  0  0  0  0  0  0  0  0  0  0
   67.4973   43.3150   56.4809 N   0  0  0  0  0  0  0  0  0  0  0  0
   68.3860   42.2860   56.8623 C   0  0  0  0  0  0  0  0  0  0  0  0
   67.8588   40.7882   57.2387 S   0  0  0  0  0  0  0  0  0  0  0  0
   69.7885   42.5279   56.9306 N   0  0  0  0  0  0  0  0  0  0  0  0
   70.3569   43.4097   57.8847 C   0  0  0  0  0  0  0  0  0  0  0  0
   69.5632   43.9744   58.6753 O   0  0  0  0  0  0  0  0  0  0  0  0
   71.7769   43.6966   58.0028 C   0  0  0  0  0  0  0  0  0  0  0  0
   72.7474   42.7340   57.8315 C   0  0  0  0  0  0  0  0  0  0  0  0
   74.1063   43.0305   57.9495 C   0  0  0  0  0  0  0  0  0  0  0  0
   74.5242   44.3108   58.2448 C   0  0  0  0  0  0  0  0  0  0  0  0
   73.5596   45.2819   58.4190 C   0  0  0  0  0  0  0  0  0  0  0  0
   72.2226   44.9681   58.2978 C   0  0  0  0  0  0  0  0  0  0  0  0
  1  2  2  0
  2  3  1  0
  2  4  1  0
  3 13  1  0
 13 14  1  0
 14 15  2  0
 14 16  1  0
 16 17  1  0
 17 18  2  0
 17 19  1  0
 19 20  2  0
 19 24  1  0
 20 21  1  0
 21 22  2  0
 22 23  1  0
 23 24  2  0
  4  5  2  0
  4  9  1  0
  5  6  1  0
  6  7  2  0
  7  8  1  0
  8 10  1  0
  8  9  2  0
 10 11  2  0
 10 12  1  0
M  CHG  2  10   1  12  -1
M  END
>  <minimizedAffinity>  (140) 
-9.11874

$$$$
cs_full_output_folder/data/smiles/4999.pdb
     RDKit          3D

 25 27  0  0  0  0  0  0  0  0999 V2000
   70.8479   45.6384   57.9073 C   0  0  0  0  0  0  0  0  0  0  0  0
   71.7657   46.3561   58.6215 C   0  0  0  0  0  0  0  0  0  0  0  0
   71.7606   47.7616   58.6217 C   0  0  0  0  0  0  0  0  0  0  0  0
   70.8174   48.4476   57.8929 C   0  0  0  0  0  0  0  0  0  0  0  0
   69.8891   47.7730   57.1691 C   0  0  0  0  0  0  0  0  0  0  0  0
   69.9167   46.4012   57.1865 C   0  0  0  0  0  0  0  0  0  0  0  0
   69.9922   43.4204   58.6954 C   0  0  0  0  0  0  0  0  0  0  0  0
   69.3506   43.9125   59.6440 O   0  0  0  0  0  0  0  0  0  0  0  0
   70.7424   44.2353   57.8177 N   0  0  0  0  0  0  0  0  0  0  0  0
   69.9700   41.9182   58.4750 C   0  0  0  0  0  0  0  0  0  0  0  0
   68.5320   41.4833   58.4360 C   0  0  0  0  0  0  0  0  0  0  0  0
   67.4378   42.2589   56.1102 C   0  0  0  0  0  0  0  0  0  0  0  0
   67.9177   41.9051   57.1529 C   0  0  0  0  0  0  0  0  0  0  0  0
   68.8214   48.4014   56.3172 C   0  0  0  0  0  0  0  0  0  0  0  0
   69.2736   48.4312   54.9013 C   0  0  0  0  0  0  0  0  0  0  0  0
   70.1703   49.3865   54.4992 N   0  0  0  0  0  0  0  0  0  0  0  0
   70.5538   49.4789   53.2471 N   0  0  0  0  0  0  0  0  0  0  0  0
   70.1221   48.6734   52.2686 C   0  0  0  0  0  0  0  0  0  0  0  0
   70.5343   48.8165   51.0685 O   0  0  0  0  0  0  0  0  0  0  0  0
   69.2195   47.6824   52.5817 C   0  0  0  0  0  0  0  0  0  0  0  0
   68.7521   46.8156   51.6171 C   0  0  0  0  0  0  0  0  0  0  0  0
   67.8618   45.8261   51.9744 C   0  0  0  0  0  0  0  0  0  0  0  0
   67.4480   45.7091   53.2809 C   0  0  0  0  0  0  0  0  0  0  0  0
   67.9259   46.5893   54.2469 C   0  0  0  0  0  0  0  0  0  0  0  0
   68.8213   47.5970   53.9164 C   0  0  0  0  0  0  0  0  0  0  0  0
 12 13  3  0
 13 11  1  0
 11 10  1  0
 10  7  1  0
  7  8  2  0
  7  9  1  0
  9  1  1  0
  1  2  2  0
  1  6  1  0
  2  3  1  0
  3  4  2  0
  4  5  1  0
  5 14  1  0
  5  6  2  0
 14 15  1  0
 15 16  2  0
 15 25  1  0
 16 17  1  0
 17 18  1  0
 18 19  2  0
 18 20  1  0
 20 21  1  0
 20 25  2  0
 21 22  2  0
 22 23  1  0
 23 24  2  0
 24 25  1  0
M  END
>  <minimizedAffinity>  (141) 
-9.11373

$$$$
cs_full_output_folder/data/smiles/6955.pdb
     RDKit          3D

 25 27  0  0  0  0  0  0  0  0999 V2000
   68.7501   46.4819   55.2810 C   0  0  0  0  0  0  0  0  0  0  0  0
   69.1508   47.6852   54.6835 C   0  0  0  0  0  0  0  0  0  0  0  0
   69.0122   47.9660   53.3532 C   0  0  0  0  0  0  0  0  0  0  0  0
   68.4240   46.9595   52.5660 C   0  0  0  0  0  0  0  0  0  0  0  0
   68.0147   45.7640   53.1026 C   0  0  0  0  0  0  0  0  0  0  0  0
   68.1817   45.5288   54.4749 C   0  0  0  0  0  0  0  0  0  0  0  0
   67.7668   44.3519   54.9862 F   0  0  0  0  0  0  0  0  0  0  0  0
   69.6955   45.3045   57.3157 N   0  0  0  0  0  0  0  0  0  0  0  0
   68.9870   46.3596   56.7046 C   0  0  0  0  0  0  0  0  0  0  0  0
   68.5488   47.2402   57.5253 O   0  0  0  0  0  0  0  0  0  0  0  0
   69.8721   45.2719   58.6908 O   0  0  0  0  0  0  0  0  0  0  0  0
   70.2819   43.0795   57.8037 C   0  0  0  0  0  0  0  0  0  0  0  0
   70.5347   44.0550   58.9221 C   0  0  0  0  0  0  0  0  0  0  0  0
   69.4207   49.2490   52.7047 C   0  0  0  0  0  0  0  0  0  0  0  0
   70.4154   50.0160   53.4651 C   0  0  0  0  0  0  0  0  0  0  0  0
   71.7331   49.6423   53.3651 N   0  0  0  0  0  0  0  0  0  0  0  0
   72.7054   50.2825   53.9717 N   0  0  0  0  0  0  0  0  0  0  0  0
   72.5136   51.3460   54.7364 C   0  0  0  0  0  0  0  0  0  0  0  0
   73.4446   51.9529   55.3124 O   0  0  0  0  0  0  0  0  0  0  0  0
   71.2100   51.7931   54.8940 C   0  0  0  0  0  0  0  0  0  0  0  0
   70.9442   52.8842   55.6824 C   0  0  0  0  0  0  0  0  0  0  0  0
   69.6496   53.3087   55.8390 C   0  0  0  0  0  0  0  0  0  0  0  0
   68.6414   52.6221   55.1955 C   0  0  0  0  0  0  0  0  0  0  0  0
   68.8773   51.5251   54.3974 C   0  0  0  0  0  0  0  0  0  0  0  0
   70.1727   51.1085   54.2458 C   0  0  0  0  0  0  0  0  0  0  0  0
 12 13  1  0
 13 11  1  0
 11  8  1  0
  8  9  1  0
  9 10  2  0
  9  1  1  0
  1  2  2  0
  1  6  1  0
  2  3  1  0
  3 14  1  0
  3  4  2  0
 14 15  1  0
 15 16  2  0
 15 25  1  0
 16 17  1  0
 17 18  1  0
 18 19  2  0
 18 20  1  0
 20 21  1  0
 20 25  2  0
 21 22  2  0
 22 23  1  0
 23 24  2  0
 24 25  1  0
  4  5  1  0
  5  6  2  0
  6  7  1  0
M  END
>  <minimizedAffinity>  (142) 
-9.10949

$$$$
cs_full_output_folder/data/smiles/2635.pdb
     RDKit          3D

 26 29  0  0  0  0  0  0  0  0999 V2000
   68.9890   42.6768   57.0818 C   0  0  0  0  0  0  0  0  0  0  0  0
   67.7309   42.1675   56.7988 C   0  0  0  0  0  0  0  0  0  0  0  0
   67.4602   40.8185   57.0185 C   0  0  0  0  0  0  0  0  0  0  0  0
   68.4276   39.9770   57.5165 C   0  0  0  0  0  0  0  0  0  0  0  0
   69.6775   40.4555   57.8034 C   0  0  0  0  0  0  0  0  0  0  0  0
   69.9211   41.8011   57.5752 C   0  0  0  0  0  0  0  0  0  0  0  0
   71.2256   41.9991   57.9422 C   0  0  0  0  0  0  0  0  0  0  0  0
   71.6996   40.8127   58.3593 N   0  0  0  0  0  0  0  0  0  0  0  0
   70.7929   39.8614   58.2903 N   0  0  0  0  0  0  0  0  0  0  0  0
   70.9280   38.4810   58.6452 C   0  0  0  0  0  0  0  0  0  0  0  0
   71.7543   37.6237   57.9523 C   0  0  0  0  0  0  0  0  0  0  0  0
   71.9244   36.2892   58.2487 C   0  0  0  0  0  0  0  0  0  0  0  0
   71.2057   35.7715   59.3331 C   0  0  0  0  0  0  0  0  0  0  0  0
   71.3722   34.4721   59.6231 F   0  0  0  0  0  0  0  0  0  0  0  0
   70.3668   36.6003   60.0545 C   0  0  0  0  0  0  0  0  0  0  0  0
   70.2308   37.9483   59.7090 C   0  0  0  0  0  0  0  0  0  0  0  0
   70.2524   44.6199   57.3837 O   0  0  0  0  0  0  0  0  0  0  0  0
   69.2503   44.0907   56.8453 C   0  0  0  0  0  0  0  0  0  0  0  0
   68.4286   44.9115   56.0317 N   0  0  0  0  0  0  0  0  0  0  0  0
   68.6836   46.3303   55.7878 C   0  0  0  0  0  0  0  0  0  0  0  0
   68.7048   46.6297   54.3395 C   0  0  0  0  0  0  0  0  0  0  0  0
   67.9609   45.8318   53.5010 C   0  0  0  0  0  0  0  0  0  0  0  0
   67.9472   46.0676   52.1417 C   0  0  0  0  0  0  0  0  0  0  0  0
   68.6843   47.1117   51.6196 C   0  0  0  0  0  0  0  0  0  0  0  0
   69.4161   47.8921   52.4736 C   0  0  0  0  0  0  0  0  0  0  0  0
   69.4035   47.6294   53.7937 N   0  0  0  0  0  0  0  0  0  0  0  0
 17 18  2  0
 18 19  1  0
 18  1  1  0
 19 20  1  0
 20 21  1  0
 21 22  2  0
 21 26  1  0
 22 23  1  0
 23 24  2  0
 24 25  1  0
 25 26  2  0
  1  2  2  0
  1  6  1  0
  2  3  1  0
  3  4  2  0
  4  5  1  0
  5  6  2  0
  5  9  1  0
  6  7  1  0
  7  8  2  0
  8  9  1  0
  9 10  1  0
 10 11  2  0
 10 16  1  0
 11 12  1  0
 12 13  2  0
 13 14  1  0
 13 15  1  0
 15 16  2  0
M  END
>  <minimizedAffinity>  (143) 
-9.10871

$$$$
cs_full_output_folder/data/smiles/3301.pdb
     RDKit          3D

 23 25  0  0  0  0  0  0  0  0999 V2000
   68.4217   44.5167   56.1436 C   0  0  0  0  0  0  0  0  0  0  0  0
   67.6808   43.4177   56.0218 N   0  0  0  0  0  0  0  0  0  0  0  0
   67.9706   42.2088   56.5273 C   0  0  0  0  0  0  0  0  0  0  0  0
   69.1373   42.0674   57.2420 C   0  0  0  0  0  0  0  0  0  0  0  0
   69.4286   40.8499   57.7517 F   0  0  0  0  0  0  0  0  0  0  0  0
   69.9432   43.1765   57.3989 C   0  0  0  0  0  0  0  0  0  0  0  0
   69.5795   44.3296   56.8657 N   0  0  0  0  0  0  0  0  0  0  0  0
   71.1735   42.9868   58.1642 C   0  0  0  0  0  0  0  0  0  0  0  0
   72.2978   42.4838   57.5343 C   0  0  0  0  0  0  0  0  0  0  0  0
   73.4830   42.2898   58.2248 C   0  0  0  0  0  0  0  0  0  0  0  0
   73.5491   42.6033   59.5634 C   0  0  0  0  0  0  0  0  0  0  0  0
   72.4177   43.1044   60.1751 C   0  0  0  0  0  0  0  0  0  0  0  0
   71.2282   43.3064   59.5123 C   0  0  0  0  0  0  0  0  0  0  0  0
   68.1344   45.7928   55.6210 N   0  0  0  0  0  0  0  0  0  0  0  0
   69.2599   47.5937   52.5607 C   0  0  0  0  0  0  0  0  0  0  0  0
   68.5722   46.9325   51.5872 C   0  0  0  0  0  0  0  0  0  0  0  0
   67.7349   45.8873   51.9544 C   0  0  0  0  0  0  0  0  0  0  0  0
   67.6217   45.5497   53.2742 C   0  0  0  0  0  0  0  0  0  0  0  0
   68.3137   46.2081   54.3054 C   0  0  0  0  0  0  0  0  0  0  0  0
   69.1221   47.2256   53.8949 C   0  0  0  0  0  0  0  0  0  0  0  0
   69.8562   49.5278   51.0681 N   0  0  0  0  0  0  0  0  0  0  0  0
   70.1400   48.6879   52.2032 C   0  0  0  0  0  0  0  0  0  0  0  0
   71.1812   48.9715   52.8391 O   0  0  0  0  0  0  0  0  0  0  0  0
 21 22  1  0
 22 23  2  0
 22 15  1  0
 15 16  2  0
 15 20  1  0
 16 17  1  0
 17 18  2  0
 18 19  1  0
 19 14  1  0
 19 20  2  0
 14  1  1  0
  1  2  2  0
  1  7  1  0
  2  3  1  0
  3  4  2  0
  4  5  1  0
  4  6  1  0
  6  8  1  0
  6  7  2  0
  8  9  2  0
  8 13  1  0
  9 10  1  0
 10 11  2  0
 11 12  1  0
 12 13  2  0
M  END
>  <minimizedAffinity>  (144) 
-9.10854

$$$$
cs_full_output_folder/data/smiles/6074.pdb
     RDKit          3D

 24 25  0  0  0  0  0  0  0  0999 V2000
   68.4284   42.4169   56.8601 C   0  0  0  0  0  0  0  0  0  0  0  0
   67.3120   42.3115   56.2800 O   0  0  0  0  0  0  0  0  0  0  0  0
   69.0344   43.6948   56.8238 N   0  0  0  0  0  0  0  0  0  0  0  0
   70.1951   39.0720   58.7824 C   0  0  0  0  0  0  0  0  0  0  0  0
   70.9091   40.2355   58.6403 C   0  0  0  0  0  0  0  0  0  0  0  0
   70.3209   41.3042   58.0174 C   0  0  0  0  0  0  0  0  0  0  0  0
   69.0363   41.2434   57.5302 C   0  0  0  0  0  0  0  0  0  0  0  0
   68.3404   40.0676   57.6845 C   0  0  0  0  0  0  0  0  0  0  0  0
   68.9097   38.9590   58.3152 C   0  0  0  0  0  0  0  0  0  0  0  0
   69.8503   37.0534   60.1928 C   0  0  0  0  0  0  0  0  0  0  0  0
   70.8501   37.9117   59.4665 C   0  0  0  0  0  0  0  0  0  0  0  0
   71.8838   38.4895   60.4125 C   0  0  0  0  0  0  0  0  0  0  0  0
   71.5932   37.0451   58.4723 C   0  0  0  0  0  0  0  0  0  0  0  0
   68.4425   44.7933   56.1827 N   0  0  0  0  0  0  0  0  0  0  0  0
   69.0450   46.0703   56.3266 C   0  0  0  0  0  0  0  0  0  0  0  0
   70.0873   46.1627   57.0240 O   0  0  0  0  0  0  0  0  0  0  0  0
   68.4900   47.2970   55.6836 C   0  0  0  0  0  0  0  0  0  0  0  0
   68.6101   47.2274   54.2073 C   0  0  0  0  0  0  0  0  0  0  0  0
   69.4612   48.0396   53.4879 C   0  0  0  0  0  0  0  0  0  0  0  0
   69.5284   47.9291   52.1161 C   0  0  0  0  0  0  0  0  0  0  0  0
   68.7486   47.0059   51.4517 C   0  0  0  0  0  0  0  0  0  0  0  0
   67.8952   46.1883   52.1589 C   0  0  0  0  0  0  0  0  0  0  0  0
   67.1242   45.2734   51.4839 F   0  0  0  0  0  0  0  0  0  0  0  0
   67.8407   46.3120   53.5220 C   0  0  0  0  0  0  0  0  0  0  0  0
 10 11  1  0
 11 12  1  0
 11 13  1  0
 11  4  1  0
  4  5  2  0
  4  9  1  0
  5  6  1  0
  6  7  2  0
  7  1  1  0
  7  8  1  0
  1  2  2  0
  1  3  1  0
  3 14  1  0
 14 15  1  0
 15 16  2  0
 15 17  1  0
 17 18  1  0
 18 19  2  0
 18 24  1  0
 19 20  1  0
 20 21  2  0
 21 22  1  0
 22 23  1  0
 22 24  2  0
  8  9  2  0
M  END
>  <minimizedAffinity>  (145) 
-9.10641

$$$$
cs_full_output_folder/data/smiles/31.pdb
     RDKit          3D

 23 24  0  0  0  0  0  0  0  0999 V2000
   69.6081   47.7508   54.6963 C   0  0  0  0  0  0  0  0  0  0  0  0
   69.0969   47.5695   52.2782 C   0  0  0  0  0  0  0  0  0  0  0  0
   68.3898   47.0194   51.2526 N   0  0  0  0  0  0  0  0  0  0  0  0
   67.4719   46.0888   51.5324 C   0  0  0  0  0  0  0  0  0  0  0  0
   66.8189   45.5806   50.5720 O   0  0  0  0  0  0  0  0  0  0  0  0
   67.2198   45.6757   52.7895 N   0  0  0  0  0  0  0  0  0  0  0  0
   67.9170   46.2188   53.7964 C   0  0  0  0  0  0  0  0  0  0  0  0
   67.6538   45.8052   54.9586 O   0  0  0  0  0  0  0  0  0  0  0  0
   68.8995   47.2041   53.5829 C   0  0  0  0  0  0  0  0  0  0  0  0
   69.7707   49.4362   51.0203 O   0  0  0  0  0  0  0  0  0  0  0  0
   70.0995   48.5667   51.8920 C   0  0  0  0  0  0  0  0  0  0  0  0
   71.3689   48.6618   52.3718 O   0  0  0  0  0  0  0  0  0  0  0  0
   69.0147   48.5926   55.7449 C   0  0  0  0  0  0  0  0  0  0  0  0
   68.9592   50.0378   55.5590 C   0  0  0  0  0  0  0  0  0  0  0  0
   69.6311   50.6089   54.4693 C   0  0  0  0  0  0  0  0  0  0  0  0
   69.7128   51.9532   54.2282 C   0  0  0  0  0  0  0  0  0  0  0  0
   69.0951   52.8027   55.1134 C   0  0  0  0  0  0  0  0  0  0  0  0
   68.4289   52.2576   56.1907 C   0  0  0  0  0  0  0  0  0  0  0  0
   68.3442   50.8856   56.4376 C   0  0  0  0  0  0  0  0  0  0  0  0
   67.5447   50.4688   57.5838 C   0  0  0  0  0  0  0  0  0  0  0  0
   66.5453   51.4257   57.7982 F   0  0  0  0  0  0  0  0  0  0  0  0
   66.8810   49.2852   57.4333 F   0  0  0  0  0  0  0  0  0  0  0  0
   68.2431   50.4763   58.7695 F   0  0  0  0  0  0  0  0  0  0  0  0
 10 11  2  0
 11 12  1  0
 11  2  1  0
  2  3  1  0
  2  9  2  0
  3  4  1  0
  4  5  2  0
  4  6  1  0
  6  7  1  0
  7  8  2  0
  7  9  1  0
  9  1  1  0
  1 13  1  0
 13 14  1  0
 14 15  2  0
 14 19  1  0
 15 16  1  0
 16 17  2  0
 17 18  1  0
 18 19  2  0
 19 20  1  0
 20 21  1  0
 20 22  1  0
 20 23  1  0
M  END
>  <minimizedAffinity>  (146) 
-9.10581

$$$$
cs_full_output_folder/data/smiles/2299.pdb
     RDKit          3D

 25 27  0  0  0  0  0  0  0  0999 V2000
   70.5447   45.8843   58.0979 C   0  0  0  0  0  0  0  0  0  0  0  0
   69.7220   46.6708   57.3149 C   0  0  0  0  0  0  0  0  0  0  0  0
   69.9664   48.0088   57.0093 C   0  0  0  0  0  0  0  0  0  0  0  0
   71.1072   48.5395   57.5420 C   0  0  0  0  0  0  0  0  0  0  0  0
   71.9679   47.7765   58.3408 C   0  0  0  0  0  0  0  0  0  0  0  0
   71.6670   46.4345   58.6104 C   0  0  0  0  0  0  0  0  0  0  0  0
   72.5015   45.7052   59.3824 F   0  0  0  0  0  0  0  0  0  0  0  0
   70.0935   43.4713   57.3575 N   0  0  0  0  0  0  0  0  0  0  0  0
   70.1363   44.5169   58.3047 C   0  0  0  0  0  0  0  0  0  0  0  0
   69.7553   44.1554   59.4842 O   0  0  0  0  0  0  0  0  0  0  0  0
   69.6484   42.1285   57.6834 C   0  0  0  0  0  0  0  0  0  0  0  0
   67.6721   42.2956   56.2711 C   0  0  0  0  0  0  0  0  0  0  0  0
   68.2293   41.8980   57.3910 C   0  0  0  0  0  0  0  0  0  0  0  0
   68.9819   48.7482   56.1848 C   0  0  0  0  0  0  0  0  0  0  0  0
   69.3265   48.7151   54.7890 C   0  0  0  0  0  0  0  0  0  0  0  0
   70.1832   49.6304   54.2884 N   0  0  0  0  0  0  0  0  0  0  0  0
   70.5930   49.6291   53.0169 N   0  0  0  0  0  0  0  0  0  0  0  0
   70.1661   48.6972   52.1491 C   0  0  0  0  0  0  0  0  0  0  0  0
   70.5601   48.6970   50.9322 O   0  0  0  0  0  0  0  0  0  0  0  0
   69.2912   47.7242   52.5604 C   0  0  0  0  0  0  0  0  0  0  0  0
   68.8146   46.7678   51.6960 C   0  0  0  0  0  0  0  0  0  0  0  0
   67.9201   45.8281   52.1556 C   0  0  0  0  0  0  0  0  0  0  0  0
   67.5171   45.8640   53.4761 C   0  0  0  0  0  0  0  0  0  0  0  0
   67.9930   46.8217   54.3514 C   0  0  0  0  0  0  0  0  0  0  0  0
   68.8826   47.7536   53.8933 C   0  0  0  0  0  0  0  0  0  0  0  0
 12 13  2  0
 13 11  1  0
 11  8  1  0
  8  9  1  0
  9 10  2  0
  9  1  1  0
  1  2  2  0
  1  6  1  0
  2  3  1  0
  3 14  1  0
  3  4  2  0
 14 15  1  0
 15 16  2  0
 15 25  1  0
 16 17  1  0
 17 18  1  0
 18 19  2  0
 18 20  1  0
 20 21  1  0
 20 25  2  0
 21 22  2  0
 22 23  1  0
 23 24  2  0
 24 25  1  0
  4  5  1  0
  5  6  2  0
  6  7  1  0
M  END
>  <minimizedAffinity>  (147) 
-9.10323

$$$$
cs_full_output_folder/data/smiles/913.pdb
     RDKit          3D

 23 25  0  0  0  0  0  0  0  0999 V2000
   68.4995   44.3022   56.1522 N   0  0  0  0  0  0  0  0  0  0  0  0
   68.6163   42.9472   56.6701 C   0  0  0  0  0  0  0  0  0  0  0  0
   67.9536   42.1387   56.0057 O   0  0  0  0  0  0  0  0  0  0  0  0
   69.4176   42.6456   57.8080 C   0  0  0  0  0  0  0  0  0  0  0  0
   69.1638   43.4460   58.8469 O   0  0  0  0  0  0  0  0  0  0  0  0
   70.4305   41.7008   58.0964 C   0  0  0  0  0  0  0  0  0  0  0  0
   71.8097   42.0296   58.0196 C   0  0  0  0  0  0  0  0  0  0  0  0
   72.5389   40.9034   58.2422 N   0  0  0  0  0  0  0  0  0  0  0  0
   71.7203   39.8897   58.4566 C   0  0  0  0  0  0  0  0  0  0  0  0
   71.9685   38.5782   58.7388 C   0  0  0  0  0  0  0  0  0  0  0  0
   70.9222   37.6718   58.9566 C   0  0  0  0  0  0  0  0  0  0  0  0
   69.6169   38.1377   58.8799 C   0  0  0  0  0  0  0  0  0  0  0  0
   69.3755   39.4591   58.5925 C   0  0  0  0  0  0  0  0  0  0  0  0
   70.4333   40.3534   58.3753 C   0  0  0  0  0  0  0  0  0  0  0  0
   67.7249   44.6414   55.0625 N   0  0  0  0  0  0  0  0  0  0  0  0
   69.0353   47.7621   52.4622 C   0  0  0  0  0  0  0  0  0  0  0  0
   69.1801   47.8088   53.8751 C   0  0  0  0  0  0  0  0  0  0  0  0
   68.7410   46.8117   54.7126 C   0  0  0  0  0  0  0  0  0  0  0  0
   68.1282   45.7117   54.1974 C   0  0  0  0  0  0  0  0  0  0  0  0
   67.9656   45.6319   52.8346 C   0  0  0  0  0  0  0  0  0  0  0  0
   68.3918   46.6034   51.9632 C   0  0  0  0  0  0  0  0  0  0  0  0
   69.9573   49.6090   50.9794 N   0  0  0  0  0  0  0  0  0  0  0  0
   69.5053   48.6864   51.7122 N   0  0  0  0  0  0  0  0  0  0  0  0
 22 23  3  0
 23 16  1  0
 16 17  2  0
 16 21  1  0
 17 18  1  0
 18 19  2  0
 19 15  1  0
 19 20  1  0
 15  1  1  0
  1  2  1  0
  2  3  2  0
  2  4  1  0
  4  5  2  0
  4  6  1  0
  6  7  2  0
  6 14  1  0
  7  8  1  0
  8  9  1  0
  9 10  1  0
  9 14  2  0
 10 11  2  0
 11 12  1  0
 12 13  2  0
 13 14  1  0
 20 21  2  0
M  CHG  1  23   1
M  END
>  <minimizedAffinity>  (148) 
-9.09891

$$$$
cs_full_output_folder/data/smiles/4294.pdb
     RDKit          3D

 25 27  0  0  0  0  0  0  0  0999 V2000
   69.5995   44.5694   57.3382 C   0  0  0  0  0  0  0  0  0  0  0  0
   70.1747   45.4723   58.0189 O   0  0  0  0  0  0  0  0  0  0  0  0
   68.7854   45.0408   56.2932 N   0  0  0  0  0  0  0  0  0  0  0  0
   67.9004   41.7926   56.6025 C   0  0  0  0  0  0  0  0  0  0  0  0
   69.1620   42.0700   57.3889 C   0  0  0  0  0  0  0  0  0  0  0  0
   69.8054   43.1477   57.6611 C   0  0  0  0  0  0  0  0  0  0  0  0
   70.8443   42.4462   58.3770 C   0  0  0  0  0  0  0  0  0  0  0  0
   70.0521   41.3045   58.1128 N   0  0  0  0  0  0  0  0  0  0  0  0
   70.1809   39.9357   58.4666 C   0  0  0  0  0  0  0  0  0  0  0  0
   71.3985   39.2706   58.2205 C   0  0  0  0  0  0  0  0  0  0  0  0
   71.6422   37.9761   58.5248 C   0  0  0  0  0  0  0  0  0  0  0  0
   70.6264   37.2460   59.1228 C   0  0  0  0  0  0  0  0  0  0  0  0
   70.8454   35.9419   59.4387 F   0  0  0  0  0  0  0  0  0  0  0  0
   69.4079   37.8320   59.3933 C   0  0  0  0  0  0  0  0  0  0  0  0
   69.2179   39.1664   59.0569 C   0  0  0  0  0  0  0  0  0  0  0  0
   68.5937   46.4310   55.9785 C   0  0  0  0  0  0  0  0  0  0  0  0
   68.5995   46.5860   54.5070 C   0  0  0  0  0  0  0  0  0  0  0  0
   67.8683   45.6993   53.7037 C   0  0  0  0  0  0  0  0  0  0  0  0
   67.8331   45.8217   52.3319 C   0  0  0  0  0  0  0  0  0  0  0  0
   68.5201   46.8281   51.6906 C   0  0  0  0  0  0  0  0  0  0  0  0
   69.2430   47.7081   52.4583 C   0  0  0  0  0  0  0  0  0  0  0  0
   69.2774   47.5823   53.8549 C   0  0  0  0  0  0  0  0  0  0  0  0
   69.9800   48.7812   51.8243 C   0  0  0  0  0  0  0  0  0  0  0  0
   69.9316   50.1275   52.2625 N   0  0  0  0  0  0  0  0  0  0  0  0
   70.7097   48.5292   50.8279 O   0  0  0  0  0  0  0  0  0  0  0  0
  4  5  1  0
  5  6  2  0
  5  8  1  0
  6  1  1  0
  6  7  1  0
  1  2  2  0
  1  3  1  0
  3 16  1  0
 16 17  1  0
 17 18  2  0
 17 22  1  0
 18 19  1  0
 19 20  2  0
 20 21  1  0
 21 23  1  0
 21 22  2  0
 23 24  1  0
 23 25  2  0
  7  8  1  0
  8  9  1  0
  9 10  2  0
  9 15  1  0
 10 11  1  0
 11 12  2  0
 12 13  1  0
 12 14  1  0
 14 15  2  0
M  END
>  <minimizedAffinity>  (149) 
-9.09891

$$$$
cs_full_output_folder/data/smiles/444.pdb
     RDKit          3D

 24 26  0  0  0  0  0  0  0  0999 V2000
   67.2734   47.5650   57.0896 O   0  0  0  0  0  0  0  0  0  0  0  0
   68.3842   47.6464   56.5819 C   0  0  0  0  0  0  0  0  0  0  0  0
   68.5386   47.4992   55.1252 C   0  0  0  0  0  0  0  0  0  0  0  0
   67.7753   46.5374   54.4900 C   0  0  0  0  0  0  0  0  0  0  0  0
   67.8949   46.3395   53.1351 C   0  0  0  0  0  0  0  0  0  0  0  0
   67.1236   45.3714   52.5083 O   0  0  0  0  0  0  0  0  0  0  0  0
   68.7608   47.0730   52.3592 C   0  0  0  0  0  0  0  0  0  0  0  0
   68.8812   46.8707   50.9698 O   0  0  0  0  0  0  0  0  0  0  0  0
   69.5120   48.0265   53.0079 C   0  0  0  0  0  0  0  0  0  0  0  0
   69.4076   48.2401   54.3683 C   0  0  0  0  0  0  0  0  0  0  0  0
   70.4158   48.7993   52.2193 N   0  0  0  0  0  0  0  0  0  0  0  0
   71.6204   48.8970   52.5117 O   0  0  0  0  0  0  0  0  0  0  0  0
   69.9691   49.4537   51.1063 O   0  0  0  0  0  0  0  0  0  0  0  0
   69.5703   47.8997   57.4526 C   0  0  0  0  0  0  0  0  0  0  0  0
   70.3671   46.7226   57.7483 C   0  0  0  0  0  0  0  0  0  0  0  0
   71.6263   46.8161   58.2670 C   0  0  0  0  0  0  0  0  0  0  0  0
   72.4058   45.6844   58.5368 C   0  0  0  0  0  0  0  0  0  0  0  0
   71.9039   44.4277   58.2750 C   0  0  0  0  0  0  0  0  0  0  0  0
   72.6762   43.3141   58.5419 C   0  0  0  0  0  0  0  0  0  0  0  0
   72.1656   42.0801   58.2779 C   0  0  0  0  0  0  0  0  0  0  0  0
   70.9002   41.9205   57.7512 C   0  0  0  0  0  0  0  0  0  0  0  0
   70.1603   43.0695   57.4984 C   0  0  0  0  0  0  0  0  0  0  0  0
   70.6176   44.3423   57.7430 C   0  0  0  0  0  0  0  0  0  0  0  0
   69.8551   45.4656   57.4813 C   0  0  0  0  0  0  0  0  0  0  0  0
  1  2  2  0
  2 14  1  0
  2  3  1  0
 14 15  1  0
 15 16  2  0
 15 24  1  0
 16 17  1  0
 17 18  2  0
 18 19  1  0
 18 23  1  0
 19 20  2  0
 20 21  1  0
 21 22  2  0
 22 23  1  0
 23 24  2  0
  3  4  2  0
  3 10  1  0
  4  5  1  0
  5  6  1  0
  5  7  2  0
  7  8  1  0
  7  9  1  0
  9 11  1  0
  9 10  2  0
 11 12  2  0
 11 13  1  0
M  CHG  2  11   1  13  -1
M  END
>  <minimizedAffinity>  (150) 
-9.09759

$$$$
cs_full_output_folder/data/smiles/9228.pdb
     RDKit          3D

 24 26  0  0  0  0  0  0  0  0999 V2000
   68.2891   44.8920   55.7246 N   0  0  0  0  0  0  0  0  0  0  0  0
   68.9755   44.1180   56.6867 C   0  0  0  0  0  0  0  0  0  0  0  0
   69.8467   44.7331   57.3868 O   0  0  0  0  0  0  0  0  0  0  0  0
   68.7278   42.6956   56.8960 C   0  0  0  0  0  0  0  0  0  0  0  0
   67.7720   41.9544   56.2329 C   0  0  0  0  0  0  0  0  0  0  0  0
   67.8539   40.6929   56.7064 N   0  0  0  0  0  0  0  0  0  0  0  0
   68.7945   40.5759   57.6256 N   0  0  0  0  0  0  0  0  0  0  0  0
   69.3369   41.8114   57.7458 C   0  0  0  0  0  0  0  0  0  0  0  0
   70.3416   42.0912   58.5988 F   0  0  0  0  0  0  0  0  0  0  0  0
   69.1947   39.4221   58.3606 C   0  0  0  0  0  0  0  0  0  0  0  0
   68.3817   38.7665   59.2605 C   0  0  0  0  0  0  0  0  0  0  0  0
   68.7814   37.6524   59.9698 C   0  0  0  0  0  0  0  0  0  0  0  0
   70.0522   37.1418   59.7932 C   0  0  0  0  0  0  0  0  0  0  0  0
   70.8893   37.7786   58.8973 C   0  0  0  0  0  0  0  0  0  0  0  0
   70.4630   38.9035   58.1930 C   0  0  0  0  0  0  0  0  0  0  0  0
   68.4577   46.2772   55.4537 C   0  0  0  0  0  0  0  0  0  0  0  0
   69.3992   47.7015   52.1232 C   0  0  0  0  0  0  0  0  0  0  0  0
   68.5937   46.9682   51.3058 C   0  0  0  0  0  0  0  0  0  0  0  0
   67.7229   46.0036   51.7574 C   0  0  0  0  0  0  0  0  0  0  0  0
   67.6872   45.7879   53.1425 C   0  0  0  0  0  0  0  0  0  0  0  0
   68.4812   46.5041   53.9979 C   0  0  0  0  0  0  0  0  0  0  0  0
   69.3443   47.4713   53.4700 C   0  0  0  0  0  0  0  0  0  0  0  0
   69.7826   49.6960   50.9674 O   0  0  0  0  0  0  0  0  0  0  0  0
   70.2652   48.6788   51.5394 N   0  0  0  0  0  0  0  0  0  0  0  0
 23 24  2  0
 24 17  1  0
 17 18  2  0
 17 22  1  0
 18 19  1  0
 19 20  2  0
 20 21  1  0
 21 16  1  0
 21 22  2  0
 16  1  1  0
  1  2  1  0
  2  3  2  0
  2  4  1  0
  4  5  1  0
  4  8  2  0
  5  6  2  0
  6  7  1  0
  7 10  1  0
  7  8  1  0
 10 11  2  0
 10 15  1  0
 11 12  1  0
 12 13  2  0
 13 14  1  0
 14 15  2  0
  8  9  1  0
M  END
>  <minimizedAffinity>  (151) 
-9.09118

$$$$
cs_full_output_folder/data/smiles/155.pdb
     RDKit          3D

 22 24  0  0  0  0  0  0  0  0999 V2000
   71.5367   49.6626   54.7305 O   0  0  0  0  0  0  0  0  0  0  0  0
   72.2042   50.4991   56.7068 O   0  0  0  0  0  0  0  0  0  0  0  0
   71.2424   50.1690   55.9661 C   0  0  0  0  0  0  0  0  0  0  0  0
   69.8850   50.3486   56.4724 C   0  0  0  0  0  0  0  0  0  0  0  0
   69.2963   51.5945   56.5412 C   0  0  0  0  0  0  0  0  0  0  0  0
   68.0056   51.7699   57.0213 C   0  0  0  0  0  0  0  0  0  0  0  0
   67.2541   50.6966   57.4519 C   0  0  0  0  0  0  0  0  0  0  0  0
   65.9832   50.8567   57.9271 F   0  0  0  0  0  0  0  0  0  0  0  0
   67.8391   49.4508   57.3839 C   0  0  0  0  0  0  0  0  0  0  0  0
   67.1041   48.3936   57.8053 F   0  0  0  0  0  0  0  0  0  0  0  0
   69.1351   49.2754   56.9014 C   0  0  0  0  0  0  0  0  0  0  0  0
   70.7679   49.9080   53.5887 C   0  0  0  0  0  0  0  0  0  0  0  0
   70.5439   51.1414   53.3526 O   0  0  0  0  0  0  0  0  0  0  0  0
   70.2635   48.8639   52.7369 C   0  0  0  0  0  0  0  0  0  0  0  0
   70.5510   48.6640   51.4519 N   0  0  0  0  0  0  0  0  0  0  0  0
   69.8903   47.5965   51.0005 N   0  0  0  0  0  0  0  0  0  0  0  0
   69.1530   47.0703   51.9819 C   0  0  0  0  0  0  0  0  0  0  0  0
   68.3007   45.9929   52.0699 C   0  0  0  0  0  0  0  0  0  0  0  0
   67.6510   45.6611   53.2266 C   0  0  0  0  0  0  0  0  0  0  0  0
   67.8792   46.4588   54.3373 C   0  0  0  0  0  0  0  0  0  0  0  0
   68.7229   47.5317   54.2639 C   0  0  0  0  0  0  0  0  0  0  0  0
   69.3855   47.8784   53.1051 C   0  0  0  0  0  0  0  0  0  0  0  0
  2  3  2  0
  3  1  1  0
  3  4  1  0
  1 12  1  0
 12 13  2  0
 12 14  1  0
 14 15  1  0
 14 22  2  0
 15 16  1  0
 16 17  2  0
 17 18  1  0
 17 22  1  0
 18 19  2  0
 19 20  1  0
 20 21  2  0
 21 22  1  0
  4  5  2  0
  4 11  1  0
  5  6  1  0
  6  7  2  0
  7  8  1  0
  7  9  1  0
  9 10  1  0
  9 11  2  0
M  END
>  <minimizedAffinity>  (152) 
-9.09013

$$$$
cs_full_output_folder/data/smiles/253.pdb
     RDKit          3D

 26 29  0  0  0  0  0  0  0  0999 V2000
   68.9167   47.8339   53.5948 C   0  0  0  0  0  0  0  0  0  0  0  0
   69.0827   47.8090   54.9716 C   0  0  0  0  0  0  0  0  0  0  0  0
   68.7850   46.6627   55.6596 C   0  0  0  0  0  0  0  0  0  0  0  0
   68.3207   45.5281   55.0065 C   0  0  0  0  0  0  0  0  0  0  0  0
   68.1815   45.6171   53.6791 N   0  0  0  0  0  0  0  0  0  0  0  0
   68.4593   46.7149   52.9610 C   0  0  0  0  0  0  0  0  0  0  0  0
   69.2370   49.0953   52.8760 C   0  0  0  0  0  0  0  0  0  0  0  0
   73.1855   52.0881   55.2623 O   0  0  0  0  0  0  0  0  0  0  0  0
   72.2746   51.4038   54.7268 C   0  0  0  0  0  0  0  0  0  0  0  0
   72.5394   50.2931   54.0126 N   0  0  0  0  0  0  0  0  0  0  0  0
   71.5947   49.5711   53.4467 N   0  0  0  0  0  0  0  0  0  0  0  0
   70.2695   49.9061   53.5491 C   0  0  0  0  0  0  0  0  0  0  0  0
   69.9840   51.0329   54.2733 C   0  0  0  0  0  0  0  0  0  0  0  0
   70.9858   51.7987   54.8716 C   0  0  0  0  0  0  0  0  0  0  0  0
   70.5746   53.0169   55.6287 C   0  0  0  0  0  0  0  0  0  0  0  0
   69.3790   52.7731   56.4888 C   0  0  0  0  0  0  0  0  0  0  0  0
   68.3864   51.8303   55.9197 C   0  0  0  0  0  0  0  0  0  0  0  0
   68.5952   51.4768   54.4656 C   0  0  0  0  0  0  0  0  0  0  0  0
   68.0515   44.3682   55.7865 N   0  0  0  0  0  0  0  0  0  0  0  0
   69.1244   43.9942   56.7180 C   0  0  0  0  0  0  0  0  0  0  0  0
   68.9536   42.5579   57.0548 C   0  0  0  0  0  0  0  0  0  0  0  0
   67.9055   41.8237   56.4680 C   0  0  0  0  0  0  0  0  0  0  0  0
   67.7817   40.5095   56.8071 C   0  0  0  0  0  0  0  0  0  0  0  0
   68.6204   39.9055   57.6728 N   0  0  0  0  0  0  0  0  0  0  0  0
   69.6240   40.6241   58.2279 C   0  0  0  0  0  0  0  0  0  0  0  0
   69.8043   41.9465   57.9318 C   0  0  0  0  0  0  0  0  0  0  0  0
  8  9  2  0
  9 10  1  0
  9 14  1  0
 10 11  1  0
 11 12  2  0
 12  7  1  0
 12 13  1  0
  7  1  1  0
  1  2  2  0
  1  6  1  0
  2  3  1  0
  3  4  2  0
  4 19  1  0
  4  5  1  0
 19 20  1  0
 20 21  1  0
 21 22  2  0
 21 26  1  0
 22 23  1  0
 23 24  2  0
 24 25  1  0
 25 26  2  0
  5  6  2  0
 13 14  2  0
 13 18  1  0
 14 15  1  0
 15 16  1  0
 16 17  1  0
 17 18  1  0
M  END
>  <minimizedAffinity>  (153) 
-9.09013

$$$$
cs_full_output_folder/data/smiles/8382.pdb
     RDKit          3D

 24 26  0  0  0  0  0  0  0  0999 V2000
   68.9045   45.9319   56.9297 O   0  0  0  0  0  0  0  0  0  0  0  0
   69.2306   46.9108   56.2203 C   0  0  0  0  0  0  0  0  0  0  0  0
   68.9049   46.8702   54.8035 C   0  0  0  0  0  0  0  0  0  0  0  0
   68.0929   45.8753   54.2775 C   0  0  0  0  0  0  0  0  0  0  0  0
   67.8379   45.9165   52.9313 C   0  0  0  0  0  0  0  0  0  0  0  0
   67.0266   44.9437   52.3363 O   0  0  0  0  0  0  0  0  0  0  0  0
   68.3522   46.8873   52.1246 C   0  0  0  0  0  0  0  0  0  0  0  0
   68.0974   46.9349   50.7560 O   0  0  0  0  0  0  0  0  0  0  0  0
   69.1596   47.8728   52.6581 C   0  0  0  0  0  0  0  0  0  0  0  0
   69.4262   47.8527   53.9940 C   0  0  0  0  0  0  0  0  0  0  0  0
   69.6941   48.8838   51.8141 N   0  0  1  0  0  0  0  0  0  0  0  0
   70.1581   49.8770   52.6037 O   0  0  0  0  0  0  0  0  0  0  0  0
   70.7304   48.3304   51.1443 F   0  0  0  0  0  0  0  0  0  0  0  0
   69.9249   48.0597   56.8195 C   0  0  0  0  0  0  0  0  0  0  0  0
   68.9703   49.1587   57.0040 C   0  0  0  0  0  0  0  0  0  0  0  0
   67.7610   48.9627   57.6252 C   0  0  0  0  0  0  0  0  0  0  0  0
   66.8489   50.0008   57.8051 C   0  0  0  0  0  0  0  0  0  0  0  0
   67.1736   51.2770   57.3397 C   0  0  0  0  0  0  0  0  0  0  0  0
   68.3795   51.4809   56.7171 C   0  0  0  0  0  0  0  0  0  0  0  0
   68.6945   52.7342   56.2615 C   0  0  0  0  0  0  0  0  0  0  0  0
   69.9127   52.9716   55.6252 C   0  0  0  0  0  0  0  0  0  0  0  0
   70.8155   51.9378   55.4493 C   0  0  0  0  0  0  0  0  0  0  0  0
   70.4545   50.6954   55.9238 C   0  0  0  0  0  0  0  0  0  0  0  0
   69.2587   50.4306   56.5563 C   0  0  0  0  0  0  0  0  0  0  0  0
  1  2  2  0
  2 14  1  0
  2  3  1  0
 14 15  1  0
 15 16  2  0
 15 24  1  0
 16 17  1  0
 17 18  2  0
 18 19  1  0
 19 20  1  0
 19 24  2  0
 20 21  2  0
 21 22  1  0
 22 23  2  0
 23 24  1  0
  3  4  2  0
  3 10  1  0
  4  5  1  0
  5  6  1  0
  5  7  2  0
  7  8  1  0
  7  9  1  0
  9 11  1  0
  9 10  2  0
 11 12  1  1
 11 13  1  0
M  CHG  2  11   1  12  -1
M  END
>  <minimizedAffinity>  (154) 
-9.08845

$$$$
cs_full_output_folder/data/smiles/4584.pdb
     RDKit          3D

 24 27  0  0  0  0  0  0  0  0999 V2000
   69.8307   51.3676   54.4257 C   0  0  0  0  0  0  0  0  0  0  0  0
   68.6763   52.0259   54.7926 C   0  0  0  0  0  0  0  0  0  0  0  0
   68.6972   53.1034   55.6475 C   0  0  0  0  0  0  0  0  0  0  0  0
   69.9339   53.5349   56.1530 C   0  0  0  0  0  0  0  0  0  0  0  0
   69.9215   54.5944   57.0094 F   0  0  0  0  0  0  0  0  0  0  0  0
   71.1074   52.9103   55.8157 C   0  0  0  0  0  0  0  0  0  0  0  0
   71.0171   51.8177   54.9400 C   0  0  0  0  0  0  0  0  0  0  0  0
   69.4781   46.9069   51.0315 N   0  0  0  0  0  0  0  0  0  0  0  0
   69.5649   48.0293   51.8861 C   0  0  0  0  0  0  0  0  0  0  0  0
   69.9740   49.2329   51.4564 N   0  0  0  0  0  0  0  0  0  0  0  0
   70.0538   50.2783   52.2544 N   0  0  0  0  0  0  0  0  0  0  0  0
   69.7280   50.2172   53.5699 C   0  0  0  0  0  0  0  0  0  0  0  0
   69.3052   49.0011   54.0546 C   0  0  0  0  0  0  0  0  0  0  0  0
   68.9648   48.8120   55.3883 C   0  0  0  0  0  0  0  0  0  0  0  0
   68.5500   47.6058   55.9135 C   0  0  0  0  0  0  0  0  0  0  0  0
   68.4706   46.5251   55.0603 C   0  0  0  0  0  0  0  0  0  0  0  0
   68.8038   46.6800   53.7303 C   0  0  0  0  0  0  0  0  0  0  0  0
   69.2207   47.9013   53.2156 C   0  0  0  0  0  0  0  0  0  0  0  0
   72.3680   53.3483   56.2947 N   0  0  0  0  0  0  0  0  0  0  0  0
   72.9863   53.0427   57.5639 C   0  0  0  0  0  0  0  0  0  0  0  0
   73.5243   54.4330   57.9603 C   0  0  0  0  0  0  0  0  0  0  0  0
   74.1168   54.9190   56.6817 C   0  0  0  0  0  0  0  0  0  0  0  0
   73.3126   54.2238   55.6440 C   0  0  0  0  0  0  0  0  0  0  0  0
   73.3873   54.3295   54.3948 O   0  0  0  0  0  0  0  0  0  0  0  0
  8  9  1  0
  9 10  2  0
  9 18  1  0
 10 11  1  0
 11 12  2  0
 12  1  1  0
 12 13  1  0
  1  2  2  0
  1  7  1  0
  2  3  1  0
  3  4  2  0
  4  5  1  0
  4  6  1  0
  6 19  1  0
  6  7  2  0
 19 20  1  0
 19 23  1  0
 20 21  1  0
 21 22  1  0
 22 23  1  0
 23 24  2  0
 13 14  1  0
 13 18  2  0
 14 15  2  0
 15 16  1  0
 16 17  2  0
 17 18  1  0
M  END
>  <minimizedAffinity>  (155) 
-9.08841

$$$$
cs_full_output_folder/data/smiles/2351.pdb
     RDKit          3D

 25 28  0  0  0  0  0  0  0  0999 V2000
   71.2082   47.0733   58.5488 C   0  0  0  0  0  0  0  0  0  0  0  0
   71.0880   45.7153   58.5920 C   0  0  0  0  0  0  0  0  0  0  0  0
   70.2275   45.1166   57.6860 C   0  0  0  0  0  0  0  0  0  0  0  0
   69.5480   45.9239   56.7985 C   0  0  0  0  0  0  0  0  0  0  0  0
   69.6419   47.2578   56.7255 N   0  0  0  0  0  0  0  0  0  0  0  0
   70.4969   47.8196   57.6339 C   0  0  0  0  0  0  0  0  0  0  0  0
   70.6081   49.0777   57.5967 O   0  0  0  0  0  0  0  0  0  0  0  0
   70.0756   43.6645   57.7061 C   0  0  0  0  0  0  0  0  0  0  0  0
   71.0982   42.9365   57.8740 O   0  0  0  0  0  0  0  0  0  0  0  0
   68.8447   42.9801   57.5478 N   0  0  0  0  0  0  0  0  0  0  0  0
   68.7963   41.5134   57.5834 C   0  0  0  0  0  0  0  0  0  0  0  0
   67.8440   40.7911   56.7071 C   0  0  0  0  0  0  0  0  0  0  0  0
   67.4889   40.9574   58.1326 C   0  0  0  0  0  0  0  0  0  0  0  0
   71.7689   47.9078   60.6887 O   0  0  0  0  0  0  0  0  0  0  0  0
   72.1037   47.7541   59.4865 C   0  0  0  0  0  0  0  0  0  0  0  0
   68.9110   48.0949   55.7976 C   0  0  0  0  0  0  0  0  0  0  0  0
   68.7924   47.5138   54.4475 C   0  0  0  0  0  0  0  0  0  0  0  0
   67.8855   46.4602   54.2675 C   0  0  0  0  0  0  0  0  0  0  0  0
   67.7016   45.8953   53.0268 C   0  0  0  0  0  0  0  0  0  0  0  0
   68.4015   46.3493   51.9385 C   0  0  0  0  0  0  0  0  0  0  0  0
   69.2928   47.3758   52.0895 C   0  0  0  0  0  0  0  0  0  0  0  0
   70.1038   47.9902   51.2232 N   0  0  0  0  0  0  0  0  0  0  0  0
   70.7833   48.9072   51.8663 N   0  0  0  0  0  0  0  0  0  0  0  0
   70.4361   48.9223   53.1797 C   0  0  0  0  0  0  0  0  0  0  0  0
   69.4866   47.9555   53.3459 C   0  0  0  0  0  0  0  0  0  0  0  0
 14 15  2  0
 15  1  1  0
  1  2  2  0
  1  6  1  0
  2  3  1  0
  3  8  1  0
  3  4  2  0
  8  9  2  0
  8 10  1  0
 10 11  1  0
 11 12  1  0
 11 13  1  0
 12 13  1  0
  4  5  1  0
  5 16  1  0
  5  6  1  0
 16 17  1  0
 17 18  2  0
 17 25  1  0
 18 19  1  0
 19 20  2  0
 20 21  1  0
 21 22  1  0
 21 25  2  0
 22 23  1  0
 23 24  2  0
 24 25  1  0
  6  7  2  0
M  END
>  <minimizedAffinity>  (156) 
-9.08677

$$$$
cs_full_output_folder/data/smiles/726.pdb
     RDKit          3D

 25 27  0  0  0  0  0  0  0  0999 V2000
   68.0216   41.9146   56.7185 C   0  0  0  0  0  0  0  0  0  0  0  0
   68.6817   43.0814   56.4147 C   0  0  0  0  0  0  0  0  0  0  0  0
   67.9177   43.8112   55.5480 C   0  0  0  0  0  0  0  0  0  0  0  0
   66.8098   43.0553   55.3525 N   0  0  0  0  0  0  0  0  0  0  0  0
   66.8746   41.9367   56.0446 N   0  0  0  0  0  0  0  0  0  0  0  0
   68.2042   45.1060   54.9551 C   0  0  0  0  0  0  0  0  0  0  0  0
   67.9657   45.3009   53.5885 C   0  0  0  0  0  0  0  0  0  0  0  0
   68.2125   46.5000   52.9556 C   0  0  0  0  0  0  0  0  0  0  0  0
   67.9823   46.6893   51.6334 F   0  0  0  0  0  0  0  0  0  0  0  0
   68.7156   47.5460   53.7071 C   0  0  0  0  0  0  0  0  0  0  0  0
   68.9612   47.3949   55.0424 C   0  0  0  0  0  0  0  0  0  0  0  0
   68.7010   46.1685   55.6551 C   0  0  0  0  0  0  0  0  0  0  0  0
   68.9647   46.0562   57.0144 O   0  0  0  0  0  0  0  0  0  0  0  0
   67.7060   39.9569   57.9813 O   0  0  0  0  0  0  0  0  0  0  0  0
   68.4967   40.8369   57.6226 C   0  0  0  0  0  0  0  0  0  0  0  0
   69.8371   40.8001   58.0785 N   0  0  0  0  0  0  0  0  0  0  0  0
   70.4192   39.8388   58.9638 C   0  0  0  0  0  0  0  0  0  0  0  0
   71.6300   39.1268   58.5076 C   0  0  0  0  0  0  0  0  0  0  0  0
   71.7139   37.6860   58.5731 C   0  0  0  0  0  0  0  0  0  0  0  0
   71.0364   37.0169   59.5688 C   0  0  0  0  0  0  0  0  0  0  0  0
   71.0429   35.6465   59.6408 C   0  0  0  0  0  0  0  0  0  0  0  0
   71.7488   34.9228   58.6894 C   0  0  0  0  0  0  0  0  0  0  0  0
   71.7439   33.5639   58.7764 F   0  0  0  0  0  0  0  0  0  0  0  0
   72.4344   35.5647   57.6823 C   0  0  0  0  0  0  0  0  0  0  0  0
   72.4102   36.9376   57.6355 C   0  0  0  0  0  0  0  0  0  0  0  0
 14 15  2  0
 15 16  1  0
 15  1  1  0
 16 17  1  0
 17 18  1  0
 18 19  1  0
 19 20  2  0
 19 25  1  0
 20 21  1  0
 21 22  2  0
 22 23  1  0
 22 24  1  0
 24 25  2  0
  1  2  2  0
  1  5  1  0
  2  3  1  0
  3  6  1  0
  3  4  2  0
  6  7  2  0
  6 12  1  0
  7  8  1  0
  8  9  1  0
  8 10  2  0
 10 11  1  0
 11 12  2  0
 12 13  1  0
  4  5  1  0
M  END
>  <minimizedAffinity>  (157) 
-9.08594

$$$$
cs_full_output_folder/data/smiles/4646.pdb
     RDKit          3D

 24 26  0  0  0  0  0  0  0  0999 V2000
   68.4272   47.4805   56.3823 C   0  0  0  0  0  0  0  0  0  0  0  0
   69.1417   46.6012   57.0146 O   0  0  0  0  0  0  0  0  0  0  0  0
   68.9341   47.8564   55.0950 C   0  0  0  0  0  0  0  0  0  0  0  0
   69.8164   48.9315   54.9634 C   0  0  0  0  0  0  0  0  0  0  0  0
   70.3039   49.3230   53.7485 C   0  0  0  0  0  0  0  0  0  0  0  0
   71.2069   50.4302   53.6369 N   0  0  0  0  0  0  0  0  0  0  0  0
   69.9600   48.6886   52.5880 C   0  0  0  0  0  0  0  0  0  0  0  0
   70.4303   49.0541   51.3389 O   0  0  0  0  0  0  0  0  0  0  0  0
   69.0907   47.6215   52.6787 C   0  0  0  0  0  0  0  0  0  0  0  0
   68.7308   46.9605   51.5180 C   0  0  0  0  0  0  0  0  0  0  0  0
   67.8732   45.8946   51.5815 C   0  0  0  0  0  0  0  0  0  0  0  0
   67.3493   45.4516   52.7728 C   0  0  0  0  0  0  0  0  0  0  0  0
   67.7257   46.1349   53.9352 C   0  0  0  0  0  0  0  0  0  0  0  0
   68.5862   47.2133   53.9218 C   0  0  0  0  0  0  0  0  0  0  0  0
   67.3344   47.8679   57.0778 O   0  0  0  0  0  0  0  0  0  0  0  0
   67.3542   48.7852   58.1455 C   0  0  0  0  0  0  0  0  0  0  0  0
   66.8067   50.1032   57.6976 C   0  0  0  0  0  0  0  0  0  0  0  0
   71.1859   53.2927   55.9916 C   0  0  0  0  0  0  0  0  0  0  0  0
   69.9983   52.4652   56.3899 C   0  0  0  0  0  0  0  0  0  0  0  0
   70.1247   51.7169   57.5359 C   0  0  0  0  0  0  0  0  0  0  0  0
   69.0699   50.9564   57.9264 C   0  0  0  0  0  0  0  0  0  0  0  0
   67.9071   50.9419   57.1831 C   0  0  0  0  0  0  0  0  0  0  0  0
   67.7814   51.6859   56.0444 C   0  0  0  0  0  0  0  0  0  0  0  0
   68.8473   52.4624   55.6392 C   0  0  0  0  0  0  0  0  0  0  0  0
 18 19  1  0
 19 20  2  0
 19 24  1  0
 20 21  1  0
 21 22  2  0
 22 17  1  0
 22 23  1  0
 17 16  1  0
 16 15  1  0
 15  1  1  0
  1  2  2  0
  1  3  1  0
  3  4  2  0
  3 14  1  0
  4  5  1  0
  5  6  1  0
  5  7  2  0
  7  8  1  0
  7  9  1  0
  9 10  1  0
  9 14  2  0
 10 11  2  0
 11 12  1  0
 12 13  2  0
 13 14  1  0
 23 24  2  0
M  END
>  <minimizedAffinity>  (158) 
-9.08305

$$$$
cs_full_output_folder/data/smiles/7755.pdb
     RDKit          3D

 24 26  0  0  0  0  0  0  0  0999 V2000
   72.3162   45.9706   58.6223 C   0  0  0  0  0  0  0  0  0  0  0  0
   71.1394   45.2845   58.0427 C   0  0  0  0  0  0  0  0  0  0  0  0
   70.2180   46.0416   57.3484 C   0  0  0  0  0  0  0  0  0  0  0  0
   69.1256   45.3940   56.8120 C   0  0  0  0  0  0  0  0  0  0  0  0
   68.9654   44.0586   56.9651 N   0  0  0  0  0  0  0  0  0  0  0  0
   69.8711   43.3337   57.6436 C   0  0  0  0  0  0  0  0  0  0  0  0
   70.9388   43.9509   58.1708 N   0  0  0  0  0  0  0  0  0  0  0  0
   69.6617   41.8881   57.7883 C   0  0  0  0  0  0  0  0  0  0  0  0
   68.4873   41.2916   57.3909 C   0  0  0  0  0  0  0  0  0  0  0  0
   68.2764   39.9273   57.5209 C   0  0  0  0  0  0  0  0  0  0  0  0
   69.2558   39.1178   58.0616 C   0  0  0  0  0  0  0  0  0  0  0  0
   70.4347   39.7137   58.4601 C   0  0  0  0  0  0  0  0  0  0  0  0
   70.6381   41.0774   58.3272 C   0  0  0  0  0  0  0  0  0  0  0  0
   68.1896   46.1598   56.1062 O   0  0  0  0  0  0  0  0  0  0  0  0
   68.3283   46.3760   54.7410 C   0  0  0  0  0  0  0  0  0  0  0  0
   67.8612   45.4491   53.8065 C   0  0  0  0  0  0  0  0  0  0  0  0
   68.0043   45.6765   52.4537 C   0  0  0  0  0  0  0  0  0  0  0  0
   68.6150   46.8314   52.0128 C   0  0  0  0  0  0  0  0  0  0  0  0
   69.0926   47.7768   52.9121 C   0  0  0  0  0  0  0  0  0  0  0  0
   68.9274   47.5074   54.2495 C   0  0  0  0  0  0  0  0  0  0  0  0
   69.7355   48.9932   52.4249 C   0  0  0  0  0  0  0  0  0  0  0  0
   70.4234   48.9031   51.1827 N   0  0  0  0  0  0  0  0  0  0  0  0
   69.6600   50.0768   53.1186 N   0  0  0  0  0  0  0  0  0  0  0  0
   70.2540   51.2321   52.6873 O   0  0  0  0  0  0  0  0  0  0  0  0
  1  2  1  0
  2  3  2  0
  2  7  1  0
  3  4  1  0
  4 14  1  0
  4  5  2  0
 14 15  1  0
 15 16  2  0
 15 20  1  0
 16 17  1  0
 17 18  2  0
 18 19  1  0
 19 21  1  0
 19 20  2  0
 21 22  1  0
 21 23  2  0
 23 24  1  0
  5  6  1  0
  6  8  1  0
  6  7  2  0
  8  9  2  0
  8 13  1  0
  9 10  1  0
 10 11  2  0
 11 12  1  0
 12 13  2  0
M  CHG  1  23   1
M  END
>  <minimizedAffinity>  (159) 
-9.08196

$$$$
cs_full_output_folder/data/smiles/5879.pdb
     RDKit          3D

 25 27  0  0  0  0  0  0  0  0999 V2000
   72.6966   50.3202   55.7346 C   0  0  0  0  0  0  0  0  0  0  0  0
   73.8309   50.3776   53.6332 N   0  0  0  0  0  0  0  0  0  0  0  0
   73.9697   50.6805   55.0433 C   0  0  2  0  0  0  0  0  0  0  0  0
   75.0409   49.7926   55.5368 N   0  0  0  0  0  0  0  0  0  0  0  0
   76.3464   50.2783   55.7698 C   0  0  0  0  0  0  0  0  0  0  0  0
   76.5338   51.5230   55.5276 O   0  0  0  0  0  0  0  0  0  0  0  0
   77.4665   49.4921   56.2529 C   0  0  0  0  0  0  0  0  0  0  0  0
   78.4859   49.1670   55.3895 C   0  0  0  0  0  0  0  0  0  0  0  0
   79.5818   48.4180   55.7921 C   0  0  0  0  0  0  0  0  0  0  0  0
   79.6779   47.9795   57.0764 C   0  0  0  0  0  0  0  0  0  0  0  0
   80.7509   47.2469   57.4707 F   0  0  0  0  0  0  0  0  0  0  0  0
   78.6509   48.3042   57.9540 C   0  0  0  0  0  0  0  0  0  0  0  0
   77.5639   49.0472   57.5522 C   0  0  0  0  0  0  0  0  0  0  0  0
   71.4455   50.7896   55.0783 C   0  0  0  0  0  0  0  0  0  0  0  0
   70.7546   49.7682   54.2545 C   0  0  0  0  0  0  0  0  0  0  0  0
   69.9316   48.8412   54.8201 N   0  0  0  0  0  0  0  0  0  0  0  0
   69.2861   47.8995   54.1080 C   0  0  0  0  0  0  0  0  0  0  0  0
   68.4542   46.9624   54.6796 C   0  0  0  0  0  0  0  0  0  0  0  0
   67.7997   45.9999   53.9198 C   0  0  0  0  0  0  0  0  0  0  0  0
   67.9685   45.9555   52.5516 C   0  0  0  0  0  0  0  0  0  0  0  0
   68.8071   46.8995   51.9778 C   0  0  0  0  0  0  0  0  0  0  0  0
   69.4523   47.8524   52.7396 C   0  0  0  0  0  0  0  0  0  0  0  0
   70.2926   48.8041   52.1977 C   0  0  0  0  0  0  0  0  0  0  0  0
   70.4511   48.7694   50.9481 O   0  0  0  0  0  0  0  0  0  0  0  0
   70.8908   49.6954   52.9518 O   0  0  0  0  0  0  0  0  0  0  0  0
  3  2  1  6
  3  1  1  0
  3  4  1  0
  1 14  1  0
 14 15  1  0
 15 16  2  0
 15 25  1  0
 16 17  1  0
 17 18  2  0
 17 22  1  0
 18 19  1  0
 19 20  2  0
 20 21  1  0
 21 22  2  0
 22 23  1  0
 23 24  2  0
 23 25  1  0
  4  5  1  0
  5  6  2  0
  5  7  1  0
  7  8  2  0
  7 13  1  0
  8  9  1  0
  9 10  2  0
 10 11  1  0
 10 12  1  0
 12 13  2  0
M  CHG  1   2   1
M  END
>  <minimizedAffinity>  (160) 
-9.07774

$$$$
cs_full_output_folder/data/smiles/4289.pdb
     RDKit          3D

 24 26  0  0  0  0  0  0  0  0999 V2000
   70.1612   39.7375   58.8113 C   0  0  0  0  0  0  0  0  0  0  0  0
   70.6773   41.0202   58.7235 C   0  0  0  0  0  0  0  0  0  0  0  0
   70.0753   41.9838   57.9345 C   0  0  0  0  0  0  0  0  0  0  0  0
   68.9391   41.7150   57.2032 C   0  0  0  0  0  0  0  0  0  0  0  0
   68.4043   40.4469   57.2732 C   0  0  0  0  0  0  0  0  0  0  0  0
   69.0224   39.4803   58.0747 C   0  0  0  0  0  0  0  0  0  0  0  0
   67.2495   40.4304   56.4442 N   0  0  0  0  0  0  0  0  0  0  0  0
   67.0418   41.6928   55.8394 C   0  0  0  0  0  0  0  0  0  0  0  0
   66.1065   42.0324   55.0403 O   0  0  0  0  0  0  0  0  0  0  0  0
   68.1239   42.5481   56.3137 C   0  0  0  0  0  0  0  0  0  0  0  0
   68.2852   43.7581   55.9589 N   0  0  0  0  0  0  0  0  0  0  0  0
   71.6021   37.6982   58.9007 C   0  0  0  0  0  0  0  0  0  0  0  0
   70.8069   38.7177   59.6717 C   0  0  0  0  0  0  0  0  0  0  0  0
   67.4689   44.4963   55.1084 N   0  0  0  0  0  0  0  0  0  0  0  0
   68.0702   45.6600   54.5354 C   0  0  0  0  0  0  0  0  0  0  0  0
   68.6371   46.6408   55.3175 C   0  0  0  0  0  0  0  0  0  0  0  0
   69.2379   47.7796   54.7777 C   0  0  0  0  0  0  0  0  0  0  0  0
   69.2732   47.9448   53.4195 C   0  0  0  0  0  0  0  0  0  0  0  0
   68.7143   46.9833   52.5999 C   0  0  0  0  0  0  0  0  0  0  0  0
   68.1266   45.8644   53.1610 C   0  0  0  0  0  0  0  0  0  0  0  0
   70.0283   49.3961   52.7747 S   0  0  0  0  0  0  0  0  0  0  0  0
   69.8673   49.5159   51.0721 N   0  0  0  0  0  0  0  0  0  0  0  0
   69.4047   50.6119   53.4402 O   0  0  0  0  0  0  0  0  0  0  0  0
   71.4817   49.4064   53.1396 O   0  0  0  0  0  0  0  0  0  0  0  0
 12 13  1  0
 13  1  1  0
  1  2  2  0
  1  6  1  0
  2  3  1  0
  3  4  2  0
  4  5  1  0
  4 10  1  0
  5  6  2  0
  5  7  1  0
  7  8  1  0
  8  9  2  0
  8 10  1  0
 10 11  2  0
 11 14  1  0
 14 15  1  0
 15 16  2  0
 15 20  1  0
 16 17  1  0
 17 18  2  0
 18 21  1  0
 18 19  1  0
 21 22  1  0
 21 23  2  0
 21 24  2  0
 19 20  2  0
M  END
>  <minimizedAffinity>  (161) 
-9.07289

$$$$
cs_full_output_folder/data/smiles/9046.pdb
     RDKit          3D

 23 25  0  0  0  0  0  0  0  0999 V2000
   71.5814   47.9229   58.7694 C   0  0  0  0  0  0  0  0  0  0  0  0
   70.7957   46.8455   58.1154 C   0  0  0  0  0  0  0  0  0  0  0  0
   69.7233   47.1177   57.2648 C   0  0  0  0  0  0  0  0  0  0  0  0
   69.0061   46.1078   56.6664 C   0  0  0  0  0  0  0  0  0  0  0  0
   69.3809   44.8467   56.9364 N   0  0  0  0  0  0  0  0  0  0  0  0
   70.4108   44.5582   57.7530 C   0  0  0  0  0  0  0  0  0  0  0  0
   71.0930   45.5628   58.3228 N   0  0  0  0  0  0  0  0  0  0  0  0
   70.7705   43.1561   58.0080 C   0  0  0  0  0  0  0  0  0  0  0  0
   72.0090   42.7479   58.0864 C   0  0  0  0  0  0  0  0  0  0  0  0
   72.3016   41.3376   58.3434 C   0  0  0  0  0  0  0  0  0  0  0  0
   71.3527   40.4406   58.5031 C   0  0  0  0  0  0  0  0  0  0  0  0
   69.9341   40.7977   58.4329 C   0  0  0  0  0  0  0  0  0  0  0  0
   69.7240   42.2079   58.1761 N   0  0  0  0  0  0  0  0  0  0  0  0
   67.9475   46.3948   55.8266 O   0  0  0  0  0  0  0  0  0  0  0  0
   68.1944   46.5456   54.4843 C   0  0  0  0  0  0  0  0  0  0  0  0
   67.6267   45.7049   53.5545 C   0  0  0  0  0  0  0  0  0  0  0  0
   67.8744   45.8546   52.1981 C   0  0  0  0  0  0  0  0  0  0  0  0
   68.7047   46.8613   51.7754 C   0  0  0  0  0  0  0  0  0  0  0  0
   69.2880   47.7182   52.6778 C   0  0  0  0  0  0  0  0  0  0  0  0
   69.0240   47.5482   54.0450 C   0  0  0  0  0  0  0  0  0  0  0  0
   70.1652   48.7788   52.2076 C   0  0  0  0  0  0  0  0  0  0  0  0
   69.8291   49.6122   51.1095 N   0  0  0  0  0  0  0  0  0  0  0  0
   71.2606   48.9747   52.7841 O   0  0  0  0  0  0  0  0  0  0  0  0
  1  2  1  0
  2  3  2  0
  2  7  1  0
  3  4  1  0
  4 14  1  0
  4  5  2  0
 14 15  1  0
 15 16  2  0
 15 20  1  0
 16 17  1  0
 17 18  2  0
 18 19  1  0
 19 21  1  0
 19 20  2  0
 21 22  1  0
 21 23  2  0
  5  6  1  0
  6  8  1  0
  6  7  2  0
  8  9  2  0
  8 13  1  0
  9 10  1  0
 10 11  2  0
 11 12  1  0
 12 13  1  0
M  END
>  <minimizedAffinity>  (162) 
-9.07142

$$$$
cs_full_output_folder/data/smiles/1383.pdb
     RDKit          3D

 24 26  0  0  0  0  0  0  0  0999 V2000
   70.2809   39.6976   58.7153 C   0  0  0  0  0  0  0  0  0  0  0  0
   70.7983   40.9638   58.6303 C   0  0  0  0  0  0  0  0  0  0  0  0
   70.1980   41.9554   57.8989 C   0  0  0  0  0  0  0  0  0  0  0  0
   69.0261   41.6937   57.2118 C   0  0  0  0  0  0  0  0  0  0  0  0
   68.5108   40.4215   57.2996 C   0  0  0  0  0  0  0  0  0  0  0  0
   69.1135   39.4254   58.0349 C   0  0  0  0  0  0  0  0  0  0  0  0
   67.3096   40.4302   56.4981 N   0  0  0  0  0  0  0  0  0  0  0  0
   67.1023   41.7110   55.9260 C   0  0  0  0  0  0  0  0  0  0  0  0
   66.1504   42.0879   55.1657 O   0  0  0  0  0  0  0  0  0  0  0  0
   68.1872   42.5478   56.3642 C   0  0  0  0  0  0  0  0  0  0  0  0
   68.3555   43.7764   56.0569 N   0  0  0  0  0  0  0  0  0  0  0  0
   71.4897   37.5848   58.9905 C   0  0  0  0  0  0  0  0  0  0  0  0
   70.9191   38.6332   59.4949 C   0  0  0  0  0  0  0  0  0  0  0  0
   67.5213   44.5416   55.2440 N   0  0  0  0  0  0  0  0  0  0  0  0
   68.1075   45.6958   54.6318 C   0  0  0  0  0  0  0  0  0  0  0  0
   68.6197   46.7232   55.4059 C   0  0  0  0  0  0  0  0  0  0  0  0
   69.1885   47.8598   54.8701 C   0  0  0  0  0  0  0  0  0  0  0  0
   69.2755   48.0331   53.4999 C   0  0  0  0  0  0  0  0  0  0  0  0
   68.7644   47.0088   52.7303 C   0  0  0  0  0  0  0  0  0  0  0  0
   68.1952   45.8706   53.2623 C   0  0  0  0  0  0  0  0  0  0  0  0
   69.9942   49.4572   52.7864 S   0  0  0  0  0  0  0  0  0  0  0  0
   69.8457   49.5091   51.0769 N   0  0  0  0  0  0  0  0  0  0  0  0
   69.5244   50.7213   53.4584 O   0  0  0  0  0  0  0  0  0  0  0  0
   71.4820   49.3620   53.0918 O   0  0  0  0  0  0  0  0  0  0  0  0
 12 13  2  0
 13  1  1  0
  1  2  2  0
  1  6  1  0
  2  3  1  0
  3  4  2  0
  4  5  1  0
  4 10  1  0
  5  6  2  0
  5  7  1  0
  7  8  1  0
  8  9  2  0
  8 10  1  0
 10 11  2  0
 11 14  1  0
 14 15  1  0
 15 16  2  0
 15 20  1  0
 16 17  1  0
 17 18  2  0
 18 21  1  0
 18 19  1  0
 21 22  1  0
 21 23  2  0
 21 24  2  0
 19 20  2  0
M  END
>  <minimizedAffinity>  (163) 
-9.06962

$$$$
cs_full_output_folder/data/smiles/2475.pdb
     RDKit          3D

 25 28  0  0  0  0  0  0  0  0999 V2000
   69.1663   47.4848   52.5723 C   0  0  0  0  0  0  0  0  0  0  0  0
   68.5276   46.8919   51.5096 C   0  0  0  0  0  0  0  0  0  0  0  0
   67.6585   45.8537   51.7006 C   0  0  0  0  0  0  0  0  0  0  0  0
   67.3893   45.3667   52.9569 C   0  0  0  0  0  0  0  0  0  0  0  0
   68.0223   45.9511   54.0289 C   0  0  0  0  0  0  0  0  0  0  0  0
   68.9159   47.0155   53.8330 C   0  0  0  0  0  0  0  0  0  0  0  0
   70.3000   48.8690   51.0814 O   0  0  0  0  0  0  0  0  0  0  0  0
   69.9791   48.6389   52.3009 C   0  0  0  0  0  0  0  0  0  0  0  0
   70.5040   49.6051   53.2379 C   0  0  0  0  0  0  0  0  0  0  0  0
   71.8246   49.7367   53.5994 N   0  0  0  0  0  0  0  0  0  0  0  0
   71.9672   50.7429   54.4214 N   0  0  0  0  0  0  0  0  0  0  0  0
   70.7817   51.3350   54.6540 C   0  0  0  0  0  0  0  0  0  0  0  0
   70.4091   52.4341   55.4243 C   0  0  0  0  0  0  0  0  0  0  0  0
   69.0916   52.8441   55.4601 C   0  0  0  0  0  0  0  0  0  0  0  0
   68.1478   52.1564   54.7272 C   0  0  0  0  0  0  0  0  0  0  0  0
   68.5513   51.0661   53.9726 C   0  0  0  0  0  0  0  0  0  0  0  0
   69.8538   50.6161   53.9054 C   0  0  0  0  0  0  0  0  0  0  0  0
   69.5544   47.5329   54.9844 N   0  0  0  0  0  0  0  0  0  0  0  0
   68.8853   47.3672   56.2740 C   0  0  0  0  0  0  0  0  0  0  0  0
   68.9884   48.6095   57.0356 C   0  0  0  0  0  0  0  0  0  0  0  0
   67.8716   49.4044   57.2994 C   0  0  0  0  0  0  0  0  0  0  0  0
   68.0000   50.5572   58.0122 C   0  0  0  0  0  0  0  0  0  0  0  0
   69.1881   50.9744   58.4862 N   0  0  0  0  0  0  0  0  0  0  0  0
   70.2660   50.2122   58.2346 C   0  0  0  0  0  0  0  0  0  0  0  0
   70.2226   49.0359   57.5231 C   0  0  0  0  0  0  0  0  0  0  0  0
  7  8  2  0
  8  1  1  0
  8  9  1  0
  1  2  2  0
  1  6  1  0
  2  3  1  0
  3  4  2  0
  4  5  1  0
  5  6  2  0
  6 18  1  0
 18 19  1  0
 19 20  1  0
 20 21  2  0
 20 25  1  0
 21 22  1  0
 22 23  2  0
 23 24  1  0
 24 25  2  0
  9 10  2  0
  9 17  1  0
 10 11  1  0
 11 12  1  0
 12 13  1  0
 12 17  2  0
 13 14  2  0
 14 15  1  0
 15 16  2  0
 16 17  1  0
M  END
>  <minimizedAffinity>  (164) 
-9.06691

$$$$
cs_full_output_folder/data/smiles/3292.pdb
     RDKit          3D

 22 24  0  0  0  0  0  0  0  0999 V2000
   69.0789   47.6511   52.8126 C   0  0  0  0  0  0  0  0  0  0  0  0
   68.4840   46.9388   51.8205 C   0  0  0  0  0  0  0  0  0  0  0  0
   67.8268   45.7876   52.1571 C   0  0  0  0  0  0  0  0  0  0  0  0
   67.7706   45.3679   53.4604 C   0  0  0  0  0  0  0  0  0  0  0  0
   68.3668   46.0668   54.5118 C   0  0  0  0  0  0  0  0  0  0  0  0
   69.0208   47.2214   54.1422 C   0  0  0  0  0  0  0  0  0  0  0  0
   69.9375   49.1324   52.4633 S   0  0  0  0  0  0  0  0  0  0  0  0
   71.3970   49.0106   52.8699 O   0  0  0  0  0  0  0  0  0  0  0  0
   69.9363   49.4034   50.9881 O   0  0  0  0  0  0  0  0  0  0  0  0
   69.9294   50.7661   54.4486 C   0  0  0  0  0  0  0  0  0  0  0  0
   69.2020   50.4857   53.2440 N   0  0  0  0  0  0  0  0  0  0  0  0
   68.2768   45.5877   55.8366 N   0  0  0  0  0  0  0  0  0  0  0  0
   68.5824   44.2952   56.2918 C   0  0  0  0  0  0  0  0  0  0  0  0
   67.5949   43.3538   56.1805 N   0  0  0  0  0  0  0  0  0  0  0  0
   67.7378   42.0905   56.5687 C   0  0  0  0  0  0  0  0  0  0  0  0
   68.9315   41.6896   57.1113 C   0  0  0  0  0  0  0  0  0  0  0  0
   69.9385   42.6094   57.2357 C   0  0  0  0  0  0  0  0  0  0  0  0
   69.7139   43.8612   56.8211 N   0  0  0  0  0  0  0  0  0  0  0  0
   71.2466   42.2365   57.8125 C   0  0  0  0  0  0  0  0  0  0  0  0
   72.4499   42.7776   57.8646 C   0  0  0  0  0  0  0  0  0  0  0  0
   72.9462   41.6325   58.6264 C   0  0  0  0  0  0  0  0  0  0  0  0
   71.7286   41.0956   58.5677 C   0  0  0  0  0  0  0  0  0  0  0  0
 10 11  1  0
 11  7  1  0
  7  8  2  0
  7  9  2  0
  7  1  1  0
  1  2  2  0
  1  6  1  0
  2  3  1  0
  3  4  2  0
  4  5  1  0
  5 12  1  0
  5  6  2  0
 12 13  1  0
 13 14  2  0
 13 18  1  0
 14 15  1  0
 15 16  2  0
 16 17  1  0
 17 19  1  0
 17 18  2  0
 19 20  2  0
 19 22  1  0
 20 21  1  0
 21 22  2  0
M  END
>  <minimizedAffinity>  (165) 
-9.06651

$$$$
cs_full_output_folder/data/smiles/1224.pdb
     RDKit          3D

 25 27  0  0  0  0  0  0  0  0999 V2000
   67.8259   43.7053   55.6856 N   0  0  0  0  0  0  0  0  0  0  0  0
   67.2740   42.4316   55.9663 C   0  0  0  0  0  0  0  0  0  0  0  0
   66.3110   41.9841   55.2870 O   0  0  0  0  0  0  0  0  0  0  0  0
   67.8190   41.6297   57.0458 C   0  0  0  0  0  0  0  0  0  0  0  0
   68.0518   42.1719   58.1509 O   0  0  0  0  0  0  0  0  0  0  0  0
   68.1088   40.2463   56.9227 N   0  0  0  0  0  0  0  0  0  0  0  0
   68.6449   39.4720   57.9944 C   0  0  0  0  0  0  0  0  0  0  0  0
   69.9639   39.3884   58.3893 C   0  0  0  0  0  0  0  0  0  0  0  0
   70.1171   38.5629   59.4399 N   0  0  0  0  0  0  0  0  0  0  0  0
   68.8879   38.1054   59.7324 C   0  0  0  0  0  0  0  0  0  0  0  0
   68.4430   37.2348   60.7058 C   0  0  0  0  0  0  0  0  0  0  0  0
   67.1052   36.9372   60.7768 C   0  0  0  0  0  0  0  0  0  0  0  0
   66.1690   37.4708   59.9124 C   0  0  0  0  0  0  0  0  0  0  0  0
   66.6221   38.3342   58.9482 C   0  0  0  0  0  0  0  0  0  0  0  0
   67.9588   38.6416   58.8661 C   0  0  0  0  0  0  0  0  0  0  0  0
   67.3378   44.5249   54.6512 N   0  0  0  0  0  0  0  0  0  0  0  0
   69.4570   47.7798   52.9666 C   0  0  0  0  0  0  0  0  0  0  0  0
   69.2535   47.6992   54.3392 C   0  0  0  0  0  0  0  0  0  0  0  0
   68.5665   46.6482   54.9083 C   0  0  0  0  0  0  0  0  0  0  0  0
   68.0527   45.6298   54.1205 C   0  0  0  0  0  0  0  0  0  0  0  0
   68.2630   45.7277   52.7733 C   0  0  0  0  0  0  0  0  0  0  0  0
   68.9395   46.7579   52.1962 C   0  0  0  0  0  0  0  0  0  0  0  0
   71.1844   49.4577   53.1347 N   0  0  0  0  0  0  0  0  0  0  0  0
   70.1649   48.8661   52.3956 N   0  0  0  0  0  0  0  0  0  0  0  0
   69.8794   49.2754   51.2686 O   0  0  0  0  0  0  0  0  0  0  0  0
 23 24  1  0
 24 25  2  0
 24 17  1  0
 17 18  2  0
 17 22  1  0
 18 19  1  0
 19 20  2  0
 20 16  1  0
 20 21  1  0
 16  1  1  0
  1  2  1  0
  2  3  2  0
  2  4  1  0
  4  5  2  0
  4  6  1  0
  6  7  1  0
  7  8  2  0
  7 15  1  0
  8  9  1  0
  9 10  1  0
 10 11  1  0
 10 15  2  0
 11 12  2  0
 12 13  1  0
 13 14  2  0
 14 15  1  0
 21 22  2  0
M  CHG  1  24   1
M  END
>  <minimizedAffinity>  (166) 
-9.06317

$$$$
cs_full_output_folder/data/smiles/4785.pdb
     RDKit          3D

 24 26  0  0  0  0  0  0  0  0999 V2000
   70.1162   45.2679   57.5951 C   0  0  0  0  0  0  0  0  0  0  0  0
   70.8531   45.8897   58.5696 C   0  0  0  0  0  0  0  0  0  0  0  0
   70.9638   47.2847   58.5129 C   0  0  0  0  0  0  0  0  0  0  0  0
   71.6861   47.9211   59.4646 F   0  0  0  0  0  0  0  0  0  0  0  0
   70.3623   48.0176   57.5205 C   0  0  0  0  0  0  0  0  0  0  0  0
   70.4693   49.2724   57.4814 O   0  0  0  0  0  0  0  0  0  0  0  0
   69.6268   47.3960   56.5458 N   0  0  0  0  0  0  0  0  0  0  0  0
   69.5350   46.0746   56.6216 C   0  0  0  0  0  0  0  0  0  0  0  0
   68.7438   43.1919   57.2793 N   0  0  0  0  0  0  0  0  0  0  0  0
   69.9564   43.8243   57.5919 C   0  0  0  0  0  0  0  0  0  0  0  0
   70.9881   43.1244   57.8932 O   0  0  0  0  0  0  0  0  0  0  0  0
   68.6704   41.7312   57.2998 C   0  0  0  0  0  0  0  0  0  0  0  0
   67.8148   40.1577   55.7363 N   0  0  0  0  0  0  0  0  0  0  0  0
   67.6073   41.2541   56.3594 C   0  0  0  0  0  0  0  0  0  0  0  0
   68.9987   48.2273   55.5171 C   0  0  0  0  0  0  0  0  0  0  0  0
   68.7605   47.5095   54.2573 C   0  0  0  0  0  0  0  0  0  0  0  0
   67.8245   46.4668   54.1877 C   0  0  0  0  0  0  0  0  0  0  0  0
   67.5703   45.8371   52.9951 C   0  0  0  0  0  0  0  0  0  0  0  0
   68.2147   46.2011   51.8402 C   0  0  0  0  0  0  0  0  0  0  0  0
   69.1377   47.2275   51.9148 C   0  0  0  0  0  0  0  0  0  0  0  0
   69.9415   47.7960   50.9791 N   0  0  0  0  0  0  0  0  0  0  0  0
   70.6749   48.7344   51.5226 N   0  0  0  0  0  0  0  0  0  0  0  0
   70.4083   48.8484   52.8393 C   0  0  0  0  0  0  0  0  0  0  0  0
   69.4315   47.8985   53.1018 C   0  0  0  0  0  0  0  0  0  0  0  0
 13 14  2  0
 14 12  1  0
 12  9  1  0
  9 10  1  0
 10 11  2  0
 10  1  1  0
  1  2  1  0
  1  8  2  0
  2  3  2  0
  3  4  1  0
  3  5  1  0
  5  6  2  0
  5  7  1  0
  7 15  1  0
  7  8  1  0
 15 16  1  0
 16 17  2  0
 16 24  1  0
 17 18  1  0
 18 19  2  0
 19 20  1  0
 20 21  1  0
 20 24  2  0
 21 22  1  0
 22 23  2  0
 23 24  1  0
M  END
>  <minimizedAffinity>  (167) 
-9.06225

$$$$
cs_full_output_folder/data/smiles/3985.pdb
     RDKit          3D

 23 25  0  0  0  0  0  0  0  0999 V2000
   71.3950   49.1961   53.1585 O   0  0  0  0  0  0  0  0  0  0  0  0
   70.1913   49.4634   53.5303 C   0  0  0  0  0  0  0  0  0  0  0  0
   69.4710   48.3626   54.1333 C   0  0  0  0  0  0  0  0  0  0  0  0
   69.4132   48.2390   55.5337 C   0  0  0  0  0  0  0  0  0  0  0  0
   68.7345   47.2008   56.1262 C   0  0  0  0  0  0  0  0  0  0  0  0
   68.7123   47.1337   57.3896 O   0  0  0  0  0  0  0  0  0  0  0  0
   68.1006   46.2672   55.3975 N   0  0  0  0  0  0  0  0  0  0  0  0
   68.1167   46.3275   54.0484 C   0  0  0  0  0  0  0  0  0  0  0  0
   67.4539   45.3496   53.3397 C   0  0  0  0  0  0  0  0  0  0  0  0
   67.4444   45.3721   51.9684 C   0  0  0  0  0  0  0  0  0  0  0  0
   68.1164   46.3999   51.3562 C   0  0  0  0  0  0  0  0  0  0  0  0
   68.7933   47.3993   52.0605 C   0  0  0  0  0  0  0  0  0  0  0  0
   68.8045   47.3793   53.4341 C   0  0  0  0  0  0  0  0  0  0  0  0
   69.8181   50.7385   53.2845 O   0  0  0  0  0  0  0  0  0  0  0  0
   69.9758   51.8300   54.1698 C   0  0  0  0  0  0  0  0  0  0  0  0
   68.7539   52.0152   54.9974 C   0  0  0  0  0  0  0  0  0  0  0  0
   67.6504   51.9777   54.4816 O   0  0  0  0  0  0  0  0  0  0  0  0
   68.8167   52.2511   56.4633 C   0  0  2  0  0  0  0  0  0  0  0  0
   70.1634   51.9350   56.9856 C   0  0  0  0  0  0  0  0  0  0  0  0
   70.0234   51.0049   57.9098 C   0  0  0  0  0  0  0  0  0  0  0  0
   68.6088   50.6382   58.0686 C   0  0  0  0  0  0  0  0  0  0  0  0
   67.9157   51.3753   57.2174 C   0  0  0  0  0  0  0  0  0  0  0  0
   66.5706   51.2971   57.0937 F   0  0  0  0  0  0  0  0  0  0  0  0
  1  2  2  0
  2 14  1  0
  2  3  1  0
 14 15  1  0
 15 16  1  0
 16 17  2  0
 18 16  1  6
 18 19  1  0
 18 22  1  0
 19 20  2  0
 20 21  1  0
 21 22  2  0
 22 23  1  0
  3  4  2  0
  3 13  1  0
  4  5  1  0
  5  6  2  0
  5  7  1  0
  7  8  1  0
  8  9  1  0
  8 13  2  0
  9 10  2  0
 10 11  1  0
 11 12  2  0
 12 13  1  0
M  END
>  <minimizedAffinity>  (168) 
-9.06016

$$$$
cs_full_output_folder/data/smiles/3067.pdb
     RDKit          3D

 22 23  0  0  0  0  0  0  0  0999 V2000
   68.3380   46.0982   56.1636 O   0  0  0  0  0  0  0  0  0  0  0  0
   68.1962   45.3685   55.1454 C   0  0  0  0  0  0  0  0  0  0  0  0
   67.9322   44.0091   55.3589 N   0  0  0  0  0  0  0  0  0  0  0  0
   68.3176   45.9954   53.8261 C   0  0  0  0  0  0  0  0  0  0  0  0
   67.5589   45.5473   52.7534 C   0  0  0  0  0  0  0  0  0  0  0  0
   67.6481   46.1147   51.4992 C   0  0  0  0  0  0  0  0  0  0  0  0
   68.5175   47.1612   51.2951 C   0  0  0  0  0  0  0  0  0  0  0  0
   69.3007   47.6518   52.3263 C   0  0  0  0  0  0  0  0  0  0  0  0
   69.1705   47.0428   53.5742 C   0  0  0  0  0  0  0  0  0  0  0  0
   70.1851   48.7222   52.1073 N   0  0  0  0  0  0  0  0  0  0  0  0
   71.1492   48.8911   52.8475 O   0  0  0  0  0  0  0  0  0  0  0  0
   69.9653   49.5688   51.0716 O   0  0  0  0  0  0  0  0  0  0  0  0
   67.8179   43.4164   56.6192 N   0  0  0  0  0  0  0  0  0  0  0  0
   68.1253   42.1797   56.7324 C   0  0  0  0  0  0  0  0  0  0  0  0
   68.0478   41.4282   58.0127 C   0  0  0  0  0  0  0  0  0  0  0  0
   69.2065   40.5292   58.2132 C   0  0  0  0  0  0  0  0  0  0  0  0
   69.0051   39.1637   58.3888 C   0  0  0  0  0  0  0  0  0  0  0  0
   70.1185   38.3796   58.5711 C   0  0  0  0  0  0  0  0  0  0  0  0
   71.3740   38.9588   58.5722 C   0  0  0  0  0  0  0  0  0  0  0  0
   72.8137   37.9919   58.8006 Cl  0  0  0  0  0  0  0  0  0  0  0  0
   71.5535   40.3190   58.3947 C   0  0  0  0  0  0  0  0  0  0  0  0
   70.4413   41.0575   58.2201 N   0  0  0  0  0  0  0  0  0  0  0  0
  1  2  2  0
  2  3  1  0
  2  4  1  0
  3 13  1  0
 13 14  2  0
 14 15  1  0
 15 16  1  0
 16 17  2  0
 16 22  1  0
 17 18  1  0
 18 19  2  0
 19 20  1  0
 19 21  1  0
 21 22  2  0
  4  5  2  0
  4  9  1  0
  5  6  1  0
  6  7  2  0
  7  8  1  0
  8 10  1  0
  8  9  2  0
 10 11  2  0
 10 12  1  0
M  CHG  2  10   1  12  -1
M  END
>  <minimizedAffinity>  (169) 
-9.05909

$$$$
cs_full_output_folder/data/smiles/266.pdb
     RDKit          3D

 26 29  0  0  0  0  0  0  0  0999 V2000
   73.8968   49.6926   56.7751 C   0  0  0  0  0  0  0  0  0  0  0  0
   73.1357   49.0365   57.7140 C   0  0  0  0  0  0  0  0  0  0  0  0
   71.7667   48.9422   57.6327 C   0  0  0  0  0  0  0  0  0  0  0  0
   71.0876   49.5337   56.5513 C   0  0  0  0  0  0  0  0  0  0  0  0
   71.8648   50.1800   55.6305 C   0  0  0  0  0  0  0  0  0  0  0  0
   73.2253   50.2471   55.7547 N   0  0  0  0  0  0  0  0  0  0  0  0
   75.6260   49.4212   54.5868 O   0  0  0  0  0  0  0  0  0  0  0  0
   76.1709   49.6677   55.6913 C   0  0  0  0  0  0  0  0  0  0  0  0
   75.3056   49.8089   56.8185 N   0  0  0  0  0  0  0  0  0  0  0  0
   77.6164   49.8001   55.8032 C   0  0  0  0  0  0  0  0  0  0  0  0
   78.5238   49.0172   55.2697 C   0  0  0  0  0  0  0  0  0  0  0  0
   79.8291   49.5329   55.6478 C   0  0  0  0  0  0  0  0  0  0  0  0
   79.6993   50.5789   56.3763 N   0  0  0  0  0  0  0  0  0  0  0  0
   78.3046   50.8599   56.5528 C   0  0  0  0  0  0  0  0  0  0  0  0
   69.5964   49.4015   56.4821 C   0  0  0  0  0  0  0  0  0  0  0  0
   69.1696   48.0856   55.9540 C   0  0  0  0  0  0  0  0  0  0  0  0
   68.9953   47.0485   56.8301 N   0  0  0  0  0  0  0  0  0  0  0  0
   68.5690   45.8592   56.4613 N   0  0  0  0  0  0  0  0  0  0  0  0
   68.2749   45.6018   55.1557 C   0  0  0  0  0  0  0  0  0  0  0  0
   67.8711   44.4760   54.8110 O   0  0  0  0  0  0  0  0  0  0  0  0
   68.4234   46.5898   54.2162 C   0  0  0  0  0  0  0  0  0  0  0  0
   68.8783   47.8326   54.6522 C   0  0  0  0  0  0  0  0  0  0  0  0
   69.0692   48.8539   53.6171 C   0  0  0  0  0  0  0  0  0  0  0  0
   69.8375   48.2389   52.4599 C   0  0  0  0  0  0  0  0  0  0  0  0
   69.3526   46.8980   52.0288 C   0  0  0  0  0  0  0  0  0  0  0  0
   68.1256   46.4265   52.7826 C   0  0  0  0  0  0  0  0  0  0  0  0
  7  8  2  0
  8  9  1  0
  8 10  1  0
  9  1  1  0
  1  2  2  0
  1  6  1  0
  2  3  1  0
  3  4  2  0
  4 15  1  0
  4  5  1  0
 15 16  1  0
 16 17  2  0
 16 22  1  0
 17 18  1  0
 18 19  1  0
 19 20  2  0
 19 21  1  0
 21 22  2  0
 21 26  1  0
 22 23  1  0
 23 24  1  0
 24 25  1  0
 25 26  1  0
  5  6  2  0
 10 11  2  0
 10 14  1  0
 11 12  1  0
 12 13  2  0
 13 14  1  0
M  END
>  <minimizedAffinity>  (170) 
-9.05908

$$$$
cs_full_output_folder/data/smiles/857.pdb
     RDKit          3D

 24 26  0  0  0  0  0  0  0  0999 V2000
   69.1761   46.3388   57.0850 O   0  0  0  0  0  0  0  0  0  0  0  0
   68.7220   47.2804   56.4107 C   0  0  0  0  0  0  0  0  0  0  0  0
   68.6384   47.1518   54.9692 C   0  0  0  0  0  0  0  0  0  0  0  0
   67.8940   46.1355   54.3791 C   0  0  0  0  0  0  0  0  0  0  0  0
   67.8573   46.0686   53.0041 C   0  0  0  0  0  0  0  0  0  0  0  0
   67.1198   45.0619   52.3681 O   0  0  0  0  0  0  0  0  0  0  0  0
   68.5351   46.9774   52.2316 C   0  0  0  0  0  0  0  0  0  0  0  0
   68.5009   46.9140   50.8458 O   0  0  0  0  0  0  0  0  0  0  0  0
   69.2771   47.9903   52.7881 C   0  0  0  0  0  0  0  0  0  0  0  0
   69.3156   48.0588   54.1651 C   0  0  0  0  0  0  0  0  0  0  0  0
   69.9865   48.9398   51.9889 N   0  0  0  0  0  0  0  0  0  0  0  0
   70.5914   48.5968   50.9764 O   0  0  0  0  0  0  0  0  0  0  0  0
   69.9930   50.2648   52.3575 O   0  0  0  0  0  0  0  0  0  0  0  0
   68.2722   48.5155   57.0804 C   0  0  0  0  0  0  0  0  0  0  0  0
   69.4526   49.3243   57.5003 C   0  0  0  0  0  0  0  0  0  0  0  0
   70.4075   48.8459   58.3701 C   0  0  0  0  0  0  0  0  0  0  0  0
   71.4776   49.6449   58.7129 C   0  0  0  0  0  0  0  0  0  0  0  0
   71.6227   50.9288   58.2039 C   0  0  0  0  0  0  0  0  0  0  0  0
   70.6595   51.4191   57.3227 C   0  0  0  0  0  0  0  0  0  0  0  0
   69.5885   50.6156   56.9823 C   0  0  0  0  0  0  0  0  0  0  0  0
   68.6788   51.0669   56.1618 C   0  0  0  0  0  0  0  0  0  0  0  0
   68.6846   52.4103   55.5317 C   0  0  0  0  0  0  0  0  0  0  0  0
   69.8434   53.2658   55.9004 C   0  0  0  0  0  0  0  0  0  0  0  0
   70.7823   52.6247   56.8362 C   0  0  0  0  0  0  0  0  0  0  0  0
  1  2  2  0
  2 14  1  0
  2  3  1  0
 14 15  1  0
 15 16  2  0
 15 20  1  0
 16 17  1  0
 17 18  2  0
 18 19  1  0
 19 20  1  0
 19 24  2  0
 20 21  2  0
 21 22  1  0
 22 23  1  0
 23 24  1  0
  3  4  2  0
  3 10  1  0
  4  5  1  0
  5  6  1  0
  5  7  2  0
  7  8  1  0
  7  9  1  0
  9 11  1  0
  9 10  2  0
 11 12  2  0
 11 13  1  0
M  CHG  2  11   1  13  -1
M  END
>  <minimizedAffinity>  (171) 
-9.05861

$$$$
cs_full_output_folder/data/smiles/37.pdb
     RDKit          3D

 22 23  0  0  0  0  0  0  0  0999 V2000
   67.7639   47.4686   56.7315 N   0  0  0  0  0  0  0  0  0  0  0  0
   68.7049   46.7097   55.9831 C   0  0  0  0  0  0  0  0  0  0  0  0
   69.5438   46.0100   56.6375 N   0  0  0  0  0  0  0  0  0  0  0  0
   68.6424   46.7857   54.5320 C   0  0  0  0  0  0  0  0  0  0  0  0
   67.9140   45.8696   53.8089 C   0  0  0  0  0  0  0  0  0  0  0  0
   67.8539   45.9436   52.4172 C   0  0  0  0  0  0  0  0  0  0  0  0
   68.5205   46.9313   51.7368 C   0  0  0  0  0  0  0  0  0  0  0  0
   69.2582   47.8603   52.4518 C   0  0  0  0  0  0  0  0  0  0  0  0
   69.3042   47.7696   53.8343 C   0  0  0  0  0  0  0  0  0  0  0  0
   69.9459   48.8814   51.7396 N   0  0  0  0  0  0  0  0  0  0  0  0
   70.6965   48.5578   50.7993 O   0  0  0  0  0  0  0  0  0  0  0  0
   69.8075   50.2093   52.0560 O   0  0  0  0  0  0  0  0  0  0  0  0
   69.6254   45.9188   57.9936 O   0  0  0  0  0  0  0  0  0  0  0  0
   70.7414   45.5675   58.7070 C   0  0  0  0  0  0  0  0  0  0  0  0
   71.0036   46.2290   59.7423 O   0  0  0  0  0  0  0  0  0  0  0  0
   71.6431   44.4813   58.3496 C   0  0  0  0  0  0  0  0  0  0  0  0
   72.9837   44.6959   58.0881 C   0  0  0  0  0  0  0  0  0  0  0  0
   73.8525   43.6835   57.7491 C   0  0  0  0  0  0  0  0  0  0  0  0
   73.3717   42.4002   57.6656 C   0  0  0  0  0  0  0  0  0  0  0  0
   72.0416   42.1429   57.9193 C   0  0  0  0  0  0  0  0  0  0  0  0
   71.6009   40.8545   57.8274 F   0  0  0  0  0  0  0  0  0  0  0  0
   71.1993   43.1794   58.2561 C   0  0  0  0  0  0  0  0  0  0  0  0
  1  2  1  0
  2  3  2  0
  2  4  1  0
  3 13  1  0
 13 14  1  0
 14 15  2  0
 14 16  1  0
 16 17  2  0
 16 22  1  0
 17 18  1  0
 18 19  2  0
 19 20  1  0
 20 21  1  0
 20 22  2  0
  4  5  2  0
  4  9  1  0
  5  6  1  0
  6  7  2  0
  7  8  1  0
  8 10  1  0
  8  9  2  0
 10 11  2  0
 10 12  1  0
M  CHG  3   3   1  10   1  12  -1
M  END
>  <minimizedAffinity>  (172) 
-9.05851

$$$$
cs_full_output_folder/data/smiles/284.pdb
     RDKit          3D

 25 27  0  0  0  0  0  0  0  0999 V2000
   68.8027   47.7319   56.6753 C   0  0  0  0  0  0  0  0  0  0  0  0
   67.6637   47.5575   57.1163 O   0  0  0  0  0  0  0  0  0  0  0  0
   69.2110   48.0603   55.3215 C   0  0  0  0  0  0  0  0  0  0  0  0
   70.0502   49.1466   55.1395 C   0  0  0  0  0  0  0  0  0  0  0  0
   70.4693   49.5001   53.8545 C   0  0  0  0  0  0  0  0  0  0  0  0
   71.2268   50.4817   53.6963 O   0  0  0  0  0  0  0  0  0  0  0  0
   70.0654   48.7948   52.7849 N   0  0  0  0  0  0  0  0  0  0  0  0
   69.2452   47.7266   52.9268 C   0  0  0  0  0  0  0  0  0  0  0  0
   68.8625   47.0402   51.7985 C   0  0  0  0  0  0  0  0  0  0  0  0
   68.0327   45.9513   51.8838 C   0  0  0  0  0  0  0  0  0  0  0  0
   67.6151   45.5960   53.1448 C   0  0  0  0  0  0  0  0  0  0  0  0
   67.9958   46.2840   54.2939 C   0  0  0  0  0  0  0  0  0  0  0  0
   68.8224   47.3691   54.2122 C   0  0  0  0  0  0  0  0  0  0  0  0
   69.7925   47.5754   57.6813 O   0  0  0  0  0  0  0  0  0  0  0  0
   70.5986   46.4905   57.6211 O   0  0  0  0  0  0  0  0  0  0  0  0
   69.7793   44.9294   59.0315 O   0  0  0  0  0  0  0  0  0  0  0  0
   70.0790   45.2248   57.8465 C   0  0  0  0  0  0  0  0  0  0  0  0
   69.8718   44.2623   56.8290 N   0  0  0  0  0  0  0  0  0  0  0  0
   69.3383   42.9681   57.0744 C   0  0  0  0  0  0  0  0  0  0  0  0
   69.9682   42.0694   57.9022 C   0  0  0  0  0  0  0  0  0  0  0  0
   69.4556   40.8036   58.1476 C   0  0  0  0  0  0  0  0  0  0  0  0
   68.2764   40.4011   57.5590 C   0  0  0  0  0  0  0  0  0  0  0  0
   67.6417   41.2996   56.7287 C   0  0  0  0  0  0  0  0  0  0  0  0
   68.1582   42.5600   56.4874 C   0  0  0  0  0  0  0  0  0  0  0  0
   67.5077   43.4192   55.6651 F   0  0  0  0  0  0  0  0  0  0  0  0
 16 17  2  0
 17 18  1  0
 17 15  1  0
 18 19  1  0
 19 20  2  0
 19 24  1  0
 20 21  1  0
 21 22  2  0
 22 23  1  0
 23 24  2  0
 24 25  1  0
 15 14  1  0
 14  1  1  0
  1  2  2  0
  1  3  1  0
  3  4  2  0
  3 13  1  0
  4  5  1  0
  5  6  2  0
  5  7  1  0
  7  8  1  0
  8  9  1  0
  8 13  2  0
  9 10  2  0
 10 11  1  0
 11 12  2  0
 12 13  1  0
M  END
>  <minimizedAffinity>  (173) 
-9.05771

$$$$
cs_full_output_folder/data/smiles/3364.pdb
     RDKit          3D

 26 29  0  0  0  0  0  0  0  0999 V2000
   70.9733   49.5303   58.3580 C   0  0  0  0  0  0  0  0  0  0  0  0
   70.0141   50.4674   58.6838 C   0  0  0  0  0  0  0  0  0  0  0  0
   69.1173   50.9118   57.7284 C   0  0  0  0  0  0  0  0  0  0  0  0
   69.1996   50.4024   56.4485 C   0  0  0  0  0  0  0  0  0  0  0  0
   70.1741   49.4511   56.1215 C   0  0  0  0  0  0  0  0  0  0  0  0
   70.9973   49.0794   57.1037 N   0  0  0  0  0  0  0  0  0  0  0  0
   70.1836   48.9938   54.7518 C   0  0  0  0  0  0  0  0  0  0  0  0
   71.0820   49.4566   53.8377 N   0  0  0  0  0  0  0  0  0  0  0  0
   71.0775   49.0301   52.5877 N   0  0  0  0  0  0  0  0  0  0  0  0
   70.2050   48.1233   52.1251 C   0  0  0  0  0  0  0  0  0  0  0  0
   70.2177   47.7345   50.9435 O   0  0  0  0  0  0  0  0  0  0  0  0
   69.2687   47.6097   52.9833 C   0  0  0  0  0  0  0  0  0  0  0  0
   69.2863   48.0724   54.3039 C   0  0  0  0  0  0  0  0  0  0  0  0
   68.2527   47.4980   55.1786 C   0  0  0  0  0  0  0  0  0  0  0  0
   68.3912   45.9884   55.0764 C   0  0  0  0  0  0  0  0  0  0  0  0
   68.0644   45.5434   53.6765 C   0  0  0  0  0  0  0  0  0  0  0  0
   68.2471   46.6074   52.6323 C   0  0  0  0  0  0  0  0  0  0  0  0
   70.8682   47.0342   59.3782 O   0  0  0  0  0  0  0  0  0  0  0  0
   71.8081   47.7471   59.8506 C   0  0  0  0  0  0  0  0  0  0  0  0
   71.9126   49.0624   59.3540 N   0  0  0  0  0  0  0  0  0  0  0  0
   72.6807   47.1524   60.8472 C   0  0  0  0  0  0  0  0  0  0  0  0
   72.8106   45.7890   61.0080 C   0  0  0  0  0  0  0  0  0  0  0  0
   73.6467   45.2337   61.9632 C   0  0  0  0  0  0  0  0  0  0  0  0
   74.3901   46.0363   62.7984 C   0  0  0  0  0  0  0  0  0  0  0  0
   74.2723   47.4050   62.6511 C   0  0  0  0  0  0  0  0  0  0  0  0
   73.4316   47.9361   61.6909 C   0  0  0  0  0  0  0  0  0  0  0  0
 18 19  2  0
 19 20  1  0
 19 21  1  0
 20  1  1  0
  1  2  2  0
  1  6  1  0
  2  3  1  0
  3  4  2  0
  4  5  1  0
  5  7  1  0
  5  6  2  0
  7  8  2  0
  7 13  1  0
  8  9  1  0
  9 10  1  0
 10 11  2  0
 10 12  1  0
 12 13  2  0
 12 17  1  0
 13 14  1  0
 14 15  1  0
 15 16  1  0
 16 17  1  0
 21 22  2  0
 21 26  1  0
 22 23  1  0
 23 24  2  0
 24 25  1  0
 25 26  2  0
M  END
>  <minimizedAffinity>  (174) 
-9.05647

$$$$
cs_full_output_folder/data/smiles/3213.pdb
     RDKit          3D

 24 26  0  0  0  0  0  0  0  0999 V2000
   70.7254   46.2334   58.3002 C   0  0  0  0  0  0  0  0  0  0  0  0
   69.8834   46.8558   57.4005 C   0  0  0  0  0  0  0  0  0  0  0  0
   69.8336   48.2089   57.3145 C   0  0  0  0  0  0  0  0  0  0  0  0
   70.6423   48.9512   58.1435 C   0  0  0  0  0  0  0  0  0  0  0  0
   71.4822   48.3511   59.0367 C   0  0  0  0  0  0  0  0  0  0  0  0
   71.5369   46.9597   59.1286 C   0  0  0  0  0  0  0  0  0  0  0  0
   72.4350   46.3988   59.9890 F   0  0  0  0  0  0  0  0  0  0  0  0
   70.6744   44.7289   58.4125 C   0  0  0  0  0  0  0  0  0  0  0  0
   68.0916   42.4343   56.6180 C   0  0  0  0  0  0  0  0  0  0  0  0
   69.4010   42.8241   57.2539 C   0  0  0  0  0  0  0  0  0  0  0  0
   70.3146   42.0150   57.3199 O   0  0  0  0  0  0  0  0  0  0  0  0
   69.5702   44.1141   57.7714 N   0  0  0  0  0  0  0  0  0  0  0  0
   68.9586   48.9293   56.3422 C   0  0  0  0  0  0  0  0  0  0  0  0
   69.3245   48.7568   54.9474 C   0  0  0  0  0  0  0  0  0  0  0  0
   70.1641   49.6687   54.3877 N   0  0  0  0  0  0  0  0  0  0  0  0
   70.5758   49.6640   53.1576 N   0  0  0  0  0  0  0  0  0  0  0  0
   70.1744   48.7067   52.3186 C   0  0  0  0  0  0  0  0  0  0  0  0
   70.5993   48.7409   51.1333 O   0  0  0  0  0  0  0  0  0  0  0  0
   69.3184   47.7230   52.7781 C   0  0  0  0  0  0  0  0  0  0  0  0
   68.8911   47.7577   54.1201 C   0  0  0  0  0  0  0  0  0  0  0  0
   67.9980   46.7206   54.6404 C   0  0  0  0  0  0  0  0  0  0  0  0
   67.9005   45.5040   53.7054 C   0  0  0  0  0  0  0  0  0  0  0  0
   67.7037   45.9157   52.2714 C   0  0  0  0  0  0  0  0  0  0  0  0
   68.9055   46.6861   51.8225 C   0  0  0  0  0  0  0  0  0  0  0  0
  9 10  1  0
 10 11  2  0
 10 12  1  0
 12  8  1  0
  8  1  1  0
  1  2  2  0
  1  6  1  0
  2  3  1  0
  3 13  1  0
  3  4  2  0
 13 14  1  0
 14 15  2  0
 14 20  1  0
 15 16  1  0
 16 17  1  0
 17 18  2  0
 17 19  1  0
 19 20  2  0
 19 24  1  0
 20 21  1  0
 21 22  1  0
 22 23  1  0
 23 24  1  0
  4  5  1  0
  5  6  2  0
  6  7  1  0
M  END
>  <minimizedAffinity>  (175) 
-9.05587

$$$$
cs_full_output_folder/data/smiles/1529.pdb
     RDKit          3D

 23 24  0  0  0  0  0  0  0  0999 V2000
   67.9672   43.9768   55.4052 N   0  0  0  0  0  0  0  0  0  0  0  0
   68.2322   45.3257   55.1332 C   0  0  0  0  0  0  0  0  0  0  0  0
   68.4264   46.0729   56.1485 O   0  0  0  0  0  0  0  0  0  0  0  0
   68.3023   45.9278   53.8168 C   0  0  0  0  0  0  0  0  0  0  0  0
   67.5275   45.4722   52.7790 C   0  0  0  0  0  0  0  0  0  0  0  0
   67.6123   46.0703   51.5137 C   0  0  0  0  0  0  0  0  0  0  0  0
   68.4713   47.1166   51.3022 C   0  0  0  0  0  0  0  0  0  0  0  0
   69.2564   47.5877   52.3300 C   0  0  0  0  0  0  0  0  0  0  0  0
   69.1511   46.9770   53.5677 C   0  0  0  0  0  0  0  0  0  0  0  0
   70.1284   48.6679   52.0751 N   0  0  0  0  0  0  0  0  0  0  0  0
   71.1019   48.8511   52.8173 O   0  0  0  0  0  0  0  0  0  0  0  0
   69.8989   49.4972   51.0216 O   0  0  0  0  0  0  0  0  0  0  0  0
   67.9224   41.2692   55.9009 O   0  0  0  0  0  0  0  0  0  0  0  0
   67.8798   42.0063   56.9170 C   0  0  0  0  0  0  0  0  0  0  0  0
   67.8150   41.4103   58.1794 N   0  0  0  0  0  0  0  0  0  0  0  0
   67.9016   43.4041   56.6743 N   0  0  0  0  0  0  0  0  0  0  0  0
   67.7951   39.9967   58.4760 C   0  0  0  0  0  0  0  0  0  0  0  0
   69.1972   39.5216   58.5523 C   0  0  0  0  0  0  0  0  0  0  0  0
   70.2482   40.4413   58.4284 C   0  0  0  0  0  0  0  0  0  0  0  0
   71.5652   40.0411   58.5038 C   0  0  0  0  0  0  0  0  0  0  0  0
   71.8966   38.7078   58.7054 C   0  0  0  0  0  0  0  0  0  0  0  0
   70.8773   37.7899   58.8291 C   0  0  0  0  0  0  0  0  0  0  0  0
   69.5451   38.2068   58.7516 C   0  0  0  0  0  0  0  0  0  0  0  0
 13 14  2  0
 14 15  1  0
 14 16  1  0
 15 17  1  0
 17 18  1  0
 18 19  2  0
 18 23  1  0
 19 20  1  0
 20 21  2  0
 21 22  1  0
 22 23  2  0
 16  1  1  0
  1  2  1  0
  2  3  2  0
  2  4  1  0
  4  5  2  0
  4  9  1  0
  5  6  1  0
  6  7  2  0
  7  8  1  0
  8 10  1  0
  8  9  2  0
 10 11  2  0
 10 12  1  0
M  CHG  2  10   1  12  -1
M  END
>  <minimizedAffinity>  (176) 
-9.05550

$$$$
cs_full_output_folder/data/smiles/126.pdb
     RDKit          3D

 23 25  0  0  0  0  0  0  0  0999 V2000
   68.8949   42.9459   57.7470 O   0  0  0  0  0  0  0  0  0  0  0  0
   68.2178   42.4280   56.8375 C   0  0  0  0  0  0  0  0  0  0  0  0
   67.7289   43.3401   55.8322 N   0  0  0  0  0  0  0  0  0  0  0  0
   67.9104   40.9995   56.7503 C   0  0  0  0  0  0  0  0  0  0  0  0
   67.7752   40.4484   55.6196 O   0  0  0  0  0  0  0  0  0  0  0  0
   67.7599   40.2125   57.9528 C   0  0  0  0  0  0  0  0  0  0  0  0
   66.7330   40.1597   58.8596 C   0  0  0  0  0  0  0  0  0  0  0  0
   67.0109   39.2836   59.8365 N   0  0  0  0  0  0  0  0  0  0  0  0
   68.2117   38.7374   59.6108 C   0  0  0  0  0  0  0  0  0  0  0  0
   68.9355   37.7969   60.3155 C   0  0  0  0  0  0  0  0  0  0  0  0
   70.1626   37.4285   59.8268 C   0  0  0  0  0  0  0  0  0  0  0  0
   70.6717   37.9697   58.6695 C   0  0  0  0  0  0  0  0  0  0  0  0
   69.9345   38.9214   57.9617 C   0  0  0  0  0  0  0  0  0  0  0  0
   68.6995   39.3119   58.4262 C   0  0  0  0  0  0  0  0  0  0  0  0
   67.9896   44.7044   55.8651 N   0  0  0  0  0  0  0  0  0  0  0  0
   68.2220   45.4899   54.7203 C   0  0  0  0  0  0  0  0  0  0  0  0
   68.8568   46.6980   54.8563 C   0  0  0  0  0  0  0  0  0  0  0  0
   69.1155   47.5171   53.7724 C   0  0  0  0  0  0  0  0  0  0  0  0
   68.7202   47.1004   52.5183 C   0  0  0  0  0  0  0  0  0  0  0  0
   68.0872   45.8996   52.3726 C   0  0  0  0  0  0  0  0  0  0  0  0
   67.8353   45.0926   53.4599 C   0  0  0  0  0  0  0  0  0  0  0  0
   69.0096   47.9829   51.4307 N   0  0  0  0  0  0  0  0  0  0  0  0
   70.2606   47.6868   51.0084 O   0  0  0  0  0  0  0  0  0  0  0  0
  1  2  2  0
  2  3  1  0
  2  4  1  0
  3 15  1  0
 15 16  1  0
 16 17  2  0
 16 21  1  0
 17 18  1  0
 18 19  2  0
 19 22  1  0
 19 20  1  0
 22 23  1  0
 20 21  2  0
  4  5  2  0
  4  6  1  0
  6  7  2  0
  6 14  1  0
  7  8  1  0
  8  9  1  0
  9 10  1  0
  9 14  2  0
 10 11  2  0
 11 12  1  0
 12 13  2  0
 13 14  1  0
M  CHG  2  22   1  23  -1
M  END
>  <minimizedAffinity>  (177) 
-9.05483

$$$$
cs_full_output_folder/data/smiles/1018.pdb
     RDKit          3D

 24 26  0  0  0  0  0  0  0  0999 V2000
   68.1724   44.1288   55.9435 N   0  0  0  0  0  0  0  0  0  0  0  0
   68.0273   42.7834   56.4170 C   0  0  0  0  0  0  0  0  0  0  0  0
   67.3277   42.0363   55.7052 O   0  0  0  0  0  0  0  0  0  0  0  0
   68.6528   42.3235   57.6399 C   0  0  0  0  0  0  0  0  0  0  0  0
   69.0404   43.1642   58.5264 O   0  0  0  0  0  0  0  0  0  0  0  0
   68.8564   40.9129   57.8924 C   0  0  0  0  0  0  0  0  0  0  0  0
   67.9741   39.8573   57.8884 C   0  0  0  0  0  0  0  0  0  0  0  0
   68.6160   38.7119   58.1830 N   0  0  0  0  0  0  0  0  0  0  0  0
   69.9094   38.9824   58.3831 C   0  0  0  0  0  0  0  0  0  0  0  0
   70.9695   38.1247   58.7106 C   0  0  0  0  0  0  0  0  0  0  0  0
   72.2247   38.6558   58.8637 C   0  0  0  0  0  0  0  0  0  0  0  0
   72.3945   40.0020   58.6906 C   0  0  0  0  0  0  0  0  0  0  0  0
   71.3696   40.8719   58.3680 C   0  0  0  0  0  0  0  0  0  0  0  0
   70.0965   40.3361   58.2118 C   0  0  0  0  0  0  0  0  0  0  0  0
   67.5898   44.6101   54.7726 N   0  0  0  0  0  0  0  0  0  0  0  0
   69.3401   47.8908   52.7903 C   0  0  0  0  0  0  0  0  0  0  0  0
   68.7299   46.8830   52.0900 C   0  0  0  0  0  0  0  0  0  0  0  0
   68.1660   45.8234   52.7586 C   0  0  0  0  0  0  0  0  0  0  0  0
   68.1866   45.7225   54.1386 C   0  0  0  0  0  0  0  0  0  0  0  0
   68.8139   46.7611   54.8060 C   0  0  0  0  0  0  0  0  0  0  0  0
   69.3667   47.8047   54.1306 N   0  0  0  0  0  0  0  0  0  0  0  0
   69.8785   50.2528   52.5857 N   0  0  0  0  0  0  0  0  0  0  0  0
   69.9093   48.9690   52.0709 N   0  0  0  0  0  0  0  0  0  0  0  0
   70.4550   48.7949   50.9518 O   0  0  0  0  0  0  0  0  0  0  0  0
 22 23  1  0
 23 24  2  0
 23 16  1  0
 16 17  2  0
 16 21  1  0
 17 18  1  0
 18 19  2  0
 19 15  1  0
 19 20  1  0
 15  1  1  0
  1  2  1  0
  2  3  2  0
  2  4  1  0
  4  5  2  0
  4  6  1  0
  6  7  2  0
  6 14  1  0
  7  8  1  0
  8  9  1  0
  9 10  1  0
  9 14  2  0
 10 11  2  0
 11 12  1  0
 12 13  2  0
 13 14  1  0
 20 21  2  0
M  CHG  1  23   1
M  END
>  <minimizedAffinity>  (178) 
-9.04809

$$$$
cs_full_output_folder/data/smiles/6633.pdb
     RDKit          3D

 25 27  0  0  0  0  0  0  0  0999 V2000
   70.3664   45.0499   57.7930 C   0  0  0  0  0  0  0  0  0  0  0  0
   69.6256   45.9836   57.0476 C   0  0  0  0  0  0  0  0  0  0  0  0
   69.8022   47.3175   57.0832 C   0  0  0  0  0  0  0  0  0  0  0  0
   70.7886   47.8081   57.9171 C   0  0  0  0  0  0  0  0  0  0  0  0
   71.5657   46.9718   58.6855 C   0  0  0  0  0  0  0  0  0  0  0  0
   71.3353   45.5861   58.6072 C   0  0  0  0  0  0  0  0  0  0  0  0
   72.0923   44.7517   59.3711 F   0  0  0  0  0  0  0  0  0  0  0  0
   68.8313   43.0115   57.7458 N   0  0  0  0  0  0  0  0  0  0  0  0
   70.0821   43.6273   57.6520 C   0  0  0  0  0  0  0  0  0  0  0  0
   71.0655   42.8466   57.4184 O   0  0  0  0  0  0  0  0  0  0  0  0
   68.6563   41.5581   57.5731 C   0  0  0  0  0  0  0  0  0  0  0  0
   67.0100   42.0004   56.0030 C   0  0  0  0  0  0  0  0  0  0  0  0
   68.0939   41.2138   56.3765 O   0  0  0  0  0  0  0  0  0  0  0  0
   69.0256   48.3365   56.3152 C   0  0  0  0  0  0  0  0  0  0  0  0
   69.4355   48.3353   54.9156 C   0  0  0  0  0  0  0  0  0  0  0  0
   70.3990   49.2219   54.5078 N   0  0  0  0  0  0  0  0  0  0  0  0
   70.7906   49.3230   53.2492 N   0  0  0  0  0  0  0  0  0  0  0  0
   70.2687   48.5603   52.2728 C   0  0  0  0  0  0  0  0  0  0  0  0
   70.6691   48.6852   51.0691 O   0  0  0  0  0  0  0  0  0  0  0  0
   69.2956   47.6419   52.5978 C   0  0  0  0  0  0  0  0  0  0  0  0
   68.7697   46.8447   51.5973 C   0  0  0  0  0  0  0  0  0  0  0  0
   67.8024   45.9114   51.9523 C   0  0  0  0  0  0  0  0  0  0  0  0
   67.3999   45.8068   53.2644 C   0  0  0  0  0  0  0  0  0  0  0  0
   67.9467   46.6219   54.2430 C   0  0  0  0  0  0  0  0  0  0  0  0
   68.8958   47.5488   53.9292 C   0  0  0  0  0  0  0  0  0  0  0  0
 12 13  1  0
 13 11  1  0
 11  8  1  0
  8  9  1  0
  9 10  2  0
  9  1  1  0
  1  2  2  0
  1  6  1  0
  2  3  1  0
  3 14  1  0
  3  4  2  0
 14 15  1  0
 15 16  2  0
 15 25  1  0
 16 17  1  0
 17 18  1  0
 18 19  2  0
 18 20  1  0
 20 21  1  0
 20 25  2  0
 21 22  2  0
 22 23  1  0
 23 24  2  0
 24 25  1  0
  4  5  1  0
  5  6  2  0
  6  7  1  0
M  END
>  <minimizedAffinity>  (179) 
-9.04797

$$$$
cs_full_output_folder/data/smiles/5149.pdb
     RDKit          3D

 23 25  0  0  0  0  0  0  0  0999 V2000
   68.6079   44.9655   56.1096 N   0  0  0  0  0  0  0  0  0  0  0  0
   69.4465   44.7094   57.2129 C   0  0  0  0  0  0  0  0  0  0  0  0
   69.7765   45.6679   57.9447 O   0  0  0  0  0  0  0  0  0  0  0  0
   69.9572   43.3829   57.5555 C   0  0  0  0  0  0  0  0  0  0  0  0
   69.1134   42.2906   57.6818 C   0  0  0  0  0  0  0  0  0  0  0  0
   69.6262   41.0383   58.0130 C   0  0  0  0  0  0  0  0  0  0  0  0
   68.7883   39.9494   58.1360 C   0  0  0  0  0  0  0  0  0  0  0  0
   69.2428   38.6919   58.4566 C   0  0  0  0  0  0  0  0  0  0  0  0
   70.5879   38.4698   58.6723 C   0  0  0  0  0  0  0  0  0  0  0  0
   71.4345   39.5507   58.5530 C   0  0  0  0  0  0  0  0  0  0  0  0
   70.9687   40.8281   58.2268 C   0  0  0  0  0  0  0  0  0  0  0  0
   71.8170   41.9078   58.1056 C   0  0  0  0  0  0  0  0  0  0  0  0
   71.2921   43.1643   57.7712 C   0  0  0  0  0  0  0  0  0  0  0  0
   72.1691   44.2317   57.6558 O   0  0  0  0  0  0  0  0  0  0  0  0
   68.0778   46.1906   55.7263 N   0  0  0  0  0  0  0  0  0  0  0  0
   69.6404   48.1897   52.3660 C   0  0  0  0  0  0  0  0  0  0  0  0
   69.0019   46.9686   52.2246 C   0  0  0  0  0  0  0  0  0  0  0  0
   68.4754   46.2909   53.3270 C   0  0  0  0  0  0  0  0  0  0  0  0
   68.5860   46.8352   54.5641 C   0  0  0  0  0  0  0  0  0  0  0  0
   69.2224   48.0528   54.7050 C   0  0  0  0  0  0  0  0  0  0  0  0
   69.7559   48.7422   53.6055 C   0  0  0  0  0  0  0  0  0  0  0  0
   69.7298   49.9927   50.8639 O   0  0  0  0  0  0  0  0  0  0  0  0
   70.1705   48.8548   51.1958 N   0  0  0  0  0  0  0  0  0  0  0  0
 22 23  2  0
 23 16  1  0
 16 17  2  0
 16 21  1  0
 17 18  1  0
 18 19  2  0
 19 15  1  0
 19 20  1  0
 15  1  1  0
  1  2  1  0
  2  3  2  0
  2  4  1  0
  4  5  2  0
  4 13  1  0
  5  6  1  0
  6  7  2  0
  6 11  1  0
  7  8  1  0
  8  9  2  0
  9 10  1  0
 10 11  2  0
 11 12  1  0
 12 13  2  0
 13 14  1  0
 20 21  2  0
M  END
>  <minimizedAffinity>  (180) 
-9.04645

$$$$
cs_full_output_folder/data/smiles/8894.pdb
     RDKit          3D

 23 25  0  0  0  0  0  0  0  0999 V2000
   69.3832   49.2796   52.5227 C   0  0  0  0  0  0  0  0  0  0  0  0
   70.3574   49.9664   53.3788 C   0  0  0  0  0  0  0  0  0  0  0  0
   71.6504   49.6160   53.3529 N   0  0  0  0  0  0  0  0  0  0  0  0
   72.5554   50.2339   54.1304 N   0  0  0  0  0  0  0  0  0  0  0  0
   72.1939   51.2265   54.9620 C   0  0  0  0  0  0  0  0  0  0  0  0
   73.0705   51.8002   55.6913 O   0  0  0  0  0  0  0  0  0  0  0  0
   70.8917   51.6346   55.0395 C   0  0  0  0  0  0  0  0  0  0  0  0
   70.4992   52.6490   55.8846 C   0  0  0  0  0  0  0  0  0  0  0  0
   69.1766   53.0184   55.9215 C   0  0  0  0  0  0  0  0  0  0  0  0
   68.2312   52.3852   55.1208 C   0  0  0  0  0  0  0  0  0  0  0  0
   68.6705   51.3744   54.2901 C   0  0  0  0  0  0  0  0  0  0  0  0
   69.9754   50.9778   54.2233 C   0  0  0  0  0  0  0  0  0  0  0  0
   68.7459   46.6878   55.1954 C   0  0  0  0  0  0  0  0  0  0  0  0
   69.1022   47.8505   54.4981 C   0  0  0  0  0  0  0  0  0  0  0  0
   68.9678   47.9952   53.1393 C   0  0  0  0  0  0  0  0  0  0  0  0
   68.4569   46.9530   52.4078 C   0  0  0  0  0  0  0  0  0  0  0  0
   68.0907   45.7873   53.0465 C   0  0  0  0  0  0  0  0  0  0  0  0
   68.2389   45.6642   54.4412 C   0  0  0  0  0  0  0  0  0  0  0  0
   67.8696   44.5077   55.0344 F   0  0  0  0  0  0  0  0  0  0  0  0
   69.8710   45.7757   58.7511 N   0  0  0  0  0  0  0  0  0  0  0  0
   69.7415   45.7429   57.3508 N   0  0  0  0  0  0  0  0  0  0  0  0
   68.9348   46.6512   56.6404 C   0  0  0  0  0  0  0  0  0  0  0  0
   68.3323   47.5057   57.3822 O   0  0  0  0  0  0  0  0  0  0  0  0
 20 21  1  0
 21 22  1  0
 22 23  2  0
 22 13  1  0
 13 14  2  0
 13 18  1  0
 14 15  1  0
 15  1  1  0
 15 16  2  0
  1  2  1  0
  2  3  2  0
  2 12  1  0
  3  4  1  0
  4  5  1  0
  5  6  2  0
  5  7  1  0
  7  8  1  0
  7 12  2  0
  8  9  2  0
  9 10  1  0
 10 11  2  0
 11 12  1  0
 16 17  1  0
 17 18  2  0
 18 19  1  0
M  END
>  <minimizedAffinity>  (181) 
-9.04462

$$$$
cs_full_output_folder/data/smiles/6330.pdb
     RDKit          3D

 24 26  0  0  0  0  0  0  0  0999 V2000
   68.0829   44.0422   55.4287 N   0  0  0  0  0  0  0  0  0  0  0  0
   68.1647   45.4411   55.2446 C   0  0  0  0  0  0  0  0  0  0  0  0
   68.1745   46.1893   56.2442 O   0  0  0  0  0  0  0  0  0  0  0  0
   68.2378   46.0129   53.8860 C   0  0  0  0  0  0  0  0  0  0  0  0
   67.6321   45.3040   52.8748 C   0  0  0  0  0  0  0  0  0  0  0  0
   67.6761   45.8004   51.5944 C   0  0  0  0  0  0  0  0  0  0  0  0
   68.3148   46.9837   51.3344 C   0  0  0  0  0  0  0  0  0  0  0  0
   68.9157   47.6802   52.3555 C   0  0  0  0  0  0  0  0  0  0  0  0
   69.5727   48.8904   52.1263 C   0  0  0  0  0  0  0  0  0  0  0  0
   70.1768   49.6026   53.1381 C   0  0  0  0  0  0  0  0  0  0  0  0
   70.1417   49.1176   54.4277 C   0  0  0  0  0  0  0  0  0  0  0  0
   69.4958   47.9159   54.6917 C   0  0  0  0  0  0  0  0  0  0  0  0
   68.8862   47.2023   53.6574 C   0  0  0  0  0  0  0  0  0  0  0  0
   67.5587   41.4167   55.6459 O   0  0  0  0  0  0  0  0  0  0  0  0
   67.7301   42.0360   56.7379 C   0  0  0  0  0  0  0  0  0  0  0  0
   68.0093   43.4197   56.6680 N   0  0  0  0  0  0  0  0  0  0  0  0
   67.6310   41.2931   58.0244 C   0  0  0  0  0  0  0  0  0  0  0  0
   68.9031   40.5449   58.1860 C   0  0  0  0  0  0  0  0  0  0  0  0
   70.1175   41.2215   58.2421 C   0  0  0  0  0  0  0  0  0  0  0  0
   71.3145   40.5568   58.3920 C   0  0  0  0  0  0  0  0  0  0  0  0
   71.3308   39.1789   58.4903 C   0  0  0  0  0  0  0  0  0  0  0  0
   72.5145   38.5250   58.6355 F   0  0  0  0  0  0  0  0  0  0  0  0
   70.1403   38.4863   58.4369 C   0  0  0  0  0  0  0  0  0  0  0  0
   68.9495   39.1601   58.2876 C   0  0  0  0  0  0  0  0  0  0  0  0
 14 15  2  0
 15 17  1  0
 15 16  1  0
 17 18  1  0
 18 19  2  0
 18 24  1  0
 19 20  1  0
 20 21  2  0
 21 22  1  0
 21 23  1  0
 23 24  2  0
 16  1  1  0
  1  2  1  0
  2  3  2  0
  2  4  1  0
  4  5  2  0
  4 13  1  0
  5  6  1  0
  6  7  2  0
  7  8  1  0
  8  9  1  0
  8 13  2  0
  9 10  2  0
 10 11  1  0
 11 12  2  0
 12 13  1  0
M  END
>  <minimizedAffinity>  (182) 
-9.04281

$$$$
cs_full_output_folder/data/smiles/8860.pdb
     RDKit          3D

 23 25  0  0  0  0  0  0  0  0999 V2000
   70.1430   50.2574   54.6580 C   0  0  0  0  0  0  0  0  0  0  0  0
   71.3717   50.9500   54.7649 C   0  0  0  0  0  0  0  0  0  0  0  0
   72.1991   50.3598   53.9350 N   0  0  0  0  0  0  0  0  0  0  0  0
   71.6202   49.3852   53.3282 N   0  0  0  0  0  0  0  0  0  0  0  0
   70.2922   49.2592   53.7390 C   0  0  0  0  0  0  0  0  0  0  0  0
   69.4690   48.1643   53.2568 C   0  0  0  0  0  0  0  0  0  0  0  0
   68.5942   47.5282   54.1751 C   0  0  0  0  0  0  0  0  0  0  0  0
   67.8268   46.4563   53.9072 C   0  0  0  0  0  0  0  0  0  0  0  0
   67.8929   45.9206   52.6171 C   0  0  0  0  0  0  0  0  0  0  0  0
   68.7131   46.4827   51.6896 C   0  0  0  0  0  0  0  0  0  0  0  0
   69.5006   47.6111   52.0298 C   0  0  0  0  0  0  0  0  0  0  0  0
   70.3086   48.0984   51.0208 O   0  0  0  0  0  0  0  0  0  0  0  0
   68.8243   49.9405   56.6748 C   0  0  0  0  0  0  0  0  0  0  0  0
   69.0043   50.5051   55.5156 C   0  0  0  0  0  0  0  0  0  0  0  0
   70.2065   46.7652   58.1890 C   0  0  0  0  0  0  0  0  0  0  0  0
   71.2265   47.2565   58.9671 C   0  0  0  0  0  0  0  0  0  0  0  0
   71.4585   48.6058   58.9331 C   0  0  0  0  0  0  0  0  0  0  0  0
   70.6989   49.4281   58.1473 C   0  0  0  0  0  0  0  0  0  0  0  0
   69.6436   48.9752   57.3307 C   0  0  0  0  0  0  0  0  0  0  0  0
   69.4353   47.6225   57.3900 C   0  0  0  0  0  0  0  0  0  0  0  0
   69.6196   44.7906   57.1385 O   0  0  0  0  0  0  0  0  0  0  0  0
   69.9281   45.3745   58.1921 N   0  0  0  0  0  0  0  0  0  0  0  0
   70.0024   44.6857   59.3584 O   0  0  0  0  0  0  0  0  0  0  0  0
 21 22  2  0
 22 23  1  0
 22 15  1  0
 15 16  2  0
 15 20  1  0
 16 17  1  0
 17 18  2  0
 18 19  1  0
 19 13  1  0
 19 20  2  0
 13 14  2  0
 14  1  1  0
  1  2  1  0
  1  5  2  0
  2  3  2  0
  3  4  1  0
  4  5  1  0
  5  6  1  0
  6  7  2  0
  6 11  1  0
  7  8  1  0
  8  9  2  0
  9 10  1  0
 10 11  2  0
 11 12  1  0
M  CHG  2  22   1  23  -1
M  END
>  <minimizedAffinity>  (183) 
-9.04241

$$$$
cs_full_output_folder/data/smiles/1020.pdb
     RDKit          3D

 23 25  0  0  0  0  0  0  0  0999 V2000
   69.1885   45.5535   56.8588 C   0  0  0  0  0  0  0  0  0  0  0  0
   70.2618   46.1985   57.3489 N   0  0  0  0  0  0  0  0  0  0  0  0
   71.2269   45.5359   57.9990 C   0  0  0  0  0  0  0  0  0  0  0  0
   71.1192   44.1516   58.1696 C   0  0  0  0  0  0  0  0  0  0  0  0
   70.0244   43.4850   57.6709 C   0  0  0  0  0  0  0  0  0  0  0  0
   69.1031   44.2234   57.0336 N   0  0  0  0  0  0  0  0  0  0  0  0
   69.9013   42.0446   57.8277 C   0  0  0  0  0  0  0  0  0  0  0  0
   68.7324   41.3475   57.6431 C   0  0  0  0  0  0  0  0  0  0  0  0
   68.6617   39.9591   57.8165 C   0  0  0  0  0  0  0  0  0  0  0  0
   69.7706   39.2338   58.1830 C   0  0  0  0  0  0  0  0  0  0  0  0
   70.9507   39.9240   58.3704 C   0  0  0  0  0  0  0  0  0  0  0  0
   71.0180   41.2908   58.1995 C   0  0  0  0  0  0  0  0  0  0  0  0
   68.1586   46.2380   56.1613 N   0  0  0  0  0  0  0  0  0  0  0  0
   69.2154   47.8176   52.9676 C   0  0  0  0  0  0  0  0  0  0  0  0
   68.7519   46.9446   52.0230 C   0  0  0  0  0  0  0  0  0  0  0  0
   68.0700   45.8124   52.4872 C   0  0  0  0  0  0  0  0  0  0  0  0
   67.8699   45.5789   53.8373 C   0  0  0  0  0  0  0  0  0  0  0  0
   68.3370   46.4569   54.7700 C   0  0  0  0  0  0  0  0  0  0  0  0
   69.0142   47.5823   54.3068 C   0  0  0  0  0  0  0  0  0  0  0  0
   69.4827   50.6122   53.4359 C   0  0  0  0  0  0  0  0  0  0  0  0
   70.0746   49.2496   52.4631 S   0  0  0  0  0  0  0  0  0  0  0  0
   71.5357   49.0389   52.8042 O   0  0  0  0  0  0  0  0  0  0  0  0
   69.8955   49.5014   50.9924 O   0  0  0  0  0  0  0  0  0  0  0  0
 20 21  1  0
 21 22  2  0
 21 23  2  0
 21 14  1  0
 14 15  2  0
 14 19  1  0
 15 16  1  0
 16 17  2  0
 17 18  1  0
 18 13  1  0
 18 19  2  0
 13  1  1  0
  1  2  2  0
  1  6  1  0
  2  3  1  0
  3  4  2  0
  4  5  1  0
  5  7  1  0
  5  6  2  0
  7  8  2  0
  7 12  1  0
  8  9  1  0
  9 10  2  0
 10 11  1  0
 11 12  2  0
M  END
>  <minimizedAffinity>  (184) 
-9.04011

$$$$
cs_full_output_folder/data/smiles/9021.pdb
     RDKit          3D

 24 26  0  0  0  0  0  0  0  0999 V2000
   70.3974   45.7323   59.0987 O   0  0  0  0  0  0  0  0  0  0  0  0
   70.2964   45.0168   58.0839 C   0  0  0  0  0  0  0  0  0  0  0  0
   69.5417   45.5497   56.9861 N   0  0  0  0  0  0  0  0  0  0  0  0
   70.9171   43.7059   58.0256 C   0  0  0  0  0  0  0  0  0  0  0  0
   70.4313   42.4743   58.4044 C   0  0  0  0  0  0  0  0  0  0  0  0
   71.3845   41.5024   58.1608 C   0  0  0  0  0  0  0  0  0  0  0  0
   72.4278   42.1679   57.6378 N   0  0  0  0  0  0  0  0  0  0  0  0
   72.1514   43.4649   57.5588 N   0  0  0  0  0  0  0  0  0  0  0  0
   71.2621   40.0754   58.4214 C   0  0  0  0  0  0  0  0  0  0  0  0
   70.0224   39.4934   58.5745 C   0  0  0  0  0  0  0  0  0  0  0  0
   69.8576   38.1361   58.8244 C   0  0  0  0  0  0  0  0  0  0  0  0
   70.9794   37.3389   58.9225 C   0  0  0  0  0  0  0  0  0  0  0  0
   70.8303   36.0054   59.1673 F   0  0  0  0  0  0  0  0  0  0  0  0
   72.2446   37.8837   58.7753 C   0  0  0  0  0  0  0  0  0  0  0  0
   72.3563   39.2427   58.5269 C   0  0  0  0  0  0  0  0  0  0  0  0
   68.9401   46.7651   56.9835 N   0  0  0  0  0  0  0  0  0  0  0  0
   68.5255   47.4292   56.0097 C   0  0  0  0  0  0  0  0  0  0  0  0
   68.5472   47.1271   54.5957 C   0  0  0  0  0  0  0  0  0  0  0  0
   67.8029   46.0494   54.0961 C   0  0  0  0  0  0  0  0  0  0  0  0
   67.7737   45.7040   52.7760 C   0  0  0  0  0  0  0  0  0  0  0  0
   68.4931   46.4194   51.8530 C   0  0  0  0  0  0  0  0  0  0  0  0
   69.2438   47.4893   52.2855 C   0  0  0  0  0  0  0  0  0  0  0  0
   69.9652   48.2027   51.3450 O   0  0  0  0  0  0  0  0  0  0  0  0
   69.2563   47.8213   53.6422 C   0  0  0  0  0  0  0  0  0  0  0  0
  1  2  2  0
  2  3  1  0
  2  4  1  0
  3 16  1  0
 16 17  2  0
 17 18  1  0
 18 19  2  0
 18 24  1  0
 19 20  1  0
 20 21  2  0
 21 22  1  0
 22 23  1  0
 22 24  2  0
  4  5  2  0
  4  8  1  0
  5  6  1  0
  6  9  1  0
  6  7  2  0
  9 10  2  0
  9 15  1  0
 10 11  1  0
 11 12  2  0
 12 13  1  0
 12 14  1  0
 14 15  2  0
  7  8  1  0
M  END
>  <minimizedAffinity>  (185) 
-9.04003

$$$$
cs_full_output_folder/data/smiles/49.pdb
     RDKit          3D

 21 23  0  0  0  0  0  0  0  0999 V2000
   71.6018   49.1831   53.0216 O   0  0  0  0  0  0  0  0  0  0  0  0
   70.1979   49.2349   52.4193 S   0  0  0  0  0  0  0  0  0  0  0  0
   70.4160   48.9582   50.9477 O   0  0  0  0  0  0  0  0  0  0  0  0
   69.3027   47.9594   53.1685 C   0  0  0  0  0  0  0  0  0  0  0  0
   69.3411   47.7689   54.5497 C   0  0  0  0  0  0  0  0  0  0  0  0
   68.6599   46.7735   55.1852 C   0  0  0  0  0  0  0  0  0  0  0  0
   67.8886   45.9000   54.4497 C   0  0  0  0  0  0  0  0  0  0  0  0
   67.8180   46.0483   53.0841 C   0  0  0  0  0  0  0  0  0  0  0  0
   67.1768   45.3938   52.1057 N   0  0  0  0  0  0  0  0  0  0  0  0
   67.4360   45.9354   50.9597 O   0  0  0  0  0  0  0  0  0  0  0  0
   68.2364   46.9380   51.1476 N   0  0  0  0  0  0  0  0  0  0  0  0
   68.5312   47.0821   52.4596 C   0  0  0  0  0  0  0  0  0  0  0  0
   69.5685   50.8057   52.6614 N   0  0  0  0  0  0  0  0  0  0  0  0
   69.4603   51.3547   53.9615 C   0  0  0  0  0  0  0  0  0  0  0  0
   68.2871   51.2202   54.7160 C   0  0  0  0  0  0  0  0  0  0  0  0
   68.1931   51.7186   55.9970 C   0  0  0  0  0  0  0  0  0  0  0  0
   67.0450   51.5703   56.6960 F   0  0  0  0  0  0  0  0  0  0  0  0
   69.2452   52.3714   56.5978 C   0  0  0  0  0  0  0  0  0  0  0  0
   70.4173   52.5141   55.8650 C   0  0  0  0  0  0  0  0  0  0  0  0
   70.4986   52.0114   54.5841 C   0  0  0  0  0  0  0  0  0  0  0  0
   71.6467   52.1562   53.8758 F   0  0  0  0  0  0  0  0  0  0  0  0
  1  2  2  0
  2  3  2  0
  2 13  1  0
  2  4  1  0
 13 14  1  0
 14 15  2  0
 14 20  1  0
 15 16  1  0
 16 17  1  0
 16 18  2  0
 18 19  1  0
 19 20  2  0
 20 21  1  0
  4  5  2  0
  4 12  1  0
  5  6  1  0
  6  7  2  0
  7  8  1  0
  8  9  2  0
  8 12  1  0
  9 10  1  0
 10 11  1  0
 11 12  2  0
M  END
>  <minimizedAffinity>  (186) 
-9.03960

$$$$
cs_full_output_folder/data/smiles/9362.pdb
     RDKit          3D

 24 26  0  0  0  0  0  0  0  0999 V2000
   70.6445   46.1308   58.1752 C   0  0  0  0  0  0  0  0  0  0  0  0
   71.7720   46.7429   58.6599 C   0  0  0  0  0  0  0  0  0  0  0  0
   72.0188   48.0676   58.3277 C   0  0  0  0  0  0  0  0  0  0  0  0
   71.1411   48.7581   57.5196 C   0  0  0  0  0  0  0  0  0  0  0  0
   69.9897   48.1479   57.0185 C   0  0  0  0  0  0  0  0  0  0  0  0
   69.7766   46.8504   57.3631 C   0  0  0  0  0  0  0  0  0  0  0  0
   69.7290   43.8753   57.5000 N   0  0  0  0  0  0  0  0  0  0  0  0
   70.3018   44.7270   58.4776 C   0  0  0  0  0  0  0  0  0  0  0  0
   70.5090   44.2539   59.6074 O   0  0  0  0  0  0  0  0  0  0  0  0
   69.4114   42.4944   57.8586 C   0  0  0  0  0  0  0  0  0  0  0  0
   67.4689   41.5670   56.2400 C   0  0  0  0  0  0  0  0  0  0  0  0
   68.3456   41.9871   56.9618 C   0  0  0  0  0  0  0  0  0  0  0  0
   69.1002   48.9775   56.1822 C   0  0  0  0  0  0  0  0  0  0  0  0
   69.4083   48.8479   54.7762 C   0  0  0  0  0  0  0  0  0  0  0  0
   70.2693   49.7468   54.2084 N   0  0  0  0  0  0  0  0  0  0  0  0
   70.6403   49.6880   52.9480 N   0  0  0  0  0  0  0  0  0  0  0  0
   70.2005   48.7310   52.1039 C   0  0  0  0  0  0  0  0  0  0  0  0
   70.5702   48.6931   50.8991 O   0  0  0  0  0  0  0  0  0  0  0  0
   69.3395   47.8012   52.6009 C   0  0  0  0  0  0  0  0  0  0  0  0
   68.8483   46.8118   51.7980 C   0  0  0  0  0  0  0  0  0  0  0  0
   67.9728   45.8735   52.2664 C   0  0  0  0  0  0  0  0  0  0  0  0
   67.5596   45.9075   53.5913 C   0  0  0  0  0  0  0  0  0  0  0  0
   68.0701   46.9247   54.4014 C   0  0  0  0  0  0  0  0  0  0  0  0
   68.9542   47.8717   53.9317 C   0  0  0  0  0  0  0  0  0  0  0  0
 11 12  3  0
 12 10  1  0
 10  7  1  0
  7  8  1  0
  8  9  2  0
  8  1  1  0
  1  2  2  0
  1  6  1  0
  2  3  1  0
  3  4  2  0
  4  5  1  0
  5 13  1  0
  5  6  2  0
 13 14  1  0
 14 15  2  0
 14 24  1  0
 15 16  1  0
 16 17  1  0
 17 18  2  0
 17 19  1  0
 19 20  1  0
 19 24  2  0
 20 21  2  0
 21 22  1  0
 22 23  2  0
 23 24  1  0
M  END
>  <minimizedAffinity>  (187) 
-9.03924

$$$$
cs_full_output_folder/data/smiles/2796.pdb
     RDKit          3D

 26 29  0  0  0  0  0  0  0  0999 V2000
   73.6501   50.1321   56.4360 C   0  0  0  0  0  0  0  0  0  0  0  0
   72.8257   49.5278   57.3459 C   0  0  0  0  0  0  0  0  0  0  0  0
   71.4487   49.4628   57.1740 C   0  0  0  0  0  0  0  0  0  0  0  0
   70.9012   50.0277   56.0445 C   0  0  0  0  0  0  0  0  0  0  0  0
   71.7361   50.6302   55.1390 C   0  0  0  0  0  0  0  0  0  0  0  0
   73.0693   50.6670   55.3526 N   0  0  0  0  0  0  0  0  0  0  0  0
   75.5068   49.3751   54.5197 O   0  0  0  0  0  0  0  0  0  0  0  0
   75.9780   49.8292   55.5899 C   0  0  0  0  0  0  0  0  0  0  0  0
   75.0564   50.2199   56.5805 N   0  0  0  0  0  0  0  0  0  0  0  0
   77.4268   49.9190   55.7312 C   0  0  0  0  0  0  0  0  0  0  0  0
   78.3048   48.9783   55.2349 C   0  0  0  0  0  0  0  0  0  0  0  0
   79.6818   49.0771   55.3754 C   0  0  0  0  0  0  0  0  0  0  0  0
   80.2299   50.1555   56.0376 C   0  0  0  0  0  0  0  0  0  0  0  0
   79.3752   51.1108   56.5430 C   0  0  0  0  0  0  0  0  0  0  0  0
   78.0062   50.9969   56.3942 C   0  0  0  0  0  0  0  0  0  0  0  0
   69.4323   49.9942   55.7797 C   0  0  0  0  0  0  0  0  0  0  0  0
   69.0510   48.5954   55.4985 C   0  0  0  0  0  0  0  0  0  0  0  0
   68.7336   47.7915   56.5262 N   0  0  0  0  0  0  0  0  0  0  0  0
   68.3789   46.5317   56.3720 N   0  0  0  0  0  0  0  0  0  0  0  0
   68.3306   46.0306   55.1489 C   0  0  0  0  0  0  0  0  0  0  0  0
   67.9848   44.8148   55.0326 O   0  0  0  0  0  0  0  0  0  0  0  0
   68.6424   46.8010   54.0518 C   0  0  0  0  0  0  0  0  0  0  0  0
   69.0182   48.1289   54.2063 C   0  0  0  0  0  0  0  0  0  0  0  0
   69.2866   48.6682   52.8680 C   0  0  0  0  0  0  0  0  0  0  0  0
   69.5795   47.4641   52.0066 C   0  0  0  0  0  0  0  0  0  0  0  0
   68.6442   46.4163   52.6161 C   0  0  0  0  0  0  0  0  0  0  0  0
  7  8  2  0
  8  9  1  0
  8 10  1  0
  9  1  1  0
  1  2  2  0
  1  6  1  0
  2  3  1  0
  3  4  2  0
  4 16  1  0
  4  5  1  0
 16 17  1  0
 17 18  2  0
 17 23  1  0
 18 19  1  0
 19 20  1  0
 20 21  2  0
 20 22  1  0
 22 23  2  0
 22 26  1  0
 23 24  1  0
 24 25  1  0
 25 26  1  0
  5  6  2  0
 10 11  2  0
 10 15  1  0
 11 12  1  0
 12 13  2  0
 13 14  1  0
 14 15  2  0
M  END
>  <minimizedAffinity>  (188) 
-9.03096

$$$$
cs_full_output_folder/data/smiles/4740.pdb
     RDKit          3D

 26 28  0  0  0  0  0  0  0  0999 V2000
   70.5060   45.2680   58.9216 C   0  0  0  0  0  0  0  0  0  0  0  0
   69.7474   45.7979   58.0887 N   0  0  0  0  0  0  0  0  0  0  0  0
   76.4130   42.7156   58.0052 C   0  0  0  0  0  0  0  0  0  0  0  0
   76.5397   43.9224   58.6733 C   0  0  0  0  0  0  0  0  0  0  0  0
   75.4014   44.6667   58.9878 C   0  0  0  0  0  0  0  0  0  0  0  0
   74.1401   44.2272   58.6461 C   0  0  0  0  0  0  0  0  0  0  0  0
   72.9888   44.9569   58.9511 C   0  0  0  0  0  0  0  0  0  0  0  0
   71.7133   44.5451   58.6245 C   0  0  0  0  0  0  0  0  0  0  0  0
   71.5953   43.3209   57.9479 C   0  0  0  0  0  0  0  0  0  0  0  0
   72.7307   42.6064   57.6499 C   0  0  0  0  0  0  0  0  0  0  0  0
   73.9996   43.0301   57.9819 C   0  0  0  0  0  0  0  0  0  0  0  0
   75.1414   42.2960   57.6744 C   0  0  0  0  0  0  0  0  0  0  0  0
   78.7797   42.5626   57.3722 C   0  0  0  0  0  0  0  0  0  0  0  0
   77.5503   41.9720   57.6916 O   0  0  0  0  0  0  0  0  0  0  0  0
   69.7366   45.9053   56.7296 N   0  0  0  0  0  0  0  0  0  0  0  0
   68.7484   46.6654   56.0352 C   0  0  0  0  0  0  0  0  0  0  0  0
   67.8913   47.2242   56.7673 O   0  0  0  0  0  0  0  0  0  0  0  0
   68.7322   46.7840   54.5857 C   0  0  0  0  0  0  0  0  0  0  0  0
   68.0012   45.8554   53.8699 C   0  0  0  0  0  0  0  0  0  0  0  0
   67.9358   45.9015   52.4833 C   0  0  0  0  0  0  0  0  0  0  0  0
   68.6166   46.8977   51.8016 C   0  0  0  0  0  0  0  0  0  0  0  0
   69.3540   47.8363   52.4962 C   0  0  0  0  0  0  0  0  0  0  0  0
   69.3878   47.7497   53.8710 C   0  0  0  0  0  0  0  0  0  0  0  0
   70.0426   48.8472   51.7764 N   0  0  0  0  0  0  0  0  0  0  0  0
   70.6835   48.5434   50.7573 O   0  0  0  0  0  0  0  0  0  0  0  0
   70.0300   50.1596   52.1614 O   0  0  0  0  0  0  0  0  0  0  0  0
 13 14  1  0
 14  3  1  0
  3  4  2  0
  3 12  1  0
  4  5  1  0
  5  6  2  0
  6  7  1  0
  6 11  1  0
  7  8  2  0
  8  1  1  0
  8  9  1  0
  1  2  2  0
  2 15  1  0
 15 16  1  0
 16 17  2  0
 16 18  1  0
 18 19  2  0
 18 23  1  0
 19 20  1  0
 20 21  2  0
 21 22  1  0
 22 24  1  0
 22 23  2  0
 24 25  2  0
 24 26  1  0
  9 10  2  0
 10 11  1  0
 11 12  2  0
M  CHG  2  24   1  26  -1
M  END
>  <minimizedAffinity>  (189) 
-9.03040

$$$$
cs_full_output_folder/data/smiles/4609.pdb
     RDKit          3D

 24 25  0  0  0  0  0  0  0  0999 V2000
   67.9453   43.4737   56.7250 N   0  0  0  0  0  0  0  0  0  0  0  0
   68.0543   44.0242   55.4354 N   0  0  0  0  0  0  0  0  0  0  0  0
   68.2164   45.4155   55.2069 C   0  0  0  0  0  0  0  0  0  0  0  0
   68.2619   46.1733   56.2049 O   0  0  0  0  0  0  0  0  0  0  0  0
   68.3310   45.9954   53.8855 C   0  0  0  0  0  0  0  0  0  0  0  0
   67.5866   45.5183   52.8300 C   0  0  0  0  0  0  0  0  0  0  0  0
   67.6767   46.0510   51.5632 C   0  0  0  0  0  0  0  0  0  0  0  0
   68.5218   47.0889   51.3102 C   0  0  0  0  0  0  0  0  0  0  0  0
   69.2922   47.6041   52.3401 C   0  0  0  0  0  0  0  0  0  0  0  0
   69.1835   47.0511   53.6023 C   0  0  0  0  0  0  0  0  0  0  0  0
   70.1759   48.6913   52.0697 N   0  0  0  0  0  0  0  0  0  0  0  0
   71.1475   48.9108   52.8142 O   0  0  0  0  0  0  0  0  0  0  0  0
   69.9874   49.5181   50.9983 O   0  0  0  0  0  0  0  0  0  0  0  0
   68.8717   42.5820   57.2672 C   0  0  0  0  0  0  0  0  0  0  0  0
   68.4865   41.0514   57.6202 S   0  0  0  0  0  0  0  0  0  0  0  0
   72.8691   43.8703   58.0591 C   0  0  0  0  0  0  0  0  0  0  0  0
   72.5859   42.5749   57.6820 C   0  0  0  0  0  0  0  0  0  0  0  0
   71.3119   42.1560   57.4283 C   0  0  0  0  0  0  0  0  0  0  0  0
   70.2580   43.0193   57.5394 C   0  0  0  0  0  0  0  0  0  0  0  0
   70.4947   44.3230   57.9131 C   0  0  0  0  0  0  0  0  0  0  0  0
   71.7871   44.7172   58.1632 C   0  0  0  0  0  0  0  0  0  0  0  0
   75.0884   43.1450   58.6613 C   0  0  0  0  0  0  0  0  0  0  0  0
   74.2319   44.3735   58.3461 C   0  0  2  0  0  0  0  0  0  0  0  0
   74.1610   45.2450   59.5040 N   0  0  0  0  0  0  0  0  0  0  0  0
 23 22  1  1
 23 24  1  0
 23 16  1  0
 16 17  2  0
 16 21  1  0
 17 18  1  0
 18 19  2  0
 19 14  1  0
 19 20  1  0
 14 15  2  0
 14  1  1  0
  1  2  1  0
  2  3  1  0
  3  4  2  0
  3  5  1  0
  5  6  2  0
  5 10  1  0
  6  7  1  0
  7  8  2  0
  8  9  1  0
  9 11  1  0
  9 10  2  0
 11 12  2  0
 11 13  1  0
 20 21  2  0
M  CHG  3  11   1  13  -1  24   1
M  END
>  <minimizedAffinity>  (190) 
-9.02783

$$$$
cs_full_output_folder/data/smiles/3619.pdb
     RDKit          3D

 23 24  0  0  0  0  0  0  0  0999 V2000
   68.1839   45.1531   55.2178 C   0  0  0  0  0  0  0  0  0  0  0  0
   68.4852   45.7000   56.3124 O   0  0  0  0  0  0  0  0  0  0  0  0
   67.7433   43.8054   55.3145 N   0  0  0  0  0  0  0  0  0  0  0  0
   69.0751   47.7280   52.6652 C   0  0  0  0  0  0  0  0  0  0  0  0
   68.4367   47.1999   51.5623 C   0  0  0  0  0  0  0  0  0  0  0  0
   67.7200   46.0179   51.6362 C   0  0  0  0  0  0  0  0  0  0  0  0
   67.6743   45.3953   52.8590 C   0  0  0  0  0  0  0  0  0  0  0  0
   68.2959   45.8899   53.9778 C   0  0  0  0  0  0  0  0  0  0  0  0
   68.9974   47.0606   53.8734 C   0  0  0  0  0  0  0  0  0  0  0  0
   69.3053   50.4602   53.6235 C   0  0  0  0  0  0  0  0  0  0  0  0
   69.9783   49.2343   52.5376 S   0  0  0  0  0  0  0  0  0  0  0  0
   71.4315   48.9887   52.7978 O   0  0  0  0  0  0  0  0  0  0  0  0
   69.8380   49.7420   51.1301 O   0  0  0  0  0  0  0  0  0  0  0  0
   67.6403   43.1072   56.5178 N   0  0  0  0  0  0  0  0  0  0  0  0
   67.5104   41.7160   56.6255 C   0  0  0  0  0  0  0  0  0  0  0  0
   67.4881   41.0669   55.5285 O   0  0  0  0  0  0  0  0  0  0  0  0
   67.4035   40.9795   57.8773 C   0  0  0  0  0  0  0  0  0  0  0  0
   68.0445   39.7705   58.0304 C   0  0  0  0  0  0  0  0  0  0  0  0
   67.9691   39.0343   59.2045 C   0  0  0  0  0  0  0  0  0  0  0  0
   67.2297   39.5098   60.2765 C   0  0  0  0  0  0  0  0  0  0  0  0
   67.1651   38.7880   61.4084 F   0  0  0  0  0  0  0  0  0  0  0  0
   66.5834   40.7180   60.1367 C   0  0  0  0  0  0  0  0  0  0  0  0
   66.6754   41.4390   58.9431 C   0  0  0  0  0  0  0  0  0  0  0  0
 10 11  1  0
 11 12  2  0
 11 13  2  0
 11  4  1  0
  4  5  2  0
  4  9  1  0
  5  6  1  0
  6  7  2  0
  7  8  1  0
  8  1  1  0
  8  9  2  0
  1  2  2  0
  1  3  1  0
  3 14  1  0
 14 15  1  0
 15 16  2  0
 15 17  1  0
 17 18  2  0
 17 23  1  0
 18 19  1  0
 19 20  2  0
 20 21  1  0
 20 22  1  0
 22 23  2  0
M  END
>  <minimizedAffinity>  (191) 
-9.02618

$$$$
cs_full_output_folder/data/smiles/8677.pdb
     RDKit          3D

 25 28  0  0  0  0  0  0  0  0999 V2000
   70.7439   46.2752   58.4146 C   0  0  0  0  0  0  0  0  0  0  0  0
   69.8579   46.8385   57.5372 C   0  0  0  0  0  0  0  0  0  0  0  0
   69.8587   48.2047   57.2535 C   0  0  0  0  0  0  0  0  0  0  0  0
   70.7924   48.9651   57.8960 C   0  0  0  0  0  0  0  0  0  0  0  0
   71.7125   48.4535   58.7913 C   0  0  0  0  0  0  0  0  0  0  0  0
   71.6627   47.0872   59.0331 C   0  0  0  0  0  0  0  0  0  0  0  0
   72.5341   46.5417   59.8957 F   0  0  0  0  0  0  0  0  0  0  0  0
   69.7192   44.3827   59.2671 O   0  0  0  0  0  0  0  0  0  0  0  0
   70.7303   44.8622   58.6959 C   0  0  0  0  0  0  0  0  0  0  0  0
   71.8052   43.9971   58.3544 N   0  0  0  0  0  0  0  0  0  0  0  0
   73.0791   44.2373   57.7050 C   0  0  0  0  0  0  0  0  0  0  0  0
   73.3471   42.7778   57.5987 C   0  0  0  0  0  0  0  0  0  0  0  0
   72.1266   42.5986   58.4738 C   0  0  0  0  0  0  0  0  0  0  0  0
   68.8321   48.7134   56.2990 C   0  0  0  0  0  0  0  0  0  0  0  0
   69.2759   48.6177   54.9020 C   0  0  0  0  0  0  0  0  0  0  0  0
   70.1770   49.5310   54.4203 N   0  0  0  0  0  0  0  0  0  0  0  0
   70.6001   49.5442   53.1799 N   0  0  0  0  0  0  0  0  0  0  0  0
   70.1852   48.6508   52.2513 C   0  0  0  0  0  0  0  0  0  0  0  0
   70.6298   48.7211   51.0818 O   0  0  0  0  0  0  0  0  0  0  0  0
   69.2771   47.6942   52.6562 C   0  0  0  0  0  0  0  0  0  0  0  0
   68.8421   46.7634   51.7411 C   0  0  0  0  0  0  0  0  0  0  0  0
   67.9441   45.7938   52.1315 C   0  0  0  0  0  0  0  0  0  0  0  0
   67.5059   45.7899   53.4484 C   0  0  0  0  0  0  0  0  0  0  0  0
   67.9522   46.7326   54.3538 C   0  0  0  0  0  0  0  0  0  0  0  0
   68.8387   47.6981   53.9840 C   0  0  0  0  0  0  0  0  0  0  0  0
  8  9  2  0
  9  1  1  0
  9 10  1  0
  1  2  2  0
  1  6  1  0
  2  3  1  0
  3 14  1  0
  3  4  2  0
 14 15  1  0
 15 16  2  0
 15 25  1  0
 16 17  1  0
 17 18  1  0
 18 19  2  0
 18 20  1  0
 20 21  1  0
 20 25  2  0
 21 22  2  0
 22 23  1  0
 23 24  2  0
 24 25  1  0
  4  5  1  0
  5  6  2  0
  6  7  1  0
 10 11  1  0
 10 13  1  0
 11 12  1  0
 12 13  1  0
M  END
>  <minimizedAffinity>  (192) 
-9.02582

$$$$
cs_full_output_folder/data/smiles/3143.pdb
     RDKit          3D

 25 27  0  0  0  0  0  0  0  0999 V2000
   70.0785   43.9551   57.3304 C   0  0  0  0  0  0  0  0  0  0  0  0
   68.8671   43.3354   56.7281 C   0  0  0  0  0  0  0  0  0  0  0  0
   68.3726   42.0972   57.0814 C   0  0  0  0  0  0  0  0  0  0  0  0
   67.2607   41.9340   56.2824 C   0  0  0  0  0  0  0  0  0  0  0  0
   67.1437   43.0395   55.5163 N   0  0  0  0  0  0  0  0  0  0  0  0
   68.1113   43.9062   55.7706 N   0  0  0  0  0  0  0  0  0  0  0  0
   68.3100   45.1912   55.1532 C   0  0  0  0  0  0  0  0  0  0  0  0
   68.0621   45.3780   53.8118 C   0  0  0  0  0  0  0  0  0  0  0  0
   68.2548   46.6173   53.2246 C   0  0  0  0  0  0  0  0  0  0  0  0
   68.6997   47.7068   53.9500 C   0  0  0  0  0  0  0  0  0  0  0  0
   68.8777   48.9149   53.3400 F   0  0  0  0  0  0  0  0  0  0  0  0
   68.9461   47.5126   55.2930 C   0  0  0  0  0  0  0  0  0  0  0  0
   68.7537   46.2785   55.8784 C   0  0  0  0  0  0  0  0  0  0  0  0
   68.9126   41.1807   58.0766 C   0  0  0  0  0  0  0  0  0  0  0  0
   69.2026   41.5532   59.2423 O   0  0  0  0  0  0  0  0  0  0  0  0
   69.1549   39.7834   57.7996 N   0  0  0  0  0  0  0  0  0  0  0  0
   69.6829   38.8823   58.7585 C   0  0  0  0  0  0  0  0  0  0  0  0
   71.1482   38.6412   58.5069 C   0  0  0  0  0  0  0  0  0  0  0  0
   71.5376   37.2347   58.3916 C   0  0  0  0  0  0  0  0  0  0  0  0
   72.3959   36.8330   57.3981 C   0  0  0  0  0  0  0  0  0  0  0  0
   72.8096   35.5242   57.2508 C   0  0  0  0  0  0  0  0  0  0  0  0
   72.3718   34.5575   58.1071 C   0  0  0  0  0  0  0  0  0  0  0  0
   72.7594   33.2628   57.9926 F   0  0  0  0  0  0  0  0  0  0  0  0
   71.4987   34.9359   59.1263 C   0  0  0  0  0  0  0  0  0  0  0  0
   71.0876   36.2447   59.2709 C   0  0  0  0  0  0  0  0  0  0  0  0
  1  2  1  0
  2  3  2  0
  2  6  1  0
  3 14  1  0
  3  4  1  0
 14 15  2  0
 14 16  1  0
 16 17  1  0
 17 18  1  0
 18 19  1  0
 19 20  2  0
 19 25  1  0
 20 21  1  0
 21 22  2  0
 22 23  1  0
 22 24  1  0
 24 25  2  0
  4  5  2  0
  5  6  1  0
  6  7  1  0
  7  8  2  0
  7 13  1  0
  8  9  1  0
  9 10  2  0
 10 11  1  0
 10 12  1  0
 12 13  2  0
M  END
>  <minimizedAffinity>  (193) 
-9.02420

$$$$
cs_full_output_folder/data/smiles/1296.pdb
     RDKit          3D

 23 25  0  0  0  0  0  0  0  0999 V2000
   67.3589   47.5176   56.9520 O   0  0  0  0  0  0  0  0  0  0  0  0
   68.5216   47.4996   56.4078 C   0  0  0  0  0  0  0  0  0  0  0  0
   69.6381   47.6425   57.3133 C   0  0  0  0  0  0  0  0  0  0  0  0
   70.0600   48.9209   57.7103 C   0  0  0  0  0  0  0  0  0  0  0  0
   71.1430   49.1171   58.5379 C   0  0  0  0  0  0  0  0  0  0  0  0
   71.8422   48.0272   58.9968 C   0  0  0  0  0  0  0  0  0  0  0  0
   71.4489   46.7517   58.6242 C   0  0  0  0  0  0  0  0  0  0  0  0
   72.1951   45.7098   59.1370 C   0  0  0  0  0  0  0  0  0  0  0  0
   71.8024   44.4247   58.7793 C   0  0  0  0  0  0  0  0  0  0  0  0
   70.7338   44.2013   57.9634 C   0  0  0  0  0  0  0  0  0  0  0  0
   70.0008   45.2584   57.4603 C   0  0  0  0  0  0  0  0  0  0  0  0
   70.3490   46.5595   57.7833 C   0  0  0  0  0  0  0  0  0  0  0  0
   68.5678   47.3463   54.9804 C   0  0  0  0  0  0  0  0  0  0  0  0
   67.8689   46.3240   54.3576 C   0  0  0  0  0  0  0  0  0  0  0  0
   67.8402   46.1082   53.0057 C   0  0  0  0  0  0  0  0  0  0  0  0
   67.1225   45.0668   52.4210 O   0  0  0  0  0  0  0  0  0  0  0  0
   68.5534   46.9620   52.1882 C   0  0  0  0  0  0  0  0  0  0  0  0
   68.5805   46.8183   50.8018 O   0  0  0  0  0  0  0  0  0  0  0  0
   69.2647   47.9965   52.7723 C   0  0  0  0  0  0  0  0  0  0  0  0
   69.2813   48.1964   54.1341 C   0  0  0  0  0  0  0  0  0  0  0  0
   69.9975   48.8697   51.8980 N   0  0  0  0  0  0  0  0  0  0  0  0
   70.6748   48.4424   50.9413 O   0  0  0  0  0  0  0  0  0  0  0  0
   69.9779   50.2292   52.0898 O   0  0  0  0  0  0  0  0  0  0  0  0
  1  2  2  0
  2 13  1  0
  2  3  1  0
 13 14  2  0
 13 20  1  0
 14 15  1  0
 15 16  1  0
 15 17  2  0
 17 18  1  0
 17 19  1  0
 19 21  1  0
 19 20  2  0
 21 22  2  0
 21 23  1  0
  3  4  2  0
  3 12  1  0
  4  5  1  0
  5  6  2  0
  6  7  1  0
  7  8  1  0
  7 12  2  0
  8  9  2  0
  9 10  1  0
 10 11  2  0
 11 12  1  0
M  CHG  2  21   1  23  -1
M  END
>  <minimizedAffinity>  (194) 
-9.02320

$$$$
cs_full_output_folder/data/smiles/6374.pdb
     RDKit          3D

 25 28  0  0  0  0  0  0  0  0999 V2000
   71.0613   45.9700   58.2202 C   0  0  0  0  0  0  0  0  0  0  0  0
   71.8797   46.8340   58.9200 C   0  0  0  0  0  0  0  0  0  0  0  0
   71.7247   48.2016   58.7987 C   0  0  0  0  0  0  0  0  0  0  0  0
   70.7435   48.7256   57.9714 C   0  0  0  0  0  0  0  0  0  0  0  0
   69.9020   47.8878   57.2529 C   0  0  0  0  0  0  0  0  0  0  0  0
   70.1002   46.5369   57.4110 C   0  0  0  0  0  0  0  0  0  0  0  0
   69.3619   43.9263   59.7244 O   0  0  0  0  0  0  0  0  0  0  0  0
   70.2935   43.6556   58.9147 C   0  0  0  0  0  0  0  0  0  0  0  0
   70.5548   42.2657   58.4212 C   0  0  0  0  0  0  0  0  0  0  0  0
   71.9043   42.3429   57.7723 C   0  0  0  0  0  0  0  0  0  0  0  0
   72.3224   43.7815   57.9268 C   0  0  0  0  0  0  0  0  0  0  0  0
   73.4888   44.2014   57.7087 O   0  0  0  0  0  0  0  0  0  0  0  0
   71.2188   44.5556   58.3442 N   0  0  0  0  0  0  0  0  0  0  0  0
   68.8385   48.4505   56.3567 C   0  0  0  0  0  0  0  0  0  0  0  0
   69.2960   48.4453   54.9720 C   0  0  0  0  0  0  0  0  0  0  0  0
   70.2255   49.3354   54.5802 N   0  0  0  0  0  0  0  0  0  0  0  0
   70.7106   49.4266   53.3661 N   0  0  0  0  0  0  0  0  0  0  0  0
   70.3085   48.6084   52.3656 C   0  0  0  0  0  0  0  0  0  0  0  0
   70.7410   48.6605   51.2082 O   0  0  0  0  0  0  0  0  0  0  0  0
   69.3554   47.6694   52.7013 C   0  0  0  0  0  0  0  0  0  0  0  0
   68.8818   46.7927   51.7554 C   0  0  0  0  0  0  0  0  0  0  0  0
   67.9294   45.8520   52.0822 C   0  0  0  0  0  0  0  0  0  0  0  0
   67.4375   45.7842   53.3775 C   0  0  0  0  0  0  0  0  0  0  0  0
   67.8942   46.6476   54.3334 C   0  0  0  0  0  0  0  0  0  0  0  0
   68.8393   47.5782   54.0021 C   0  0  0  0  0  0  0  0  0  0  0  0
  7  8  2  0
  8  9  1  0
  8 13  1  0
  9 10  1  0
 10 11  1  0
 11 12  2  0
 11 13  1  0
 13  1  1  0
  1  2  2  0
  1  6  1  0
  2  3  1  0
  3  4  2  0
  4  5  1  0
  5 14  1  0
  5  6  2  0
 14 15  1  0
 15 16  2  0
 15 25  1  0
 16 17  1  0
 17 18  1  0
 18 19  2  0
 18 20  1  0
 20 21  1  0
 20 25  2  0
 21 22  2  0
 22 23  1  0
 23 24  2  0
 24 25  1  0
M  END
>  <minimizedAffinity>  (195) 
-9.02218

$$$$
cs_full_output_folder/data/smiles/3196.pdb
     RDKit          3D

 25 27  0  0  0  0  0  0  0  0999 V2000
   70.6094   45.7140   58.1861 C   0  0  0  0  0  0  0  0  0  0  0  0
   69.7553   46.4327   57.3623 C   0  0  0  0  0  0  0  0  0  0  0  0
   69.9316   47.7541   57.0494 C   0  0  0  0  0  0  0  0  0  0  0  0
   71.0488   48.3970   57.6051 C   0  0  0  0  0  0  0  0  0  0  0  0
   71.9187   47.7253   58.4235 C   0  0  0  0  0  0  0  0  0  0  0  0
   71.6909   46.3838   58.7094 C   0  0  0  0  0  0  0  0  0  0  0  0
   72.5584   45.7094   59.5271 F   0  0  0  0  0  0  0  0  0  0  0  0
   70.3564   44.2964   58.4768 C   0  0  0  0  0  0  0  0  0  0  0  0
   69.6744   44.0304   59.4927 O   0  0  0  0  0  0  0  0  0  0  0  0
   70.8270   43.2804   57.6989 O   0  0  0  0  0  0  0  0  0  0  0  0
   71.9286   42.4634   57.9957 C   0  0  0  0  0  0  0  0  0  0  0  0
   74.2900   43.0128   58.1830 C   0  0  0  0  0  0  0  0  0  0  0  0
   73.2120   42.9340   57.4517 C   0  0  0  0  0  0  0  0  0  0  0  0
   69.0380   48.5726   56.1860 C   0  0  0  0  0  0  0  0  0  0  0  0
   69.4358   48.5543   54.7502 C   0  0  0  0  0  0  0  0  0  0  0  0
   70.3225   49.4869   54.2852 N   0  0  0  0  0  0  0  0  0  0  0  0
   70.6824   49.5573   53.0239 N   0  0  0  0  0  0  0  0  0  0  0  0
   70.1873   48.7027   52.1161 C   0  0  0  0  0  0  0  0  0  0  0  0
   70.5313   48.7706   50.9117 O   0  0  0  0  0  0  0  0  0  0  0  0
   69.2913   47.7496   52.5541 C   0  0  0  0  0  0  0  0  0  0  0  0
   68.7443   46.8207   51.6847 C   0  0  0  0  0  0  0  0  0  0  0  0
   67.8568   45.8485   52.0886 C   0  0  0  0  0  0  0  0  0  0  0  0
   67.4847   45.7748   53.4041 C   0  0  0  0  0  0  0  0  0  0  0  0
   68.0036   46.6756   54.2939 C   0  0  0  0  0  0  0  0  0  0  0  0
   68.8894   47.6492   53.8921 C   0  0  0  0  0  0  0  0  0  0  0  0
 12 13  2  0
 13 11  1  0
 11 10  1  0
 10  8  1  0
  8  9  2  0
  8  1  1  0
  1  2  2  0
  1  6  1  0
  2  3  1  0
  3 14  1  0
  3  4  2  0
 14 15  1  0
 15 16  2  0
 15 25  1  0
 16 17  1  0
 17 18  1  0
 18 19  2  0
 18 20  1  0
 20 21  1  0
 20 25  2  0
 21 22  2  0
 22 23  1  0
 23 24  2  0
 24 25  1  0
  4  5  1  0
  5  6  2  0
  6  7  1  0
M  END
>  <minimizedAffinity>  (196) 
-9.01814

$$$$
cs_full_output_folder/data/smiles/432.pdb
     RDKit          3D

 21 23  0  0  0  0  0  0  0  0999 V2000
   68.1638   45.4439   55.6273 N   0  0  0  0  0  0  0  0  0  0  0  0
   69.0898   47.7485   52.9141 C   0  0  0  0  0  0  0  0  0  0  0  0
   68.5559   47.1145   51.8110 C   0  0  0  0  0  0  0  0  0  0  0  0
   67.8896   45.9244   51.9471 C   0  0  0  0  0  0  0  0  0  0  0  0
   67.7596   45.3611   53.2216 C   0  0  0  0  0  0  0  0  0  0  0  0
   68.2673   45.9455   54.3407 C   0  0  0  0  0  0  0  0  0  0  0  0
   68.9356   47.1575   54.1373 C   0  0  0  0  0  0  0  0  0  0  0  0
   69.7668   49.6899   51.0025 N   0  0  0  0  0  0  0  0  0  0  0  0
   69.9283   49.2600   52.6880 S   0  0  0  0  0  0  0  0  0  0  0  0
   69.3986   50.3457   53.5657 O   0  0  0  0  0  0  0  0  0  0  0  0
   71.3884   49.0460   52.9996 O   0  0  0  0  0  0  0  0  0  0  0  0
   68.3186   44.1037   56.0625 C   0  0  0  0  0  0  0  0  0  0  0  0
   67.3421   43.1870   55.8559 N   0  0  0  0  0  0  0  0  0  0  0  0
   67.5379   41.9356   56.2783 C   0  0  0  0  0  0  0  0  0  0  0  0
   68.6883   41.5142   56.9214 C   0  0  0  0  0  0  0  0  0  0  0  0
   69.6765   42.4487   57.1294 C   0  0  0  0  0  0  0  0  0  0  0  0
   69.4246   43.6866   56.6840 N   0  0  0  0  0  0  0  0  0  0  0  0
   70.9337   42.0978   57.8029 C   0  0  0  0  0  0  0  0  0  0  0  0
   71.3232   41.0420   58.4743 C   0  0  0  0  0  0  0  0  0  0  0  0
   72.6149   41.6796   58.6792 C   0  0  0  0  0  0  0  0  0  0  0  0
   72.2225   42.7331   58.0088 C   0  0  0  0  0  0  0  0  0  0  0  0
  8  9  1  0
  9 10  2  0
  9 11  2  0
  9  2  1  0
  2  3  2  0
  2  7  1  0
  3  4  1  0
  4  5  2  0
  5  6  1  0
  6  1  1  0
  6  7  2  0
  1 12  1  0
 12 13  2  0
 12 17  1  0
 13 14  1  0
 14 15  2  0
 15 16  1  0
 16 18  1  0
 16 17  2  0
 18 19  2  0
 18 21  1  0
 19 20  1  0
 20 21  2  0
M  END
>  <minimizedAffinity>  (197) 
-9.01736

$$$$
cs_full_output_folder/data/smiles/2978.pdb
     RDKit          3D

 22 24  0  0  0  0  0  0  0  0999 V2000
   69.5969   49.0019   56.1576 C   0  0  0  0  0  0  0  0  0  0  0  0
   69.7521   48.6997   54.7785 C   0  0  0  0  0  0  0  0  0  0  0  0
   70.7594   49.3642   54.1181 N   0  0  0  0  0  0  0  0  0  0  0  0
   71.0433   49.1904   52.8575 N   0  0  0  0  0  0  0  0  0  0  0  0
   70.3531   48.3286   52.0965 C   0  0  0  0  0  0  0  0  0  0  0  0
   70.6227   48.1554   50.8758 O   0  0  0  0  0  0  0  0  0  0  0  0
   69.3112   47.6230   52.7228 C   0  0  0  0  0  0  0  0  0  0  0  0
   69.0314   47.8294   54.0692 C   0  0  0  0  0  0  0  0  0  0  0  0
   67.9569   47.0820   54.6273 C   0  0  0  0  0  0  0  0  0  0  0  0
   68.0951   45.6577   54.0490 C   0  0  0  0  0  0  0  0  0  0  0  0
   67.6574   45.7687   52.6164 C   0  0  0  0  0  0  0  0  0  0  0  0
   68.5712   46.6898   51.8598 C   0  0  0  0  0  0  0  0  0  0  0  0
   70.4568   46.3224   58.5702 C   0  0  0  0  0  0  0  0  0  0  0  0
   69.8522   47.0270   57.5510 C   0  0  0  0  0  0  0  0  0  0  0  0
   70.2406   48.3363   57.2238 C   0  0  0  0  0  0  0  0  0  0  0  0
   71.2509   48.8417   57.9889 C   0  0  0  0  0  0  0  0  0  0  0  0
   71.8626   48.1497   59.0085 C   0  0  0  0  0  0  0  0  0  0  0  0
   71.4680   46.8803   59.3075 C   0  0  0  0  0  0  0  0  0  0  0  0
   72.0695   46.1946   60.3126 F   0  0  0  0  0  0  0  0  0  0  0  0
   70.0399   44.9969   58.8749 N   0  0  0  0  0  0  0  0  0  0  0  0
   70.0462   42.9437   57.7799 C   0  0  0  0  0  0  0  0  0  0  0  0
   69.5630   44.1466   57.8716 N   0  0  0  0  0  0  0  0  0  0  0  0
 21 22  2  0
 22 20  1  0
 20 13  1  0
 13 14  2  0
 13 18  1  0
 14 15  1  0
 15  1  1  0
 15 16  2  0
  1  2  1  0
  2  3  2  0
  2  8  1  0
  3  4  1  0
  4  5  1  0
  5  6  2  0
  5  7  1  0
  7  8  2  0
  7 12  1  0
  8  9  1  0
  9 10  1  0
 10 11  1  0
 11 12  1  0
 16 17  1  0
 17 18  2  0
 18 19  1  0
M  END
>  <minimizedAffinity>  (198) 
-9.01386

$$$$
cs_full_output_folder/data/smiles/1200.pdb
     RDKit          3D

 24 26  0  0  0  0  0  0  0  0999 V2000
   70.7711   46.8086   59.1547 O   0  0  0  0  0  0  0  0  0  0  0  0
   70.8264   45.9603   58.2372 C   0  0  0  0  0  0  0  0  0  0  0  0
   69.7780   46.0069   57.2536 N   0  0  0  0  0  0  0  0  0  0  0  0
   71.9171   44.9938   58.2068 C   0  0  0  0  0  0  0  0  0  0  0  0
   71.6528   43.6622   57.9029 C   0  0  0  0  0  0  0  0  0  0  0  0
   72.6615   42.7221   57.8643 C   0  0  0  0  0  0  0  0  0  0  0  0
   73.9779   43.0454   58.1242 C   0  0  0  0  0  0  0  0  0  0  0  0
   74.9671   42.1295   58.0887 N   0  0  0  0  0  0  0  0  0  0  0  0
   76.2586   42.4159   58.3368 C   0  0  0  0  0  0  0  0  0  0  0  0
   76.5638   43.7320   58.6442 C   0  0  0  0  0  0  0  0  0  0  0  0
   75.5652   44.6887   58.6867 C   0  0  0  0  0  0  0  0  0  0  0  0
   74.2500   44.3625   58.4266 C   0  0  0  0  0  0  0  0  0  0  0  0
   73.2314   45.3152   58.4653 C   0  0  0  0  0  0  0  0  0  0  0  0
   68.7574   46.8971   57.2641 N   0  0  0  0  0  0  0  0  0  0  0  0
   68.1049   47.4313   56.3241 C   0  0  0  0  0  0  0  0  0  0  0  0
   68.3692   47.1499   54.9134 C   0  0  0  0  0  0  0  0  0  0  0  0
   67.8724   46.1226   54.1804 C   0  0  0  0  0  0  0  0  0  0  0  0
   68.1921   45.9500   52.8421 C   0  0  0  0  0  0  0  0  0  0  0  0
   69.0223   46.8092   52.2054 C   0  0  0  0  0  0  0  0  0  0  0  0
   69.5429   47.8639   52.9236 C   0  0  0  0  0  0  0  0  0  0  0  0
   69.2270   48.0318   54.2432 C   0  0  0  0  0  0  0  0  0  0  0  0
   70.4106   48.7542   52.2422 N   0  0  0  0  0  0  0  0  0  0  0  0
   71.4736   49.0915   52.7863 O   0  0  0  0  0  0  0  0  0  0  0  0
   70.0807   49.2304   51.0094 O   0  0  0  0  0  0  0  0  0  0  0  0
  1  2  2  0
  2  3  1  0
  2  4  1  0
  3 14  1  0
 14 15  2  0
 15 16  1  0
 16 17  2  0
 16 21  1  0
 17 18  1  0
 18 19  2  0
 19 20  1  0
 20 22  1  0
 20 21  2  0
 22 23  2  0
 22 24  1  0
  4  5  2  0
  4 13  1  0
  5  6  1  0
  6  7  2  0
  7  8  1  0
  7 12  1  0
  8  9  2  0
  9 10  1  0
 10 11  2  0
 11 12  1  0
 12 13  2  0
M  CHG  2  22   1  24  -1
M  END
>  <minimizedAffinity>  (199) 
-9.01168

$$$$
cs_full_output_folder/data/smiles/7773.pdb
     RDKit          3D

 25 27  0  0  0  0  0  0  0  0999 V2000
   71.0260   46.1626   57.7202 O   0  0  0  0  0  0  0  0  0  0  0  0
   70.0808   45.4372   57.3273 C   0  0  0  0  0  0  0  0  0  0  0  0
   69.0006   46.0754   56.6723 N   0  0  0  0  0  0  0  0  0  0  0  0
   70.1577   44.0025   57.5685 C   0  0  0  0  0  0  0  0  0  0  0  0
   71.2292   43.3909   58.1863 C   0  0  0  0  0  0  0  0  0  0  0  0
   71.2698   42.0095   58.4024 C   0  0  0  0  0  0  0  0  0  0  0  0
   70.1970   41.2433   57.9792 C   0  0  0  0  0  0  0  0  0  0  0  0
   69.1047   41.8197   57.3546 C   0  0  0  0  0  0  0  0  0  0  0  0
   69.1278   43.1762   57.1745 C   0  0  0  0  0  0  0  0  0  0  0  0
   67.9518   40.9727   56.9034 C   0  0  0  0  0  0  0  0  0  0  0  0
   67.6253   41.1838   55.5985 F   0  0  0  0  0  0  0  0  0  0  0  0
   68.2479   39.6530   57.1885 F   0  0  0  0  0  0  0  0  0  0  0  0
   66.8626   41.3970   57.6762 F   0  0  0  0  0  0  0  0  0  0  0  0
   68.9569   47.5176   56.4472 C   0  0  0  0  0  0  0  0  0  0  0  0
   69.3552   47.8678   55.0645 C   0  0  0  0  0  0  0  0  0  0  0  0
   70.2481   48.8404   54.8069 N   0  0  0  0  0  0  0  0  0  0  0  0
   70.6123   49.1604   53.5626 N   0  0  0  0  0  0  0  0  0  0  0  0
   70.1134   48.5343   52.4856 C   0  0  0  0  0  0  0  0  0  0  0  0
   70.5108   48.8965   51.3320 O   0  0  0  0  0  0  0  0  0  0  0  0
   69.1978   47.5314   52.6642 C   0  0  0  0  0  0  0  0  0  0  0  0
   68.6714   46.8742   51.5689 C   0  0  0  0  0  0  0  0  0  0  0  0
   67.7535   45.8684   51.7473 C   0  0  0  0  0  0  0  0  0  0  0  0
   67.3934   45.5565   53.0480 C   0  0  0  0  0  0  0  0  0  0  0  0
   67.9207   46.2141   54.1393 C   0  0  0  0  0  0  0  0  0  0  0  0
   68.8332   47.2140   53.9551 C   0  0  0  0  0  0  0  0  0  0  0  0
  1  2  2  0
  2  3  1  0
  2  4  1  0
  3 14  1  0
 14 15  1  0
 15 16  2  0
 15 25  1  0
 16 17  1  0
 17 18  1  0
 18 19  2  0
 18 20  1  0
 20 21  1  0
 20 25  2  0
 21 22  2  0
 22 23  1  0
 23 24  2  0
 24 25  1  0
  4  5  2  0
  4  9  1  0
  5  6  1  0
  6  7  2  0
  7  8  1  0
  8 10  1  0
  8  9  2  0
 10 11  1  0
 10 12  1  0
 10 13  1  0
M  END
>  <minimizedAffinity>  (200) 
-9.00940

$$$$
cs_full_output_folder/data/smiles/2020.pdb
     RDKit          3D

 26 29  0  0  0  0  0  0  0  0999 V2000
   68.7399   42.4259   57.1692 C   0  0  0  0  0  0  0  0  0  0  0  0
   67.5200   41.8556   57.0345 C   0  0  0  0  0  0  0  0  0  0  0  0
   67.2878   40.5086   57.3063 C   0  0  0  0  0  0  0  0  0  0  0  0
   68.3294   39.7300   57.7255 C   0  0  0  0  0  0  0  0  0  0  0  0
   69.5792   40.2882   57.8684 C   0  0  0  0  0  0  0  0  0  0  0  0
   69.7912   41.6351   57.5922 C   0  0  0  0  0  0  0  0  0  0  0  0
   71.1281   41.8451   57.8394 C   0  0  0  0  0  0  0  0  0  0  0  0
   71.6639   40.6962   58.2333 N   0  0  0  0  0  0  0  0  0  0  0  0
   70.7428   39.7282   58.2615 N   0  0  0  0  0  0  0  0  0  0  0  0
   70.9367   38.3659   58.6276 C   0  0  0  0  0  0  0  0  0  0  0  0
   71.7929   37.5662   57.9092 C   0  0  0  0  0  0  0  0  0  0  0  0
   72.0066   36.2250   58.2490 C   0  0  0  0  0  0  0  0  0  0  0  0
   71.3613   35.6584   59.3232 C   0  0  0  0  0  0  0  0  0  0  0  0
   71.5382   34.3638   59.6876 F   0  0  0  0  0  0  0  0  0  0  0  0
   70.4988   36.4628   60.0489 C   0  0  0  0  0  0  0  0  0  0  0  0
   70.3008   37.7765   59.7006 C   0  0  0  0  0  0  0  0  0  0  0  0
   69.7887   44.4895   57.5899 O   0  0  0  0  0  0  0  0  0  0  0  0
   68.9964   43.8492   56.8812 C   0  0  0  0  0  0  0  0  0  0  0  0
   68.3537   44.5089   55.8039 N   0  0  0  0  0  0  0  0  0  0  0  0
   68.5518   45.9006   55.4713 C   0  0  0  0  0  0  0  0  0  0  0  0
   68.3937   46.1848   54.0224 C   0  0  0  0  0  0  0  0  0  0  0  0
   69.1181   47.2021   53.4427 C   0  0  0  0  0  0  0  0  0  0  0  0
   68.9500   47.4538   52.1036 C   0  0  0  0  0  0  0  0  0  0  0  0
   68.0655   46.6817   51.3878 C   0  0  0  0  0  0  0  0  0  0  0  0
   67.3634   45.6964   51.9453 N   0  0  0  0  0  0  0  0  0  0  0  0
   67.5346   45.4565   53.2626 C   0  0  0  0  0  0  0  0  0  0  0  0
 17 18  2  0
 18 19  1  0
 18  1  1  0
 19 20  1  0
 20 21  1  0
 21 22  2  0
 21 26  1  0
 22 23  1  0
 23 24  2  0
 24 25  1  0
 25 26  2  0
  1  2  2  0
  1  6  1  0
  2  3  1  0
  3  4  2  0
  4  5  1  0
  5  6  2  0
  5  9  1  0
  6  7  1  0
  7  8  2  0
  8  9  1  0
  9 10  1  0
 10 11  2  0
 10 16  1  0
 11 12  1  0
 12 13  2  0
 13 14  1  0
 13 15  1  0
 15 16  2  0
M  END
>  <minimizedAffinity>  (201) 
-9.00661

$$$$
cs_full_output_folder/data/smiles/7829.pdb
     RDKit          3D

 25 27  0  0  0  0  0  0  0  0999 V2000
   70.7235   45.9291   58.1322 C   0  0  0  0  0  0  0  0  0  0  0  0
   69.8402   46.6745   57.3909 C   0  0  0  0  0  0  0  0  0  0  0  0
   70.0389   48.0374   57.1004 C   0  0  0  0  0  0  0  0  0  0  0  0
   71.1600   48.6515   57.5769 C   0  0  0  0  0  0  0  0  0  0  0  0
   72.0701   47.9150   58.3314 C   0  0  0  0  0  0  0  0  0  0  0  0
   71.8450   46.5793   58.5978 C   0  0  0  0  0  0  0  0  0  0  0  0
   72.7403   45.8469   59.3418 F   0  0  0  0  0  0  0  0  0  0  0  0
   70.4682   44.5222   58.4003 C   0  0  0  0  0  0  0  0  0  0  0  0
   69.7727   44.2065   59.3984 O   0  0  0  0  0  0  0  0  0  0  0  0
   70.9504   43.5133   57.6166 O   0  0  0  0  0  0  0  0  0  0  0  0
   73.1988   42.9672   57.5219 C   0  0  0  0  0  0  0  0  0  0  0  0
   71.9742   42.6559   57.8923 C   0  0  0  0  0  0  0  0  0  0  0  0
   71.7935   41.3544   58.6064 C   0  0  0  0  0  0  0  0  0  0  0  0
   68.9884   48.6634   56.2667 C   0  0  0  0  0  0  0  0  0  0  0  0
   69.3296   48.6144   54.8352 C   0  0  0  0  0  0  0  0  0  0  0  0
   70.2095   49.5284   54.3520 N   0  0  0  0  0  0  0  0  0  0  0  0
   70.6238   49.5646   53.1008 N   0  0  0  0  0  0  0  0  0  0  0  0
   70.1755   48.6632   52.2102 C   0  0  0  0  0  0  0  0  0  0  0  0
   70.5863   48.7127   51.0086 O   0  0  0  0  0  0  0  0  0  0  0  0
   69.2764   47.7025   52.6265 C   0  0  0  0  0  0  0  0  0  0  0  0
   68.8073   46.7851   51.7104 C   0  0  0  0  0  0  0  0  0  0  0  0
   67.9051   45.8340   52.1062 C   0  0  0  0  0  0  0  0  0  0  0  0
   67.4880   45.8198   53.4174 C   0  0  0  0  0  0  0  0  0  0  0  0
   67.9484   46.7328   54.3496 C   0  0  0  0  0  0  0  0  0  0  0  0
   68.8569   47.6897   53.9551 C   0  0  0  0  0  0  0  0  0  0  0  0
 11 12  2  0
 12 13  1  0
 12 10  1  0
 10  8  1  0
  8  9  2  0
  8  1  1  0
  1  2  2  0
  1  6  1  0
  2  3  1  0
  3 14  1  0
  3  4  2  0
 14 15  1  0
 15 16  2  0
 15 25  1  0
 16 17  1  0
 17 18  1  0
 18 19  2  0
 18 20  1  0
 20 21  1  0
 20 25  2  0
 21 22  2  0
 22 23  1  0
 23 24  2  0
 24 25  1  0
  4  5  1  0
  5  6  2  0
  6  7  1  0
M  END
>  <minimizedAffinity>  (202) 
-9.00574

$$$$
cs_full_output_folder/data/smiles/1350.pdb
     RDKit          3D

 23 25  0  0  0  0  0  0  0  0999 V2000
   68.8381   43.2724   56.6124 C   0  0  0  0  0  0  0  0  0  0  0  0
   70.0091   43.8181   57.0183 N   0  0  0  0  0  0  0  0  0  0  0  0
   70.9578   43.0923   57.6288 C   0  0  0  0  0  0  0  0  0  0  0  0
   72.1348   43.6798   58.0186 C   0  0  0  0  0  0  0  0  0  0  0  0
   73.1468   42.9747   58.6452 C   0  0  0  0  0  0  0  0  0  0  0  0
   72.9509   41.6438   58.8772 C   0  0  0  0  0  0  0  0  0  0  0  0
   71.7876   41.0270   58.5013 C   0  0  0  0  0  0  0  0  0  0  0  0
   70.7858   41.7472   57.8755 C   0  0  0  0  0  0  0  0  0  0  0  0
   69.6233   41.1941   57.4740 N   0  0  0  0  0  0  0  0  0  0  0  0
   68.6650   41.9323   56.8559 C   0  0  0  0  0  0  0  0  0  0  0  0
   67.3972   41.2917   56.4361 C   0  0  0  0  0  0  0  0  0  0  0  0
   67.5428   40.3900   55.3891 O   0  0  0  0  0  0  0  0  0  0  0  0
   67.8595   44.0176   55.9818 O   0  0  0  0  0  0  0  0  0  0  0  0
   68.7841   47.4906   53.7507 C   0  0  0  0  0  0  0  0  0  0  0  0
   69.0653   47.4055   55.1015 C   0  0  0  0  0  0  0  0  0  0  0  0
   68.7602   46.2695   55.8243 C   0  0  0  0  0  0  0  0  0  0  0  0
   68.1649   45.1679   55.2545 C   0  0  0  0  0  0  0  0  0  0  0  0
   67.8864   45.2621   53.9015 C   0  0  0  0  0  0  0  0  0  0  0  0
   68.1884   46.3924   53.1730 C   0  0  0  0  0  0  0  0  0  0  0  0
   69.1062   48.7338   52.9701 C   0  0  0  0  0  0  0  0  0  0  0  0
   71.4329   48.9941   52.7113 O   0  0  0  0  0  0  0  0  0  0  0  0
   70.3619   48.5659   52.2351 C   0  0  0  0  0  0  0  0  0  0  0  0
   70.3821   47.9313   51.0120 O   0  0  0  0  0  0  0  0  0  0  0  0
 21 22  2  0
 22 23  1  0
 22 20  1  0
 20 14  1  0
 14 15  2  0
 14 19  1  0
 15 16  1  0
 16 17  2  0
 17 13  1  0
 17 18  1  0
 13  1  1  0
  1  2  2  0
  1 10  1  0
  2  3  1  0
  3  4  2  0
  3  8  1  0
  4  5  1  0
  5  6  2  0
  6  7  1  0
  7  8  2  0
  8  9  1  0
  9 10  2  0
 10 11  1  0
 11 12  1  0
 18 19  2  0
M  END
>  <minimizedAffinity>  (203) 
-9.00312

$$$$
cs_full_output_folder/data/smiles/4297.pdb
     RDKit          3D

 23 26  0  0  0  0  0  0  0  0999 V2000
   69.9337   47.2127   50.9909 O   0  0  0  0  0  0  0  0  0  0  0  0
   69.8066   48.2970   51.6006 C   0  0  0  0  0  0  0  0  0  0  0  0
   70.0353   49.5224   51.1013 N   0  0  0  0  0  0  0  0  0  0  0  0
   69.8025   50.4606   52.0347 N   0  0  0  0  0  0  0  0  0  0  0  0
   69.4170   49.8512   53.1600 C   0  0  0  0  0  0  0  0  0  0  0  0
   69.4271   48.5131   52.8634 N   0  0  0  0  0  0  0  0  0  0  0  0
   69.0708   47.5088   53.8004 C   0  0  0  0  0  0  0  0  0  0  0  0
   68.5519   46.4152   53.1715 C   0  0  0  0  0  0  0  0  0  0  0  0
   68.1726   45.3348   53.9634 C   0  0  0  0  0  0  0  0  0  0  0  0
   68.2783   45.2889   55.3223 C   0  0  0  0  0  0  0  0  0  0  0  0
   68.8205   46.4446   55.9424 C   0  0  0  0  0  0  0  0  0  0  0  0
   69.2016   47.5179   55.1960 C   0  0  0  0  0  0  0  0  0  0  0  0
   69.7377   48.6541   55.9901 C   0  0  0  0  0  0  0  0  0  0  0  0
   69.2432   49.9412   55.5728 N   0  0  0  0  0  0  0  0  0  0  0  0
   69.0874   50.4926   54.4301 C   0  0  0  0  0  0  0  0  0  0  0  0
   67.9137   44.2502   56.1196 O   0  0  0  0  0  0  0  0  0  0  0  0
   67.5915   42.9554   55.8844 C   0  0  0  0  0  0  0  0  0  0  0  0
   68.2464   41.9064   56.6938 C   0  0  0  0  0  0  0  0  0  0  0  0
   67.8276   40.6191   56.8541 C   0  0  0  0  0  0  0  0  0  0  0  0
   68.4745   39.6893   57.6366 C   0  0  0  0  0  0  0  0  0  0  0  0
   69.6117   40.0524   58.3084 C   0  0  0  0  0  0  0  0  0  0  0  0
   70.0855   41.3499   58.1825 C   0  0  0  0  0  0  0  0  0  0  0  0
   69.4150   42.2587   57.3904 C   0  0  0  0  0  0  0  0  0  0  0  0
  1  2  2  0
  2  3  1  0
  2  6  1  0
  3  4  1  0
  4  5  2  0
  5  6  1  0
  5 15  1  0
  6  7  1  0
  7  8  2  0
  7 12  1  0
  8  9  1  0
  9 10  2  0
 10 16  1  0
 10 11  1  0
 16 17  1  0
 17 18  1  0
 18 19  2  0
 18 23  1  0
 19 20  1  0
 20 21  2  0
 21 22  1  0
 22 23  2  0
 11 12  2  0
 12 13  1  0
 13 14  1  0
 14 15  2  0
M  END
>  <minimizedAffinity>  (204) 
-9.00167

$$$$
cs_full_output_folder/data/smiles/2459.pdb
     RDKit          3D

 25 27  0  0  0  0  0  0  0  0999 V2000
   69.2376   43.7581   56.9740 C   0  0  0  0  0  0  0  0  0  0  0  0
   70.1406   44.3873   57.6041 O   0  0  0  0  0  0  0  0  0  0  0  0
   68.4097   44.4845   56.0784 N   0  0  0  0  0  0  0  0  0  0  0  0
   71.1202   41.9044   58.6052 C   0  0  0  0  0  0  0  0  0  0  0  0
   69.9021   41.4574   57.9058 C   0  0  0  0  0  0  0  0  0  0  0  0
   69.0657   42.3188   57.1792 C   0  0  0  0  0  0  0  0  0  0  0  0
   68.0668   41.5011   56.7073 C   0  0  0  0  0  0  0  0  0  0  0  0
   68.3230   40.2597   57.1381 N   0  0  0  0  0  0  0  0  0  0  0  0
   69.4217   40.2054   57.8618 N   0  0  0  0  0  0  0  0  0  0  0  0
   69.9501   39.0022   58.4594 C   0  0  0  0  0  0  0  0  0  0  0  0
   70.9755   38.2749   58.1338 C   0  0  0  0  0  0  0  0  0  0  0  0
   71.1116   37.1101   59.0781 C   0  0  1  0  0  0  0  0  0  0  0  0
   72.4227   37.1892   59.8286 C   0  0  0  0  0  0  0  0  0  0  0  0
   69.9904   37.2904   59.9983 C   0  0  0  0  0  0  0  0  0  0  0  0
   69.3431   38.3568   59.6450 C   0  0  0  0  0  0  0  0  0  0  0  0
   68.5011   45.8952   55.8274 C   0  0  0  0  0  0  0  0  0  0  0  0
   68.5311   46.2629   54.3989 C   0  0  0  0  0  0  0  0  0  0  0  0
   67.7889   45.5394   53.4990 C   0  0  0  0  0  0  0  0  0  0  0  0
   67.8222   45.8638   52.1619 C   0  0  0  0  0  0  0  0  0  0  0  0
   68.5860   46.9034   51.6960 C   0  0  0  0  0  0  0  0  0  0  0  0
   69.3365   47.6343   52.6039 C   0  0  0  0  0  0  0  0  0  0  0  0
   69.2995   47.3040   53.9495 C   0  0  0  0  0  0  0  0  0  0  0  0
   70.1624   48.7328   52.1305 C   0  0  0  0  0  0  0  0  0  0  0  0
   71.2369   49.1918   52.9268 N   0  0  0  0  0  0  0  0  0  0  0  0
   69.9405   49.2787   51.0332 O   0  0  0  0  0  0  0  0  0  0  0  0
  4  5  1  0
  5  6  2  0
  5  9  1  0
  6  1  1  0
  6  7  1  0
  1  2  2  0
  1  3  1  0
  3 16  1  0
 16 17  1  0
 17 18  2  0
 17 22  1  0
 18 19  1  0
 19 20  2  0
 20 21  1  0
 21 23  1  0
 21 22  2  0
 23 24  1  0
 23 25  2  0
  7  8  2  0
  8  9  1  0
  9 10  1  0
 10 11  2  0
 10 15  1  0
 11 12  1  0
 12 13  1  1
 12 14  1  0
 14 15  2  0
M  END
>  <minimizedAffinity>  (205) 
-8.99818

$$$$
cs_full_output_folder/data/smiles/5166.pdb
     RDKit          3D

 25 26  0  0  0  0  0  0  0  0999 V2000
   67.4423   41.8829   56.6559 C   0  0  0  0  0  0  0  0  0  0  0  0
   67.3892   41.2580   55.5569 O   0  0  0  0  0  0  0  0  0  0  0  0
   67.6585   43.2845   56.5527 N   0  0  0  0  0  0  0  0  0  0  0  0
   67.0860   39.7120   60.2983 C   0  0  0  0  0  0  0  0  0  0  0  0
   66.4234   40.9108   60.1430 C   0  0  0  0  0  0  0  0  0  0  0  0
   66.5319   41.6236   58.9661 C   0  0  0  0  0  0  0  0  0  0  0  0
   67.2881   41.1790   57.9200 C   0  0  0  0  0  0  0  0  0  0  0  0
   67.9448   39.9781   58.0904 C   0  0  0  0  0  0  0  0  0  0  0  0
   67.8454   39.2407   59.2794 C   0  0  0  0  0  0  0  0  0  0  0  0
   68.5264   38.0451   59.3899 O   0  0  0  0  0  0  0  0  0  0  0  0
   66.8867   39.8635   62.7766 C   0  0  0  0  0  0  0  0  0  0  0  0
   66.9578   38.9726   61.5591 C   0  0  0  0  0  0  0  0  0  0  0  0
   65.7660   38.0529   61.4979 C   0  0  0  0  0  0  0  0  0  0  0  0
   67.7979   43.9015   55.3021 N   0  0  0  0  0  0  0  0  0  0  0  0
   68.1569   45.2590   55.1194 C   0  0  0  0  0  0  0  0  0  0  0  0
   68.3571   45.9341   56.1605 O   0  0  0  0  0  0  0  0  0  0  0  0
   68.3046   45.9084   53.8234 C   0  0  0  0  0  0  0  0  0  0  0  0
   67.5841   45.4601   52.7347 C   0  0  0  0  0  0  0  0  0  0  0  0
   67.6772   46.0293   51.4858 C   0  0  0  0  0  0  0  0  0  0  0  0
   68.5169   47.0985   51.2630 C   0  0  0  0  0  0  0  0  0  0  0  0
   69.2474   47.5641   52.3327 C   0  0  0  0  0  0  0  0  0  0  0  0
   69.1437   46.9806   53.5916 C   0  0  0  0  0  0  0  0  0  0  0  0
   70.1263   48.6655   52.1507 N   0  0  0  0  0  0  0  0  0  0  0  0
   71.1108   48.8677   52.8867 O   0  0  0  0  0  0  0  0  0  0  0  0
   69.9216   49.5713   51.1352 O   0  0  0  0  0  0  0  0  0  0  0  0
 11 12  1  0
 12 13  1  0
 12  4  1  0
  4  5  2  0
  4  9  1  0
  5  6  1  0
  6  7  2  0
  7  1  1  0
  7  8  1  0
  1  2  2  0
  1  3  1  0
  3 14  1  0
 14 15  1  0
 15 16  2  0
 15 17  1  0
 17 18  2  0
 17 22  1  0
 18 19  1  0
 19 20  2  0
 20 21  1  0
 21 23  1  0
 21 22  2  0
 23 24  2  0
 23 25  1  0
  8  9  2  0
  9 10  1  0
M  CHG  2  23   1  25  -1
M  END
>  <minimizedAffinity>  (206) 
-8.99618

$$$$
cs_full_output_folder/data/smiles/1767.pdb
     RDKit          3D

 22 23  0  0  0  0  0  0  0  0999 V2000
   69.9865   49.1694   51.0630 O   0  0  0  0  0  0  0  0  0  0  0  0
   70.1291   49.2783   52.5565 S   0  0  0  0  0  0  0  0  0  0  0  0
   71.5637   49.0660   52.8433 O   0  0  0  0  0  0  0  0  0  0  0  0
   69.3005   47.8427   53.1791 C   0  0  0  0  0  0  0  0  0  0  0  0
   68.6633   46.9495   52.3559 C   0  0  0  0  0  0  0  0  0  0  0  0
   68.6317   47.1504   51.0238 F   0  0  0  0  0  0  0  0  0  0  0  0
   68.0299   45.8235   52.8957 C   0  0  0  0  0  0  0  0  0  0  0  0
   67.3988   44.9413   52.0652 F   0  0  0  0  0  0  0  0  0  0  0  0
   68.0188   45.5672   54.2482 C   0  0  0  0  0  0  0  0  0  0  0  0
   67.3923   44.4612   54.7379 F   0  0  0  0  0  0  0  0  0  0  0  0
   68.6607   46.4686   55.0680 C   0  0  0  0  0  0  0  0  0  0  0  0
   68.6539   46.2250   56.3987 F   0  0  0  0  0  0  0  0  0  0  0  0
   69.2863   47.5798   54.5441 C   0  0  0  0  0  0  0  0  0  0  0  0
   69.9229   48.4778   55.3381 F   0  0  0  0  0  0  0  0  0  0  0  0
   69.3891   50.6381   53.1334 N   0  0  0  0  0  0  0  0  0  0  0  0
   69.6961   51.5425   54.1542 C   0  0  0  0  0  0  0  0  0  0  0  0
   70.9943   51.8690   54.4876 C   0  0  0  0  0  0  0  0  0  0  0  0
   71.2917   52.7766   55.4941 C   0  0  0  0  0  0  0  0  0  0  0  0
   70.2900   53.3862   56.1975 C   0  0  0  0  0  0  0  0  0  0  0  0
   68.9875   53.0872   55.8938 C   0  0  0  0  0  0  0  0  0  0  0  0
   68.7172   52.1945   54.9040 C   0  0  0  0  0  0  0  0  0  0  0  0
   67.4563   51.8966   54.6009 F   0  0  0  0  0  0  0  0  0  0  0  0
  1  2  2  0
  2  3  2  0
  2 15  1  0
  2  4  1  0
 15 16  1  0
 16 17  2  0
 16 21  1  0
 17 18  1  0
 18 19  2  0
 19 20  1  0
 20 21  2  0
 21 22  1  0
  4  5  2  0
  4 13  1  0
  5  6  1  0
  5  7  1  0
  7  8  1  0
  7  9  2  0
  9 10  1  0
  9 11  1  0
 11 12  1  0
 11 13  2  0
 13 14  1  0
M  END
>  <minimizedAffinity>  (207) 
-8.99530

$$$$
cs_full_output_folder/data/smiles/3043.pdb
     RDKit          3D

 24 27  0  0  0  0  0  0  0  0999 V2000
   69.1892   48.4180   53.7209 C   0  0  0  0  0  0  0  0  0  0  0  0
   68.6899   47.4473   54.5614 C   0  0  0  0  0  0  0  0  0  0  0  0
   68.2619   46.1982   54.1344 C   0  0  0  0  0  0  0  0  0  0  0  0
   68.3582   45.9605   52.7842 C   0  0  0  0  0  0  0  0  0  0  0  0
   68.8539   46.9090   51.8954 C   0  0  0  0  0  0  0  0  0  0  0  0
   69.2646   48.1293   52.3741 C   0  0  0  0  0  0  0  0  0  0  0  0
   69.7545   49.0885   51.5507 F   0  0  0  0  0  0  0  0  0  0  0  0
   71.9333   49.7790   53.7093 O   0  0  0  0  0  0  0  0  0  0  0  0
   70.8685   50.3298   54.0481 C   0  0  0  0  0  0  0  0  0  0  0  0
   70.6924   51.7818   54.2780 C   0  0  0  0  0  0  0  0  0  0  0  0
   69.2000   51.8830   54.5853 C   0  0  0  0  0  0  0  0  0  0  0  0
   68.8959   50.5285   55.1972 C   0  0  0  0  0  0  0  0  0  0  0  0
   69.6106   49.6624   54.2801 N   0  0  0  0  0  0  0  0  0  0  0  0
   67.7694   45.2255   55.0392 N   0  0  0  0  0  0  0  0  0  0  0  0
   68.5961   44.6510   56.0380 C   0  0  0  0  0  0  0  0  0  0  0  0
   69.5214   45.3533   56.6994 N   0  0  0  0  0  0  0  0  0  0  0  0
   70.3204   44.7911   57.6599 C   0  0  0  0  0  0  0  0  0  0  0  0
   70.1801   43.4447   57.9736 C   0  0  0  0  0  0  0  0  0  0  0  0
   69.2409   42.6787   57.3197 C   0  0  0  0  0  0  0  0  0  0  0  0
   69.0967   41.3403   57.6382 C   0  0  0  0  0  0  0  0  0  0  0  0
   68.1337   40.6349   56.9556 C   0  0  0  0  0  0  0  0  0  0  0  0
   67.3789   41.2954   56.0055 C   0  0  0  0  0  0  0  0  0  0  0  0
   67.5460   42.5968   55.7195 N   0  0  0  0  0  0  0  0  0  0  0  0
   68.4727   43.3010   56.3682 C   0  0  0  0  0  0  0  0  0  0  0  0
  8  9  2  0
  9 10  1  0
  9 13  1  0
 10 11  1  0
 11 12  1  0
 12 13  1  0
 13  1  1  0
  1  2  2  0
  1  6  1  0
  2  3  1  0
  3 14  1  0
  3  4  2  0
 14 15  1  0
 15 16  2  0
 15 24  1  0
 16 17  1  0
 17 18  2  0
 18 19  1  0
 19 20  1  0
 19 24  2  0
 20 21  2  0
 21 22  1  0
 22 23  2  0
 23 24  1  0
  4  5  1  0
  5  6  2  0
  6  7  1  0
M  END
>  <minimizedAffinity>  (208) 
-8.99470

$$$$
cs_full_output_folder/data/smiles/6041.pdb
     RDKit          3D

 25 27  0  0  0  0  0  0  0  0999 V2000
   70.5642   45.9435   58.1967 C   0  0  0  0  0  0  0  0  0  0  0  0
   69.7301   46.6147   57.3432 C   0  0  0  0  0  0  0  0  0  0  0  0
   69.9557   47.9638   57.0765 C   0  0  0  0  0  0  0  0  0  0  0  0
   71.0092   48.5748   57.6811 C   0  0  0  0  0  0  0  0  0  0  0  0
   71.8367   47.8921   58.5329 C   0  0  0  0  0  0  0  0  0  0  0  0
   71.6348   46.5521   58.8142 C   0  0  0  0  0  0  0  0  0  0  0  0
   72.4635   45.8657   59.6685 F   0  0  0  0  0  0  0  0  0  0  0  0
   70.3243   44.5125   58.4785 C   0  0  0  0  0  0  0  0  0  0  0  0
   69.7729   44.1468   59.5460 O   0  0  0  0  0  0  0  0  0  0  0  0
   70.7001   43.5342   57.5721 O   0  0  0  0  0  0  0  0  0  0  0  0
   73.1125   42.9285   57.7638 C   0  0  0  0  0  0  0  0  0  0  0  0
   71.6695   42.5847   57.8006 C   0  0  0  0  0  0  0  0  0  0  0  0
   71.2888   41.3917   58.0465 O   0  0  0  0  0  0  0  0  0  0  0  0
   68.9720   48.5938   56.1551 C   0  0  0  0  0  0  0  0  0  0  0  0
   69.4133   48.5888   54.7357 C   0  0  0  0  0  0  0  0  0  0  0  0
   70.2951   49.5044   54.2841 N   0  0  0  0  0  0  0  0  0  0  0  0
   70.6798   49.5840   53.0350 N   0  0  0  0  0  0  0  0  0  0  0  0
   70.2015   48.7342   52.1189 C   0  0  0  0  0  0  0  0  0  0  0  0
   70.5319   48.7613   50.9091 O   0  0  0  0  0  0  0  0  0  0  0  0
   69.2975   47.7764   52.5248 C   0  0  0  0  0  0  0  0  0  0  0  0
   68.7722   46.8563   51.6433 C   0  0  0  0  0  0  0  0  0  0  0  0
   67.8804   45.8801   52.0157 C   0  0  0  0  0  0  0  0  0  0  0  0
   67.4930   45.8142   53.3318 C   0  0  0  0  0  0  0  0  0  0  0  0
   67.9884   46.7092   54.2583 C   0  0  0  0  0  0  0  0  0  0  0  0
   68.8782   47.6800   53.8610 C   0  0  0  0  0  0  0  0  0  0  0  0
 11 12  1  0
 12 13  2  0
 12 10  1  0
 10  8  1  0
  8  9  2  0
  8  1  1  0
  1  2  2  0
  1  6  1  0
  2  3  1  0
  3 14  1  0
  3  4  2  0
 14 15  1  0
 15 16  2  0
 15 25  1  0
 16 17  1  0
 17 18  1  0
 18 19  2  0
 18 20  1  0
 20 21  1  0
 20 25  2  0
 21 22  2  0
 22 23  1  0
 23 24  2  0
 24 25  1  0
  4  5  1  0
  5  6  2  0
  6  7  1  0
M  END
>  <minimizedAffinity>  (209) 
-8.99372

$$$$
cs_full_output_folder/data/smiles/7846.pdb
     RDKit          3D

 23 25  0  0  0  0  0  0  0  0999 V2000
   69.5530   47.6695   56.2534 C   0  0  0  0  0  0  0  0  0  0  0  0
   69.7329   47.9508   54.8088 C   0  0  0  0  0  0  0  0  0  0  0  0
   70.5819   48.9074   54.4400 N   0  0  0  0  0  0  0  0  0  0  0  0
   70.8183   49.2415   53.1840 N   0  0  0  0  0  0  0  0  0  0  0  0
   70.1780   48.5943   52.1974 C   0  0  0  0  0  0  0  0  0  0  0  0
   70.4228   48.9344   51.0073 O   0  0  0  0  0  0  0  0  0  0  0  0
   69.2901   47.5964   52.5295 C   0  0  0  0  0  0  0  0  0  0  0  0
   68.6185   46.9150   51.5386 C   0  0  0  0  0  0  0  0  0  0  0  0
   67.7195   45.9072   51.8762 C   0  0  0  0  0  0  0  0  0  0  0  0
   67.4884   45.5743   53.2069 C   0  0  0  0  0  0  0  0  0  0  0  0
   68.1782   46.2737   54.2036 C   0  0  0  0  0  0  0  0  0  0  0  0
   69.0496   47.2543   53.8492 C   0  0  0  0  0  0  0  0  0  0  0  0
   66.9551   47.6817   56.9841 O   0  0  0  0  0  0  0  0  0  0  0  0
   67.5918   48.6981   57.3426 C   0  0  0  0  0  0  0  0  0  0  0  0
   68.9884   48.7672   56.9885 N   0  0  0  0  0  0  0  0  0  0  0  0
   66.9260   49.7501   58.0860 C   0  0  0  0  0  0  0  0  0  0  0  0
   66.7273   51.0653   57.4749 C   0  0  0  0  0  0  0  0  0  0  0  0
   67.8342   51.6200   56.6733 C   0  0  0  0  0  0  0  0  0  0  0  0
   67.7647   51.5422   55.2982 C   0  0  0  0  0  0  0  0  0  0  0  0
   68.7655   52.0678   54.5120 C   0  0  0  0  0  0  0  0  0  0  0  0
   69.8631   52.6862   55.0757 C   0  0  0  0  0  0  0  0  0  0  0  0
   69.9087   52.7518   56.4538 C   0  0  0  0  0  0  0  0  0  0  0  0
   68.9120   52.2290   57.2403 C   0  0  0  0  0  0  0  0  0  0  0  0
 13 14  2  0
 14 16  1  0
 14 15  1  0
 16 17  1  0
 17 18  1  0
 18 19  2  0
 18 23  1  0
 19 20  1  0
 20 21  2  0
 21 22  1  0
 22 23  2  0
 15  1  1  0
  1  2  1  0
  2  3  2  0
  2 12  1  0
  3  4  1  0
  4  5  1  0
  5  6  2  0
  5  7  1  0
  7  8  1  0
  7 12  2  0
  8  9  2  0
  9 10  1  0
 10 11  2  0
 11 12  1  0
M  END
>  <minimizedAffinity>  (210) 
-8.99351

$$$$
cs_full_output_folder/data/smiles/6752.pdb
     RDKit          3D

 25 27  0  0  0  0  0  0  0  0999 V2000
   69.9266   44.5538   57.3331 C   0  0  0  0  0  0  0  0  0  0  0  0
   70.7516   45.3710   57.8381 O   0  0  0  0  0  0  0  0  0  0  0  0
   68.9551   45.0887   56.4797 N   0  0  0  0  0  0  0  0  0  0  0  0
   68.0313   41.8136   56.7486 C   0  0  0  0  0  0  0  0  0  0  0  0
   69.3415   42.0348   57.4715 C   0  0  0  0  0  0  0  0  0  0  0  0
   70.0458   43.1177   57.6737 C   0  0  0  0  0  0  0  0  0  0  0  0
   71.0843   42.3686   58.3584 C   0  0  0  0  0  0  0  0  0  0  0  0
   70.2268   41.2512   58.1822 N   0  0  0  0  0  0  0  0  0  0  0  0
   70.2995   39.8751   58.5827 C   0  0  0  0  0  0  0  0  0  0  0  0
   69.3309   39.2377   59.3147 C   0  0  0  0  0  0  0  0  0  0  0  0
   69.4458   37.8892   59.6640 C   0  0  0  0  0  0  0  0  0  0  0  0
   70.5487   37.1644   59.2767 C   0  0  0  0  0  0  0  0  0  0  0  0
   70.6486   35.8360   59.6287 F   0  0  0  0  0  0  0  0  0  0  0  0
   71.5192   37.7867   58.5486 C   0  0  0  0  0  0  0  0  0  0  0  0
   71.4024   39.1045   58.2093 C   0  0  0  0  0  0  0  0  0  0  0  0
   68.8072   46.4824   56.1283 C   0  0  0  0  0  0  0  0  0  0  0  0
   68.6735   46.5799   54.6587 C   0  0  0  0  0  0  0  0  0  0  0  0
   67.9406   45.7076   53.8988 C   0  0  0  0  0  0  0  0  0  0  0  0
   67.8796   45.8696   52.5114 C   0  0  0  0  0  0  0  0  0  0  0  0
   68.5412   46.8912   51.8788 C   0  0  0  0  0  0  0  0  0  0  0  0
   69.2817   47.7788   52.6207 C   0  0  0  0  0  0  0  0  0  0  0  0
   69.3286   47.5999   53.9921 C   0  0  0  0  0  0  0  0  0  0  0  0
   69.9882   48.8652   51.9578 C   0  0  0  0  0  0  0  0  0  0  0  0
   70.5831   48.6841   50.8914 O   0  0  0  0  0  0  0  0  0  0  0  0
   69.9886   50.1216   52.5379 O   0  0  0  0  0  0  0  0  0  0  0  0
  4  5  1  0
  5  6  2  0
  5  8  1  0
  6  1  1  0
  6  7  1  0
  1  2  2  0
  1  3  1  0
  3 16  1  0
 16 17  1  0
 17 18  2  0
 17 22  1  0
 18 19  1  0
 19 20  2  0
 20 21  1  0
 21 23  1  0
 21 22  2  0
 23 24  2  0
 23 25  1  0
  7  8  1  0
  8  9  1  0
  9 10  2  0
  9 15  1  0
 10 11  1  0
 11 12  2  0
 12 13  1  0
 12 14  1  0
 14 15  2  0
M  END
>  <minimizedAffinity>  (211) 
-8.99169

$$$$
cs_full_output_folder/data/smiles/9053.pdb
     RDKit          3D

 24 25  0  0  0  0  0  0  0  0999 V2000
   68.6785   47.0546   56.0630 C   0  0  0  0  0  0  0  0  0  0  0  0
   68.3878   45.8843   56.3628 N   0  0  0  0  0  0  0  0  0  0  0  0
   69.0047   47.5326   52.3197 C   0  0  0  0  0  0  0  0  0  0  0  0
   68.6491   46.9840   53.5574 C   0  0  0  0  0  0  0  0  0  0  0  0
   69.0165   47.5753   54.7417 C   0  0  0  0  0  0  0  0  0  0  0  0
   69.7636   48.7543   54.6229 C   0  0  0  0  0  0  0  0  0  0  0  0
   70.1186   49.3045   53.4246 C   0  0  0  0  0  0  0  0  0  0  0  0
   69.7401   48.6951   52.2461 C   0  0  0  0  0  0  0  0  0  0  0  0
   70.0827   49.2235   51.0101 O   0  0  0  0  0  0  0  0  0  0  0  0
   67.5076   45.9651   51.2262 C   0  0  0  0  0  0  0  0  0  0  0  0
   68.5904   46.8687   51.1828 O   0  0  0  0  0  0  0  0  0  0  0  0
   70.8584   50.4727   53.3076 O   0  0  0  0  0  0  0  0  0  0  0  0
   70.4079   51.7365   53.6932 C   0  0  0  0  0  0  0  0  0  0  0  0
   68.2733   44.7214   55.6673 N   0  0  0  0  0  0  0  0  0  0  0  0
   68.4271   43.4505   56.3094 C   0  0  0  0  0  0  0  0  0  0  0  0
   69.4848   43.1741   57.1513 C   0  0  0  0  0  0  0  0  0  0  0  0
   69.6113   41.9430   57.7578 C   0  0  0  0  0  0  0  0  0  0  0  0
   68.6629   40.9626   57.5229 C   0  0  0  0  0  0  0  0  0  0  0  0
   67.6102   41.2112   56.6962 C   0  0  0  0  0  0  0  0  0  0  0  0
   67.4841   42.4432   56.0896 C   0  0  0  0  0  0  0  0  0  0  0  0
   68.7847   39.6198   58.1739 C   0  0  0  0  0  0  0  0  0  0  0  0
   68.3291   39.7033   59.4698 F   0  0  0  0  0  0  0  0  0  0  0  0
   70.0951   39.1908   58.1267 F   0  0  0  0  0  0  0  0  0  0  0  0
   67.9519   38.7685   57.4800 F   0  0  0  0  0  0  0  0  0  0  0  0
 10 11  1  0
 11  3  1  0
  3  4  2  0
  3  8  1  0
  4  5  1  0
  5  1  1  0
  5  6  2  0
  1  2  2  0
  2 14  1  0
 14 15  1  0
 15 16  2  0
 15 20  1  0
 16 17  1  0
 17 18  2  0
 18 21  1  0
 18 19  1  0
 21 22  1  0
 21 23  1  0
 21 24  1  0
 19 20  2  0
  6  7  1  0
  7 12  1  0
  7  8  2  0
 12 13  1  0
  8  9  1  0
M  END
>  <minimizedAffinity>  (212) 
-8.98451

$$$$
cs_full_output_folder/data/smiles/48.pdb
     RDKit          3D

 25 27  0  0  0  0  0  0  0  0999 V2000
   68.7134   47.7531   56.6868 C   0  0  0  0  0  0  0  0  0  0  0  0
   67.5495   47.5813   57.0158 O   0  0  0  0  0  0  0  0  0  0  0  0
   69.1420   48.0450   55.3313 C   0  0  0  0  0  0  0  0  0  0  0  0
   69.9831   49.1724   55.1515 C   0  0  0  0  0  0  0  0  0  0  0  0
   70.3903   49.4562   53.8964 C   0  0  0  0  0  0  0  0  0  0  0  0
   71.1427   50.4527   53.6870 O   0  0  0  0  0  0  0  0  0  0  0  0
   70.0352   48.7288   52.8417 N   0  0  0  0  0  0  0  0  0  0  0  0
   69.2386   47.6535   52.9716 C   0  0  0  0  0  0  0  0  0  0  0  0
   68.8943   46.9296   51.8667 C   0  0  0  0  0  0  0  0  0  0  0  0
   68.0880   45.8384   51.9876 C   0  0  0  0  0  0  0  0  0  0  0  0
   67.6288   45.4791   53.2307 C   0  0  0  0  0  0  0  0  0  0  0  0
   67.9625   46.1987   54.3787 C   0  0  0  0  0  0  0  0  0  0  0  0
   68.7794   47.2977   54.2347 C   0  0  0  0  0  0  0  0  0  0  0  0
   69.6423   47.6485   57.7294 O   0  0  0  0  0  0  0  0  0  0  0  0
   70.5511   46.6237   57.9132 C   0  0  0  0  0  0  0  0  0  0  0  0
   69.7590   44.8033   59.1204 O   0  0  0  0  0  0  0  0  0  0  0  0
   70.0635   45.2627   57.9789 C   0  0  0  0  0  0  0  0  0  0  0  0
   69.8954   44.3926   56.8782 N   0  0  0  0  0  0  0  0  0  0  0  0
   69.4018   43.0754   57.0769 C   0  0  0  0  0  0  0  0  0  0  0  0
   70.0528   42.1041   57.8087 C   0  0  0  0  0  0  0  0  0  0  0  0
   69.5502   40.8407   57.9825 C   0  0  0  0  0  0  0  0  0  0  0  0
   68.3480   40.4881   57.4197 C   0  0  0  0  0  0  0  0  0  0  0  0
   67.8294   39.2574   57.5728 F   0  0  0  0  0  0  0  0  0  0  0  0
   67.6709   41.4300   56.6846 C   0  0  0  0  0  0  0  0  0  0  0  0
   68.1989   42.7132   56.5176 C   0  0  0  0  0  0  0  0  0  0  0  0
 16 17  2  0
 17 15  1  0
 17 18  1  0
 15 14  1  0
 14  1  1  0
  1  2  2  0
  1  3  1  0
  3  4  2  0
  3 13  1  0
  4  5  1  0
  5  6  2  0
  5  7  1  0
  7  8  1  0
  8  9  1  0
  8 13  2  0
  9 10  2  0
 10 11  1  0
 11 12  2  0
 12 13  1  0
 18 19  1  0
 19 20  2  0
 19 25  1  0
 20 21  1  0
 21 22  2  0
 22 23  1  0
 22 24  1  0
 24 25  2  0
M  END
>  <minimizedAffinity>  (213) 
-8.98362

$$$$
cs_full_output_folder/data/smiles/7943.pdb
     RDKit          3D

 25 27  0  0  0  0  0  0  0  0999 V2000
   68.6100   50.4999   57.1067 C   0  0  0  0  0  0  0  0  0  0  0  0
   67.4924   51.1045   57.6213 C   0  0  0  0  0  0  0  0  0  0  0  0
   66.3815   50.3530   57.9927 C   0  0  0  0  0  0  0  0  0  0  0  0
   66.3724   48.9869   57.8560 C   0  0  0  0  0  0  0  0  0  0  0  0
   67.5179   48.4176   57.3330 C   0  0  0  0  0  0  0  0  0  0  0  0
   68.6349   49.1140   56.9495 C   0  0  0  0  0  0  0  0  0  0  0  0
   68.7886   52.5899   55.1358 O   0  0  0  0  0  0  0  0  0  0  0  0
   69.8043   52.2703   55.7657 C   0  0  0  0  0  0  0  0  0  0  0  0
   69.7382   51.2403   56.7400 N   0  0  0  0  0  0  0  0  0  0  0  0
   71.1329   52.9221   55.5568 C   0  0  0  0  0  0  0  0  0  0  0  0
   71.9812   52.4738   56.5513 F   0  0  0  0  0  0  0  0  0  0  0  0
   71.6896   52.5892   54.3597 F   0  0  0  0  0  0  0  0  0  0  0  0
   70.9927   54.2768   55.6983 F   0  0  0  0  0  0  0  0  0  0  0  0
   69.7820   48.3728   56.3712 C   0  0  0  0  0  0  0  0  0  0  0  0
   69.9082   48.3456   54.9293 C   0  0  0  0  0  0  0  0  0  0  0  0
   70.7877   49.2165   54.3442 N   0  0  0  0  0  0  0  0  0  0  0  0
   70.9724   49.3390   53.0683 N   0  0  0  0  0  0  0  0  0  0  0  0
   70.3172   48.6195   52.1435 C   0  0  0  0  0  0  0  0  0  0  0  0
   70.5189   48.7638   50.9178 O   0  0  0  0  0  0  0  0  0  0  0  0
   69.4011   47.7060   52.6499 C   0  0  0  0  0  0  0  0  0  0  0  0
   68.7197   46.9330   51.7490 C   0  0  0  0  0  0  0  0  0  0  0  0
   67.8171   46.0019   52.2376 C   0  0  0  0  0  0  0  0  0  0  0  0
   67.6140   45.8594   53.5926 C   0  0  0  0  0  0  0  0  0  0  0  0
   68.3132   46.6507   54.4906 C   0  0  0  0  0  0  0  0  0  0  0  0
   69.2085   47.5790   54.0329 C   0  0  0  0  0  0  0  0  0  0  0  0
  7  8  2  0
  8  9  1  0
  8 10  1  0
  9  1  1  0
  1  2  2  0
  1  6  1  0
  2  3  1  0
  3  4  2  0
  4  5  1  0
  5  6  2  0
  6 14  1  0
 14 15  1  0
 15 16  2  0
 15 25  1  0
 16 17  1  0
 17 18  1  0
 18 19  2  0
 18 20  1  0
 20 21  1  0
 20 25  2  0
 21 22  2  0
 22 23  1  0
 23 24  2  0
 24 25  1  0
 10 11  1  0
 10 12  1  0
 10 13  1  0
M  END
>  <minimizedAffinity>  (214) 
-8.98151

$$$$
cs_full_output_folder/data/smiles/2384.pdb
     RDKit          3D

 25 27  0  0  0  0  0  0  0  0999 V2000
   70.9722   44.9454   58.3344 C   0  0  0  0  0  0  0  0  0  0  0  0
   72.1353   45.4325   58.7050 O   0  0  0  0  0  0  0  0  0  0  0  0
   70.7823   43.5948   58.7248 C   0  0  0  0  0  0  0  0  0  0  0  0
   71.4396   42.9519   59.7972 C   0  0  0  0  0  0  0  0  0  0  0  0
   71.0408   41.7007   59.9318 N   0  0  0  0  0  0  0  0  0  0  0  0
   70.1235   41.4330   58.9929 C   0  0  0  0  0  0  0  0  0  0  0  0
   69.4299   40.2786   58.7111 C   0  0  0  0  0  0  0  0  0  0  0  0
   68.5376   40.2282   57.6654 C   0  0  0  0  0  0  0  0  0  0  0  0
   68.3609   41.3666   56.9098 C   0  0  0  0  0  0  0  0  0  0  0  0
   69.0662   42.5103   57.2109 C   0  0  0  0  0  0  0  0  0  0  0  0
   69.9536   42.5892   58.2406 C   0  0  0  0  0  0  0  0  0  0  0  0
   67.4326   41.3511   55.8109 N   0  0  0  0  0  0  0  0  0  0  0  0
   67.3661   40.3515   55.0900 O   0  0  0  0  0  0  0  0  0  0  0  0
   66.6296   42.4185   55.5525 O   0  0  0  0  0  0  0  0  0  0  0  0
   69.0852   45.5512   56.8033 N   0  0  0  0  0  0  0  0  0  0  0  0
   70.1998   45.9026   57.6318 C   0  0  0  0  0  0  0  0  0  0  0  0
   70.3884   47.1624   57.6506 O   0  0  0  0  0  0  0  0  0  0  0  0
   68.2840   46.4237   56.0994 N   0  0  0  0  0  0  0  0  0  0  0  0
   69.9235   48.7835   52.0183 C   0  0  0  0  0  0  0  0  0  0  0  0
   69.1815   47.7013   52.6979 C   0  0  0  0  0  0  0  0  0  0  0  0
   68.5399   46.7611   51.8806 C   0  0  0  0  0  0  0  0  0  0  0  0
   67.8424   45.7553   52.5084 C   0  0  0  0  0  0  0  0  0  0  0  0
   67.7756   45.6732   53.8926 C   0  0  0  0  0  0  0  0  0  0  0  0
   68.4198   46.6137   54.7114 C   0  0  0  0  0  0  0  0  0  0  0  0
   69.1019   47.5990   54.0613 C   0  0  0  0  0  0  0  0  0  0  0  0
 19 20  1  0
 20 21  2  0
 20 25  1  0
 21 22  1  0
 22 23  2  0
 23 24  1  0
 24 18  1  0
 24 25  2  0
 18 15  1  0
 15 16  1  0
 16 17  2  0
 16  1  1  0
  1  2  2  0
  1  3  1  0
  3  4  2  0
  3 11  1  0
  4  5  1  0
  5  6  1  0
  6  7  1  0
  6 11  2  0
  7  8  2  0
  8  9  1  0
  9 12  1  0
  9 10  2  0
 12 13  2  0
 12 14  1  0
 10 11  1  0
M  CHG  2  12   1  14  -1
M  END
>  <minimizedAffinity>  (215) 
-8.97961

$$$$
cs_full_output_folder/data/smiles/9277.pdb
     RDKit          3D

 24 26  0  0  0  0  0  0  0  0999 V2000
   70.5350   45.2919   57.7763 C   0  0  0  0  0  0  0  0  0  0  0  0
   71.5077   45.9244   58.5184 C   0  0  0  0  0  0  0  0  0  0  0  0
   71.5941   47.3143   58.4927 C   0  0  0  0  0  0  0  0  0  0  0  0
   70.7245   48.0742   57.7384 C   0  0  0  0  0  0  0  0  0  0  0  0
   69.7400   47.4374   56.9869 C   0  0  0  0  0  0  0  0  0  0  0  0
   69.6767   46.0803   57.0286 C   0  0  0  0  0  0  0  0  0  0  0  0
   69.7940   43.1208   58.8034 C   0  0  0  0  0  0  0  0  0  0  0  0
   69.2246   43.7974   59.7247 O   0  0  0  0  0  0  0  0  0  0  0  0
   70.4647   43.8747   57.8092 N   0  0  0  0  0  0  0  0  0  0  0  0
   68.7024   39.5456   58.1037 C   0  0  0  0  0  0  0  0  0  0  0  0
   68.8293   41.0291   58.1356 C   0  0  0  0  0  0  0  0  0  0  0  0
   69.7300   41.6662   58.8219 C   0  0  0  0  0  0  0  0  0  0  0  0
   68.8496   48.3332   56.2093 C   0  0  0  0  0  0  0  0  0  0  0  0
   69.2864   48.4120   54.8473 C   0  0  0  0  0  0  0  0  0  0  0  0
   70.1876   49.3391   54.4818 N   0  0  0  0  0  0  0  0  0  0  0  0
   70.6087   49.4447   53.2358 N   0  0  0  0  0  0  0  0  0  0  0  0
   70.1678   48.6363   52.2476 C   0  0  0  0  0  0  0  0  0  0  0  0
   70.6070   48.7849   51.0685 O   0  0  0  0  0  0  0  0  0  0  0  0
   69.2400   47.6587   52.5471 C   0  0  0  0  0  0  0  0  0  0  0  0
   68.7595   46.8043   51.5783 C   0  0  0  0  0  0  0  0  0  0  0  0
   67.8386   45.8545   51.9616 C   0  0  0  0  0  0  0  0  0  0  0  0
   67.4082   45.7533   53.2668 C   0  0  0  0  0  0  0  0  0  0  0  0
   67.8920   46.6089   54.2247 C   0  0  0  0  0  0  0  0  0  0  0  0
   68.8083   47.5635   53.8701 C   0  0  0  0  0  0  0  0  0  0  0  0
 10 11  1  0
 11 12  2  0
 12  7  1  0
  7  8  2  0
  7  9  1  0
  9  1  1  0
  1  2  2  0
  1  6  1  0
  2  3  1  0
  3  4  2  0
  4  5  1  0
  5 13  1  0
  5  6  2  0
 13 14  1  0
 14 15  2  0
 14 24  1  0
 15 16  1  0
 16 17  1  0
 17 18  2  0
 17 19  1  0
 19 20  1  0
 19 24  2  0
 20 21  2  0
 21 22  1  0
 22 23  2  0
 23 24  1  0
M  END
>  <minimizedAffinity>  (216) 
-8.97936

$$$$
cs_full_output_folder/data/smiles/149.pdb
     RDKit          3D

 24 26  0  0  0  0  0  0  0  0999 V2000
   69.8736   44.1873   58.3571 S   0  0  0  0  0  0  0  0  0  0  0  0
   69.4032   44.0178   59.7856 O   0  0  0  0  0  0  0  0  0  0  0  0
   69.0495   43.2787   57.5154 O   0  0  0  0  0  0  0  0  0  0  0  0
   71.5558   43.7091   58.2776 C   0  0  0  0  0  0  0  0  0  0  0  0
   71.9099   42.4440   57.8464 C   0  0  0  0  0  0  0  0  0  0  0  0
   73.2298   42.0474   57.7762 C   0  0  0  0  0  0  0  0  0  0  0  0
   74.2567   42.8967   58.1340 C   0  0  0  0  0  0  0  0  0  0  0  0
   75.5852   42.5183   58.0710 C   0  0  0  0  0  0  0  0  0  0  0  0
   76.6163   43.3655   58.4287 C   0  0  0  0  0  0  0  0  0  0  0  0
   76.2690   44.6289   58.8609 C   0  0  0  0  0  0  0  0  0  0  0  0
   74.9434   45.0069   58.9244 C   0  0  0  0  0  0  0  0  0  0  0  0
   73.9132   44.1603   58.5665 C   0  0  0  0  0  0  0  0  0  0  0  0
   72.5832   44.5561   58.6351 C   0  0  0  0  0  0  0  0  0  0  0  0
   69.6711   45.8286   57.8517 N   0  0  0  0  0  0  0  0  0  0  0  0
   68.6308   46.5535   55.7283 C   0  0  0  0  0  0  0  0  0  0  0  0
   67.7462   47.1583   56.4231 O   0  0  0  0  0  0  0  0  0  0  0  0
   69.6235   45.8689   56.4426 N   0  0  0  0  0  0  0  0  0  0  0  0
   69.8264   48.6127   51.4126 N   0  0  0  0  0  0  0  0  0  0  0  0
   69.1314   47.6207   52.1675 C   0  0  0  0  0  0  0  0  0  0  0  0
   68.3723   46.7143   51.4581 C   0  0  0  0  0  0  0  0  0  0  0  0
   67.6942   45.7489   52.1766 C   0  0  0  0  0  0  0  0  0  0  0  0
   67.7911   45.7134   53.5619 C   0  0  0  0  0  0  0  0  0  0  0  0
   68.5494   46.6170   54.2742 C   0  0  0  0  0  0  0  0  0  0  0  0
   69.2243   47.5787   53.5571 C   0  0  0  0  0  0  0  0  0  0  0  0
 18 19  1  0
 19 20  2  0
 19 24  1  0
 20 21  1  0
 21 22  2  0
 22 23  1  0
 23 15  1  0
 23 24  2  0
 15 16  2  0
 15 17  1  0
 17 14  1  0
 14  1  1  0
  1  2  2  0
  1  3  2  0
  1  4  1  0
  4  5  2  0
  4 13  1  0
  5  6  1  0
  6  7  2  0
  7  8  1  0
  7 12  1  0
  8  9  2  0
  9 10  1  0
 10 11  2  0
 11 12  1  0
 12 13  2  0
M  END
>  <minimizedAffinity>  (217) 
-8.97868

$$$$
cs_full_output_folder/data/smiles/3037.pdb
     RDKit          3D

 22 23  0  0  0  0  0  0  0  0999 V2000
   68.6183   46.5971   55.7789 C   0  0  0  0  0  0  0  0  0  0  0  0
   67.6726   47.1145   56.4236 O   0  0  0  0  0  0  0  0  0  0  0  0
   69.6683   45.9548   56.4744 N   0  0  0  0  0  0  0  0  0  0  0  0
   69.4158   47.6782   52.3051 C   0  0  0  0  0  0  0  0  0  0  0  0
   68.5840   46.8680   51.5851 C   0  0  0  0  0  0  0  0  0  0  0  0
   67.7655   45.9725   52.2284 C   0  0  0  0  0  0  0  0  0  0  0  0
   67.7503   45.8582   53.5917 C   0  0  0  0  0  0  0  0  0  0  0  0
   68.5958   46.6797   54.3350 C   0  0  0  0  0  0  0  0  0  0  0  0
   69.4014   47.5616   53.6885 C   0  0  0  0  0  0  0  0  0  0  0  0
   70.2862   48.6268   51.6622 N   0  0  2  0  0  0  0  0  0  0  0  0
   71.3154   48.9490   52.4907 O   0  0  0  0  0  0  0  0  0  0  0  0
   69.7516   50.3005   50.3254 O   0  0  0  0  0  0  0  0  0  0  0  0
   69.5841   49.7690   51.3967 N   0  0  0  0  0  0  0  0  0  0  0  0
   69.6408   45.9043   57.8467 N   0  0  0  0  0  0  0  0  0  0  0  0
   70.4088   45.3526   58.6287 C   0  0  0  0  0  0  0  0  0  0  0  0
   71.5863   44.5808   58.3568 C   0  0  0  0  0  0  0  0  0  0  0  0
   71.5790   43.2556   57.9832 C   0  0  0  0  0  0  0  0  0  0  0  0
   72.7541   42.5384   57.7272 C   0  0  0  0  0  0  0  0  0  0  0  0
   73.9763   43.1546   57.8450 C   0  0  0  0  0  0  0  0  0  0  0  0
   75.4625   42.2860   57.5312 Cl  0  0  0  0  0  0  0  0  0  0  0  0
   74.0139   44.4779   58.2160 C   0  0  0  0  0  0  0  0  0  0  0  0
   72.8689   45.1642   58.4623 C   0  0  0  0  0  0  0  0  0  0  0  0
 12 13  2  0
 13 10  1  0
 10 11  1  1
 10  4  1  0
  4  5  2  0
  4  9  1  0
  5  6  1  0
  6  7  2  0
  7  8  1  0
  8  1  1  0
  8  9  2  0
  1  2  2  0
  1  3  1  0
  3 14  1  0
 14 15  2  0
 15 16  1  0
 16 17  2  0
 16 22  1  0
 17 18  1  0
 18 19  2  0
 19 20  1  0
 19 21  1  0
 21 22  2  0
M  CHG  2  10   1  11  -1
M  END
>  <minimizedAffinity>  (218) 
-8.97670

$$$$
cs_full_output_folder/data/smiles/5471.pdb
     RDKit          3D

 24 26  0  0  0  0  0  0  0  0999 V2000
   69.7557   45.7628   57.0687 N   0  0  0  0  0  0  0  0  0  0  0  0
   70.5182   45.3401   58.2209 C   0  0  0  0  0  0  0  0  0  0  0  0
   70.6210   46.1301   59.1939 O   0  0  0  0  0  0  0  0  0  0  0  0
   71.1227   44.0151   58.1750 C   0  0  0  0  0  0  0  0  0  0  0  0
   70.3348   42.8667   58.0700 C   0  0  0  0  0  0  0  0  0  0  0  0
   70.8529   41.6044   58.0227 C   0  0  0  0  0  0  0  0  0  0  0  0
   72.2126   41.4059   58.0762 C   0  0  0  0  0  0  0  0  0  0  0  0
   73.0329   42.5197   58.1804 C   0  0  0  0  0  0  0  0  0  0  0  0
   74.3891   42.2728   58.2340 C   0  0  0  0  0  0  0  0  0  0  0  0
   75.2439   43.3353   58.3405 C   0  0  0  0  0  0  0  0  0  0  0  0
   74.7353   44.6099   58.3916 C   0  0  0  0  0  0  0  0  0  0  0  0
   73.3601   44.8471   58.3366 C   0  0  0  0  0  0  0  0  0  0  0  0
   72.4897   43.8003   58.2298 C   0  0  0  0  0  0  0  0  0  0  0  0
   69.1048   47.0143   56.9473 C   0  0  0  0  0  0  0  0  0  0  0  0
   68.1791   47.2557   55.7931 C   0  0  0  0  0  0  0  0  0  0  0  0
   67.8588   45.6109   53.2634 C   0  0  0  0  0  0  0  0  0  0  0  0
   68.5866   46.8690   53.3834 C   0  0  0  0  0  0  0  0  0  0  0  0
   69.1765   47.3366   52.2061 C   0  0  0  0  0  0  0  0  0  0  0  0
   69.9374   48.4740   52.1255 C   0  0  0  0  0  0  0  0  0  0  0  0
   70.5002   48.8870   50.9088 O   0  0  0  0  0  0  0  0  0  0  0  0
   70.1117   49.1767   53.2980 C   0  0  0  0  0  0  0  0  0  0  0  0
   70.8850   50.3403   53.2417 O   0  0  0  0  0  0  0  0  0  0  0  0
   69.5408   48.7369   54.4697 C   0  0  0  0  0  0  0  0  0  0  0  0
   68.7651   47.5671   54.5175 C   0  0  0  0  0  0  0  0  0  0  0  0
 16 17  1  0
 17 18  2  0
 17 24  1  0
 18 19  1  0
 19 20  1  0
 19 21  2  0
 21 22  1  0
 21 23  1  0
 23 24  2  0
 24 15  1  0
 15 14  1  0
 14  1  1  0
  1  2  1  0
  2  3  2  0
  2  4  1  0
  4  5  2  0
  4 13  1  0
  5  6  1  0
  6  7  2  0
  7  8  1  0
  8  9  1  0
  8 13  2  0
  9 10  2  0
 10 11  1  0
 11 12  2  0
 12 13  1  0
M  END
>  <minimizedAffinity>  (219) 
-8.97654

$$$$
cs_full_output_folder/data/smiles/4042.pdb
     RDKit          3D

 25 27  0  0  0  0  0  0  0  0999 V2000
   67.5955   45.2847   54.9201 N   0  0  0  0  0  0  0  0  0  0  0  0
   68.1350   44.2346   55.7256 C   0  0  0  0  0  0  0  0  0  0  0  0
   69.2698   44.4254   56.2324 O   0  0  0  0  0  0  0  0  0  0  0  0
   67.4774   43.0200   55.9797 N   0  0  0  0  0  0  0  0  0  0  0  0
   68.0141   41.9723   56.7830 C   0  0  0  0  0  0  0  0  0  0  0  0
   68.6386   42.1758   57.9945 C   0  0  0  0  0  0  0  0  0  0  0  0
   69.1498   41.1293   58.7502 C   0  0  0  0  0  0  0  0  0  0  0  0
   69.7757   41.3340   59.9629 C   0  0  0  0  0  0  0  0  0  0  0  0
   70.2883   40.2977   60.7224 C   0  0  0  0  0  0  0  0  0  0  0  0
   70.1859   38.9937   60.2778 C   0  0  0  0  0  0  0  0  0  0  0  0
   69.5600   38.7891   59.0651 C   0  0  0  0  0  0  0  0  0  0  0  0
   69.0473   39.8282   58.3062 C   0  0  0  0  0  0  0  0  0  0  0  0
   68.4235   39.6161   57.0943 C   0  0  0  0  0  0  0  0  0  0  0  0
   67.9101   40.6719   56.3351 C   0  0  0  0  0  0  0  0  0  0  0  0
   67.2954   40.3857   55.1267 O   0  0  0  0  0  0  0  0  0  0  0  0
   69.3734   47.9869   53.1403 C   0  0  0  0  0  0  0  0  0  0  0  0
   69.5700   48.9046   54.1601 C   0  0  0  0  0  0  0  0  0  0  0  0
   69.1128   48.6202   55.4273 C   0  0  0  0  0  0  0  0  0  0  0  0
   68.4549   47.4086   55.6693 C   0  0  0  0  0  0  0  0  0  0  0  0
   67.9975   47.1269   56.9409 O   0  0  0  0  0  0  0  0  0  0  0  0
   68.2553   46.4954   54.6700 C   0  0  0  0  0  0  0  0  0  0  0  0
   68.7129   46.7839   53.4081 C   0  0  0  0  0  0  0  0  0  0  0  0
   70.0214   49.4948   51.2254 N   0  0  0  0  0  0  0  0  0  0  0  0
   69.8290   48.2205   51.7796 C   0  0  0  0  0  0  0  0  0  0  0  0
   70.0793   47.2329   51.0082 O   0  0  0  0  0  0  0  0  0  0  0  0
 23 24  1  0
 24 25  2  0
 24 16  1  0
 16 17  2  0
 16 22  1  0
 17 18  1  0
 18 19  2  0
 19 20  1  0
 19 21  1  0
 21  1  1  0
 21 22  2  0
  1  2  1  0
  2  3  2  0
  2  4  1  0
  4  5  1  0
  5  6  2  0
  5 14  1  0
  6  7  1  0
  7  8  2  0
  7 12  1  0
  8  9  1  0
  9 10  2  0
 10 11  1  0
 11 12  2  0
 12 13  1  0
 13 14  2  0
 14 15  1  0
M  END
>  <minimizedAffinity>  (220) 
-8.97610

$$$$
cs_full_output_folder/data/smiles/7499.pdb
     RDKit          3D

 24 26  0  0  0  0  0  0  0  0999 V2000
   74.1308   50.5212   56.1372 C   0  0  0  0  0  0  0  0  0  0  0  0
   73.6715   51.4443   55.1999 C   0  0  0  0  0  0  0  0  0  0  0  0
   72.3483   51.4112   54.8137 C   0  0  0  0  0  0  0  0  0  0  0  0
   71.4533   50.4737   55.3404 C   0  0  0  0  0  0  0  0  0  0  0  0
   71.9559   49.5996   56.2486 C   0  0  0  0  0  0  0  0  0  0  0  0
   73.2720   49.6282   56.6371 N   0  0  0  0  0  0  0  0  0  0  0  0
   76.4651   49.9068   55.7199 C   0  0  0  0  0  0  0  0  0  0  0  0
   76.0454   49.2930   54.6950 O   0  0  0  0  0  0  0  0  0  0  0  0
   75.5031   50.5725   56.5166 N   0  0  0  0  0  0  0  0  0  0  0  0
   80.1960   49.0893   55.7927 C   0  0  0  0  0  0  0  0  0  0  0  0
   78.7554   49.0903   55.4738 C   0  0  0  0  0  0  0  0  0  0  0  0
   77.8894   49.9064   56.0371 C   0  0  0  0  0  0  0  0  0  0  0  0
   70.0597   50.4911   54.8583 C   0  0  0  0  0  0  0  0  0  0  0  0
   69.8862   49.4741   53.8118 C   0  0  0  0  0  0  0  0  0  0  0  0
   70.4473   49.6578   52.5741 N   0  0  0  0  0  0  0  0  0  0  0  0
   70.2918   48.7945   51.5924 N   0  0  0  0  0  0  0  0  0  0  0  0
   69.5623   47.6832   51.7819 C   0  0  0  0  0  0  0  0  0  0  0  0
   69.3877   46.8279   50.8637 O   0  0  0  0  0  0  0  0  0  0  0  0
   68.9461   47.4058   53.0182 C   0  0  0  0  0  0  0  0  0  0  0  0
   69.1449   48.3458   54.0092 C   0  0  0  0  0  0  0  0  0  0  0  0
   68.5578   48.0897   55.3440 C   0  0  0  0  0  0  0  0  0  0  0  0
   68.8534   46.5872   55.5897 C   0  0  0  0  0  0  0  0  0  0  0  0
   68.1062   45.7509   54.6105 C   0  0  0  0  0  0  0  0  0  0  0  0
   68.1336   46.1981   53.2005 C   0  0  0  0  0  0  0  0  0  0  0  0
 10 11  1  0
 11 12  2  0
 12  7  1  0
  7  8  2  0
  7  9  1  0
  9  1  1  0
  1  2  2  0
  1  6  1  0
  2  3  1  0
  3  4  2  0
  4 13  1  0
  4  5  1  0
 13 14  1  0
 14 15  2  0
 14 20  1  0
 15 16  1  0
 16 17  1  0
 17 18  2  0
 17 19  1  0
 19 20  2  0
 19 24  1  0
 20 21  1  0
 21 22  1  0
 22 23  1  0
 23 24  1  0
  5  6  2  0
M  END
>  <minimizedAffinity>  (221) 
-8.97540

$$$$
cs_full_output_folder/data/smiles/5007.pdb
     RDKit          3D

 23 25  0  0  0  0  0  0  0  0999 V2000
   69.2025   45.9056   56.8127 C   0  0  0  0  0  0  0  0  0  0  0  0
   70.0204   46.7424   57.5900 C   0  0  0  0  0  0  0  0  0  0  0  0
   70.9447   46.1713   58.4075 C   0  0  0  0  0  0  0  0  0  0  0  0
   71.0353   44.7987   58.4363 N   0  0  0  0  0  0  0  0  0  0  0  0
   70.2618   43.9957   57.7015 C   0  0  0  0  0  0  0  0  0  0  0  0
   70.4237   42.2341   57.7788 Cl  0  0  0  0  0  0  0  0  0  0  0  0
   69.3523   44.5743   56.8971 N   0  0  0  0  0  0  0  0  0  0  0  0
   71.8248   46.9635   59.2387 C   0  0  0  0  0  0  0  0  0  0  0  0
   72.2412   46.4958   60.4829 C   0  0  0  0  0  0  0  0  0  0  0  0
   73.0765   47.2523   61.2672 C   0  0  0  0  0  0  0  0  0  0  0  0
   73.5318   48.4829   60.8664 C   0  0  0  0  0  0  0  0  0  0  0  0
   73.1222   48.9441   59.6422 C   0  0  0  0  0  0  0  0  0  0  0  0
   72.2769   48.1827   58.8448 C   0  0  0  0  0  0  0  0  0  0  0  0
   68.2686   46.4578   55.9858 O   0  0  0  0  0  0  0  0  0  0  0  0
   69.3355   47.7476   52.7235 C   0  0  0  0  0  0  0  0  0  0  0  0
   68.6670   46.8843   51.8807 C   0  0  0  0  0  0  0  0  0  0  0  0
   67.8594   45.8687   52.3577 C   0  0  0  0  0  0  0  0  0  0  0  0
   67.7355   45.7384   53.7188 C   0  0  0  0  0  0  0  0  0  0  0  0
   68.3759   46.5676   54.6176 C   0  0  0  0  0  0  0  0  0  0  0  0
   69.1719   47.5666   54.1009 C   0  0  0  0  0  0  0  0  0  0  0  0
   69.8218   49.5428   51.0703 N   0  0  0  0  0  0  0  0  0  0  0  0
   70.1795   48.8078   52.2172 C   0  0  0  0  0  0  0  0  0  0  0  0
   71.2431   49.0742   52.8072 O   0  0  0  0  0  0  0  0  0  0  0  0
 21 22  1  0
 22 23  2  0
 22 15  1  0
 15 16  2  0
 15 20  1  0
 16 17  1  0
 17 18  2  0
 18 19  1  0
 19 14  1  0
 19 20  2  0
 14  1  1  0
  1  2  2  0
  1  7  1  0
  2  3  1  0
  3  8  1  0
  3  4  2  0
  8  9  2  0
  8 13  1  0
  9 10  1  0
 10 11  2  0
 11 12  1  0
 12 13  2  0
  4  5  1  0
  5  6  1  0
  5  7  2  0
M  END
>  <minimizedAffinity>  (222) 
-8.97403

$$$$
cs_full_output_folder/data/smiles/2786.pdb
     RDKit          3D

 23 25  0  0  0  0  0  0  0  0999 V2000
   69.4901   49.3357   52.8809 C   0  0  0  0  0  0  0  0  0  0  0  0
   70.5076   50.1001   53.5835 C   0  0  0  0  0  0  0  0  0  0  0  0
   71.8075   49.7207   53.4024 N   0  0  0  0  0  0  0  0  0  0  0  0
   72.8112   50.3810   53.9534 N   0  0  0  0  0  0  0  0  0  0  0  0
   72.6415   51.4676   54.7293 C   0  0  0  0  0  0  0  0  0  0  0  0
   73.6286   52.0690   55.2341 O   0  0  0  0  0  0  0  0  0  0  0  0
   71.3554   51.8955   54.9481 C   0  0  0  0  0  0  0  0  0  0  0  0
   71.1454   52.9900   55.7465 C   0  0  0  0  0  0  0  0  0  0  0  0
   69.8601   53.4272   55.9952 C   0  0  0  0  0  0  0  0  0  0  0  0
   68.8342   52.7345   55.4225 C   0  0  0  0  0  0  0  0  0  0  0  0
   69.0064   51.6330   54.6151 C   0  0  0  0  0  0  0  0  0  0  0  0
   70.3009   51.1951   54.3644 C   0  0  0  0  0  0  0  0  0  0  0  0
   68.8875   46.5695   55.4077 C   0  0  0  0  0  0  0  0  0  0  0  0
   69.2736   47.7713   54.8164 C   0  0  0  0  0  0  0  0  0  0  0  0
   69.0943   48.0547   53.4696 C   0  0  0  0  0  0  0  0  0  0  0  0
   68.5053   47.0805   52.7192 C   0  0  0  0  0  0  0  0  0  0  0  0
   68.1010   45.8747   53.2371 C   0  0  0  0  0  0  0  0  0  0  0  0
   68.3051   45.6464   54.5870 C   0  0  0  0  0  0  0  0  0  0  0  0
   67.8778   44.4484   55.0451 F   0  0  0  0  0  0  0  0  0  0  0  0
   69.9003   45.1637   58.7914 N   0  0  0  0  0  0  0  0  0  0  0  0
   69.7582   45.2313   57.3850 N   0  0  0  0  0  0  0  0  0  0  0  0
   69.1208   46.3441   56.8216 C   0  0  0  0  0  0  0  0  0  0  0  0
   68.7085   47.2475   57.6593 O   0  0  0  0  0  0  0  0  0  0  0  0
 20 21  1  0
 21 22  1  0
 22 23  2  0
 22 13  1  0
 13 14  2  0
 13 18  1  0
 14 15  1  0
 15  1  1  0
 15 16  2  0
  1  2  1  0
  2  3  2  0
  2 12  1  0
  3  4  1  0
  4  5  1  0
  5  6  2  0
  5  7  1  0
  7  8  1  0
  7 12  2  0
  8  9  2  0
  9 10  1  0
 10 11  2  0
 11 12  1  0
 16 17  1  0
 17 18  2  0
 18 19  1  0
M  END
>  <minimizedAffinity>  (223) 
-8.97089

$$$$
cs_full_output_folder/data/smiles/3869.pdb
     RDKit          3D

 23 25  0  0  0  0  0  0  0  0999 V2000
   67.0953   47.6329   57.0303 O   0  0  0  0  0  0  0  0  0  0  0  0
   68.2625   47.6083   56.4985 C   0  0  0  0  0  0  0  0  0  0  0  0
   69.4206   47.7634   57.3944 C   0  0  0  0  0  0  0  0  0  0  0  0
   69.8974   48.9794   57.7964 C   0  0  0  0  0  0  0  0  0  0  0  0
   70.9565   49.1047   58.6781 C   0  0  0  0  0  0  0  0  0  0  0  0
   71.5900   47.9783   59.1992 C   0  0  0  0  0  0  0  0  0  0  0  0
   72.6468   48.0799   60.0990 C   0  0  0  0  0  0  0  0  0  0  0  0
   73.2661   46.9707   60.6332 C   0  0  0  0  0  0  0  0  0  0  0  0
   72.7890   45.7224   60.2345 C   0  0  0  0  0  0  0  0  0  0  0  0
   71.7454   45.6378   59.3452 C   0  0  0  0  0  0  0  0  0  0  0  0
   71.1158   46.7530   58.8011 C   0  0  0  0  0  0  0  0  0  0  0  0
   70.0611   46.6444   57.9221 C   0  0  0  0  0  0  0  0  0  0  0  0
   68.4496   47.4395   55.0900 C   0  0  0  0  0  0  0  0  0  0  0  0
   67.7308   46.4987   54.3872 C   0  0  0  0  0  0  0  0  0  0  0  0
   67.8797   46.3019   53.0401 C   0  0  0  0  0  0  0  0  0  0  0  0
   67.1393   45.3471   52.3625 O   0  0  0  0  0  0  0  0  0  0  0  0
   68.7773   47.0525   52.3074 C   0  0  0  0  0  0  0  0  0  0  0  0
   68.9458   46.8666   50.9408 O   0  0  0  0  0  0  0  0  0  0  0  0
   69.5103   48.0061   53.0009 C   0  0  0  0  0  0  0  0  0  0  0  0
   69.3355   48.1796   54.3523 C   0  0  0  0  0  0  0  0  0  0  0  0
   70.4049   48.8019   52.2407 N   0  0  0  0  0  0  0  0  0  0  0  0
   71.5873   48.9799   52.6844 O   0  0  0  0  0  0  0  0  0  0  0  0
   70.0393   49.3933   51.0613 O   0  0  0  0  0  0  0  0  0  0  0  0
  1  2  2  0
  2 13  1  0
  2  3  1  0
 13 14  2  0
 13 20  1  0
 14 15  1  0
 15 16  1  0
 15 17  2  0
 17 18  1  0
 17 19  1  0
 19 21  1  0
 19 20  2  0
 21 22  2  0
 21 23  1  0
  3  4  2  0
  3 12  1  0
  4  5  1  0
  5  6  2  0
  6  7  1  0
  6 11  1  0
  7  8  2  0
  8  9  1  0
  9 10  2  0
 10 11  1  0
 11 12  2  0
M  CHG  2  21   1  23  -1
M  END
>  <minimizedAffinity>  (224) 
-8.97021

$$$$
cs_full_output_folder/data/smiles/8847.pdb
     RDKit          3D

 23 25  0  0  0  0  0  0  0  0999 V2000
   69.1901   47.7312   56.1643 C   0  0  0  0  0  0  0  0  0  0  0  0
   69.5005   47.9558   54.7272 C   0  0  0  0  0  0  0  0  0  0  0  0
   70.4470   48.8893   54.3982 N   0  0  0  0  0  0  0  0  0  0  0  0
   70.7667   49.1235   53.1421 N   0  0  0  0  0  0  0  0  0  0  0  0
   70.2029   48.4841   52.1158 C   0  0  0  0  0  0  0  0  0  0  0  0
   70.5397   48.7490   50.9234 O   0  0  0  0  0  0  0  0  0  0  0  0
   69.2377   47.5245   52.3622 C   0  0  0  0  0  0  0  0  0  0  0  0
   68.6396   46.8635   51.3138 C   0  0  0  0  0  0  0  0  0  0  0  0
   67.6738   45.9168   51.5637 C   0  0  0  0  0  0  0  0  0  0  0  0
   67.3334   45.6594   52.8760 C   0  0  0  0  0  0  0  0  0  0  0  0
   67.9411   46.3318   53.9198 C   0  0  0  0  0  0  0  0  0  0  0  0
   68.9171   47.2923   53.6976 C   0  0  0  0  0  0  0  0  0  0  0  0
   70.4632   48.9091   57.9777 C   0  0  0  0  0  0  0  0  0  0  0  0
   70.5727   50.0046   58.7721 C   0  0  0  0  0  0  0  0  0  0  0  0
   69.7422   51.1140   58.6424 C   0  0  0  0  0  0  0  0  0  0  0  0
   68.7792   51.1171   57.6904 C   0  0  0  0  0  0  0  0  0  0  0  0
   68.6365   50.0252   56.8701 C   0  0  0  0  0  0  0  0  0  0  0  0
   69.4708   48.9159   57.0061 C   0  0  0  0  0  0  0  0  0  0  0  0
   71.3273   47.8011   57.9954 N   0  0  0  0  0  0  0  0  0  0  0  0
   72.6854   45.3926   58.8528 C   0  0  0  0  0  0  0  0  0  0  0  0
   71.3603   46.5274   59.1047 S   0  0  0  0  0  0  0  0  0  0  0  0
   71.5180   47.1000   60.5007 O   0  0  0  0  0  0  0  0  0  0  0  0
   70.0538   45.7634   59.0264 O   0  0  0  0  0  0  0  0  0  0  0  0
 20 21  1  0
 21 22  2  0
 21 23  2  0
 21 19  1  0
 19 13  1  0
 13 14  2  0
 13 18  1  0
 14 15  1  0
 15 16  2  0
 16 17  1  0
 17 18  2  0
 18  1  1  0
  1  2  1  0
  2  3  2  0
  2 12  1  0
  3  4  1  0
  4  5  1  0
  5  6  2  0
  5  7  1  0
  7  8  1  0
  7 12  2  0
  8  9  2  0
  9 10  1  0
 10 11  2  0
 11 12  1  0
M  END
>  <minimizedAffinity>  (225) 
-8.96856

$$$$
cs_full_output_folder/data/smiles/130.pdb
     RDKit          3D

 24 27  0  0  0  0  0  0  0  0999 V2000
   69.5305   48.3565   53.1983 C   0  0  0  0  0  0  0  0  0  0  0  0
   69.7274   47.9535   51.8629 C   0  0  0  0  0  0  0  0  0  0  0  0
   70.0638   49.0418   51.1815 N   0  0  0  0  0  0  0  0  0  0  0  0
   70.0971   50.0820   51.9527 N   0  0  0  0  0  0  0  0  0  0  0  0
   69.7683   49.6831   53.2296 C   0  0  0  0  0  0  0  0  0  0  0  0
   69.2999   46.6592   57.8459 N   0  0  0  0  0  0  0  0  0  0  0  0
   69.0239   46.5790   56.4600 C   0  0  0  0  0  0  0  0  0  0  0  0
   69.3955   47.5336   55.5446 C   0  0  0  0  0  0  0  0  0  0  0  0
   69.0982   47.4055   54.1897 C   0  0  0  0  0  0  0  0  0  0  0  0
   68.4140   46.2684   53.8408 C   0  0  0  0  0  0  0  0  0  0  0  0
   68.0335   45.3021   54.7446 C   0  0  0  0  0  0  0  0  0  0  0  0
   68.3481   45.4802   56.0355 N   0  0  0  0  0  0  0  0  0  0  0  0
   69.7741   50.6238   54.3414 C   0  0  2  0  0  0  0  0  0  0  0  0
   68.3907   51.2471   54.5479 C   0  0  0  0  0  0  0  0  0  0  0  0
   68.6393   52.7123   54.7694 C   0  0  0  0  0  0  0  0  0  0  0  0
   70.0662   52.7242   55.1422 N   0  0  0  0  0  0  0  0  0  0  0  0
   70.7071   53.3925   56.1567 C   0  0  0  0  0  0  0  0  0  0  0  0
   69.9903   54.1311   56.9262 O   0  0  0  0  0  0  0  0  0  0  0  0
   70.6383   51.8187   54.1304 C   0  0  0  0  0  0  0  0  0  0  0  0
   72.1478   53.3286   56.4284 C   0  0  0  0  0  0  0  0  0  0  0  0
   72.5182   53.5298   57.8665 C   0  0  0  0  0  0  0  0  0  0  0  0
   73.7135   54.4477   57.9211 C   0  0  0  0  0  0  0  0  0  0  0  0
   73.9897   54.8693   56.5201 C   0  0  0  0  0  0  0  0  0  0  0  0
   72.9414   54.3039   55.6300 C   0  0  0  0  0  0  0  0  0  0  0  0
  6  7  1  0
  7  8  2  0
  7 12  1  0
  8  9  1  0
  9  1  1  0
  9 10  2  0
  1  2  2  0
  1  5  1  0
  2  3  1  0
  3  4  1  0
  4  5  2  0
 13  5  1  6
 13 14  1  0
 13 19  1  0
 14 15  1  0
 15 16  1  0
 16 17  1  0
 16 19  1  0
 17 18  2  0
 17 20  1  0
 20 21  1  0
 20 24  1  0
 21 22  1  0
 22 23  1  0
 23 24  1  0
 10 11  1  0
 11 12  2  0
M  END
>  <minimizedAffinity>  (226) 
-8.96816

$$$$
cs_full_output_folder/data/smiles/536.pdb
     RDKit          3D

 24 26  0  0  0  0  0  0  0  0999 V2000
   69.1967   47.4179   56.6048 C   0  0  0  0  0  0  0  0  0  0  0  0
   68.0019   47.6736   57.1116 O   0  0  0  0  0  0  0  0  0  0  0  0
   69.2876   47.8256   55.2315 C   0  0  0  0  0  0  0  0  0  0  0  0
   70.0003   49.0079   54.9001 C   0  0  0  0  0  0  0  0  0  0  0  0
   70.2059   49.4592   53.6302 C   0  0  0  0  0  0  0  0  0  0  0  0
   70.8453   50.5111   53.4081 O   0  0  0  0  0  0  0  0  0  0  0  0
   69.7022   48.7437   52.6167 N   0  0  0  0  0  0  0  0  0  0  0  0
   69.0133   47.6130   52.8368 C   0  0  0  0  0  0  0  0  0  0  0  0
   68.5083   46.9321   51.7575 C   0  0  0  0  0  0  0  0  0  0  0  0
   67.7742   45.7700   51.9304 C   0  0  0  0  0  0  0  0  0  0  0  0
   67.5567   45.3058   53.1835 C   0  0  0  0  0  0  0  0  0  0  0  0
   68.0742   46.0051   54.2707 C   0  0  0  0  0  0  0  0  0  0  0  0
   68.8059   47.1581   54.1260 C   0  0  0  0  0  0  0  0  0  0  0  0
   70.0469   46.8094   57.5946 C   0  0  0  0  0  0  0  0  0  0  0  0
   69.7817   44.9199   59.0168 O   0  0  0  0  0  0  0  0  0  0  0  0
   69.7861   45.3937   57.8624 C   0  0  0  0  0  0  0  0  0  0  0  0
   69.5121   44.4225   56.8280 N   0  0  0  0  0  0  0  0  0  0  0  0
   69.2645   43.0553   57.1332 C   0  0  0  0  0  0  0  0  0  0  0  0
   70.0935   42.3138   57.9526 C   0  0  0  0  0  0  0  0  0  0  0  0
   69.8679   40.9994   58.2540 C   0  0  0  0  0  0  0  0  0  0  0  0
   68.7473   40.4008   57.7004 C   0  0  0  0  0  0  0  0  0  0  0  0
   67.8812   41.0898   56.8745 C   0  0  0  0  0  0  0  0  0  0  0  0
   68.1577   42.4241   56.6007 C   0  0  0  0  0  0  0  0  0  0  0  0
   67.3474   43.1545   55.7993 F   0  0  0  0  0  0  0  0  0  0  0  0
 15 16  2  0
 16 14  1  0
 16 17  1  0
 14  1  1  0
  1  2  2  0
  1  3  1  0
  3  4  2  0
  3 13  1  0
  4  5  1  0
  5  6  2  0
  5  7  1  0
  7  8  1  0
  8  9  1  0
  8 13  2  0
  9 10  2  0
 10 11  1  0
 11 12  2  0
 12 13  1  0
 17 18  1  0
 18 19  2  0
 18 23  1  0
 19 20  1  0
 20 21  2  0
 21 22  1  0
 22 23  2  0
 23 24  1  0
M  END
>  <minimizedAffinity>  (227) 
-8.96803

$$$$
cs_full_output_folder/data/smiles/9292.pdb
     RDKit          3D

 22 24  0  0  0  0  0  0  0  0999 V2000
   67.1419   44.7785   52.5169 O   0  0  0  0  0  0  0  0  0  0  0  0
   67.6672   45.4384   53.4409 C   0  0  0  0  0  0  0  0  0  0  0  0
   67.5108   45.1277   54.7234 N   0  0  0  0  0  0  0  0  0  0  0  0
   68.0569   45.8146   55.7125 N   0  0  0  0  0  0  0  0  0  0  0  0
   68.8336   46.9095   55.4689 C   0  0  0  0  0  0  0  0  0  0  0  0
   69.0219   47.2619   54.1614 C   0  0  0  0  0  0  0  0  0  0  0  0
   69.7967   48.3330   53.7790 C   0  0  0  0  0  0  0  0  0  0  0  0
   70.0110   48.7007   52.4507 C   0  0  0  0  0  0  0  0  0  0  0  0
   69.4226   47.9611   51.4775 C   0  0  0  0  0  0  0  0  0  0  0  0
   68.6314   46.8686   51.7969 C   0  0  0  0  0  0  0  0  0  0  0  0
   68.4455   46.5396   53.1179 C   0  0  0  0  0  0  0  0  0  0  0  0
   69.3935   47.6979   56.5715 C   0  0  0  0  0  0  0  0  0  0  0  0
   68.6293   48.9530   56.8586 C   0  0  0  0  0  0  0  0  0  0  0  0
   67.4944   49.0623   57.5885 C   0  0  0  0  0  0  0  0  0  0  0  0
   66.8826   50.2846   57.7986 C   0  0  0  0  0  0  0  0  0  0  0  0
   67.3864   51.4593   57.2822 C   0  0  0  0  0  0  0  0  0  0  0  0
   68.5474   51.3423   56.5358 C   0  0  0  0  0  0  0  0  0  0  0  0
   69.1635   50.1331   56.3203 C   0  0  0  0  0  0  0  0  0  0  0  0
   69.1230   52.6122   55.9563 C   0  0  0  0  0  0  0  0  0  0  0  0
   68.7960   53.6493   56.8322 F   0  0  0  0  0  0  0  0  0  0  0  0
   68.4858   52.8736   54.7585 F   0  0  0  0  0  0  0  0  0  0  0  0
   70.4717   52.4474   55.8322 F   0  0  0  0  0  0  0  0  0  0  0  0
  1  2  2  0
  2  3  1  0
  2 11  1  0
  3  4  1  0
  4  5  2  0
  5 12  1  0
  5  6  1  0
 12 13  1  0
 13 14  2  0
 13 18  1  0
 14 15  1  0
 15 16  2  0
 16 17  1  0
 17 19  1  0
 17 18  2  0
 19 20  1  0
 19 21  1  0
 19 22  1  0
  6  7  1  0
  6 11  2  0
  7  8  2  0
  8  9  1  0
  9 10  2  0
 10 11  1  0
M  END
>  <minimizedAffinity>  (228) 
-8.96533

$$$$
cs_full_output_folder/data/smiles/955.pdb
     RDKit          3D

 23 25  0  0  0  0  0  0  0  0999 V2000
   68.5953   44.7037   56.1882 N   0  0  0  0  0  0  0  0  0  0  0  0
   68.7648   43.3346   56.6837 C   0  0  0  0  0  0  0  0  0  0  0  0
   68.0951   42.5157   56.0361 O   0  0  0  0  0  0  0  0  0  0  0  0
   69.6307   43.0663   57.7901 C   0  0  0  0  0  0  0  0  0  0  0  0
   69.5741   43.9208   58.7831 O   0  0  0  0  0  0  0  0  0  0  0  0
   70.5508   41.9648   57.9457 C   0  0  0  0  0  0  0  0  0  0  0  0
   71.9698   42.1430   57.9278 C   0  0  0  0  0  0  0  0  0  0  0  0
   72.5413   40.9930   58.2296 N   0  0  0  0  0  0  0  0  0  0  0  0
   71.6373   40.0344   58.4515 C   0  0  0  0  0  0  0  0  0  0  0  0
   71.7224   38.7024   58.7535 C   0  0  0  0  0  0  0  0  0  0  0  0
   70.5994   37.9165   58.8875 C   0  0  0  0  0  0  0  0  0  0  0  0
   69.3822   38.5295   58.7020 C   0  0  0  0  0  0  0  0  0  0  0  0
   69.2579   39.8477   58.4014 C   0  0  0  0  0  0  0  0  0  0  0  0
   70.3999   40.6401   58.2727 C   0  0  0  0  0  0  0  0  0  0  0  0
   67.7592   44.9996   55.1127 N   0  0  0  0  0  0  0  0  0  0  0  0
   69.2002   47.8119   52.2772 C   0  0  0  0  0  0  0  0  0  0  0  0
   68.5853   46.6648   51.8386 C   0  0  0  0  0  0  0  0  0  0  0  0
   68.1242   45.7714   52.7866 C   0  0  0  0  0  0  0  0  0  0  0  0
   68.2404   45.9529   54.1422 C   0  0  0  0  0  0  0  0  0  0  0  0
   68.8664   47.1215   54.5772 C   0  0  0  0  0  0  0  0  0  0  0  0
   69.3348   48.0281   53.6537 C   0  0  0  0  0  0  0  0  0  0  0  0
   69.9619   50.0002   52.0670 N   0  0  0  0  0  0  0  0  0  0  0  0
   69.7025   48.8019   51.3564 N   0  0  0  0  0  0  0  0  0  0  0  0
 22 23  1  0
 23 16  1  0
 16 17  2  0
 16 21  1  0
 17 18  1  0
 18 19  2  0
 19 15  1  0
 19 20  1  0
 15  1  1  0
  1  2  1  0
  2  3  2  0
  2  4  1  0
  4  5  2  0
  4  6  1  0
  6  7  2  0
  6 14  1  0
  7  8  1  0
  8  9  1  0
  9 10  1  0
  9 14  2  0
 10 11  2  0
 11 12  1  0
 12 13  2  0
 13 14  1  0
 20 21  2  0
M  CHG  1  23   1
M  END
>  <minimizedAffinity>  (229) 
-8.96334

$$$$
cs_full_output_folder/data/smiles/4004.pdb
     RDKit          3D

 24 26  0  0  0  0  0  0  0  0999 V2000
   68.5170   44.6172   56.1262 N   0  0  0  0  0  0  0  0  0  0  0  0
   69.1869   43.8546   57.0940 C   0  0  0  0  0  0  0  0  0  0  0  0
   69.9743   44.4509   57.8648 O   0  0  0  0  0  0  0  0  0  0  0  0
   69.0105   42.4077   57.2453 C   0  0  0  0  0  0  0  0  0  0  0  0
   68.0397   41.6514   56.6283 C   0  0  0  0  0  0  0  0  0  0  0  0
   68.2321   40.3652   57.0392 N   0  0  0  0  0  0  0  0  0  0  0  0
   69.2554   40.2831   57.8662 N   0  0  0  0  0  0  0  0  0  0  0  0
   69.7373   41.5179   57.9999 C   0  0  0  0  0  0  0  0  0  0  0  0
   69.7309   39.0684   58.4847 C   0  0  0  0  0  0  0  0  0  0  0  0
   69.0178   38.3880   59.4132 C   0  0  0  0  0  0  0  0  0  0  0  0
   69.5376   37.2316   59.9598 C   0  0  0  0  0  0  0  0  0  0  0  0
   70.7755   36.7423   59.5857 C   0  0  0  0  0  0  0  0  0  0  0  0
   71.4885   37.4470   58.6388 C   0  0  0  0  0  0  0  0  0  0  0  0
   70.9724   38.5833   58.1049 C   0  0  0  0  0  0  0  0  0  0  0  0
   68.6328   46.0397   55.9145 C   0  0  0  0  0  0  0  0  0  0  0  0
   69.1390   47.6976   52.5643 C   0  0  0  0  0  0  0  0  0  0  0  0
   68.4550   46.8786   51.6980 C   0  0  0  0  0  0  0  0  0  0  0  0
   67.8159   45.7737   52.2125 C   0  0  0  0  0  0  0  0  0  0  0  0
   67.8579   45.4860   53.5752 C   0  0  0  0  0  0  0  0  0  0  0  0
   68.5346   46.2878   54.4601 C   0  0  0  0  0  0  0  0  0  0  0  0
   69.1664   47.3880   53.9256 C   0  0  0  0  0  0  0  0  0  0  0  0
   69.7390   50.1540   52.7770 C   0  0  0  0  0  0  0  0  0  0  0  0
   69.8197   48.8698   52.0434 C   0  0  0  0  0  0  0  0  0  0  0  0
   70.4752   48.7544   50.9548 O   0  0  0  0  0  0  0  0  0  0  0  0
 22 23  1  0
 23 24  2  0
 23 16  1  0
 16 17  2  0
 16 21  1  0
 17 18  1  0
 18 19  2  0
 19 20  1  0
 20 15  1  0
 20 21  2  0
 15  1  1  0
  1  2  1  0
  2  3  2  0
  2  4  1  0
  4  5  1  0
  4  8  2  0
  5  6  2  0
  6  7  1  0
  7  9  1  0
  7  8  1  0
  9 10  2  0
  9 14  1  0
 10 11  1  0
 11 12  2  0
 12 13  1  0
 13 14  2  0
M  END
>  <minimizedAffinity>  (230) 
-8.96218

$$$$
cs_full_output_folder/data/smiles/9009.pdb
     RDKit          3D

 25 28  0  0  0  0  0  0  0  0999 V2000
   70.7462   46.4480   58.5152 O   0  0  0  0  0  0  0  0  0  0  0  0
   70.2743   45.6024   57.7198 C   0  0  0  0  0  0  0  0  0  0  0  0
   69.4096   46.0355   56.7378 N   0  0  0  0  0  0  0  0  0  0  0  0
   70.6808   44.1784   57.8881 C   0  0  0  0  0  0  0  0  0  0  0  0
   71.9680   43.7629   58.0381 C   0  0  0  0  0  0  0  0  0  0  0  0
   72.3010   42.4126   58.1949 C   0  0  0  0  0  0  0  0  0  0  0  0
   71.2892   41.4726   58.1979 C   0  0  0  0  0  0  0  0  0  0  0  0
   71.5558   40.1173   58.3507 C   0  0  0  0  0  0  0  0  0  0  0  0
   70.5770   39.1564   58.3598 C   0  0  0  0  0  0  0  0  0  0  0  0
   69.2637   39.5636   58.2083 C   0  0  0  0  0  0  0  0  0  0  0  0
   68.9890   40.9013   58.0561 C   0  0  0  0  0  0  0  0  0  0  0  0
   69.9785   41.8618   58.0486 C   0  0  0  0  0  0  0  0  0  0  0  0
   69.6901   43.2236   57.8939 C   0  0  0  0  0  0  0  0  0  0  0  0
   68.9045   47.3348   56.4186 C   0  0  0  0  0  0  0  0  0  0  0  0
   69.2025   47.7355   55.0410 C   0  0  0  0  0  0  0  0  0  0  0  0
   70.0638   48.7903   54.8090 N   0  0  0  0  0  0  0  0  0  0  0  0
   70.4302   49.1534   53.5966 N   0  0  0  0  0  0  0  0  0  0  0  0
   70.0025   48.5381   52.4927 C   0  0  0  0  0  0  0  0  0  0  0  0
   70.3918   48.9361   51.3778 O   0  0  0  0  0  0  0  0  0  0  0  0
   69.1379   47.4788   52.6449 C   0  0  0  0  0  0  0  0  0  0  0  0
   68.6439   46.8447   51.5166 C   0  0  0  0  0  0  0  0  0  0  0  0
   67.7490   45.8149   51.6384 C   0  0  0  0  0  0  0  0  0  0  0  0
   67.3359   45.4034   52.8938 C   0  0  0  0  0  0  0  0  0  0  0  0
   67.8478   46.0544   53.9945 C   0  0  0  0  0  0  0  0  0  0  0  0
   68.7502   47.0938   53.9324 C   0  0  0  0  0  0  0  0  0  0  0  0
  1  2  2  0
  2  3  1  0
  2  4  1  0
  3 14  1  0
 14 15  1  0
 15 16  2  0
 15 25  1  0
 16 17  1  0
 17 18  1  0
 18 19  2  0
 18 20  1  0
 20 21  1  0
 20 25  2  0
 21 22  2  0
 22 23  1  0
 23 24  2  0
 24 25  1  0
  4  5  2  0
  4 13  1  0
  5  6  1  0
  6  7  2  0
  7  8  1  0
  7 12  1  0
  8  9  2  0
  9 10  1  0
 10 11  2  0
 11 12  1  0
 12 13  2  0
M  END
>  <minimizedAffinity>  (231) 
-8.96186

$$$$
cs_full_output_folder/data/smiles/5469.pdb
     RDKit          3D

 24 26  0  0  0  0  0  0  0  0999 V2000
   69.6085   44.3862   57.2228 C   0  0  0  0  0  0  0  0  0  0  0  0
   70.3394   45.3126   57.7205 O   0  0  0  0  0  0  0  0  0  0  0  0
   68.6710   44.8047   56.2506 N   0  0  0  0  0  0  0  0  0  0  0  0
   67.9162   41.5012   56.6384 C   0  0  0  0  0  0  0  0  0  0  0  0
   69.1354   41.9082   57.4446 C   0  0  0  0  0  0  0  0  0  0  0  0
   69.7769   42.9999   57.6700 C   0  0  0  0  0  0  0  0  0  0  0  0
   70.7025   42.3616   58.5766 C   0  0  0  0  0  0  0  0  0  0  0  0
   70.0277   41.1617   58.2027 N   0  0  0  0  0  0  0  0  0  0  0  0
   70.2557   39.7681   58.5509 C   0  0  0  0  0  0  0  0  0  0  0  0
   69.3032   39.1288   59.2903 C   0  0  0  0  0  0  0  0  0  0  0  0
   69.4988   37.8049   59.6498 C   0  0  0  0  0  0  0  0  0  0  0  0
   70.6476   37.1523   59.2584 C   0  0  0  0  0  0  0  0  0  0  0  0
   71.5991   37.8179   58.5100 C   0  0  0  0  0  0  0  0  0  0  0  0
   71.3960   39.1276   58.1595 C   0  0  0  0  0  0  0  0  0  0  0  0
   68.5563   46.1937   55.8652 C   0  0  0  0  0  0  0  0  0  0  0  0
   68.5214   46.3878   54.4009 C   0  0  0  0  0  0  0  0  0  0  0  0
   67.8089   45.6397   53.5131 C   0  0  0  0  0  0  0  0  0  0  0  0
   67.8735   45.9196   52.1438 C   0  0  0  0  0  0  0  0  0  0  0  0
   68.6464   46.9452   51.6422 C   0  0  0  0  0  0  0  0  0  0  0  0
   69.3519   47.6829   52.5502 C   0  0  0  0  0  0  0  0  0  0  0  0
   69.2944   47.4175   53.8804 C   0  0  0  0  0  0  0  0  0  0  0  0
   70.1839   48.7775   52.0770 C   0  0  0  0  0  0  0  0  0  0  0  0
   69.7635   49.6245   51.0404 N   0  0  0  0  0  0  0  0  0  0  0  0
   71.3282   49.0049   52.5894 O   0  0  0  0  0  0  0  0  0  0  0  0
  4  5  1  0
  5  6  2  0
  5  8  1  0
  6  1  1  0
  6  7  1  0
  1  2  2  0
  1  3  1  0
  3 15  1  0
 15 16  1  0
 16 17  2  0
 16 21  1  0
 17 18  1  0
 18 19  2  0
 19 20  1  0
 20 22  1  0
 20 21  2  0
 22 23  1  0
 22 24  2  0
  7  8  1  0
  8  9  1  0
  9 10  2  0
  9 14  1  0
 10 11  1  0
 11 12  2  0
 12 13  1  0
 13 14  2  0
M  END
>  <minimizedAffinity>  (232) 
-8.96157

$$$$
cs_full_output_folder/data/smiles/4793.pdb
     RDKit          3D

 23 25  0  0  0  0  0  0  0  0999 V2000
   70.6536   44.3770   57.8813 C   0  0  0  0  0  0  0  0  0  0  0  0
   71.3832   45.3610   58.4927 C   0  0  0  0  0  0  0  0  0  0  0  0
   71.0705   46.6691   58.2749 C   0  0  0  0  0  0  0  0  0  0  0  0
   70.0079   46.9945   57.4306 C   0  0  0  0  0  0  0  0  0  0  0  0
   69.2648   46.0219   56.8090 C   0  0  0  0  0  0  0  0  0  0  0  0
   69.5996   44.7075   57.0428 C   0  0  0  0  0  0  0  0  0  0  0  0
   71.6870   38.7398   58.6401 C   0  0  0  0  0  0  0  0  0  0  0  0
   71.4471   40.1956   58.4467 C   0  0  0  0  0  0  0  0  0  0  0  0
   72.4715   41.1199   58.4835 C   0  0  0  0  0  0  0  0  0  0  0  0
   72.2154   42.4684   58.3007 C   0  0  0  0  0  0  0  0  0  0  0  0
   70.9483   42.9612   58.0751 C   0  0  0  0  0  0  0  0  0  0  0  0
   69.9144   42.0274   58.0377 C   0  0  0  0  0  0  0  0  0  0  0  0
   70.1784   40.6866   58.2210 C   0  0  0  0  0  0  0  0  0  0  0  0
   68.1969   46.4032   55.9549 N   0  0  0  0  0  0  0  0  0  0  0  0
   68.3873   46.5831   54.5489 C   0  0  0  0  0  0  0  0  0  0  0  0
   67.7384   45.7628   53.6416 C   0  0  0  0  0  0  0  0  0  0  0  0
   67.8939   45.9054   52.2807 C   0  0  0  0  0  0  0  0  0  0  0  0
   68.7103   46.8824   51.8046 C   0  0  0  0  0  0  0  0  0  0  0  0
   69.3612   47.7051   52.7224 C   0  0  0  0  0  0  0  0  0  0  0  0
   69.1865   47.5380   54.0448 N   0  0  0  0  0  0  0  0  0  0  0  0
   70.2343   48.7463   52.1981 C   0  0  0  0  0  0  0  0  0  0  0  0
   71.3156   49.1804   53.0099 N   0  0  0  0  0  0  0  0  0  0  0  0
   70.0500   49.2520   51.0697 O   0  0  0  0  0  0  0  0  0  0  0  0
  7  8  1  0
  8  9  2  0
  8 13  1  0
  9 10  1  0
 10 11  2  0
 11  1  1  0
 11 12  1  0
  1  2  2  0
  1  6  1  0
  2  3  1  0
  3  4  2  0
  4  5  1  0
  5 14  1  0
  5  6  2  0
 14 15  1  0
 15 16  2  0
 15 20  1  0
 16 17  1  0
 17 18  2  0
 18 19  1  0
 19 21  1  0
 19 20  2  0
 21 22  1  0
 21 23  2  0
 12 13  2  0
M  END
>  <minimizedAffinity>  (233) 
-8.95868

$$$$
cs_full_output_folder/data/smiles/3702.pdb
     RDKit          3D

 25 27  0  0  0  0  0  0  0  0999 V2000
   69.5143   46.3667   57.6697 N   0  0  0  0  0  0  0  0  0  0  0  0
   70.1799   45.7238   58.4649 C   0  0  0  0  0  0  0  0  0  0  0  0
   71.3119   44.8594   58.3293 C   0  0  0  0  0  0  0  0  0  0  0  0
   71.1204   43.5519   57.8651 C   0  0  0  0  0  0  0  0  0  0  0  0
   72.2034   42.7157   57.7324 C   0  0  0  0  0  0  0  0  0  0  0  0
   73.4718   43.1419   58.0464 C   0  0  0  0  0  0  0  0  0  0  0  0
   74.5546   42.2777   57.9043 C   0  0  0  0  0  0  0  0  0  0  0  0
   75.8360   42.6806   58.2125 C   0  0  0  0  0  0  0  0  0  0  0  0
   75.9988   43.9651   58.6646 C   0  0  0  0  0  0  0  0  0  0  0  0
   74.9670   44.8559   58.8228 C   0  0  0  0  0  0  0  0  0  0  0  0
   73.6863   44.4177   58.5035 C   0  0  0  0  0  0  0  0  0  0  0  0
   72.5819   45.2723   58.6395 C   0  0  0  0  0  0  0  0  0  0  0  0
   72.8885   46.5388   59.1051 O   0  0  0  0  0  0  0  0  0  0  0  0
   68.0465   44.8376   55.8962 O   0  0  0  0  0  0  0  0  0  0  0  0
   68.6372   45.8827   55.4569 C   0  0  0  0  0  0  0  0  0  0  0  0
   69.3899   46.6619   56.3790 N   0  0  0  0  0  0  0  0  0  0  0  0
   68.5492   46.2692   54.0652 C   0  0  0  0  0  0  0  0  0  0  0  0
   67.7168   45.6652   53.1688 C   0  0  0  0  0  0  0  0  0  0  0  0
   67.7072   46.1098   51.8497 C   0  0  0  0  0  0  0  0  0  0  0  0
   68.5031   47.1366   51.4052 C   0  0  0  0  0  0  0  0  0  0  0  0
   69.3345   47.7244   52.3425 C   0  0  0  0  0  0  0  0  0  0  0  0
   69.3681   47.3103   53.6484 C   0  0  0  0  0  0  0  0  0  0  0  0
   70.1842   48.8034   51.9145 N   0  0  0  0  0  0  0  0  0  0  0  0
   71.2713   48.9521   52.4596 O   0  0  0  0  0  0  0  0  0  0  0  0
   69.7558   49.6324   50.9096 O   0  0  0  0  0  0  0  0  0  0  0  0
 14 15  2  0
 15 16  1  0
 15 17  1  0
 16  1  1  0
  1  2  2  0
  2  3  1  0
  3  4  2  0
  3 12  1  0
  4  5  1  0
  5  6  2  0
  6  7  1  0
  6 11  1  0
  7  8  2  0
  8  9  1  0
  9 10  2  0
 10 11  1  0
 11 12  2  0
 12 13  1  0
 17 18  2  0
 17 22  1  0
 18 19  1  0
 19 20  2  0
 20 21  1  0
 21 23  1  0
 21 22  2  0
 23 24  2  0
 23 25  1  0
M  CHG  2  23   1  25  -1
M  END
>  <minimizedAffinity>  (234) 
-8.95713

$$$$
cs_full_output_folder/data/smiles/4912.pdb
     RDKit          3D

 22 23  0  0  0  0  0  0  0  0999 V2000
   68.4579   47.6012   56.6454 C   0  0  0  0  0  0  0  0  0  0  0  0
   69.0183   46.7423   57.3711 O   0  0  0  0  0  0  0  0  0  0  0  0
   68.5642   47.4470   55.2066 C   0  0  0  0  0  0  0  0  0  0  0  0
   67.7916   46.5161   54.5472 C   0  0  0  0  0  0  0  0  0  0  0  0
   67.8863   46.3605   53.1801 C   0  0  0  0  0  0  0  0  0  0  0  0
   67.0976   45.4092   52.5031 O   0  0  0  0  0  0  0  0  0  0  0  0
   68.7533   47.1290   52.4340 C   0  0  0  0  0  0  0  0  0  0  0  0
   68.8115   46.9344   51.0616 O   0  0  0  0  0  0  0  0  0  0  0  0
   69.5370   48.0696   53.0847 C   0  0  0  0  0  0  0  0  0  0  0  0
   69.4283   48.2109   54.4564 C   0  0  0  0  0  0  0  0  0  0  0  0
   70.4183   48.8440   52.2993 N   0  0  0  0  0  0  0  0  0  0  0  0
   70.0249   49.3468   51.2392 O   0  0  0  0  0  0  0  0  0  0  0  0
   71.6973   49.0354   52.7087 O   0  0  0  0  0  0  0  0  0  0  0  0
   67.7246   48.7193   57.2743 C   0  0  0  0  0  0  0  0  0  0  0  0
   70.5055   53.7663   56.5428 C   0  0  0  0  0  0  0  0  0  0  0  0
   69.7927   52.4669   56.7330 C   0  0  0  0  0  0  0  0  0  0  0  0
   68.5820   52.2076   56.1237 C   0  0  0  0  0  0  0  0  0  0  0  0
   67.9162   51.0118   56.2934 C   0  0  0  0  0  0  0  0  0  0  0  0
   68.4434   50.0166   57.0893 C   0  0  0  0  0  0  0  0  0  0  0  0
   69.6539   50.2752   57.6980 C   0  0  0  0  0  0  0  0  0  0  0  0
   70.3184   51.4715   57.5280 C   0  0  0  0  0  0  0  0  0  0  0  0
   71.6246   51.7086   58.2035 C   0  0  0  0  0  0  0  0  0  0  0  0
 15 16  1  0
 16 17  2  0
 16 21  1  0
 17 18  1  0
 18 19  2  0
 19 14  1  0
 19 20  1  0
 14  1  1  0
  1  2  2  0
  1  3  1  0
  3  4  2  0
  3 10  1  0
  4  5  1  0
  5  6  1  0
  5  7  2  0
  7  8  1  0
  7  9  1  0
  9 11  1  0
  9 10  2  0
 11 12  2  0
 11 13  1  0
 20 21  2  0
 21 22  1  0
M  CHG  2  11   1  13  -1
M  END
>  <minimizedAffinity>  (235) 
-8.95133

$$$$
cs_full_output_folder/data/smiles/7519.pdb
     RDKit          3D

 24 27  0  0  0  0  0  0  0  0999 V2000
   69.2674   45.8121   56.9012 C   0  0  0  0  0  0  0  0  0  0  0  0
   69.2964   44.4384   56.8653 N   0  0  0  0  0  0  0  0  0  0  0  0
   70.1601   43.7713   57.6143 C   0  0  0  0  0  0  0  0  0  0  0  0
   71.0550   44.4724   58.4525 C   0  0  0  0  0  0  0  0  0  0  0  0
   71.0541   45.8244   58.5117 C   0  0  0  0  0  0  0  0  0  0  0  0
   70.1227   46.4188   57.6993 N   0  0  0  0  0  0  0  0  0  0  0  0
   71.9042   46.6551   59.3202 C   0  0  0  0  0  0  0  0  0  0  0  0
   71.5245   47.1640   60.5373 N   0  0  0  0  0  0  0  0  0  0  0  0
   72.4806   47.8854   61.0646 N   0  0  0  0  0  0  0  0  0  0  0  0
   73.5570   47.9091   60.2445 C   0  0  0  0  0  0  0  0  0  0  0  0
   74.7752   48.5286   60.3799 C   0  0  0  0  0  0  0  0  0  0  0  0
   75.6858   48.3645   59.3560 C   0  0  0  0  0  0  0  0  0  0  0  0
   75.3438   47.5995   58.2576 C   0  0  0  0  0  0  0  0  0  0  0  0
   74.1008   46.9858   58.1517 C   0  0  0  0  0  0  0  0  0  0  0  0
   73.1719   47.1273   59.1506 C   0  0  0  0  0  0  0  0  0  0  0  0
   68.3181   46.5006   56.1130 N   0  0  0  0  0  0  0  0  0  0  0  0
   69.2086   47.7504   52.7374 C   0  0  0  0  0  0  0  0  0  0  0  0
   68.6152   46.8223   51.9469 C   0  0  0  0  0  0  0  0  0  0  0  0
   67.9114   45.7859   52.5524 C   0  0  0  0  0  0  0  0  0  0  0  0
   67.8035   45.6795   53.9169 C   0  0  0  0  0  0  0  0  0  0  0  0
   68.4128   46.6324   54.7347 C   0  0  0  0  0  0  0  0  0  0  0  0
   69.1013   47.6441   54.1322 C   0  0  0  0  0  0  0  0  0  0  0  0
   70.4529   48.7746   51.0270 O   0  0  0  0  0  0  0  0  0  0  0  0
   69.9524   48.8558   52.1557 C   0  0  0  0  0  0  0  0  0  0  0  0
 23 24  2  0
 24 17  1  0
 17 18  2  0
 17 22  1  0
 18 19  1  0
 19 20  2  0
 20 21  1  0
 21 16  1  0
 21 22  2  0
 16  1  1  0
  1  2  2  0
  1  6  1  0
  2  3  1  0
  3  4  2  0
  4  5  1  0
  5  7  1  0
  5  6  2  0
  7  8  1  0
  7 15  2  0
  8  9  1  0
  9 10  2  0
 10 11  1  0
 10 15  1  0
 11 12  2  0
 12 13  1  0
 13 14  2  0
 14 15  1  0
M  END
>  <minimizedAffinity>  (236) 
-8.94826

$$$$
cs_full_output_folder/data/smiles/2762.pdb
     RDKit          3D

 25 27  0  0  0  0  0  0  0  0999 V2000
   69.6787   44.3541   57.5501 C   0  0  0  0  0  0  0  0  0  0  0  0
   70.0006   45.1533   58.4554 O   0  0  0  0  0  0  0  0  0  0  0  0
   69.0786   44.8846   56.3904 N   0  0  0  0  0  0  0  0  0  0  0  0
   72.3634   43.4219   57.7693 C   0  0  0  0  0  0  0  0  0  0  0  0
   71.2406   42.4588   57.8873 C   0  0  0  0  0  0  0  0  0  0  0  0
   71.5199   41.1408   58.0984 N   0  0  0  0  0  0  0  0  0  0  0  0
   70.5516   40.2250   58.2097 C   0  0  0  0  0  0  0  0  0  0  0  0
   69.2497   40.6577   58.1027 C   0  0  0  0  0  0  0  0  0  0  0  0
   68.9281   42.0031   57.8852 C   0  0  0  0  0  0  0  0  0  0  0  0
   69.9535   42.9349   57.7744 C   0  0  0  0  0  0  0  0  0  0  0  0
   70.8695   38.8008   58.4393 C   0  0  0  0  0  0  0  0  0  0  0  0
   70.3551   37.9349   59.3627 C   0  0  0  0  0  0  0  0  0  0  0  0
   70.9632   36.7154   59.1845 C   0  0  0  0  0  0  0  0  0  0  0  0
   71.8453   36.8759   58.1392 C   0  0  0  0  0  0  0  0  0  0  0  0
   71.7524   38.1063   57.7414 O   0  0  0  0  0  0  0  0  0  0  0  0
   68.8085   46.2738   56.1599 C   0  0  0  0  0  0  0  0  0  0  0  0
   68.7358   46.5359   54.7156 C   0  0  0  0  0  0  0  0  0  0  0  0
   68.0526   45.6584   53.8631 C   0  0  0  0  0  0  0  0  0  0  0  0
   67.9810   45.8682   52.4982 C   0  0  0  0  0  0  0  0  0  0  0  0
   68.6167   46.9902   51.9978 C   0  0  0  0  0  0  0  0  0  0  0  0
   69.2986   47.8811   52.7907 C   0  0  0  0  0  0  0  0  0  0  0  0
   69.3402   47.6245   54.1447 C   0  0  0  0  0  0  0  0  0  0  0  0
   69.9591   49.0612   52.2527 C   0  0  0  0  0  0  0  0  0  0  0  0
   70.4301   50.1065   53.0725 N   0  0  0  0  0  0  0  0  0  0  0  0
   70.1219   49.1646   51.0032 O   0  0  0  0  0  0  0  0  0  0  0  0
  4  5  1  0
  5  6  2  0
  5 10  1  0
  6  7  1  0
  7 11  1  0
  7  8  2  0
 11 12  2  0
 11 15  1  0
 12 13  1  0
 13 14  2  0
 14 15  1  0
  8  9  1  0
  9 10  2  0
 10  1  1  0
  1  2  2  0
  1  3  1  0
  3 16  1  0
 16 17  1  0
 17 18  2  0
 17 22  1  0
 18 19  1  0
 19 20  2  0
 20 21  1  0
 21 23  1  0
 21 22  2  0
 23 24  1  0
 23 25  2  0
M  END
>  <minimizedAffinity>  (237) 
-8.94734

$$$$
cs_full_output_folder/data/smiles/2567.pdb
     RDKit          3D

 20 22  0  0  0  0  0  0  0  0999 V2000
   66.7666   45.3143   51.0688 N   0  0  0  0  0  0  0  0  0  0  0  0
   67.6713   46.1259   51.8243 C   0  0  0  0  0  0  0  0  0  0  0  0
   67.6839   46.0612   53.2012 C   0  0  0  0  0  0  0  0  0  0  0  0
   68.5702   46.8406   53.9179 C   0  0  0  0  0  0  0  0  0  0  0  0
   69.4072   47.6551   53.1777 C   0  0  0  0  0  0  0  0  0  0  0  0
   70.3706   48.5247   53.5414 N   0  0  0  0  0  0  0  0  0  0  0  0
   70.9050   49.0779   52.4485 N   0  0  0  0  0  0  0  0  0  0  0  0
   70.3134   48.5919   51.3687 N   0  0  0  0  0  0  0  0  0  0  0  0
   69.3762   47.7024   51.8016 C   0  0  0  0  0  0  0  0  0  0  0  0
   68.5151   46.9435   51.1339 N   0  0  0  0  0  0  0  0  0  0  0  0
   68.6105   46.8009   55.2997 O   0  0  0  0  0  0  0  0  0  0  0  0
   69.3521   47.6363   56.1268 C   0  0  0  0  0  0  0  0  0  0  0  0
   68.5744   48.7594   56.6917 C   0  0  0  0  0  0  0  0  0  0  0  0
   67.3877   48.4520   57.3531 C   0  0  0  0  0  0  0  0  0  0  0  0
   66.6666   49.5157   57.8540 C   0  0  0  0  0  0  0  0  0  0  0  0
   67.1136   50.8198   57.6986 C   0  0  0  0  0  0  0  0  0  0  0  0
   68.2887   51.1182   57.0434 C   0  0  0  0  0  0  0  0  0  0  0  0
   68.8065   52.7852   56.8777 Cl  0  0  0  0  0  0  0  0  0  0  0  0
   69.0309   50.0501   56.5304 C   0  0  0  0  0  0  0  0  0  0  0  0
   70.5216   50.4364   55.6983 Cl  0  0  0  0  0  0  0  0  0  0  0  0
  1  2  1  0
  2  3  2  0
  2 10  1  0
  3  4  1  0
  4 11  1  0
  4  5  2  0
 11 12  1  0
 12 13  1  0
 13 14  2  0
 13 19  1  0
 14 15  1  0
 15 16  2  0
 16 17  1  0
 17 18  1  0
 17 19  2  0
 19 20  1  0
  5  6  1  0
  5  9  1  0
  6  7  2  0
  7  8  1  0
  8  9  1  0
  9 10  2  0
M  END
>  <minimizedAffinity>  (238) 
-8.94403

$$$$
cs_full_output_folder/data/smiles/4877.pdb
     RDKit          3D

 23 26  0  0  0  0  0  0  0  0999 V2000
   68.6978   51.2608   56.2814 C   0  0  0  0  0  0  0  0  0  0  0  0
   67.5983   51.2310   57.1618 C   0  0  0  0  0  0  0  0  0  0  0  0
   67.1386   50.0331   57.6052 C   0  0  0  0  0  0  0  0  0  0  0  0
   66.0777   49.9948   58.4560 F   0  0  0  0  0  0  0  0  0  0  0  0
   67.7496   48.8615   57.1912 C   0  0  0  0  0  0  0  0  0  0  0  0
   67.2753   47.8126   57.6347 O   0  0  0  0  0  0  0  0  0  0  0  0
   68.7798   48.8420   56.3707 N   0  0  0  0  0  0  0  0  0  0  0  0
   69.2357   50.0451   55.9268 C   0  0  0  0  0  0  0  0  0  0  0  0
   68.6542   52.8945   54.6240 O   0  0  0  0  0  0  0  0  0  0  0  0
   69.0926   52.5479   55.8017 C   0  0  0  0  0  0  0  0  0  0  0  0
   69.9386   53.5373   56.4779 C   0  0  0  0  0  0  0  0  0  0  0  0
   71.2215   54.0018   55.9780 C   0  0  0  0  0  0  0  0  0  0  0  0
   71.2533   52.9544   57.0722 C   0  0  0  0  0  0  0  0  0  0  0  0
   69.5132   47.6882   55.8897 C   0  0  0  0  0  0  0  0  0  0  0  0
   69.0440   47.2089   54.5564 C   0  0  0  0  0  0  0  0  0  0  0  0
   68.0859   46.1824   54.5072 C   0  0  0  0  0  0  0  0  0  0  0  0
   67.5423   45.7267   53.3351 C   0  0  0  0  0  0  0  0  0  0  0  0
   67.9570   46.3051   52.1425 C   0  0  0  0  0  0  0  0  0  0  0  0
   68.8934   47.3121   52.1418 C   0  0  0  0  0  0  0  0  0  0  0  0
   69.4516   47.9891   51.1341 N   0  0  0  0  0  0  0  0  0  0  0  0
   70.3194   48.8408   51.6471 N   0  0  0  0  0  0  0  0  0  0  0  0
   70.3303   48.7182   53.0092 C   0  0  0  0  0  0  0  0  0  0  0  0
   69.4213   47.7456   53.3532 C   0  0  0  0  0  0  0  0  0  0  0  0
  9 10  2  0
 10  1  1  0
 10 11  1  0
  1  2  1  0
  1  8  2  0
  2  3  2  0
  3  4  1  0
  3  5  1  0
  5  6  2  0
  5  7  1  0
  7 14  1  0
  7  8  1  0
 14 15  1  0
 15 16  2  0
 15 23  1  0
 16 17  1  0
 17 18  2  0
 18 19  1  0
 19 20  1  0
 19 23  2  0
 20 21  1  0
 21 22  2  0
 22 23  1  0
 11 12  1  0
 11 13  1  0
 12 13  1  0
M  END
>  <minimizedAffinity>  (239) 
-8.94322

$$$$
cs_full_output_folder/data/smiles/2367.pdb
     RDKit          3D

 25 28  0  0  0  0  0  0  0  0999 V2000
   71.1237   45.9214   58.2896 C   0  0  0  0  0  0  0  0  0  0  0  0
   71.9602   46.8304   58.8959 C   0  0  0  0  0  0  0  0  0  0  0  0
   71.7884   48.1977   58.6842 C   0  0  0  0  0  0  0  0  0  0  0  0
   70.7786   48.6730   57.8637 C   0  0  0  0  0  0  0  0  0  0  0  0
   69.9394   47.7627   57.2567 C   0  0  0  0  0  0  0  0  0  0  0  0
   70.1263   46.4225   57.4797 C   0  0  0  0  0  0  0  0  0  0  0  0
   73.3257   44.1684   57.3344 O   0  0  0  0  0  0  0  0  0  0  0  0
   72.3436   43.7253   57.9731 C   0  0  0  0  0  0  0  0  0  0  0  0
   72.1277   42.3187   58.3382 C   0  0  0  0  0  0  0  0  0  0  0  0
   70.9873   42.2473   59.0029 C   0  0  0  0  0  0  0  0  0  0  0  0
   70.3935   43.5823   59.1128 C   0  0  0  0  0  0  0  0  0  0  0  0
   69.3182   43.9241   59.6691 O   0  0  0  0  0  0  0  0  0  0  0  0
   71.2461   44.5175   58.4641 N   0  0  0  0  0  0  0  0  0  0  0  0
   68.8680   48.3004   56.3830 C   0  0  0  0  0  0  0  0  0  0  0  0
   69.3026   48.4019   54.9695 C   0  0  0  0  0  0  0  0  0  0  0  0
   70.1712   49.3431   54.5671 N   0  0  0  0  0  0  0  0  0  0  0  0
   70.6114   49.5087   53.3426 N   0  0  0  0  0  0  0  0  0  0  0  0
   70.1816   48.6869   52.3720 C   0  0  0  0  0  0  0  0  0  0  0  0
   70.5756   48.8057   51.1770 O   0  0  0  0  0  0  0  0  0  0  0  0
   69.2874   47.6960   52.7148 C   0  0  0  0  0  0  0  0  0  0  0  0
   68.8177   46.8227   51.7312 C   0  0  0  0  0  0  0  0  0  0  0  0
   67.9212   45.8242   52.0555 C   0  0  0  0  0  0  0  0  0  0  0  0
   67.4836   45.6866   53.3625 C   0  0  0  0  0  0  0  0  0  0  0  0
   67.9265   46.5331   54.3602 C   0  0  0  0  0  0  0  0  0  0  0  0
   68.8242   47.5266   54.0175 C   0  0  0  0  0  0  0  0  0  0  0  0
  7  8  2  0
  8  9  1  0
  8 13  1  0
  9 10  2  0
 10 11  1  0
 11 12  2  0
 11 13  1  0
 13  1  1  0
  1  2  2  0
  1  6  1  0
  2  3  1  0
  3  4  2  0
  4  5  1  0
  5 14  1  0
  5  6  2  0
 14 15  1  0
 15 16  2  0
 15 25  1  0
 16 17  1  0
 17 18  1  0
 18 19  2  0
 18 20  1  0
 20 21  1  0
 20 25  2  0
 21 22  2  0
 22 23  1  0
 23 24  2  0
 24 25  1  0
M  END
>  <minimizedAffinity>  (240) 
-8.94269

$$$$
cs_full_output_folder/data/smiles/1604.pdb
     RDKit          3D

 22 24  0  0  0  0  0  0  0  0999 V2000
   68.8947   45.1676   56.5655 C   0  0  0  0  0  0  0  0  0  0  0  0
   69.9028   45.9277   57.1237 N   0  0  0  0  0  0  0  0  0  0  0  0
   70.8556   45.3856   57.8666 C   0  0  0  0  0  0  0  0  0  0  0  0
   70.8350   44.0029   58.0910 C   0  0  0  0  0  0  0  0  0  0  0  0
   69.8389   43.2290   57.5463 C   0  0  0  0  0  0  0  0  0  0  0  0
   68.8924   43.8671   56.7900 N   0  0  0  0  0  0  0  0  0  0  0  0
   69.7617   41.7924   57.7733 C   0  0  0  0  0  0  0  0  0  0  0  0
   70.7979   41.0655   58.2648 C   0  0  0  0  0  0  0  0  0  0  0  0
   70.6724   39.6848   58.4929 C   0  0  0  0  0  0  0  0  0  0  0  0
   69.5010   39.0165   58.2286 C   0  0  0  0  0  0  0  0  0  0  0  0
   68.4346   39.7396   57.7277 C   0  0  0  0  0  0  0  0  0  0  0  0
   68.5821   41.1049   57.5112 C   0  0  0  0  0  0  0  0  0  0  0  0
   67.9694   45.9072   55.8022 N   0  0  0  0  0  0  0  0  0  0  0  0
   69.2224   47.8395   52.9230 C   0  0  0  0  0  0  0  0  0  0  0  0
   68.7654   47.0113   51.9297 C   0  0  0  0  0  0  0  0  0  0  0  0
   68.0819   45.8576   52.1665 C   0  0  0  0  0  0  0  0  0  0  0  0
   67.8412   45.5084   53.4936 C   0  0  0  0  0  0  0  0  0  0  0  0
   68.3095   46.3560   54.4973 C   0  0  0  0  0  0  0  0  0  0  0  0
   68.9975   47.5180   54.2505 C   0  0  0  0  0  0  0  0  0  0  0  0
   70.1364   49.3190   50.9418 O   0  0  0  0  0  0  0  0  0  0  0  0
   70.0747   49.2910   52.4525 S   0  0  0  0  0  0  0  0  0  0  0  0
   71.5045   49.1515   52.9123 O   0  0  0  0  0  0  0  0  0  0  0  0
 20 21  2  0
 21 22  2  0
 21 14  1  0
 14 15  2  0
 14 19  1  0
 15 16  1  0
 16 17  2  0
 17 18  1  0
 18 13  1  0
 18 19  2  0
 13  1  1  0
  1  2  2  0
  1  6  1  0
  2  3  1  0
  3  4  2  0
  4  5  1  0
  5  7  1  0
  5  6  2  0
  7  8  2  0
  7 12  1  0
  8  9  1  0
  9 10  2  0
 10 11  1  0
 11 12  2  0
M  END
>  <minimizedAffinity>  (241) 
-8.94235

$$$$
cs_full_output_folder/data/smiles/7958.pdb
     RDKit          3D

 24 26  0  0  0  0  0  0  0  0999 V2000
   67.3663   42.4901   56.5729 O   0  0  0  0  0  0  0  0  0  0  0  0
   68.5403   42.8099   56.8060 C   0  0  0  0  0  0  0  0  0  0  0  0
   68.9445   44.1350   56.5023 N   0  0  0  0  0  0  0  0  0  0  0  0
   69.4871   41.8464   57.3831 C   0  0  0  0  0  0  0  0  0  0  0  0
   69.2355   40.5284   57.7365 C   0  0  0  0  0  0  0  0  0  0  0  0
   70.3856   39.9584   58.2315 C   0  0  0  0  0  0  0  0  0  0  0  0
   71.3105   40.9363   58.1713 N   0  0  0  0  0  0  0  0  0  0  0  0
   70.7688   42.0626   57.6650 N   0  0  0  0  0  0  0  0  0  0  0  0
   70.5881   38.6029   58.7030 C   0  0  0  0  0  0  0  0  0  0  0  0
   69.8708   38.0168   59.7153 C   0  0  0  0  0  0  0  0  0  0  0  0
   70.1432   36.7072   60.1222 C   0  0  0  0  0  0  0  0  0  0  0  0
   71.1337   35.9737   59.5175 C   0  0  0  0  0  0  0  0  0  0  0  0
   71.8723   36.5659   58.4792 C   0  0  0  0  0  0  0  0  0  0  0  0
   71.5782   37.8526   58.1077 C   0  0  0  0  0  0  0  0  0  0  0  0
   68.1593   45.1451   55.9748 N   0  0  0  0  0  0  0  0  0  0  0  0
   68.5313   46.0192   55.1095 C   0  0  0  0  0  0  0  0  0  0  0  0
   68.9162   46.9311   54.2082 C   0  0  0  0  0  0  0  0  0  0  0  0
   68.7963   46.5168   52.8187 C   0  0  0  0  0  0  0  0  0  0  0  0
   69.1497   47.3548   51.8261 C   0  0  0  0  0  0  0  0  0  0  0  0
   69.6337   48.6243   52.0462 C   0  0  0  0  0  0  0  0  0  0  0  0
   69.9903   49.4684   51.0157 O   0  0  0  0  0  0  0  0  0  0  0  0
   69.7480   49.0144   53.3454 C   0  0  0  0  0  0  0  0  0  0  0  0
   69.4013   48.1985   54.3901 C   0  0  0  0  0  0  0  0  0  0  0  0
   69.5761   48.7492   55.6923 O   0  0  0  0  0  0  0  0  0  0  0  0
  1  2  2  0
  2  3  1  0
  2  4  1  0
  3 15  1  0
 15 16  2  3
 16 17  1  0
 17 18  2  0
 17 23  1  0
 18 19  1  0
 19 20  2  0
 20 21  1  0
 20 22  1  0
 22 23  2  0
 23 24  1  0
  4  5  2  0
  4  8  1  0
  5  6  1  0
  6  9  1  0
  6  7  2  0
  9 10  2  0
  9 14  1  0
 10 11  1  0
 11 12  2  0
 12 13  1  0
 13 14  2  0
  7  8  1  0
M  END
>  <minimizedAffinity>  (242) 
-8.93993

$$$$
cs_full_output_folder/data/smiles/897.pdb
     RDKit          3D

 21 23  0  0  0  0  0  0  0  0999 V2000
   68.2194   45.7954   55.9226 N   0  0  0  0  0  0  0  0  0  0  0  0
   69.1570   47.7048   52.8733 C   0  0  0  0  0  0  0  0  0  0  0  0
   68.5727   46.9041   51.9149 C   0  0  0  0  0  0  0  0  0  0  0  0
   67.8788   45.7436   52.2315 C   0  0  0  0  0  0  0  0  0  0  0  0
   67.7735   45.3842   53.5574 C   0  0  0  0  0  0  0  0  0  0  0  0
   68.3442   46.1560   54.5603 C   0  0  0  0  0  0  0  0  0  0  0  0
   69.0166   47.2917   54.1747 C   0  0  0  0  0  0  0  0  0  0  0  0
   69.2756   50.5323   53.2092 N   0  0  0  0  0  0  0  0  0  0  0  0
   70.0169   49.1654   52.4532 S   0  0  0  0  0  0  0  0  0  0  0  0
   71.4770   49.0643   52.8460 O   0  0  0  0  0  0  0  0  0  0  0  0
   69.9839   49.3941   50.9717 O   0  0  0  0  0  0  0  0  0  0  0  0
   68.4552   44.4371   56.2731 C   0  0  0  0  0  0  0  0  0  0  0  0
   67.5090   43.4891   56.0043 N   0  0  0  0  0  0  0  0  0  0  0  0
   67.6560   42.1912   56.2900 C   0  0  0  0  0  0  0  0  0  0  0  0
   68.8142   41.7459   56.8912 C   0  0  0  0  0  0  0  0  0  0  0  0
   69.7630   42.6981   57.1608 C   0  0  0  0  0  0  0  0  0  0  0  0
   69.5782   43.9850   56.8592 N   0  0  0  0  0  0  0  0  0  0  0  0
   71.0322   42.2393   57.7973 C   0  0  0  0  0  0  0  0  0  0  0  0
   71.3740   41.1877   58.4528 C   0  0  0  0  0  0  0  0  0  0  0  0
   72.7322   41.6379   58.6483 C   0  0  0  0  0  0  0  0  0  0  0  0
   72.3666   42.8235   57.8914 C   0  0  0  0  0  0  0  0  0  0  0  0
  8  9  1  0
  9 10  2  0
  9 11  2  0
  9  2  1  0
  2  3  2  0
  2  7  1  0
  3  4  1  0
  4  5  2  0
  5  6  1  0
  6  1  1  0
  6  7  2  0
  1 12  1  0
 12 13  2  0
 12 17  1  0
 13 14  1  0
 14 15  2  0
 15 16  1  0
 16 18  1  0
 16 17  2  0
 18 19  2  0
 18 21  1  0
 19 20  1  0
 20 21  1  0
M  END
>  <minimizedAffinity>  (243) 
-8.93992

$$$$
cs_full_output_folder/data/smiles/460.pdb
     RDKit          3D

 25 27  0  0  0  0  0  0  0  0999 V2000
   68.9772   47.6568   56.8765 C   0  0  0  0  0  0  0  0  0  0  0  0
   67.7411   47.4974   57.2085 O   0  0  0  0  0  0  0  0  0  0  0  0
   69.2438   47.9690   55.4967 C   0  0  0  0  0  0  0  0  0  0  0  0
   69.9915   49.1169   55.1946 C   0  0  0  0  0  0  0  0  0  0  0  0
   70.2843   49.4763   53.8940 C   0  0  0  0  0  0  0  0  0  0  0  0
   70.9683   50.5297   53.6774 O   0  0  0  0  0  0  0  0  0  0  0  0
   69.8585   48.7342   52.8598 N   0  0  0  0  0  0  0  0  0  0  0  0
   69.1371   47.6263   53.1082 C   0  0  0  0  0  0  0  0  0  0  0  0
   68.7194   46.8921   52.0192 C   0  0  0  0  0  0  0  0  0  0  0  0
   67.9831   45.7585   52.2569 C   0  0  0  0  0  0  0  0  0  0  0  0
   67.6673   45.3588   53.5230 C   0  0  0  0  0  0  0  0  0  0  0  0
   68.0835   46.0899   54.6055 C   0  0  0  0  0  0  0  0  0  0  0  0
   68.8235   47.2333   54.4171 C   0  0  0  0  0  0  0  0  0  0  0  0
   69.8167   47.4952   57.9289 O   0  0  0  0  0  0  0  0  0  0  0  0
   70.8404   46.5275   58.0199 C   0  0  0  0  0  0  0  0  0  0  0  0
   69.7343   44.7806   59.2058 O   0  0  0  0  0  0  0  0  0  0  0  0
   70.1789   45.2060   58.1109 C   0  0  0  0  0  0  0  0  0  0  0  0
   70.0045   44.3454   56.9922 N   0  0  0  0  0  0  0  0  0  0  0  0
   69.3701   43.0739   57.0703 C   0  0  0  0  0  0  0  0  0  0  0  0
   68.1738   42.7642   56.5031 C   0  0  0  0  0  0  0  0  0  0  0  0
   67.6571   41.4888   56.6492 C   0  0  0  0  0  0  0  0  0  0  0  0
   68.3273   40.5153   57.3602 C   0  0  0  0  0  0  0  0  0  0  0  0
   67.8393   39.2646   57.5140 F   0  0  0  0  0  0  0  0  0  0  0  0
   69.5298   40.8225   57.9321 C   0  0  0  0  0  0  0  0  0  0  0  0
   70.0355   42.0947   57.7801 C   0  0  0  0  0  0  0  0  0  0  0  0
 16 17  2  0
 17 15  1  0
 17 18  1  0
 15 14  1  0
 14  1  1  0
  1  2  2  0
  1  3  1  0
  3  4  2  0
  3 13  1  0
  4  5  1  0
  5  6  2  0
  5  7  1  0
  7  8  1  0
  8  9  1  0
  8 13  2  0
  9 10  2  0
 10 11  1  0
 11 12  2  0
 12 13  1  0
 18 19  1  0
 19 20  2  0
 19 25  1  0
 20 21  1  0
 21 22  2  0
 22 23  1  0
 22 24  1  0
 24 25  2  0
M  END
>  <minimizedAffinity>  (244) 
-8.93651

$$$$
cs_full_output_folder/data/smiles/6802.pdb
     RDKit          3D

 23 25  0  0  0  0  0  0  0  0999 V2000
   69.7884   48.4508   56.2791 C   0  0  0  0  0  0  0  0  0  0  0  0
   69.9403   48.4015   54.8304 C   0  0  0  0  0  0  0  0  0  0  0  0
   70.8843   49.2309   54.2334 N   0  0  0  0  0  0  0  0  0  0  0  0
   71.0820   49.2587   52.9425 N   0  0  0  0  0  0  0  0  0  0  0  0
   70.3951   48.4949   52.0839 C   0  0  0  0  0  0  0  0  0  0  0  0
   70.5867   48.5224   50.8387 O   0  0  0  0  0  0  0  0  0  0  0  0
   69.4423   47.6460   52.5906 C   0  0  0  0  0  0  0  0  0  0  0  0
   68.7221   46.8473   51.7326 C   0  0  0  0  0  0  0  0  0  0  0  0
   67.7611   45.9844   52.2019 C   0  0  0  0  0  0  0  0  0  0  0  0
   67.5721   45.9746   53.5742 C   0  0  0  0  0  0  0  0  0  0  0  0
   68.2868   46.7649   54.4262 C   0  0  0  0  0  0  0  0  0  0  0  0
   69.2459   47.6294   53.9715 C   0  0  0  0  0  0  0  0  0  0  0  0
   68.5789   50.5111   57.0083 C   0  0  0  0  0  0  0  0  0  0  0  0
   67.4545   51.0577   57.6536 C   0  0  0  0  0  0  0  0  0  0  0  0
   66.4155   50.2678   58.0944 C   0  0  0  0  0  0  0  0  0  0  0  0
   66.4844   48.9113   57.8959 C   0  0  0  0  0  0  0  0  0  0  0  0
   67.5620   48.3785   57.2770 C   0  0  0  0  0  0  0  0  0  0  0  0
   68.6288   49.1572   56.8232 C   0  0  0  0  0  0  0  0  0  0  0  0
   69.5465   51.4409   56.4919 N   0  0  0  0  0  0  0  0  0  0  0  0
   68.6332   51.8023   54.2471 C   0  0  0  0  0  0  0  0  0  0  0  0
   69.0056   52.4532   55.5718 C   0  0  0  0  0  0  0  0  0  0  0  0
   70.9329   51.4576   56.8338 C   0  0  0  0  0  0  0  0  0  0  0  0
   71.2128   51.5062   58.3074 C   0  0  0  0  0  0  0  0  0  0  0  0
 20 21  1  0
 21 19  1  0
 19 22  1  0
 19 13  1  0
 22 23  1  0
 13 14  2  0
 13 18  1  0
 14 15  1  0
 15 16  2  0
 16 17  1  0
 17 18  2  0
 18  1  1  0
  1  2  1  0
  2  3  2  0
  2 12  1  0
  3  4  1  0
  4  5  1  0
  5  6  2  0
  5  7  1  0
  7  8  1  0
  7 12  2  0
  8  9  2  0
  9 10  1  0
 10 11  2  0
 11 12  1  0
M  END
>  <minimizedAffinity>  (245) 
-8.93597

$$$$
cs_full_output_folder/data/smiles/4632.pdb
     RDKit          3D

 23 25  0  0  0  0  0  0  0  0999 V2000
   69.1337   48.6618   56.2521 C   0  0  0  0  0  0  0  0  0  0  0  0
   69.4975   48.5818   54.8000 C   0  0  0  0  0  0  0  0  0  0  0  0
   70.3808   49.4948   54.2962 N   0  0  0  0  0  0  0  0  0  0  0  0
   70.6869   49.5102   53.0204 N   0  0  0  0  0  0  0  0  0  0  0  0
   70.1594   48.6408   52.1329 C   0  0  0  0  0  0  0  0  0  0  0  0
   70.5130   48.7368   50.9382 O   0  0  0  0  0  0  0  0  0  0  0  0
   69.2611   47.6876   52.5634 C   0  0  0  0  0  0  0  0  0  0  0  0
   68.7417   46.7959   51.6548 C   0  0  0  0  0  0  0  0  0  0  0  0
   67.8598   45.8392   52.1111 C   0  0  0  0  0  0  0  0  0  0  0  0
   67.5245   45.8014   53.4551 C   0  0  0  0  0  0  0  0  0  0  0  0
   68.0664   46.7189   54.3517 C   0  0  0  0  0  0  0  0  0  0  0  0
   68.9493   47.6854   53.9152 C   0  0  0  0  0  0  0  0  0  0  0  0
   70.6005   45.8195   58.2126 C   0  0  0  0  0  0  0  0  0  0  0  0
   71.7556   46.4071   58.7075 C   0  0  0  0  0  0  0  0  0  0  0  0
   72.0536   47.7207   58.4095 C   0  0  0  0  0  0  0  0  0  0  0  0
   71.2318   48.5176   57.6133 C   0  0  0  0  0  0  0  0  0  0  0  0
   70.0935   47.9443   57.1229 C   0  0  0  0  0  0  0  0  0  0  0  0
   69.7881   46.6015   57.4274 C   0  0  0  0  0  0  0  0  0  0  0  0
   70.2877   44.4308   58.5292 C   0  0  0  0  0  0  0  0  0  0  0  0
   69.6915   44.1268   59.6094 O   0  0  0  0  0  0  0  0  0  0  0  0
   70.6535   43.3490   57.6090 C   0  0  0  0  0  0  0  0  0  0  0  0
   73.0824   42.9180   57.5944 C   0  0  0  0  0  0  0  0  0  0  0  0
   71.7483   42.4588   58.0990 C   0  0  0  0  0  0  0  0  0  0  0  0
 22 23  1  0
 23 21  1  0
 21 19  1  0
 19 20  2  0
 19 13  1  0
 13 14  2  0
 13 18  1  0
 14 15  1  0
 15 16  2  0
 16 17  1  0
 17  1  1  0
 17 18  2  0
  1  2  1  0
  2  3  2  0
  2 12  1  0
  3  4  1  0
  4  5  1  0
  5  6  2  0
  5  7  1  0
  7  8  1  0
  7 12  2  0
  8  9  2  0
  9 10  1  0
 10 11  2  0
 11 12  1  0
M  END
>  <minimizedAffinity>  (246) 
-8.93556

$$$$
cs_full_output_folder/data/smiles/5092.pdb
     RDKit          3D

 24 26  0  0  0  0  0  0  0  0999 V2000
   69.9251   45.0271   57.7284 O   0  0  0  0  0  0  0  0  0  0  0  0
   69.1850   44.2642   56.9940 C   0  0  0  0  0  0  0  0  0  0  0  0
   68.5000   44.9203   55.9769 N   0  0  0  0  0  0  0  0  0  0  0  0
   69.1339   42.8419   57.2863 C   0  0  0  0  0  0  0  0  0  0  0  0
   70.3039   42.2396   57.7875 C   0  0  0  0  0  0  0  0  0  0  0  0
   70.3426   40.8988   58.0885 C   0  0  0  0  0  0  0  0  0  0  0  0
   71.5191   40.3294   58.5821 C   0  0  0  0  0  0  0  0  0  0  0  0
   71.6023   38.9928   58.8925 C   0  0  0  0  0  0  0  0  0  0  0  0
   70.4864   38.2103   58.7069 C   0  0  0  0  0  0  0  0  0  0  0  0
   69.2939   38.7148   58.2229 C   0  0  0  0  0  0  0  0  0  0  0  0
   69.2550   40.0708   57.9207 C   0  0  0  0  0  0  0  0  0  0  0  0
   68.1042   40.6424   57.4320 C   0  0  0  0  0  0  0  0  0  0  0  0
   68.0751   42.0058   57.1298 C   0  0  0  0  0  0  0  0  0  0  0  0
   66.8809   42.5082   56.6411 O   0  0  0  0  0  0  0  0  0  0  0  0
   68.5686   46.3761   55.7293 C   0  0  0  0  0  0  0  0  0  0  0  0
   68.5515   46.5677   54.2711 C   0  0  0  0  0  0  0  0  0  0  0  0
   67.8584   45.7449   53.4413 C   0  0  0  0  0  0  0  0  0  0  0  0
   67.8476   45.9032   52.0592 C   0  0  0  0  0  0  0  0  0  0  0  0
   68.5700   46.9342   51.5153 C   0  0  0  0  0  0  0  0  0  0  0  0
   69.2808   47.7868   52.3073 C   0  0  0  0  0  0  0  0  0  0  0  0
   69.2754   47.6095   53.6700 C   0  0  0  0  0  0  0  0  0  0  0  0
   70.0109   48.8466   51.6903 N   0  0  0  0  0  0  0  0  0  0  0  0
   70.7144   48.6571   50.6781 O   0  0  0  0  0  0  0  0  0  0  0  0
   69.9522   50.1044   52.2032 O   0  0  0  0  0  0  0  0  0  0  0  0
  1  2  2  0
  2  3  1  0
  2  4  1  0
  3 15  1  0
 15 16  1  0
 16 17  2  0
 16 21  1  0
 17 18  1  0
 18 19  2  0
 19 20  1  0
 20 22  1  0
 20 21  2  0
 22 23  2  0
 22 24  1  0
  4  5  2  0
  4 13  1  0
  5  6  1  0
  6  7  2  0
  6 11  1  0
  7  8  1  0
  8  9  2  0
  9 10  1  0
 10 11  2  0
 11 12  1  0
 12 13  2  0
 13 14  1  0
M  CHG  2  22   1  24  -1
M  END
>  <minimizedAffinity>  (247) 
-8.93409

$$$$
cs_full_output_folder/data/smiles/8145.pdb
     RDKit          3D

 24 26  0  0  0  0  0  0  0  0999 V2000
   69.0976   46.5321   56.9775 N   0  0  0  0  0  0  0  0  0  0  0  0
   68.6929   47.3215   56.0686 C   0  0  0  0  0  0  0  0  0  0  0  0
   68.6439   46.9332   54.6700 C   0  0  0  0  0  0  0  0  0  0  0  0
   69.2527   47.7194   53.6944 C   0  0  0  0  0  0  0  0  0  0  0  0
   69.1395   47.5222   52.3360 C   0  0  0  0  0  0  0  0  0  0  0  0
   68.3738   46.4739   51.8784 C   0  0  0  0  0  0  0  0  0  0  0  0
   67.7532   45.6687   52.8055 C   0  0  0  0  0  0  0  0  0  0  0  0
   67.8748   45.8826   54.1836 C   0  0  0  0  0  0  0  0  0  0  0  0
   68.2327   48.6632   56.5124 C   0  0  0  0  0  0  0  0  0  0  0  0
   68.7869   49.8426   56.1657 C   0  0  0  0  0  0  0  0  0  0  0  0
   68.3641   51.0682   56.7103 C   0  0  0  0  0  0  0  0  0  0  0  0
   67.3466   51.1205   57.6319 C   0  0  0  0  0  0  0  0  0  0  0  0
   66.7737   49.9201   57.9874 C   0  0  0  0  0  0  0  0  0  0  0  0
   67.1904   48.7211   57.4551 C   0  0  0  0  0  0  0  0  0  0  0  0
   70.2927   44.7739   58.1807 C   0  0  0  0  0  0  0  0  0  0  0  0
   70.5265   45.5615   59.1624 O   0  0  0  0  0  0  0  0  0  0  0  0
   69.5641   45.2656   57.0625 N   0  0  0  0  0  0  0  0  0  0  0  0
   71.8972   39.2944   58.3841 N   0  0  0  0  0  0  0  0  0  0  0  0
   71.5162   40.6571   58.3305 C   0  0  0  0  0  0  0  0  0  0  0  0
   72.4264   41.6623   58.1027 C   0  0  0  0  0  0  0  0  0  0  0  0
   72.0727   43.0135   58.0454 C   0  0  0  0  0  0  0  0  0  0  0  0
   70.7722   43.3980   58.2194 C   0  0  0  0  0  0  0  0  0  0  0  0
   69.8416   42.3666   58.4522 C   0  0  0  0  0  0  0  0  0  0  0  0
   70.2089   41.0493   58.5041 C   0  0  0  0  0  0  0  0  0  0  0  0
 18 19  1  0
 19 20  2  0
 19 24  1  0
 20 21  1  0
 21 22  2  0
 22 15  1  0
 22 23  1  0
 15 16  2  0
 15 17  1  0
 17  1  1  0
  1  2  2  0
  2  3  1  0
  2  9  1  0
  3  4  2  0
  3  8  1  0
  4  5  1  0
  5  6  2  0
  6  7  1  0
  7  8  2  0
  9 10  2  0
  9 14  1  0
 10 11  1  0
 11 12  2  0
 12 13  1  0
 13 14  2  0
 23 24  2  0
M  END
>  <minimizedAffinity>  (248) 
-8.93388

$$$$
cs_full_output_folder/data/smiles/8479.pdb
     RDKit          3D

 26 29  0  0  0  0  0  0  0  0999 V2000
   70.8044   49.2211   58.4323 C   0  0  0  0  0  0  0  0  0  0  0  0
   69.9933   50.3307   58.7206 C   0  0  0  0  0  0  0  0  0  0  0  0
   68.8104   50.5801   58.0756 C   0  0  0  0  0  0  0  0  0  0  0  0
   68.3601   49.7286   57.0922 C   0  0  0  0  0  0  0  0  0  0  0  0
   69.1069   48.6256   56.7614 C   0  0  0  0  0  0  0  0  0  0  0  0
   70.3118   48.4097   57.4484 C   0  0  0  0  0  0  0  0  0  0  0  0
   68.7498   47.6648   55.7224 C   0  0  0  0  0  0  0  0  0  0  0  0
   68.0729   46.5241   56.0595 N   0  0  0  0  0  0  0  0  0  0  0  0
   67.7345   45.6274   55.1673 N   0  0  0  0  0  0  0  0  0  0  0  0
   68.0293   45.7646   53.8667 C   0  0  0  0  0  0  0  0  0  0  0  0
   67.6731   44.8554   53.0363 O   0  0  0  0  0  0  0  0  0  0  0  0
   68.7100   46.8803   53.4353 C   0  0  0  0  0  0  0  0  0  0  0  0
   69.0255   47.0178   52.1055 C   0  0  0  0  0  0  0  0  0  0  0  0
   69.7226   48.1391   51.7150 C   0  0  0  0  0  0  0  0  0  0  0  0
   70.0984   49.1045   52.6248 C   0  0  0  0  0  0  0  0  0  0  0  0
   69.7610   48.9336   53.9671 C   0  0  0  0  0  0  0  0  0  0  0  0
   69.0641   47.8296   54.4014 C   0  0  0  0  0  0  0  0  0  0  0  0
   71.4353   47.2522   60.4247 O   0  0  0  0  0  0  0  0  0  0  0  0
   72.3173   48.0828   60.1201 C   0  0  0  0  0  0  0  0  0  0  0  0
   72.0101   49.0422   59.1494 N   0  0  0  0  0  0  0  0  0  0  0  0
   73.6050   47.9762   60.8129 C   0  0  0  0  0  0  0  0  0  0  0  0
   74.8280   48.0837   60.1864 C   0  0  0  0  0  0  0  0  0  0  0  0
   76.0296   47.9737   60.8986 C   0  0  0  0  0  0  0  0  0  0  0  0
   76.0383   47.7541   62.2576 C   0  0  0  0  0  0  0  0  0  0  0  0
   74.8191   47.6462   62.8921 C   0  0  0  0  0  0  0  0  0  0  0  0
   73.6407   47.7562   62.1789 C   0  0  0  0  0  0  0  0  0  0  0  0
 18 19  2  0
 19 20  1  0
 19 21  1  0
 20  1  1  0
  1  2  2  0
  1  6  1  0
  2  3  1  0
  3  4  2  0
  4  5  1  0
  5  7  1  0
  5  6  2  0
  7  8  2  0
  7 17  1  0
  8  9  1  0
  9 10  1  0
 10 11  2  0
 10 12  1  0
 12 13  1  0
 12 17  2  0
 13 14  2  0
 14 15  1  0
 15 16  2  0
 16 17  1  0
 21 22  2  0
 21 26  1  0
 22 23  1  0
 23 24  2  0
 24 25  1  0
 25 26  2  0
M  END
>  <minimizedAffinity>  (249) 
-8.93324

$$$$
cs_full_output_folder/data/smiles/8614.pdb
     RDKit          3D

 26 28  0  0  0  0  0  0  0  0999 V2000
   69.6081   45.4485   57.4939 N   0  0  0  0  0  0  0  0  0  0  0  0
   69.7189   46.8417   57.2102 C   0  0  0  0  0  0  0  0  0  0  0  0
   70.8126   47.4244   57.5275 O   0  0  0  0  0  0  0  0  0  0  0  0
   71.0163   43.4448   57.9125 C   0  0  0  0  0  0  0  0  0  0  0  0
   70.1756   42.8724   57.0770 O   0  0  0  0  0  0  0  0  0  0  0  0
   70.7103   44.8054   58.1037 N   0  0  0  0  0  0  0  0  0  0  0  0
   72.2948   41.4407   58.7681 C   0  0  0  0  0  0  0  0  0  0  0  0
   72.0421   42.6381   58.4444 C   0  0  0  0  0  0  0  0  0  0  0  0
   72.0263   36.4631   58.2126 C   0  0  0  0  0  0  0  0  0  0  0  0
   71.3968   37.7994   58.5223 C   0  0  0  0  0  0  0  0  0  0  0  0
   70.0680   37.8034   58.8890 C   0  0  0  0  0  0  0  0  0  0  0  0
   69.4829   39.0249   59.1757 C   0  0  0  0  0  0  0  0  0  0  0  0
   70.2036   40.1708   59.0930 C   0  0  0  0  0  0  0  0  0  0  0  0
   71.5589   40.1791   58.7191 C   0  0  0  0  0  0  0  0  0  0  0  0
   72.1121   38.9626   58.4447 C   0  0  0  0  0  0  0  0  0  0  0  0
   68.6618   47.6307   56.5828 C   0  0  0  0  0  0  0  0  0  0  0  0
   69.0956   48.0347   55.2227 C   0  0  0  0  0  0  0  0  0  0  0  0
   69.8994   49.1562   55.0346 C   0  0  0  0  0  0  0  0  0  0  0  0
   70.3119   49.5581   53.7791 C   0  0  0  0  0  0  0  0  0  0  0  0
   69.9269   48.8444   52.6835 C   0  0  0  0  0  0  0  0  0  0  0  0
   69.1272   47.7214   52.8214 C   0  0  0  0  0  0  0  0  0  0  0  0
   68.7385   46.9982   51.7162 C   0  0  0  0  0  0  0  0  0  0  0  0
   67.9378   45.8726   51.8530 C   0  0  0  0  0  0  0  0  0  0  0  0
   67.5321   45.4798   53.1082 C   0  0  0  0  0  0  0  0  0  0  0  0
   67.9296   46.2134   54.2054 C   0  0  0  0  0  0  0  0  0  0  0  0
   68.7282   47.3400   54.0903 C   0  0  0  0  0  0  0  0  0  0  0  0
  9 10  1  0
 10 11  2  0
 10 15  1  0
 11 12  1  0
 12 13  2  0
 13 14  1  0
 14  7  1  0
 14 15  2  0
  7  8  2  0
  8  4  1  0
  4  5  2  0
  4  6  1  0
  6  1  1  0
  1  2  1  0
  2  3  2  0
  2 16  1  0
 16 17  1  0
 17 18  2  0
 17 26  1  0
 18 19  1  0
 19 20  2  0
 20 21  1  0
 21 22  1  0
 21 26  2  0
 22 23  2  0
 23 24  1  0
 24 25  2  0
 25 26  1  0
M  END
>  <minimizedAffinity>  (250) 
-8.93304

$$$$
cs_full_output_folder/data/smiles/8977.pdb
     RDKit          3D

 24 26  0  0  0  0  0  0  0  0999 V2000
   70.6107   46.1439   58.3275 C   0  0  0  0  0  0  0  0  0  0  0  0
   69.7522   46.7447   57.3823 C   0  0  0  0  0  0  0  0  0  0  0  0
   69.7430   48.0789   57.1499 C   0  0  0  0  0  0  0  0  0  0  0  0
   70.6360   48.8432   57.8992 C   0  0  0  0  0  0  0  0  0  0  0  0
   71.4812   48.2852   58.8217 C   0  0  0  0  0  0  0  0  0  0  0  0
   71.4782   46.9151   59.0493 C   0  0  0  0  0  0  0  0  0  0  0  0
   72.3506   46.3945   59.9776 F   0  0  0  0  0  0  0  0  0  0  0  0
   69.7268   44.2376   59.3985 O   0  0  0  0  0  0  0  0  0  0  0  0
   70.5106   44.7206   58.4995 C   0  0  0  0  0  0  0  0  0  0  0  0
   71.2087   43.7320   57.7626 N   0  0  0  0  0  0  0  0  0  0  0  0
   71.0176   42.3094   58.0341 C   0  0  0  0  0  0  0  0  0  0  0  0
   72.1424   41.5791   57.7152 F   0  0  0  0  0  0  0  0  0  0  0  0
   68.8976   48.8312   56.2107 C   0  0  0  0  0  0  0  0  0  0  0  0
   69.3241   48.6790   54.8074 C   0  0  0  0  0  0  0  0  0  0  0  0
   70.2211   49.5776   54.3034 N   0  0  0  0  0  0  0  0  0  0  0  0
   70.6192   49.5565   53.0413 N   0  0  0  0  0  0  0  0  0  0  0  0
   70.1757   48.6539   52.1530 C   0  0  0  0  0  0  0  0  0  0  0  0
   70.5941   48.6826   50.9482 O   0  0  0  0  0  0  0  0  0  0  0  0
   69.2712   47.7169   52.5909 C   0  0  0  0  0  0  0  0  0  0  0  0
   68.8223   46.7751   51.6942 C   0  0  0  0  0  0  0  0  0  0  0  0
   67.9263   45.8399   52.1840 C   0  0  0  0  0  0  0  0  0  0  0  0
   67.5048   45.8465   53.4950 C   0  0  0  0  0  0  0  0  0  0  0  0
   67.9753   46.8017   54.3561 C   0  0  0  0  0  0  0  0  0  0  0  0
   68.8533   47.7431   53.9279 C   0  0  0  0  0  0  0  0  0  0  0  0
  8  9  2  0
  9 10  1  0
  9  1  1  0
 10 11  1  0
 11 12  1  0
  1  2  2  0
  1  6  1  0
  2  3  1  0
  3 13  1  0
  3  4  2  0
 13 14  1  0
 14 15  2  0
 14 24  1  0
 15 16  1  0
 16 17  1  0
 17 18  2  0
 17 19  1  0
 19 20  1  0
 19 24  2  0
 20 21  2  0
 21 22  1  0
 22 23  2  0
 23 24  1  0
  4  5  1  0
  5  6  2  0
  6  7  1  0
M  END
>  <minimizedAffinity>  (251) 
-8.93199

$$$$
cs_full_output_folder/data/smiles/2452.pdb
     RDKit          3D

 22 24  0  0  0  0  0  0  0  0999 V2000
   69.3241   45.4131   56.9992 C   0  0  0  0  0  0  0  0  0  0  0  0
   70.5132   45.8622   57.5321 C   0  0  0  0  0  0  0  0  0  0  0  0
   71.4158   45.0261   58.1489 C   0  0  0  0  0  0  0  0  0  0  0  0
   71.1385   43.6620   58.2517 C   0  0  0  0  0  0  0  0  0  0  0  0
   69.9546   43.2307   57.7194 C   0  0  0  0  0  0  0  0  0  0  0  0
   69.0885   44.0968   57.1154 N   0  0  0  0  0  0  0  0  0  0  0  0
   69.5709   41.8339   57.7825 C   0  0  0  0  0  0  0  0  0  0  0  0
   70.3319   40.8677   58.3927 C   0  0  0  0  0  0  0  0  0  0  0  0
   69.9237   39.5235   58.4452 C   0  0  0  0  0  0  0  0  0  0  0  0
   68.7383   39.1180   57.8826 C   0  0  0  0  0  0  0  0  0  0  0  0
   67.9749   40.0842   57.2705 C   0  0  0  0  0  0  0  0  0  0  0  0
   68.3688   41.3970   57.2173 C   0  0  0  0  0  0  0  0  0  0  0  0
   68.4137   46.3132   56.3776 N   0  0  0  0  0  0  0  0  0  0  0  0
   69.2474   47.7618   53.0386 C   0  0  0  0  0  0  0  0  0  0  0  0
   68.6116   46.8836   52.1929 C   0  0  0  0  0  0  0  0  0  0  0  0
   67.9196   45.8240   52.7370 C   0  0  0  0  0  0  0  0  0  0  0  0
   67.8747   45.6569   54.1142 C   0  0  0  0  0  0  0  0  0  0  0  0
   68.5057   46.5226   54.9784 C   0  0  0  0  0  0  0  0  0  0  0  0
   69.1982   47.5852   54.4211 C   0  0  0  0  0  0  0  0  0  0  0  0
   70.4289   48.9335   50.9219 O   0  0  0  0  0  0  0  0  0  0  0  0
   70.1177   49.1198   52.3822 S   0  0  0  0  0  0  0  0  0  0  0  0
   71.3473   49.4588   53.1778 O   0  0  0  0  0  0  0  0  0  0  0  0
 20 21  2  0
 21 22  2  0
 21 14  1  0
 14 15  2  0
 14 19  1  0
 15 16  1  0
 16 17  2  0
 17 18  1  0
 18 13  1  0
 18 19  2  0
 13  1  1  0
  1  2  2  0
  1  6  1  0
  2  3  1  0
  3  4  2  0
  4  5  1  0
  5  7  1  0
  5  6  2  0
  7  8  2  0
  7 12  1  0
  8  9  1  0
  9 10  2  0
 10 11  1  0
 11 12  2  0
M  END
>  <minimizedAffinity>  (252) 
-8.93167

$$$$
cs_full_output_folder/data/smiles/5355.pdb
     RDKit          3D

 24 26  0  0  0  0  0  0  0  0999 V2000
   70.7938   45.5349   57.9240 C   0  0  0  0  0  0  0  0  0  0  0  0
   71.6783   46.2248   58.7559 C   0  0  0  0  0  0  0  0  0  0  0  0
   71.6694   47.6011   58.8096 C   0  0  0  0  0  0  0  0  0  0  0  0
   70.7670   48.3122   58.0233 C   0  0  0  0  0  0  0  0  0  0  0  0
   69.8854   47.6644   57.1944 C   0  0  0  0  0  0  0  0  0  0  0  0
   69.9112   46.2605   57.1561 C   0  0  0  0  0  0  0  0  0  0  0  0
   70.0622   43.3723   58.7960 C   0  0  0  0  0  0  0  0  0  0  0  0
   69.3691   43.9986   59.6464 O   0  0  0  0  0  0  0  0  0  0  0  0
   70.8186   44.1124   57.8814 N   0  0  0  0  0  0  0  0  0  0  0  0
   70.0141   41.8875   58.8405 C   0  0  0  0  0  0  0  0  0  0  0  0
   68.3401   42.0709   57.0691 C   0  0  0  0  0  0  0  0  0  0  0  0
   69.1526   41.3182   57.7933 C   0  0  0  0  0  0  0  0  0  0  0  0
   68.9027   48.2974   56.3083 C   0  0  0  0  0  0  0  0  0  0  0  0
   69.3447   48.3672   54.8764 C   0  0  0  0  0  0  0  0  0  0  0  0
   70.2525   49.3281   54.5327 N   0  0  0  0  0  0  0  0  0  0  0  0
   70.6340   49.4521   53.2807 N   0  0  0  0  0  0  0  0  0  0  0  0
   70.1665   48.6662   52.3005 C   0  0  0  0  0  0  0  0  0  0  0  0
   70.5400   48.7953   51.0982 O   0  0  0  0  0  0  0  0  0  0  0  0
   69.2536   47.6821   52.5807 C   0  0  0  0  0  0  0  0  0  0  0  0
   68.7597   46.8501   51.6089 C   0  0  0  0  0  0  0  0  0  0  0  0
   67.8506   45.8542   51.9028 C   0  0  0  0  0  0  0  0  0  0  0  0
   67.4555   45.7247   53.2108 C   0  0  0  0  0  0  0  0  0  0  0  0
   67.9367   46.5516   54.2172 C   0  0  0  0  0  0  0  0  0  0  0  0
   68.8458   47.5435   53.9042 C   0  0  0  0  0  0  0  0  0  0  0  0
 11 12  2  0
 12 10  1  0
 10  7  1  0
  7  8  2  0
  7  9  1  0
  9  1  1  0
  1  2  2  0
  1  6  1  0
  2  3  1  0
  3  4  2  0
  4  5  1  0
  5 13  1  0
  5  6  2  0
 13 14  1  0
 14 15  2  0
 14 24  1  0
 15 16  1  0
 16 17  1  0
 17 18  2  0
 17 19  1  0
 19 20  1  0
 19 24  2  0
 20 21  2  0
 21 22  1  0
 22 23  2  0
 23 24  1  0
M  END
>  <minimizedAffinity>  (253) 
-8.93092

$$$$
cs_full_output_folder/data/smiles/932.pdb
     RDKit          3D

 25 27  0  0  0  0  0  0  0  0999 V2000
   70.0159   44.9449   57.7398 C   0  0  0  0  0  0  0  0  0  0  0  0
   69.7901   45.7034   58.7122 O   0  0  0  0  0  0  0  0  0  0  0  0
   69.4706   45.2842   56.4797 N   0  0  0  0  0  0  0  0  0  0  0  0
   68.8618   42.1570   58.1216 C   0  0  0  0  0  0  0  0  0  0  0  0
   70.3093   42.4787   58.1238 C   0  0  0  0  0  0  0  0  0  0  0  0
   70.8294   43.7533   57.9619 C   0  0  0  0  0  0  0  0  0  0  0  0
   72.1742   43.5975   58.0332 C   0  0  0  0  0  0  0  0  0  0  0  0
   72.4488   42.2730   58.2338 N   0  0  0  0  0  0  0  0  0  0  0  0
   71.2991   41.5788   58.2902 N   0  0  0  0  0  0  0  0  0  0  0  0
   71.1574   40.1750   58.4529 C   0  0  0  0  0  0  0  0  0  0  0  0
   72.3039   39.3613   58.4810 C   0  0  0  0  0  0  0  0  0  0  0  0
   72.2429   38.0198   58.6505 C   0  0  0  0  0  0  0  0  0  0  0  0
   71.0284   37.3482   58.8166 C   0  0  0  0  0  0  0  0  0  0  0  0
   69.9211   38.1554   58.7876 C   0  0  0  0  0  0  0  0  0  0  0  0
   69.9573   39.5347   58.6123 C   0  0  0  0  0  0  0  0  0  0  0  0
   68.6376   46.4264   56.1863 C   0  0  0  0  0  0  0  0  0  0  0  0
   68.5601   46.5299   54.6837 C   0  0  0  0  0  0  0  0  0  0  0  0
   67.8335   45.7105   53.8957 C   0  0  0  0  0  0  0  0  0  0  0  0
   67.8303   45.8565   52.4825 C   0  0  0  0  0  0  0  0  0  0  0  0
   68.5950   46.8553   51.9471 C   0  0  0  0  0  0  0  0  0  0  0  0
   69.3509   47.7121   52.7109 C   0  0  0  0  0  0  0  0  0  0  0  0
   69.3254   47.5404   54.0808 C   0  0  0  0  0  0  0  0  0  0  0  0
   70.1774   48.7596   52.1336 C   0  0  0  0  0  0  0  0  0  0  0  0
   71.3019   49.2165   52.9077 N   0  0  0  0  0  0  0  0  0  0  0  0
   69.9801   49.2759   51.0278 O   0  0  0  0  0  0  0  0  0  0  0  0
  4  5  1  0
  5  6  2  0
  5  9  1  0
  6  1  1  0
  6  7  1  0
  1  2  2  0
  1  3  1  0
  3 16  1  0
 16 17  1  0
 17 18  2  0
 17 22  1  0
 18 19  1  0
 19 20  2  0
 20 21  1  0
 21 23  1  0
 21 22  2  0
 23 24  1  0
 23 25  2  0
  7  8  2  0
  8  9  1  0
  9 10  1  0
 10 11  2  0
 10 15  1  0
 11 12  1  0
 12 13  2  0
 13 14  1  0
 14 15  2  0
M  END
>  <minimizedAffinity>  (254) 
-8.92995

$$$$
cs_full_output_folder/data/smiles/5365.pdb
     RDKit          3D

 25 27  0  0  0  0  0  0  0  0999 V2000
   71.8536   50.1384   53.7490 N   0  0  0  0  0  0  0  0  0  0  0  0
   72.1516   50.7860   54.7992 C   0  0  0  0  0  0  0  0  0  0  0  0
   71.6744   50.3950   56.1110 C   0  0  0  0  0  0  0  0  0  0  0  0
   72.3788   49.6737   57.0352 C   0  0  0  0  0  0  0  0  0  0  0  0
   73.6680   49.2761   56.7240 O   0  0  0  0  0  0  0  0  0  0  0  0
   71.8823   49.3111   58.2751 C   0  0  0  0  0  0  0  0  0  0  0  0
   70.6081   49.6828   58.6314 C   0  0  0  0  0  0  0  0  0  0  0  0
   69.8692   50.4192   57.7087 C   0  0  0  0  0  0  0  0  0  0  0  0
   68.5889   50.8031   58.0419 C   0  0  0  0  0  0  0  0  0  0  0  0
   67.8264   51.5244   57.1663 C   0  0  0  0  0  0  0  0  0  0  0  0
   68.3313   51.8827   55.9272 C   0  0  0  0  0  0  0  0  0  0  0  0
   69.6222   51.5035   55.5754 C   0  0  0  0  0  0  0  0  0  0  0  0
   70.3761   50.7734   56.4772 C   0  0  0  0  0  0  0  0  0  0  0  0
   69.8501   49.7610   51.9338 O   0  0  0  0  0  0  0  0  0  0  0  0
   70.0199   48.8221   52.7653 C   0  0  0  0  0  0  0  0  0  0  0  0
   71.0583   49.0104   53.7086 N   0  0  0  0  0  0  0  0  0  0  0  0
   69.1781   47.6236   52.7322 C   0  0  0  0  0  0  0  0  0  0  0  0
   68.5622   47.1772   51.5926 C   0  0  0  0  0  0  0  0  0  0  0  0
   67.7680   46.0349   51.5759 C   0  0  0  0  0  0  0  0  0  0  0  0
   67.6015   45.3379   52.7569 C   0  0  0  0  0  0  0  0  0  0  0  0
   68.1991   45.7526   53.9176 C   0  0  0  0  0  0  0  0  0  0  0  0
   68.9753   46.8804   53.8992 C   0  0  0  0  0  0  0  0  0  0  0  0
   68.0200   45.0226   55.1390 N   0  0  0  0  0  0  0  0  0  0  0  0
   68.3937   45.4788   56.2269 O   0  0  0  0  0  0  0  0  0  0  0  0
   67.4246   43.7890   55.1348 O   0  0  0  0  0  0  0  0  0  0  0  0
 14 15  2  0
 15 16  1  0
 15 17  1  0
 16  1  1  0
  1  2  2  0
  2  3  1  0
  3  4  2  0
  3 13  1  0
  4  5  1  0
  4  6  1  0
  6  7  2  0
  7  8  1  0
  8  9  1  0
  8 13  2  0
  9 10  2  0
 10 11  1  0
 11 12  2  0
 12 13  1  0
 17 18  2  0
 17 22  1  0
 18 19  1  0
 19 20  2  0
 20 21  1  0
 21 23  1  0
 21 22  2  0
 23 24  2  0
 23 25  1  0
M  CHG  2  23   1  25  -1
M  END
>  <minimizedAffinity>  (255) 
-8.92923

$$$$
cs_full_output_folder/data/smiles/4103.pdb
     RDKit          3D

 26 28  0  0  0  0  0  0  0  0999 V2000
   69.3890   45.2122   56.6825 N   0  0  0  0  0  0  0  0  0  0  0  0
   69.9833   44.7787   57.8781 C   0  0  0  0  0  0  0  0  0  0  0  0
   70.0649   45.5499   58.8487 O   0  0  0  0  0  0  0  0  0  0  0  0
   70.4965   43.4236   57.9847 C   0  0  0  0  0  0  0  0  0  0  0  0
   71.8494   43.0497   57.8245 C   0  0  0  0  0  0  0  0  0  0  0  0
   71.9373   41.7407   58.0369 N   0  0  0  0  0  0  0  0  0  0  0  0
   70.7520   41.2091   58.3241 N   0  0  0  0  0  0  0  0  0  0  0  0
   69.8820   42.2235   58.2905 C   0  0  0  0  0  0  0  0  0  0  0  0
   68.4301   42.0699   58.5464 C   0  0  0  0  0  0  0  0  0  0  0  0
   70.6182   39.8299   58.6274 C   0  0  0  0  0  0  0  0  0  0  0  0
   69.6167   39.3117   59.4040 C   0  0  0  0  0  0  0  0  0  0  0  0
   69.5097   37.9410   59.6730 C   0  0  0  0  0  0  0  0  0  0  0  0
   70.4537   37.1210   59.1269 C   0  0  0  0  0  0  0  0  0  0  0  0
   71.4881   37.5712   58.3392 C   0  0  0  0  0  0  0  0  0  0  0  0
   72.4924   36.6525   57.7559 C   0  0  0  0  0  0  0  0  0  0  0  0
   71.5523   38.9151   58.1036 C   0  0  0  0  0  0  0  0  0  0  0  0
   68.8039   46.4818   56.3952 C   0  0  0  0  0  0  0  0  0  0  0  0
   69.2249   47.6986   52.8482 C   0  0  0  0  0  0  0  0  0  0  0  0
   68.5620   46.6884   52.1802 C   0  0  0  0  0  0  0  0  0  0  0  0
   67.9921   45.6388   52.8518 C   0  0  0  0  0  0  0  0  0  0  0  0
   68.0792   45.5890   54.2506 C   0  0  0  0  0  0  0  0  0  0  0  0
   68.7345   46.5950   54.9259 C   0  0  0  0  0  0  0  0  0  0  0  0
   69.2926   47.6232   54.2392 C   0  0  0  0  0  0  0  0  0  0  0  0
   69.7797   50.1714   52.7098 C   0  0  0  0  0  0  0  0  0  0  0  0
   69.8470   48.7997   52.1593 C   0  0  0  0  0  0  0  0  0  0  0  0
   70.4646   48.6191   51.0793 O   0  0  0  0  0  0  0  0  0  0  0  0
 24 25  1  0
 25 26  2  0
 25 18  1  0
 18 19  2  0
 18 23  1  0
 19 20  1  0
 20 21  2  0
 21 22  1  0
 22 17  1  0
 22 23  2  0
 17  1  1  0
  1  2  1  0
  2  3  2  0
  2  4  1  0
  4  5  1  0
  4  8  2  0
  5  6  2  0
  6  7  1  0
  7 10  1  0
  7  8  1  0
 10 11  2  0
 10 16  1  0
 11 12  1  0
 12 13  2  0
 13 14  1  0
 14 15  1  0
 14 16  2  0
  8  9  1  0
M  END
>  <minimizedAffinity>  (256) 
-8.92858

$$$$
cs_full_output_folder/data/smiles/7115.pdb
     RDKit          3D

 22 24  0  0  0  0  0  0  0  0999 V2000
   68.8364   48.0033   55.8630 C   0  0  0  0  0  0  0  0  0  0  0  0
   67.8920   47.0455   55.5983 C   0  0  0  0  0  0  0  0  0  0  0  0
   67.7582   46.5282   54.3065 C   0  0  0  0  0  0  0  0  0  0  0  0
   68.5854   46.9956   53.3168 C   0  0  0  0  0  0  0  0  0  0  0  0
   68.4728   46.4909   52.0278 C   0  0  0  0  0  0  0  0  0  0  0  0
   67.2517   45.2753   51.7311 Cl  0  0  0  0  0  0  0  0  0  0  0  0
   69.2843   46.9437   51.0620 N   0  0  0  0  0  0  0  0  0  0  0  0
   70.1981   47.8582   51.2829 N   0  0  0  0  0  0  0  0  0  0  0  0
   70.3300   48.3697   52.5375 C   0  0  0  0  0  0  0  0  0  0  0  0
   71.2095   49.2542   52.7660 O   0  0  0  0  0  0  0  0  0  0  0  0
   69.5295   47.9463   53.5619 C   0  0  0  0  0  0  0  0  0  0  0  0
   69.6501   48.4508   54.8495 C   0  0  0  0  0  0  0  0  0  0  0  0
   68.9983   48.5376   57.1906 C   0  0  0  0  0  0  0  0  0  0  0  0
   69.7544   47.8964   57.9967 O   0  0  0  0  0  0  0  0  0  0  0  0
   68.3275   49.7662   57.6119 C   0  0  0  0  0  0  0  0  0  0  0  0
   72.0576   53.0355   57.5489 C   0  0  0  0  0  0  0  0  0  0  0  0
   70.7439   52.5873   57.0506 C   0  0  0  0  0  0  0  0  0  0  0  0
   70.1125   53.3284   56.0495 C   0  0  0  0  0  0  0  0  0  0  0  0
   68.8906   52.8528   55.6079 C   0  0  0  0  0  0  0  0  0  0  0  0
   68.3311   51.7273   56.1166 C   0  0  0  0  0  0  0  0  0  0  0  0
   68.9688   51.0049   57.1095 C   0  0  0  0  0  0  0  0  0  0  0  0
   70.1722   51.4446   57.5668 C   0  0  0  0  0  0  0  0  0  0  0  0
 16 17  1  0
 17 18  2  0
 17 22  1  0
 18 19  1  0
 19 20  2  0
 20 21  1  0
 21 15  1  0
 21 22  2  0
 15 13  1  0
 13 14  2  0
 13  1  1  0
  1  2  2  0
  1 12  1  0
  2  3  1  0
  3  4  2  0
  4  5  1  0
  4 11  1  0
  5  6  1  0
  5  7  2  0
  7  8  1  0
  8  9  1  0
  9 10  2  0
  9 11  1  0
 11 12  2  0
M  END
>  <minimizedAffinity>  (257) 
-8.92720

$$$$
cs_full_output_folder/data/smiles/2880.pdb
     RDKit          3D

 24 26  0  0  0  0  0  0  0  0999 V2000
   70.5339   45.4826   57.7567 C   0  0  0  0  0  0  0  0  0  0  0  0
   71.4967   46.1069   58.5103 C   0  0  0  0  0  0  0  0  0  0  0  0
   71.5908   47.5089   58.5210 C   0  0  0  0  0  0  0  0  0  0  0  0
   70.7337   48.2794   57.7894 C   0  0  0  0  0  0  0  0  0  0  0  0
   69.7399   47.6774   57.0092 C   0  0  0  0  0  0  0  0  0  0  0  0
   69.6831   46.3099   57.0269 C   0  0  0  0  0  0  0  0  0  0  0  0
   69.7846   43.2433   58.6469 C   0  0  0  0  0  0  0  0  0  0  0  0
   69.3192   43.7130   59.6900 O   0  0  0  0  0  0  0  0  0  0  0  0
   70.3713   44.0670   57.6993 N   0  0  0  0  0  0  0  0  0  0  0  0
   69.7324   41.7570   58.3612 C   0  0  0  0  0  0  0  0  0  0  0  0
   67.9162   41.9525   56.6329 C   0  0  0  0  0  0  0  0  0  0  0  0
   68.2990   41.4146   57.9794 C   0  0  0  0  0  0  0  0  0  0  0  0
   68.8185   48.5154   56.1985 C   0  0  0  0  0  0  0  0  0  0  0  0
   69.2412   48.5234   54.8006 C   0  0  0  0  0  0  0  0  0  0  0  0
   70.1290   49.4524   54.3868 N   0  0  0  0  0  0  0  0  0  0  0  0
   70.5913   49.5450   53.1494 N   0  0  0  0  0  0  0  0  0  0  0  0
   70.1482   48.6460   52.2196 C   0  0  0  0  0  0  0  0  0  0  0  0
   70.6127   48.7703   51.0598 O   0  0  0  0  0  0  0  0  0  0  0  0
   69.2480   47.6772   52.5673 C   0  0  0  0  0  0  0  0  0  0  0  0
   68.7998   46.7846   51.6315 C   0  0  0  0  0  0  0  0  0  0  0  0
   67.8712   45.7945   51.9685 C   0  0  0  0  0  0  0  0  0  0  0  0
   67.4164   45.7377   53.2721 C   0  0  0  0  0  0  0  0  0  0  0  0
   67.8755   46.6451   54.2156 C   0  0  0  0  0  0  0  0  0  0  0  0
   68.7930   47.6149   53.8590 C   0  0  0  0  0  0  0  0  0  0  0  0
 11 12  1  0
 12 10  1  0
 10  7  1  0
  7  8  2  0
  7  9  1  0
  9  1  1  0
  1  2  2  0
  1  6  1  0
  2  3  1  0
  3  4  2  0
  4  5  1  0
  5 13  1  0
  5  6  2  0
 13 14  1  0
 14 15  2  0
 14 24  1  0
 15 16  1  0
 16 17  1  0
 17 18  2  0
 17 19  1  0
 19 20  1  0
 19 24  2  0
 20 21  2  0
 21 22  1  0
 22 23  2  0
 23 24  1  0
M  END
>  <minimizedAffinity>  (258) 
-8.92631

$$$$
cs_full_output_folder/data/smiles/5220.pdb
     RDKit          3D

 23 25  0  0  0  0  0  0  0  0999 V2000
   68.9883   51.2467   56.7845 C   0  0  0  0  0  0  0  0  0  0  0  0
   67.8323   51.2672   57.5631 C   0  0  0  0  0  0  0  0  0  0  0  0
   67.1622   50.0785   57.7636 C   0  0  0  0  0  0  0  0  0  0  0  0
   66.0235   50.1240   58.5359 F   0  0  0  0  0  0  0  0  0  0  0  0
   67.5911   48.8938   57.2305 C   0  0  0  0  0  0  0  0  0  0  0  0
   66.9449   47.8386   57.4440 O   0  0  0  0  0  0  0  0  0  0  0  0
   68.6986   48.8752   56.4859 N   0  0  0  0  0  0  0  0  0  0  0  0
   69.3646   50.0261   56.2792 C   0  0  0  0  0  0  0  0  0  0  0  0
   71.0834   52.5665   56.2378 N   0  0  0  0  0  0  0  0  0  0  0  0
   69.7215   52.4856   56.5513 C   0  0  0  0  0  0  0  0  0  0  0  0
   69.0956   53.5862   56.6353 O   0  0  0  0  0  0  0  0  0  0  0  0
   72.8990   53.9327   56.9786 C   0  0  0  0  0  0  0  0  0  0  0  0
   71.7639   53.8491   56.0150 C   0  0  0  0  0  0  0  0  0  0  0  0
   69.1665   47.7109   55.8847 C   0  0  0  0  0  0  0  0  0  0  0  0
   68.9186   47.3179   54.5308 C   0  0  0  0  0  0  0  0  0  0  0  0
   68.0140   46.2441   54.3670 C   0  0  0  0  0  0  0  0  0  0  0  0
   67.7240   45.8065   53.0993 C   0  0  0  0  0  0  0  0  0  0  0  0
   68.2833   46.3759   51.9812 C   0  0  0  0  0  0  0  0  0  0  0  0
   69.1712   47.4299   52.1286 C   0  0  0  0  0  0  0  0  0  0  0  0
   69.8615   48.1721   51.2363 N   0  0  0  0  0  0  0  0  0  0  0  0
   70.5587   49.0420   51.9097 N   0  0  0  0  0  0  0  0  0  0  0  0
   70.3622   48.9122   53.2337 C   0  0  0  0  0  0  0  0  0  0  0  0
   69.4731   47.8835   53.4215 C   0  0  0  0  0  0  0  0  0  0  0  0
 12 13  1  0
 13  9  1  0
  9 10  1  0
 10 11  2  0
 10  1  1  0
  1  2  1  0
  1  8  2  0
  2  3  2  0
  3  4  1  0
  3  5  1  0
  5  6  2  0
  5  7  1  0
  7 14  1  0
  7  8  1  0
 14 15  1  0
 15 16  2  0
 15 23  1  0
 16 17  1  0
 17 18  2  0
 18 19  1  0
 19 20  1  0
 19 23  2  0
 20 21  1  0
 21 22  2  0
 22 23  1  0
M  END
>  <minimizedAffinity>  (259) 
-8.92611

$$$$
cs_full_output_folder/data/smiles/6000.pdb
     RDKit          3D

 26 29  0  0  0  0  0  0  0  0999 V2000
   71.0886   45.9079   58.0362 C   0  0  0  0  0  0  0  0  0  0  0  0
   70.0406   46.4222   57.2699 C   0  0  0  0  0  0  0  0  0  0  0  0
   69.6417   47.7102   57.2607 C   0  0  0  0  0  0  0  0  0  0  0  0
   70.3509   48.5864   58.0959 C   0  0  0  0  0  0  0  0  0  0  0  0
   71.3960   48.1482   58.8794 C   0  0  0  0  0  0  0  0  0  0  0  0
   71.7548   46.8195   58.8440 C   0  0  0  0  0  0  0  0  0  0  0  0
   72.7858   46.3799   59.6157 F   0  0  0  0  0  0  0  0  0  0  0  0
   74.4977   42.3677   57.6695 N   0  0  0  0  0  0  0  0  0  0  0  0
   73.1505   42.7950   57.8201 C   0  0  0  0  0  0  0  0  0  0  0  0
   72.1780   41.8148   57.9374 C   0  0  0  0  0  0  0  0  0  0  0  0
   70.8626   42.1832   58.0846 C   0  0  0  0  0  0  0  0  0  0  0  0
   70.5187   43.5261   58.1135 C   0  0  0  0  0  0  0  0  0  0  0  0
   71.4646   44.5165   58.0002 C   0  0  0  0  0  0  0  0  0  0  0  0
   72.7763   44.1390   57.8534 C   0  0  0  0  0  0  0  0  0  0  0  0
   68.5558   48.3264   56.4671 C   0  0  0  0  0  0  0  0  0  0  0  0
   69.0278   48.4088   55.0610 C   0  0  0  0  0  0  0  0  0  0  0  0
   69.9057   49.4097   54.7167 N   0  0  0  0  0  0  0  0  0  0  0  0
   70.4004   49.5286   53.5045 N   0  0  0  0  0  0  0  0  0  0  0  0
   70.1006   48.6961   52.4999 C   0  0  0  0  0  0  0  0  0  0  0  0
   70.6113   48.8617   51.3506 O   0  0  0  0  0  0  0  0  0  0  0  0
   69.2243   47.6671   52.7724 C   0  0  0  0  0  0  0  0  0  0  0  0
   68.8950   46.8063   51.7523 C   0  0  0  0  0  0  0  0  0  0  0  0
   68.0186   45.7946   52.0191 C   0  0  0  0  0  0  0  0  0  0  0  0
   67.4828   45.6454   53.2761 C   0  0  0  0  0  0  0  0  0  0  0  0
   67.8220   46.5227   54.3090 C   0  0  0  0  0  0  0  0  0  0  0  0
   68.6956   47.5368   54.0575 C   0  0  0  0  0  0  0  0  0  0  0  0
  8  9  1  0
  9 10  2  0
  9 14  1  0
 10 11  1  0
 11 12  2  0
 12 13  1  0
 13  1  1  0
 13 14  2  0
  1  2  2  0
  1  6  1  0
  2  3  1  0
  3 15  1  0
  3  4  2  0
 15 16  1  0
 16 17  2  0
 16 26  1  0
 17 18  1  0
 18 19  1  0
 19 20  2  0
 19 21  1  0
 21 22  1  0
 21 26  2  0
 22 23  2  0
 23 24  1  0
 24 25  2  0
 25 26  1  0
  4  5  1  0
  5  6  2  0
  6  7  1  0
M  END
>  <minimizedAffinity>  (260) 
-8.92559

$$$$
cs_full_output_folder/data/smiles/2156.pdb
     RDKit          3D

 25 28  0  0  0  0  0  0  0  0999 V2000
   70.0324   47.9813   57.3727 C   0  0  0  0  0  0  0  0  0  0  0  0
   70.6773   48.6750   58.3843 C   0  0  0  0  0  0  0  0  0  0  0  0
   71.5083   47.9800   59.2536 C   0  0  0  0  0  0  0  0  0  0  0  0
   71.7054   46.6195   59.1354 C   0  0  0  0  0  0  0  0  0  0  0  0
   72.5168   45.9259   59.9786 F   0  0  0  0  0  0  0  0  0  0  0  0
   71.0640   45.9293   58.1315 C   0  0  0  0  0  0  0  0  0  0  0  0
   70.2237   46.6286   57.2505 C   0  0  0  0  0  0  0  0  0  0  0  0
   71.2658   44.4933   58.0026 C   0  0  0  0  0  0  0  0  0  0  0  0
   70.1670   43.6459   58.0061 C   0  0  0  0  0  0  0  0  0  0  0  0
   70.3008   42.2782   57.8891 C   0  0  0  0  0  0  0  0  0  0  0  0
   71.5338   41.7326   57.7668 N   0  0  0  0  0  0  0  0  0  0  0  0
   72.6192   42.5072   57.7587 C   0  0  0  0  0  0  0  0  0  0  0  0
   72.5001   43.8935   57.8769 C   0  0  0  0  0  0  0  0  0  0  0  0
   69.1304   48.7225   56.4614 C   0  0  0  0  0  0  0  0  0  0  0  0
   70.7182   48.6054   51.2516 O   0  0  0  0  0  0  0  0  0  0  0  0
   70.3226   48.5916   52.4460 C   0  0  0  0  0  0  0  0  0  0  0  0
   70.8802   49.4235   53.3153 N   0  0  0  0  0  0  0  0  0  0  0  0
   70.4713   49.4131   54.5566 N   0  0  0  0  0  0  0  0  0  0  0  0
   69.5088   48.6095   55.0408 C   0  0  0  0  0  0  0  0  0  0  0  0
   68.9090   47.7382   54.1830 C   0  0  0  0  0  0  0  0  0  0  0  0
   69.3149   47.7206   52.8612 C   0  0  0  0  0  0  0  0  0  0  0  0
   68.7608   46.8422   51.8180 C   0  0  0  0  0  0  0  0  0  0  0  0
   67.7068   45.9471   52.3729 C   0  0  0  0  0  0  0  0  0  0  0  0
   68.0412   45.5343   53.7879 C   0  0  0  0  0  0  0  0  0  0  0  0
   67.8668   46.8094   54.6316 C   0  0  0  0  0  0  0  0  0  0  0  0
 15 16  2  0
 16 17  1  0
 16 21  1  0
 17 18  1  0
 18 19  2  0
 19 14  1  0
 19 20  1  0
 14  1  1  0
  1  2  2  0
  1  7  1  0
  2  3  1  0
  3  4  2  0
  4  5  1  0
  4  6  1  0
  6  8  1  0
  6  7  2  0
  8  9  2  0
  8 13  1  0
  9 10  1  0
 10 11  2  0
 11 12  1  0
 12 13  2  0
 20 21  2  0
 20 25  1  0
 21 22  1  0
 22 23  1  0
 23 24  1  0
 24 25  1  0
M  END
>  <minimizedAffinity>  (261) 
-8.92528

$$$$
cs_full_output_folder/data/smiles/4633.pdb
     RDKit          3D

 23 24  0  0  0  0  0  0  0  0999 V2000
   67.8939   43.9088   55.2787 N   0  0  0  0  0  0  0  0  0  0  0  0
   68.1928   45.2701   55.0684 C   0  0  0  0  0  0  0  0  0  0  0  0
   68.4104   45.9745   56.0819 O   0  0  0  0  0  0  0  0  0  0  0  0
   68.2628   45.9015   53.7469 C   0  0  0  0  0  0  0  0  0  0  0  0
   67.4873   45.4940   52.6844 C   0  0  0  0  0  0  0  0  0  0  0  0
   67.5877   46.1262   51.4418 C   0  0  0  0  0  0  0  0  0  0  0  0
   68.4597   47.1727   51.2354 C   0  0  0  0  0  0  0  0  0  0  0  0
   69.2491   47.5958   52.2960 C   0  0  0  0  0  0  0  0  0  0  0  0
   69.1275   46.9501   53.5146 C   0  0  0  0  0  0  0  0  0  0  0  0
   70.1575   48.6706   52.1187 N   0  0  0  0  0  0  0  0  0  0  0  0
   70.0676   49.3855   51.1080 O   0  0  0  0  0  0  0  0  0  0  0  0
   71.1336   48.9476   53.0278 O   0  0  0  0  0  0  0  0  0  0  0  0
   67.6730   41.2179   55.7279 O   0  0  0  0  0  0  0  0  0  0  0  0
   67.7221   41.9310   56.7565 C   0  0  0  0  0  0  0  0  0  0  0  0
   67.8362   43.3370   56.5710 N   0  0  0  0  0  0  0  0  0  0  0  0
   67.6585   41.2867   58.0857 C   0  0  0  0  0  0  0  0  0  0  0  0
   68.9258   40.5631   58.3211 C   0  0  0  0  0  0  0  0  0  0  0  0
   70.1673   41.1428   58.2192 C   0  0  0  0  0  0  0  0  0  0  0  0
   71.3344   40.4472   58.4437 C   0  0  0  0  0  0  0  0  0  0  0  0
   71.2413   39.1124   58.7850 C   0  0  0  0  0  0  0  0  0  0  0  0
   70.0187   38.4883   58.8990 C   0  0  0  0  0  0  0  0  0  0  0  0
   69.9801   37.1485   59.2433 O   0  0  0  0  0  0  0  0  0  0  0  0
   68.8745   39.2239   58.6649 C   0  0  0  0  0  0  0  0  0  0  0  0
 13 14  2  0
 14 16  1  0
 14 15  1  0
 16 17  1  0
 17 18  2  0
 17 23  1  0
 18 19  1  0
 19 20  2  0
 20 21  1  0
 21 22  1  0
 21 23  2  0
 15  1  1  0
  1  2  1  0
  2  3  2  0
  2  4  1  0
  4  5  2  0
  4  9  1  0
  5  6  1  0
  6  7  2  0
  7  8  1  0
  8 10  1  0
  8  9  2  0
 10 11  2  0
 10 12  1  0
M  CHG  2  10   1  12  -1
M  END
>  <minimizedAffinity>  (262) 
-8.92497

$$$$
cs_full_output_folder/data/smiles/6174.pdb
     RDKit          3D

 24 25  0  0  0  0  0  0  0  0999 V2000
   67.8536   43.8697   55.3968 N   0  0  0  0  0  0  0  0  0  0  0  0
   68.2256   45.2143   55.2163 C   0  0  0  0  0  0  0  0  0  0  0  0
   68.5307   45.8508   56.2693 O   0  0  0  0  0  0  0  0  0  0  0  0
   68.2844   45.9095   53.9569 C   0  0  0  0  0  0  0  0  0  0  0  0
   67.6569   45.3821   52.8563 C   0  0  0  0  0  0  0  0  0  0  0  0
   67.6867   46.0213   51.6128 C   0  0  0  0  0  0  0  0  0  0  0  0
   68.3792   47.2097   51.5432 C   0  0  0  0  0  0  0  0  0  0  0  0
   69.0162   47.7640   52.6184 C   0  0  0  0  0  0  0  0  0  0  0  0
   68.9629   47.0998   53.8341 C   0  0  0  0  0  0  0  0  0  0  0  0
   69.7678   49.0455   52.5621 C   0  0  0  0  0  0  0  0  0  0  0  0
   69.2238   49.8998   53.5043 F   0  0  0  0  0  0  0  0  0  0  0  0
   71.0934   48.7993   52.7902 F   0  0  0  0  0  0  0  0  0  0  0  0
   69.6184   49.5534   51.2962 F   0  0  0  0  0  0  0  0  0  0  0  0
   67.5661   41.1983   55.6177 O   0  0  0  0  0  0  0  0  0  0  0  0
   67.6562   41.8189   56.7098 C   0  0  0  0  0  0  0  0  0  0  0  0
   67.8093   43.2306   56.6410 N   0  0  0  0  0  0  0  0  0  0  0  0
   67.6054   41.1039   58.0355 C   0  0  0  0  0  0  0  0  0  0  0  0
   68.8826   40.3728   58.2459 C   0  0  0  0  0  0  0  0  0  0  0  0
   70.1018   41.0469   58.2358 C   0  0  0  0  0  0  0  0  0  0  0  0
   71.2915   40.3540   58.4326 C   0  0  0  0  0  0  0  0  0  0  0  0
   71.3040   38.9941   58.6421 C   0  0  0  0  0  0  0  0  0  0  0  0
   72.4414   38.2946   58.8360 F   0  0  0  0  0  0  0  0  0  0  0  0
   70.1070   38.3170   58.6539 C   0  0  0  0  0  0  0  0  0  0  0  0
   68.9282   39.0101   58.4578 C   0  0  0  0  0  0  0  0  0  0  0  0
 14 15  2  0
 15 17  1  0
 15 16  1  0
 17 18  1  0
 18 19  2  0
 18 24  1  0
 19 20  1  0
 20 21  2  0
 21 22  1  0
 21 23  1  0
 23 24  2  0
 16  1  1  0
  1  2  1  0
  2  3  2  0
  2  4  1  0
  4  5  2  0
  4  9  1  0
  5  6  1  0
  6  7  2  0
  7  8  1  0
  8 10  1  0
  8  9  2  0
 10 11  1  0
 10 12  1  0
 10 13  1  0
M  END
>  <minimizedAffinity>  (263) 
-8.92384

$$$$
cs_full_output_folder/data/smiles/2824.pdb
     RDKit          3D

 25 28  0  0  0  0  0  0  0  0999 V2000
   70.2491   45.3977   58.0544 C   0  0  0  0  0  0  0  0  0  0  0  0
   71.4148   45.6855   58.7196 C   0  0  0  0  0  0  0  0  0  0  0  0
   71.9619   46.9764   58.6722 C   0  0  0  0  0  0  0  0  0  0  0  0
   71.3253   47.9616   57.9543 C   0  0  0  0  0  0  0  0  0  0  0  0
   70.1535   47.6555   57.2916 C   0  0  0  0  0  0  0  0  0  0  0  0
   69.6945   46.4289   57.3753 N   0  0  0  0  0  0  0  0  0  0  0  0
   71.2983   42.8617   57.2219 O   0  0  0  0  0  0  0  0  0  0  0  0
   70.1127   42.9141   57.6104 C   0  0  0  0  0  0  0  0  0  0  0  0
   69.5896   44.1561   58.0207 N   0  0  0  0  0  0  0  0  0  0  0  0
   69.2787   41.6748   57.6331 C   0  0  0  0  0  0  0  0  0  0  0  0
   68.2112   41.2895   57.0296 C   0  0  0  0  0  0  0  0  0  0  0  0
   68.1783   40.0038   57.6840 C   0  0  0  0  0  0  0  0  0  0  0  0
   69.3952   40.4322   58.3770 C   0  0  0  0  0  0  0  0  0  0  0  0
   69.4185   48.6823   56.5020 C   0  0  0  0  0  0  0  0  0  0  0  0
   69.7518   48.6170   55.0789 C   0  0  0  0  0  0  0  0  0  0  0  0
   70.7990   49.3127   54.5580 N   0  0  0  0  0  0  0  0  0  0  0  0
   71.0791   49.2837   53.2630 N   0  0  0  0  0  0  0  0  0  0  0  0
   70.3686   48.5798   52.3689 C   0  0  0  0  0  0  0  0  0  0  0  0
   70.6239   48.5461   51.1447 O   0  0  0  0  0  0  0  0  0  0  0  0
   69.2943   47.8536   52.8464 C   0  0  0  0  0  0  0  0  0  0  0  0
   68.9936   47.8797   54.2138 C   0  0  0  0  0  0  0  0  0  0  0  0
   67.8629   47.0645   54.6621 C   0  0  0  0  0  0  0  0  0  0  0  0
   68.0180   45.6665   54.0377 C   0  0  0  0  0  0  0  0  0  0  0  0
   68.2555   45.6870   52.5745 C   0  0  0  0  0  0  0  0  0  0  0  0
   68.4129   47.0409   51.9802 C   0  0  0  0  0  0  0  0  0  0  0  0
  7  8  2  0
  8  9  1  0
  8 10  1  0
  9  1  1  0
  1  2  2  0
  1  6  1  0
  2  3  1  0
  3  4  2  0
  4  5  1  0
  5 14  1  0
  5  6  2  0
 14 15  1  0
 15 16  2  0
 15 21  1  0
 16 17  1  0
 17 18  1  0
 18 19  2  0
 18 20  1  0
 20 21  2  0
 20 25  1  0
 21 22  1  0
 22 23  1  0
 23 24  1  0
 24 25  1  0
 10 11  2  0
 10 13  1  0
 11 12  1  0
 12 13  1  0
M  END
>  <minimizedAffinity>  (264) 
-8.92263

$$$$
cs_full_output_folder/data/smiles/7701.pdb
     RDKit          3D

 24 26  0  0  0  0  0  0  0  0999 V2000
   69.9037   43.7866   57.6250 C   0  0  0  0  0  0  0  0  0  0  0  0
   71.0737   43.9681   58.3045 C   0  0  0  0  0  0  0  0  0  0  0  0
   71.6119   45.2574   58.4440 C   0  0  0  0  0  0  0  0  0  0  0  0
   70.9263   46.2980   57.8803 C   0  0  0  0  0  0  0  0  0  0  0  0
   71.4426   47.4453   58.0273 O   0  0  0  0  0  0  0  0  0  0  0  0
   69.7791   46.0892   57.2178 N   0  0  0  0  0  0  0  0  0  0  0  0
   69.2941   44.8603   57.1023 N   0  0  0  0  0  0  0  0  0  0  0  0
   69.8012   38.8965   58.7261 C   0  0  0  0  0  0  0  0  0  0  0  0
   69.2613   40.0670   57.9888 C   0  0  0  0  0  0  0  0  0  0  0  0
   68.1954   39.9196   57.1304 C   0  0  0  0  0  0  0  0  0  0  0  0
   67.7018   41.0168   56.4502 C   0  0  0  0  0  0  0  0  0  0  0  0
   68.2534   42.2635   56.6106 C   0  0  0  0  0  0  0  0  0  0  0  0
   69.3425   42.4528   57.4779 C   0  0  0  0  0  0  0  0  0  0  0  0
   69.8036   41.3386   58.1345 C   0  0  0  0  0  0  0  0  0  0  0  0
   69.1093   47.2389   56.6419 C   0  0  0  0  0  0  0  0  0  0  0  0
   68.9234   47.1428   55.1780 C   0  0  0  0  0  0  0  0  0  0  0  0
   68.1357   46.1181   54.6353 C   0  0  0  0  0  0  0  0  0  0  0  0
   67.9437   46.0121   53.2596 C   0  0  0  0  0  0  0  0  0  0  0  0
   68.5328   46.9231   52.4134 C   0  0  0  0  0  0  0  0  0  0  0  0
   69.2971   47.9153   52.9589 C   0  0  0  0  0  0  0  0  0  0  0  0
   69.5018   48.0404   54.3237 C   0  0  0  0  0  0  0  0  0  0  0  0
   69.9259   48.8861   52.0744 C   0  0  0  0  0  0  0  0  0  0  0  0
   70.6673   48.4934   50.9249 N   0  0  0  0  0  0  0  0  0  0  0  0
   69.8330   50.1184   52.3015 O   0  0  0  0  0  0  0  0  0  0  0  0
  8  9  1  0
  9 10  2  0
  9 14  1  0
 10 11  1  0
 11 12  2  0
 12 13  1  0
 13  1  1  0
 13 14  2  0
  1  2  1  0
  1  7  2  0
  2  3  2  0
  3  4  1  0
  4  5  2  0
  4  6  1  0
  6 15  1  0
  6  7  1  0
 15 16  1  0
 16 17  2  0
 16 21  1  0
 17 18  1  0
 18 19  2  0
 19 20  1  0
 20 22  1  0
 20 21  2  0
 22 23  1  0
 22 24  2  0
M  END
>  <minimizedAffinity>  (265) 
-8.91815

$$$$
cs_full_output_folder/data/smiles/4469.pdb
     RDKit          3D

 24 26  0  0  0  0  0  0  0  0999 V2000
   70.8885   46.0459   58.1522 C   0  0  0  0  0  0  0  0  0  0  0  0
   71.8846   46.8214   58.6897 C   0  0  0  0  0  0  0  0  0  0  0  0
   71.9180   48.1842   58.4324 C   0  0  0  0  0  0  0  0  0  0  0  0
   70.9491   48.7180   57.6429 C   0  0  0  0  0  0  0  0  0  0  0  0
   69.9063   47.9746   57.0647 C   0  0  0  0  0  0  0  0  0  0  0  0
   69.9244   46.6395   57.3533 C   0  0  0  0  0  0  0  0  0  0  0  0
   70.8385   44.2954   58.4724 S   0  0  0  0  0  0  0  0  0  0  0  0
   69.1059   42.2865   57.5363 C   0  0  0  0  0  0  0  0  0  0  0  0
   70.1058   41.5281   57.5236 O   0  0  0  0  0  0  0  0  0  0  0  0
   69.2913   43.6225   57.9588 N   0  0  0  0  0  0  0  0  0  0  0  0
   67.2416   42.4133   55.9090 C   0  0  0  0  0  0  0  0  0  0  0  0
   67.8032   41.7216   57.1048 C   0  0  0  0  0  0  0  0  0  0  0  0
   68.8771   48.6342   56.2358 C   0  0  0  0  0  0  0  0  0  0  0  0
   69.2190   48.5759   54.8286 C   0  0  0  0  0  0  0  0  0  0  0  0
   70.0843   49.5264   54.3544 N   0  0  0  0  0  0  0  0  0  0  0  0
   70.5187   49.5740   53.1256 N   0  0  0  0  0  0  0  0  0  0  0  0
   70.1453   48.6758   52.2026 C   0  0  0  0  0  0  0  0  0  0  0  0
   70.5588   48.7096   51.0108 O   0  0  0  0  0  0  0  0  0  0  0  0
   69.2758   47.6896   52.5977 C   0  0  0  0  0  0  0  0  0  0  0  0
   68.8408   46.7470   51.7097 C   0  0  0  0  0  0  0  0  0  0  0  0
   67.9592   45.7590   52.0847 C   0  0  0  0  0  0  0  0  0  0  0  0
   67.5143   45.7435   53.4124 C   0  0  0  0  0  0  0  0  0  0  0  0
   67.9377   46.6782   54.3205 C   0  0  0  0  0  0  0  0  0  0  0  0
   68.8174   47.6492   53.9170 C   0  0  0  0  0  0  0  0  0  0  0  0
 11 12  1  0
 12  8  1  0
  8  9  2  0
  8 10  1  0
 10  7  1  0
  7  1  1  0
  1  2  2  0
  1  6  1  0
  2  3  1  0
  3  4  2  0
  4  5  1  0
  5 13  1  0
  5  6  2  0
 13 14  1  0
 14 15  2  0
 14 24  1  0
 15 16  1  0
 16 17  1  0
 17 18  2  0
 17 19  1  0
 19 20  1  0
 19 24  2  0
 20 21  2  0
 21 22  1  0
 22 23  2  0
 23 24  1  0
M  END
>  <minimizedAffinity>  (266) 
-8.91737

$$$$
cs_full_output_folder/data/smiles/2039.pdb
     RDKit          3D

 22 24  0  0  0  0  0  0  0  0999 V2000
   67.3954   44.8811   52.6684 O   0  0  0  0  0  0  0  0  0  0  0  0
   67.8697   45.6140   53.5866 C   0  0  0  0  0  0  0  0  0  0  0  0
   67.6159   45.3148   54.8734 N   0  0  0  0  0  0  0  0  0  0  0  0
   68.0981   46.0630   55.8551 N   0  0  0  0  0  0  0  0  0  0  0  0
   68.8659   47.1607   55.6427 C   0  0  0  0  0  0  0  0  0  0  0  0
   69.1238   47.4660   54.3241 C   0  0  0  0  0  0  0  0  0  0  0  0
   69.8674   48.5726   54.0171 C   0  0  0  0  0  0  0  0  0  0  0  0
   70.1177   48.9134   52.7053 C   0  0  0  0  0  0  0  0  0  0  0  0
   69.6456   48.1739   51.6404 C   0  0  0  0  0  0  0  0  0  0  0  0
   68.8975   47.0590   51.9434 C   0  0  0  0  0  0  0  0  0  0  0  0
   68.6377   46.7078   53.2570 C   0  0  0  0  0  0  0  0  0  0  0  0
   69.3615   47.8727   56.7921 C   0  0  0  0  0  0  0  0  0  0  0  0
   68.6391   49.1639   56.9352 C   0  0  0  0  0  0  0  0  0  0  0  0
   67.4204   49.1909   57.6226 C   0  0  0  0  0  0  0  0  0  0  0  0
   66.7970   50.3955   57.7757 C   0  0  0  0  0  0  0  0  0  0  0  0
   67.3245   51.5383   57.2869 N   0  0  0  0  0  0  0  0  0  0  0  0
   68.4974   51.5303   56.6243 C   0  0  0  0  0  0  0  0  0  0  0  0
   69.1616   50.3289   56.4469 C   0  0  0  0  0  0  0  0  0  0  0  0
   69.1135   52.7554   56.0778 C   0  0  0  0  0  0  0  0  0  0  0  0
   68.6022   53.0188   54.8013 F   0  0  0  0  0  0  0  0  0  0  0  0
   68.8560   53.8861   56.8317 F   0  0  0  0  0  0  0  0  0  0  0  0
   70.4918   52.6330   56.0130 F   0  0  0  0  0  0  0  0  0  0  0  0
  1  2  2  0
  2  3  1  0
  2 11  1  0
  3  4  1  0
  4  5  2  0
  5 12  1  0
  5  6  1  0
 12 13  1  0
 13 14  2  0
 13 18  1  0
 14 15  1  0
 15 16  2  0
 16 17  1  0
 17 19  1  0
 17 18  2  0
 19 20  1  0
 19 21  1  0
 19 22  1  0
  6  7  1  0
  6 11  2  0
  7  8  2  0
  8  9  1  0
  9 10  2  0
 10 11  1  0
M  END
>  <minimizedAffinity>  (267) 
-8.91652

$$$$
cs_full_output_folder/data/smiles/2359.pdb
     RDKit          3D

 25 27  0  0  0  0  0  0  0  0999 V2000
   68.7682   47.6345   56.6663 C   0  0  0  0  0  0  0  0  0  0  0  0
   67.5087   47.6458   56.9663 O   0  0  0  0  0  0  0  0  0  0  0  0
   69.1493   47.9623   55.3138 C   0  0  0  0  0  0  0  0  0  0  0  0
   69.9835   49.0662   55.1057 C   0  0  0  0  0  0  0  0  0  0  0  0
   70.3853   49.4347   53.8406 C   0  0  0  0  0  0  0  0  0  0  0  0
   71.1360   50.4263   53.6428 O   0  0  0  0  0  0  0  0  0  0  0  0
   69.9939   48.7509   52.7603 N   0  0  0  0  0  0  0  0  0  0  0  0
   69.1823   47.6709   52.9258 C   0  0  0  0  0  0  0  0  0  0  0  0
   68.8055   46.9971   51.7834 C   0  0  0  0  0  0  0  0  0  0  0  0
   67.9847   45.8973   51.8934 C   0  0  0  0  0  0  0  0  0  0  0  0
   67.5597   45.4959   53.1370 C   0  0  0  0  0  0  0  0  0  0  0  0
   67.9525   46.1897   54.2779 C   0  0  0  0  0  0  0  0  0  0  0  0
   68.7691   47.2888   54.1985 C   0  0  0  0  0  0  0  0  0  0  0  0
   69.5598   47.2991   57.7294 O   0  0  0  0  0  0  0  0  0  0  0  0
   70.5829   46.3779   57.8022 C   0  0  0  0  0  0  0  0  0  0  0  0
   70.0365   43.9455   57.1656 N   0  0  0  0  0  0  0  0  0  0  0  0
   70.1002   44.9963   58.1025 C   0  0  0  0  0  0  0  0  0  0  0  0
   69.7203   44.7627   59.2883 O   0  0  0  0  0  0  0  0  0  0  0  0
   71.9951   41.9313   58.0617 C   0  0  0  0  0  0  0  0  0  0  0  0
   70.5515   41.6836   58.0204 C   0  0  0  0  0  0  0  0  0  0  0  0
   70.0817   40.5932   58.5573 C   0  0  0  0  0  0  0  0  0  0  0  0
   68.9631   40.0805   58.2181 C   0  0  0  0  0  0  0  0  0  0  0  0
   68.1432   40.6973   57.4131 C   0  0  0  0  0  0  0  0  0  0  0  0
   68.4343   42.1139   57.1059 C   0  0  0  0  0  0  0  0  0  0  0  0
   69.6023   42.6280   57.3906 C   0  0  0  0  0  0  0  0  0  0  0  0
 19 20  1  0
 20 21  2  0
 20 25  1  0
 21 22  2  0
 22 23  2  0
 23 24  1  0
 24 25  2  0
 25 16  1  0
 16 17  1  0
 17 18  2  0
 17 15  1  0
 15 14  1  0
 14  1  1  0
  1  2  2  0
  1  3  1  0
  3  4  2  0
  3 13  1  0
  4  5  1  0
  5  6  2  0
  5  7  1  0
  7  8  1  0
  8  9  1  0
  8 13  2  0
  9 10  2  0
 10 11  1  0
 11 12  2  0
 12 13  1  0
M  END
>  <minimizedAffinity>  (268) 
-8.91507

$$$$
cs_full_output_folder/data/smiles/6363.pdb
     RDKit          3D

 23 25  0  0  0  0  0  0  0  0999 V2000
   69.2705   48.7385   56.1367 C   0  0  0  0  0  0  0  0  0  0  0  0
   69.6381   48.5272   54.7326 C   0  0  0  0  0  0  0  0  0  0  0  0
   70.6077   49.2919   54.1670 N   0  0  0  0  0  0  0  0  0  0  0  0
   70.9640   49.2843   52.9196 N   0  0  0  0  0  0  0  0  0  0  0  0
   70.3417   48.4524   52.0584 C   0  0  0  0  0  0  0  0  0  0  0  0
   70.7017   48.4702   50.8672 O   0  0  0  0  0  0  0  0  0  0  0  0
   69.3261   47.6231   52.5590 C   0  0  0  0  0  0  0  0  0  0  0  0
   68.7298   46.7241   51.6757 C   0  0  0  0  0  0  0  0  0  0  0  0
   67.7558   45.8556   52.1829 C   0  0  0  0  0  0  0  0  0  0  0  0
   67.3678   45.8508   53.4974 C   0  0  0  0  0  0  0  0  0  0  0  0
   67.9907   46.7685   54.3615 C   0  0  0  0  0  0  0  0  0  0  0  0
   68.9580   47.6412   53.8794 C   0  0  0  0  0  0  0  0  0  0  0  0
   70.5930   45.8179   58.2331 C   0  0  0  0  0  0  0  0  0  0  0  0
   71.5195   46.4972   59.0546 C   0  0  0  0  0  0  0  0  0  0  0  0
   71.6550   47.8402   58.8506 C   0  0  0  0  0  0  0  0  0  0  0  0
   70.9465   48.5274   57.9105 C   0  0  0  0  0  0  0  0  0  0  0  0
   69.9989   47.8655   57.0720 C   0  0  0  0  0  0  0  0  0  0  0  0
   69.8839   46.5239   57.2914 C   0  0  0  0  0  0  0  0  0  0  0  0
   70.9724   43.3269   57.7814 N   0  0  0  0  0  0  0  0  0  0  0  0
   70.4090   44.4016   58.5106 C   0  0  0  0  0  0  0  0  0  0  0  0
   69.6773   44.0521   59.4906 O   0  0  0  0  0  0  0  0  0  0  0  0
   71.9560   41.1626   58.5047 C   0  0  0  0  0  0  0  0  0  0  0  0
   70.7107   41.9356   58.1523 C   0  0  0  0  0  0  0  0  0  0  0  0
 22 23  1  0
 23 19  1  0
 19 20  1  0
 20 21  2  0
 20 13  1  0
 13 14  2  0
 13 18  1  0
 14 15  1  0
 15 16  2  0
 16 17  1  0
 17  1  1  0
 17 18  2  0
  1  2  1  0
  2  3  2  0
  2 12  1  0
  3  4  1  0
  4  5  1  0
  5  6  2  0
  5  7  1  0
  7  8  1  0
  7 12  2  0
  8  9  2  0
  9 10  1  0
 10 11  2  0
 11 12  1  0
M  END
>  <minimizedAffinity>  (269) 
-8.91259

$$$$
cs_full_output_folder/data/smiles/5254.pdb
     RDKit          3D

 21 23  0  0  0  0  0  0  0  0999 V2000
   70.3486   49.1439   54.0462 C   0  0  0  0  0  0  0  0  0  0  0  0
   71.4885   49.4106   53.3854 N   0  0  0  0  0  0  0  0  0  0  0  0
   72.0608   50.4715   53.9293 N   0  0  0  0  0  0  0  0  0  0  0  0
   71.3368   50.9475   54.9572 C   0  0  0  0  0  0  0  0  0  0  0  0
   70.2352   50.1128   55.0495 C   0  0  0  0  0  0  0  0  0  0  0  0
   68.2008   46.7593   52.1178 C   0  0  0  0  0  0  0  0  0  0  0  0
   67.7225   45.9339   53.1084 C   0  0  0  0  0  0  0  0  0  0  0  0
   68.1158   46.1737   54.4039 C   0  0  0  0  0  0  0  0  0  0  0  0
   68.9779   47.2234   54.7194 C   0  0  0  0  0  0  0  0  0  0  0  0
   69.4608   48.0534   53.7337 C   0  0  0  0  0  0  0  0  0  0  0  0
   69.0466   47.7899   52.4291 C   0  0  0  0  0  0  0  0  0  0  0  0
   69.5432   48.6371   51.4469 O   0  0  0  0  0  0  0  0  0  0  0  0
   66.7212   45.7110   50.5834 O   0  0  0  0  0  0  0  0  0  0  0  0
   67.7953   46.5082   50.8146 O   0  0  0  0  0  0  0  0  0  0  0  0
   69.1596   50.2099   55.9939 C   0  0  0  0  0  0  0  0  0  0  0  0
   69.0155   49.3465   57.0447 C   0  0  0  0  0  0  0  0  0  0  0  0
   67.9522   49.4762   57.9449 C   0  0  0  0  0  0  0  0  0  0  0  0
   67.0213   50.4757   57.7960 C   0  0  0  0  0  0  0  0  0  0  0  0
   67.1642   51.3446   56.7391 C   0  0  0  0  0  0  0  0  0  0  0  0
   68.1991   51.2167   55.8653 C   0  0  0  0  0  0  0  0  0  0  0  0
   68.3615   52.3216   54.5416 Cl  0  0  0  0  0  0  0  0  0  0  0  0
 13 14  1  0
 14  6  1  0
  6  7  2  0
  6 11  1  0
  7  8  1  0
  8  9  2  0
  9 10  1  0
 10  1  1  0
 10 11  2  0
  1  2  2  0
  1  5  1  0
  2  3  1  0
  3  4  1  0
  4  5  2  0
  5 15  1  0
 15 16  2  0
 15 20  1  0
 16 17  1  0
 17 18  2  0
 18 19  1  0
 19 20  2  0
 20 21  1  0
 11 12  1  0
M  END
>  <minimizedAffinity>  (270) 
-8.91244

$$$$
cs_full_output_folder/data/smiles/3928.pdb
     RDKit          3D

 23 24  0  0  0  0  0  0  0  0999 V2000
   67.7965   43.9090   55.2581 N   0  0  0  0  0  0  0  0  0  0  0  0
   68.1567   45.2500   55.0173 C   0  0  0  0  0  0  0  0  0  0  0  0
   68.4229   45.9348   56.0560 O   0  0  0  0  0  0  0  0  0  0  0  0
   68.2396   45.8721   53.7137 C   0  0  0  0  0  0  0  0  0  0  0  0
   67.4754   45.4638   52.6462 C   0  0  0  0  0  0  0  0  0  0  0  0
   67.5859   46.0914   51.4014 C   0  0  0  0  0  0  0  0  0  0  0  0
   68.4626   47.1335   51.2190 C   0  0  0  0  0  0  0  0  0  0  0  0
   69.2395   47.5562   52.2903 C   0  0  0  0  0  0  0  0  0  0  0  0
   69.1105   46.9149   53.5142 C   0  0  0  0  0  0  0  0  0  0  0  0
   70.1538   48.6308   52.1303 N   0  0  0  0  0  0  0  0  0  0  0  0
   70.1129   49.3133   51.0905 O   0  0  0  0  0  0  0  0  0  0  0  0
   71.0847   48.9563   53.0699 O   0  0  0  0  0  0  0  0  0  0  0  0
   67.6716   41.1713   55.7318 O   0  0  0  0  0  0  0  0  0  0  0  0
   67.6541   41.9205   56.7414 C   0  0  0  0  0  0  0  0  0  0  0  0
   67.7172   43.3149   56.5099 N   0  0  0  0  0  0  0  0  0  0  0  0
   67.5701   41.3053   58.0820 C   0  0  0  0  0  0  0  0  0  0  0  0
   68.6903   40.3757   58.3440 C   0  0  0  0  0  0  0  0  0  0  0  0
   68.4701   39.0557   58.6502 C   0  0  0  0  0  0  0  0  0  0  0  0
   69.5445   38.1991   58.8946 C   0  0  0  0  0  0  0  0  0  0  0  0
   70.8384   38.6557   58.8321 C   0  0  0  0  0  0  0  0  0  0  0  0
   71.8804   37.7522   59.0859 O   0  0  0  0  0  0  0  0  0  0  0  0
   71.0594   39.9673   58.5277 C   0  0  0  0  0  0  0  0  0  0  0  0
   69.9863   40.8243   58.2845 C   0  0  0  0  0  0  0  0  0  0  0  0
 13 14  2  0
 14 16  1  0
 14 15  1  0
 16 17  1  0
 17 18  2  0
 17 23  1  0
 18 19  1  0
 19 20  2  0
 20 21  1  0
 20 22  1  0
 22 23  2  0
 15  1  1  0
  1  2  1  0
  2  3  2  0
  2  4  1  0
  4  5  2  0
  4  9  1  0
  5  6  1  0
  6  7  2  0
  7  8  1  0
  8 10  1  0
  8  9  2  0
 10 11  2  0
 10 12  1  0
M  CHG  2  10   1  12  -1
M  END
>  <minimizedAffinity>  (271) 
-8.90873

$$$$
cs_full_output_folder/data/smiles/275.pdb
     RDKit          3D

 23 25  0  0  0  0  0  0  0  0999 V2000
   68.8187   43.4690   56.5618 C   0  0  0  0  0  0  0  0  0  0  0  0
   69.9418   44.0283   57.0069 N   0  0  0  0  0  0  0  0  0  0  0  0
   70.8885   43.2873   57.6208 C   0  0  0  0  0  0  0  0  0  0  0  0
   72.0482   43.8959   58.0749 C   0  0  0  0  0  0  0  0  0  0  0  0
   73.0560   43.1886   58.7126 C   0  0  0  0  0  0  0  0  0  0  0  0
   72.8874   41.8305   58.8967 C   0  0  0  0  0  0  0  0  0  0  0  0
   71.7365   41.1941   58.4523 C   0  0  0  0  0  0  0  0  0  0  0  0
   70.7494   41.9287   57.8198 C   0  0  0  0  0  0  0  0  0  0  0  0
   69.6129   41.3644   57.3682 N   0  0  0  0  0  0  0  0  0  0  0  0
   68.6640   42.0984   56.7544 C   0  0  0  0  0  0  0  0  0  0  0  0
   67.4294   41.4664   56.2668 C   0  0  0  0  0  0  0  0  0  0  0  0
   67.7090   40.3059   55.5782 O   0  0  0  0  0  0  0  0  0  0  0  0
   67.8047   44.1724   55.9221 O   0  0  0  0  0  0  0  0  0  0  0  0
   68.7619   47.5697   53.6850 C   0  0  0  0  0  0  0  0  0  0  0  0
   68.9721   47.5751   55.0438 C   0  0  0  0  0  0  0  0  0  0  0  0
   68.6568   46.4453   55.8089 C   0  0  0  0  0  0  0  0  0  0  0  0
   68.1312   45.3121   55.2041 C   0  0  0  0  0  0  0  0  0  0  0  0
   67.9368   45.3468   53.8526 C   0  0  0  0  0  0  0  0  0  0  0  0
   68.2421   46.4525   53.0838 C   0  0  0  0  0  0  0  0  0  0  0  0
   69.0836   48.7450   52.8410 C   0  0  0  0  0  0  0  0  0  0  0  0
   70.3699   47.8848   51.0279 O   0  0  0  0  0  0  0  0  0  0  0  0
   70.3489   48.4820   52.1178 C   0  0  0  0  0  0  0  0  0  0  0  0
   71.5525   48.9108   52.6629 O   0  0  0  0  0  0  0  0  0  0  0  0
 21 22  2  0
 22 23  1  0
 22 20  1  0
 20 14  1  0
 14 15  2  0
 14 19  1  0
 15 16  1  0
 16 17  2  0
 17 13  1  0
 17 18  1  0
 13  1  1  0
  1  2  2  0
  1 10  1  0
  2  3  1  0
  3  4  2  0
  3  8  1  0
  4  5  1  0
  5  6  2  0
  6  7  1  0
  7  8  2  0
  8  9  1  0
  9 10  2  0
 10 11  1  0
 11 12  1  0
 18 19  2  0
M  END
>  <minimizedAffinity>  (272) 
-8.90829

$$$$
cs_full_output_folder/data/smiles/4628.pdb
     RDKit          3D

 25 27  0  0  0  0  0  0  0  0999 V2000
   67.5094   43.3436   55.9309 N   0  0  0  0  0  0  0  0  0  0  0  0
   67.7292   42.2471   56.4250 C   0  0  0  0  0  0  0  0  0  0  0  0
   68.8827   41.7027   57.1176 C   0  0  0  0  0  0  0  0  0  0  0  0
   70.0917   42.4177   57.1502 C   0  0  0  0  0  0  0  0  0  0  0  0
   71.2150   41.9694   57.7808 C   0  0  0  0  0  0  0  0  0  0  0  0
   72.3986   42.7133   57.7892 C   0  0  0  0  0  0  0  0  0  0  0  0
   73.5329   42.2623   58.4243 C   0  0  0  0  0  0  0  0  0  0  0  0
   73.5339   41.0525   59.0769 C   0  0  0  0  0  0  0  0  0  0  0  0
   72.3567   40.3212   59.0648 C   0  0  0  0  0  0  0  0  0  0  0  0
   71.2104   40.7605   58.4315 C   0  0  0  0  0  0  0  0  0  0  0  0
   70.0433   40.0277   58.4234 C   0  0  0  0  0  0  0  0  0  0  0  0
   68.9071   40.5049   57.7723 C   0  0  0  0  0  0  0  0  0  0  0  0
   67.7911   39.6959   57.8235 O   0  0  0  0  0  0  0  0  0  0  0  0
   67.3485   44.7473   53.5576 O   0  0  0  0  0  0  0  0  0  0  0  0
   67.9827   45.2926   54.5046 C   0  0  0  0  0  0  0  0  0  0  0  0
   68.0600   44.5617   55.7228 N   0  0  0  0  0  0  0  0  0  0  0  0
   68.5803   46.5851   54.3211 C   0  0  0  0  0  0  0  0  0  0  0  0
   68.7489   47.4370   55.4232 C   0  0  0  0  0  0  0  0  0  0  0  0
   69.3027   48.6762   55.3438 C   0  0  0  0  0  0  0  0  0  0  0  0
   69.7327   49.1453   54.1224 C   0  0  0  0  0  0  0  0  0  0  0  0
   69.5933   48.3537   53.0034 C   0  0  0  0  0  0  0  0  0  0  0  0
   69.0133   47.0740   53.1222 C   0  0  0  0  0  0  0  0  0  0  0  0
   70.0304   48.8237   51.7417 N   0  0  0  0  0  0  0  0  0  0  0  0
   70.5470   48.0650   50.9125 O   0  0  0  0  0  0  0  0  0  0  0  0
   69.8802   50.1416   51.4305 O   0  0  0  0  0  0  0  0  0  0  0  0
 14 15  2  0
 15 16  1  0
 15 17  1  0
 16  1  1  0
  1  2  2  0
  2  3  1  0
  3  4  2  0
  3 12  1  0
  4  5  1  0
  5  6  2  0
  5 10  1  0
  6  7  1  0
  7  8  2  0
  8  9  1  0
  9 10  2  0
 10 11  1  0
 11 12  2  0
 12 13  1  0
 17 18  2  0
 17 22  1  0
 18 19  1  0
 19 20  2  0
 20 21  1  0
 21 23  1  0
 21 22  2  0
 23 24  2  0
 23 25  1  0
M  CHG  2  23   1  25  -1
M  END
>  <minimizedAffinity>  (273) 
-8.90246

$$$$
cs_full_output_folder/data/smiles/1827.pdb
     RDKit          3D

 24 27  0  0  0  0  0  0  0  0999 V2000
   70.1436   45.5025   57.5123 C   0  0  0  0  0  0  0  0  0  0  0  0
   70.9460   46.1203   58.4803 C   0  0  0  0  0  0  0  0  0  0  0  0
   71.1123   47.4731   58.5480 C   0  0  0  0  0  0  0  0  0  0  0  0
   71.8907   48.0762   59.4879 F   0  0  0  0  0  0  0  0  0  0  0  0
   70.4371   48.2515   57.5916 C   0  0  0  0  0  0  0  0  0  0  0  0
   70.5957   49.4764   57.6705 O   0  0  0  0  0  0  0  0  0  0  0  0
   69.6677   47.7036   56.6560 N   0  0  0  0  0  0  0  0  0  0  0  0
   69.5312   46.3288   56.6303 C   0  0  0  0  0  0  0  0  0  0  0  0
   71.0572   43.3623   57.8158 O   0  0  0  0  0  0  0  0  0  0  0  0
   70.0365   44.0633   57.5303 C   0  0  0  0  0  0  0  0  0  0  0  0
   68.8182   43.4027   57.2386 N   0  0  0  0  0  0  0  0  0  0  0  0
   68.6977   41.9533   57.2539 C   0  0  0  0  0  0  0  0  0  0  0  0
   67.5108   41.2862   57.8214 C   0  0  0  0  0  0  0  0  0  0  0  0
   67.7048   41.3174   56.3285 C   0  0  0  0  0  0  0  0  0  0  0  0
   68.9667   48.4287   55.6217 C   0  0  0  0  0  0  0  0  0  0  0  0
   68.7575   47.6747   54.3714 C   0  0  0  0  0  0  0  0  0  0  0  0
   67.8730   46.5935   54.4381 C   0  0  0  0  0  0  0  0  0  0  0  0
   67.6886   45.8090   53.3414 C   0  0  0  0  0  0  0  0  0  0  0  0
   68.3567   46.0678   52.1738 C   0  0  0  0  0  0  0  0  0  0  0  0
   69.2231   47.1307   52.1082 C   0  0  0  0  0  0  0  0  0  0  0  0
   69.9630   47.5960   51.0887 N   0  0  0  0  0  0  0  0  0  0  0  0
   70.6025   48.6507   51.5186 N   0  0  0  0  0  0  0  0  0  0  0  0
   70.3112   48.9066   52.8029 C   0  0  0  0  0  0  0  0  0  0  0  0
   69.4213   47.9349   53.2101 C   0  0  0  0  0  0  0  0  0  0  0  0
  9 10  2  0
 10 11  1  0
 10  1  1  0
 11 12  1  0
 12 13  1  0
 12 14  1  0
 13 14  1  0
  1  2  1  0
  1  8  2  0
  2  3  2  0
  3  4  1  0
  3  5  1  0
  5  6  2  0
  5  7  1  0
  7 15  1  0
  7  8  1  0
 15 16  1  0
 16 17  2  0
 16 24  1  0
 17 18  1  0
 18 19  2  0
 19 20  1  0
 20 21  1  0
 20 24  2  0
 21 22  1  0
 22 23  2  0
 23 24  1  0
M  END
>  <minimizedAffinity>  (274) 
-8.90107

$$$$
cs_full_output_folder/data/smiles/8426.pdb
     RDKit          3D

 24 26  0  0  0  0  0  0  0  0999 V2000
   70.4680   45.4928   57.7494 C   0  0  0  0  0  0  0  0  0  0  0  0
   71.4475   46.1486   58.5182 C   0  0  0  0  0  0  0  0  0  0  0  0
   71.5757   47.5189   58.5099 C   0  0  0  0  0  0  0  0  0  0  0  0
   70.7575   48.3190   57.7549 C   0  0  0  0  0  0  0  0  0  0  0  0
   69.7751   47.6793   56.9826 C   0  0  0  0  0  0  0  0  0  0  0  0
   69.6578   46.3097   56.9997 C   0  0  0  0  0  0  0  0  0  0  0  0
   69.8313   43.2809   58.8153 C   0  0  0  0  0  0  0  0  0  0  0  0
   69.2997   43.8294   59.7866 O   0  0  0  0  0  0  0  0  0  0  0  0
   70.3968   44.1052   57.8207 N   0  0  0  0  0  0  0  0  0  0  0  0
   68.8828   41.3559   57.6453 C   0  0  0  0  0  0  0  0  0  0  0  0
   69.8666   41.7716   58.7081 C   0  0  0  0  0  0  0  0  0  0  0  0
   71.2364   41.3051   58.2913 C   0  0  0  0  0  0  0  0  0  0  0  0
   68.9017   48.5688   56.1743 C   0  0  0  0  0  0  0  0  0  0  0  0
   69.2307   48.5712   54.7380 C   0  0  0  0  0  0  0  0  0  0  0  0
   70.1122   49.5239   54.3033 N   0  0  0  0  0  0  0  0  0  0  0  0
   70.5343   49.5595   53.0477 N   0  0  0  0  0  0  0  0  0  0  0  0
   70.1413   48.6785   52.0982 C   0  0  0  0  0  0  0  0  0  0  0  0
   70.5612   48.7367   50.9103 O   0  0  0  0  0  0  0  0  0  0  0  0
   69.2488   47.6950   52.4848 C   0  0  0  0  0  0  0  0  0  0  0  0
   68.7849   46.7809   51.5812 C   0  0  0  0  0  0  0  0  0  0  0  0
   67.8737   45.8162   51.9573 C   0  0  0  0  0  0  0  0  0  0  0  0
   67.4300   45.7833   53.2722 C   0  0  0  0  0  0  0  0  0  0  0  0
   67.9179   46.7176   54.1575 C   0  0  0  0  0  0  0  0  0  0  0  0
   68.8250   47.6816   53.8005 C   0  0  0  0  0  0  0  0  0  0  0  0
 10 11  1  0
 11 12  1  0
 11  7  1  0
  7  8  2  0
  7  9  1  0
  9  1  1  0
  1  2  2  0
  1  6  1  0
  2  3  1  0
  3  4  2  0
  4  5  1  0
  5 13  1  0
  5  6  2  0
 13 14  1  0
 14 15  2  0
 14 24  1  0
 15 16  1  0
 16 17  1  0
 17 18  2  0
 17 19  1  0
 19 20  1  0
 19 24  2  0
 20 21  2  0
 21 22  1  0
 22 23  2  0
 23 24  1  0
M  END
>  <minimizedAffinity>  (275) 
-8.89915

$$$$
cs_full_output_folder/data/smiles/8889.pdb
     RDKit          3D

 26 29  0  0  0  0  0  0  0  0999 V2000
   71.7325   47.0699   58.9829 C   0  0  0  0  0  0  0  0  0  0  0  0
   71.8817   45.7150   58.8649 C   0  0  0  0  0  0  0  0  0  0  0  0
   71.0474   45.0129   58.0409 C   0  0  0  0  0  0  0  0  0  0  0  0
   70.0337   45.6437   57.3047 C   0  0  0  0  0  0  0  0  0  0  0  0
   69.8725   46.9942   57.4113 C   0  0  0  0  0  0  0  0  0  0  0  0
   70.7317   47.6763   58.2527 C   0  0  0  0  0  0  0  0  0  0  0  0
   72.3260   47.9648   61.0861 O   0  0  0  0  0  0  0  0  0  0  0  0
   72.5994   47.9019   59.8459 C   0  0  0  0  0  0  0  0  0  0  0  0
   73.7064   48.6221   59.3633 N   0  0  0  0  0  0  0  0  0  0  0  0
   74.5043   49.4038   60.2744 C   0  0  0  0  0  0  0  0  0  0  0  0
   74.6277   50.7870   59.6990 C   0  0  0  0  0  0  0  0  0  0  0  0
   75.3717   50.6325   58.5046 O   0  0  0  0  0  0  0  0  0  0  0  0
   74.6180   49.9769   57.5671 C   0  0  0  0  0  0  0  0  0  0  0  0
   74.1097   48.6349   57.9750 C   0  0  0  0  0  0  0  0  0  0  0  0
   68.8445   47.7388   56.6594 C   0  0  0  0  0  0  0  0  0  0  0  0
   69.2569   48.0134   55.2887 C   0  0  0  0  0  0  0  0  0  0  0  0
   70.1924   48.9913   55.0748 N   0  0  0  0  0  0  0  0  0  0  0  0
   70.6693   49.2881   53.8919 N   0  0  0  0  0  0  0  0  0  0  0  0
   70.2754   48.6483   52.7673 C   0  0  0  0  0  0  0  0  0  0  0  0
   70.7764   48.9840   51.6623 O   0  0  0  0  0  0  0  0  0  0  0  0
   69.3376   47.6550   52.9037 C   0  0  0  0  0  0  0  0  0  0  0  0
   68.9178   47.0035   51.7726 C   0  0  0  0  0  0  0  0  0  0  0  0
   67.9610   46.0104   51.9170 C   0  0  0  0  0  0  0  0  0  0  0  0
   67.4661   45.7076   53.1556 C   0  0  0  0  0  0  0  0  0  0  0  0
   67.8972   46.3701   54.2863 C   0  0  0  0  0  0  0  0  0  0  0  0
   68.8360   47.3474   54.1693 C   0  0  0  0  0  0  0  0  0  0  0  0
  7  8  2  0
  8  1  1  0
  8  9  1  0
  1  2  2  0
  1  6  1  0
  2  3  1  0
  3  4  2  0
  4  5  1  0
  5 15  1  0
  5  6  2  0
 15 16  1  0
 16 17  2  0
 16 26  1  0
 17 18  1  0
 18 19  1  0
 19 20  2  0
 19 21  1  0
 21 22  1  0
 21 26  2  0
 22 23  2  0
 23 24  1  0
 24 25  2  0
 25 26  1  0
  9 10  1  0
  9 14  1  0
 10 11  1  0
 11 12  1  0
 12 13  1  0
 13 14  1  0
M  END
>  <minimizedAffinity>  (276) 
-8.89654

$$$$
cs_full_output_folder/data/smiles/331.pdb
     RDKit          3D

 26 29  0  0  0  0  0  0  0  0999 V2000
   68.8905   45.8721   56.2118 C   0  0  0  0  0  0  0  0  0  0  0  0
   69.8225   46.3343   57.1459 C   0  0  0  0  0  0  0  0  0  0  0  0
   70.4717   45.4938   58.0214 C   0  0  0  0  0  0  0  0  0  0  0  0
   70.2191   44.1267   58.0055 C   0  0  0  0  0  0  0  0  0  0  0  0
   69.2973   43.6964   57.0762 C   0  0  0  0  0  0  0  0  0  0  0  0
   68.6790   44.5449   56.2349 N   0  0  0  0  0  0  0  0  0  0  0  0
   67.3433   47.5489   55.8054 O   0  0  0  0  0  0  0  0  0  0  0  0
   68.2189   46.7922   55.3078 C   0  0  0  0  0  0  0  0  0  0  0  0
   68.4799   46.9015   53.8906 C   0  0  0  0  0  0  0  0  0  0  0  0
   69.3924   47.8005   53.3642 C   0  0  0  0  0  0  0  0  0  0  0  0
   69.6298   47.8831   52.0093 C   0  0  0  0  0  0  0  0  0  0  0  0
   68.9772   47.0870   51.1420 N   0  0  0  0  0  0  0  0  0  0  0  0
   68.0793   46.1991   51.6386 C   0  0  0  0  0  0  0  0  0  0  0  0
   67.8275   46.1015   52.9960 C   0  0  0  0  0  0  0  0  0  0  0  0
   70.9028   43.1955   58.9376 C   0  0  0  0  0  0  0  0  0  0  0  0
   70.0894   43.0655   60.1880 C   0  0  0  0  0  0  0  0  0  0  0  0
   68.7985   43.4651   60.2237 N   0  0  0  0  0  0  0  0  0  0  0  0
   68.0629   43.3675   61.3196 N   0  0  0  0  0  0  0  0  0  0  0  0
   68.5520   42.8701   62.4563 C   0  0  0  0  0  0  0  0  0  0  0  0
   67.9115   42.7529   63.5197 O   0  0  0  0  0  0  0  0  0  0  0  0
   69.8760   42.4434   62.4744 C   0  0  0  0  0  0  0  0  0  0  0  0
   70.6350   42.5460   61.3345 C   0  0  0  0  0  0  0  0  0  0  0  0
   72.0284   42.0908   61.3542 C   0  0  0  0  0  0  0  0  0  0  0  0
   72.7413   42.2493   62.6521 C   0  0  0  0  0  0  0  0  0  0  0  0
   71.8881   42.3655   63.8596 C   0  0  0  0  0  0  0  0  0  0  0  0
   70.4915   41.8784   63.6931 C   0  0  0  0  0  0  0  0  0  0  0  0
  7  8  2  0
  8  9  1  0
  8  1  1  0
  9 10  2  0
  9 14  1  0
 10 11  1  0
 11 12  2  0
 12 13  1  0
 13 14  2  0
  1  2  2  0
  1  6  1  0
  2  3  1  0
  3  4  2  0
  4 15  1  0
  4  5  1  0
 15 16  1  0
 16 17  2  0
 16 22  1  0
 17 18  1  0
 18 19  1  0
 19 20  2  0
 19 21  1  0
 21 22  2  0
 21 26  1  0
 22 23  1  0
 23 24  1  0
 24 25  1  0
 25 26  1  0
  5  6  2  0
M  END
>  <minimizedAffinity>  (277) 
-8.89652

$$$$
cs_full_output_folder/data/smiles/6464.pdb
     RDKit          3D

 24 26  0  0  0  0  0  0  0  0999 V2000
   69.0634   46.3542   56.9223 N   0  0  0  0  0  0  0  0  0  0  0  0
   68.6297   47.2195   56.1163 C   0  0  0  0  0  0  0  0  0  0  0  0
   68.1620   48.4646   56.7076 C   0  0  0  0  0  0  0  0  0  0  0  0
   68.7575   49.6656   56.2786 C   0  0  0  0  0  0  0  0  0  0  0  0
   68.3388   50.9085   56.6775 C   0  0  0  0  0  0  0  0  0  0  0  0
   67.2807   51.0531   57.5460 C   0  0  0  0  0  0  0  0  0  0  0  0
   66.6792   49.9101   57.9789 C   0  0  0  0  0  0  0  0  0  0  0  0
   67.1115   48.6384   57.5653 C   0  0  0  0  0  0  0  0  0  0  0  0
   68.6411   46.9793   54.6981 C   0  0  0  0  0  0  0  0  0  0  0  0
   67.9143   45.9837   54.0867 C   0  0  0  0  0  0  0  0  0  0  0  0
   67.8844   45.9082   52.7061 C   0  0  0  0  0  0  0  0  0  0  0  0
   68.5483   46.7745   51.8766 C   0  0  0  0  0  0  0  0  0  0  0  0
   69.2763   47.7669   52.5268 C   0  0  0  0  0  0  0  0  0  0  0  0
   69.3148   47.8579   53.8849 C   0  0  0  0  0  0  0  0  0  0  0  0
   69.9599   45.0799   59.2142 O   0  0  0  0  0  0  0  0  0  0  0  0
   70.0480   44.4458   58.1352 C   0  0  0  0  0  0  0  0  0  0  0  0
   69.5752   45.1336   56.9644 N   0  0  0  0  0  0  0  0  0  0  0  0
   70.6042   43.0751   58.0838 C   0  0  0  0  0  0  0  0  0  0  0  0
   69.5235   42.1365   58.2074 N   0  0  0  0  0  0  0  0  0  0  0  0
   68.7169   42.0637   56.9966 C   0  0  0  0  0  0  0  0  0  0  0  0
   67.8858   40.8039   57.1161 C   0  0  0  0  0  0  0  0  0  0  0  0
   67.7311   40.3942   58.5772 C   0  0  0  0  0  0  0  0  0  0  0  0
   69.0966   40.0249   59.1771 C   0  0  0  0  0  0  0  0  0  0  0  0
   70.0978   40.7782   58.3275 C   0  0  0  0  0  0  0  0  0  0  0  0
 15 16  2  0
 16 18  1  0
 16 17  1  0
 18 19  1  0
 19 20  1  0
 19 24  1  0
 20 21  1  0
 21 22  1  0
 22 23  1  0
 23 24  1  0
 17  1  1  0
  1  2  2  0
  2  3  1  0
  2  9  1  0
  3  4  2  0
  3  8  1  0
  4  5  1  0
  5  6  2  0
  6  7  1  0
  7  8  2  0
  9 10  2  0
  9 14  1  0
 10 11  1  0
 11 12  2  0
 12 13  1  0
 13 14  2  0
M  CHG  1  19   1
M  END
>  <minimizedAffinity>  (278) 
-8.89558

$$$$
cs_full_output_folder/data/smiles/4742.pdb
     RDKit          3D

 24 25  0  0  0  0  0  0  0  0999 V2000
   69.9298   43.7168   58.2577 C   0  0  0  0  0  0  0  0  0  0  0  0
   69.6610   44.3241   59.3153 O   0  0  0  0  0  0  0  0  0  0  0  0
   69.7559   44.3992   57.0498 N   0  0  0  0  0  0  0  0  0  0  0  0
   71.1968   39.6077   58.4624 C   0  0  0  0  0  0  0  0  0  0  0  0
   72.1219   40.6201   58.3802 C   0  0  0  0  0  0  0  0  0  0  0  0
   71.7265   41.9696   58.3123 C   0  0  0  0  0  0  0  0  0  0  0  0
   70.4124   42.3180   58.3254 C   0  0  0  0  0  0  0  0  0  0  0  0
   69.4815   41.2885   58.4095 C   0  0  0  0  0  0  0  0  0  0  0  0
   69.8656   39.9666   58.4765 C   0  0  0  0  0  0  0  0  0  0  0  0
   72.9786   38.0512   59.2388 C   0  0  0  0  0  0  0  0  0  0  0  0
   71.6666   38.2182   58.5302 C   0  0  0  0  0  0  0  0  0  0  0  0
   70.6273   37.4351   59.3346 C   0  0  0  0  0  0  0  0  0  0  0  0
   69.3160   45.6982   56.8083 C   0  0  0  0  0  0  0  0  0  0  0  0
   70.0525   46.8378   57.8473 S   0  0  0  0  0  0  0  0  0  0  0  0
   68.4270   46.2761   55.9241 N   0  0  0  0  0  0  0  0  0  0  0  0
   68.4880   46.5322   54.5374 C   0  0  0  0  0  0  0  0  0  0  0  0
   67.7442   45.7886   53.6387 C   0  0  0  0  0  0  0  0  0  0  0  0
   67.8342   46.0104   52.2903 C   0  0  0  0  0  0  0  0  0  0  0  0
   68.6673   46.9823   51.7902 C   0  0  0  0  0  0  0  0  0  0  0  0
   69.4265   47.7454   52.6683 C   0  0  0  0  0  0  0  0  0  0  0  0
   69.3354   47.5207   54.0219 C   0  0  0  0  0  0  0  0  0  0  0  0
   70.2970   48.7607   52.1425 N   0  0  0  0  0  0  0  0  0  0  0  0
   70.0232   49.2642   51.0493 O   0  0  0  0  0  0  0  0  0  0  0  0
   71.3898   49.1494   52.8375 O   0  0  0  0  0  0  0  0  0  0  0  0
 10 11  1  0
 11 12  1  0
 11  4  1  0
  4  5  2  0
  4  9  1  0
  5  6  1  0
  6  7  2  0
  7  1  1  0
  7  8  1  0
  1  2  2  0
  1  3  1  0
  3 13  1  0
 13 14  2  0
 13 15  1  0
 15 16  1  0
 16 17  2  0
 16 21  1  0
 17 18  1  0
 18 19  2  0
 19 20  1  0
 20 22  1  0
 20 21  2  0
 22 23  2  0
 22 24  1  0
  8  9  2  0
M  CHG  2  22   1  24  -1
M  END
>  <minimizedAffinity>  (279) 
-8.89508

$$$$
cs_full_output_folder/data/smiles/1940.pdb
     RDKit          3D

 26 29  0  0  0  0  0  0  0  0999 V2000
   73.9674   50.2249   56.4550 C   0  0  0  0  0  0  0  0  0  0  0  0
   73.2235   49.4246   57.2973 C   0  0  0  0  0  0  0  0  0  0  0  0
   71.8589   49.2781   57.1615 C   0  0  0  0  0  0  0  0  0  0  0  0
   71.1747   49.9523   56.1429 C   0  0  0  0  0  0  0  0  0  0  0  0
   71.9552   50.7343   55.3312 C   0  0  0  0  0  0  0  0  0  0  0  0
   73.2966   50.8670   55.4789 N   0  0  0  0  0  0  0  0  0  0  0  0
   75.8679   49.2730   54.6744 O   0  0  0  0  0  0  0  0  0  0  0  0
   76.3345   49.8647   55.6868 C   0  0  0  0  0  0  0  0  0  0  0  0
   75.3740   50.3629   56.6153 N   0  0  0  0  0  0  0  0  0  0  0  0
   77.7681   50.0254   55.8895 C   0  0  0  0  0  0  0  0  0  0  0  0
   78.3681   51.0241   56.5070 C   0  0  0  0  0  0  0  0  0  0  0  0
   79.8271   50.7825   56.4822 C   0  0  0  0  0  0  0  0  0  0  0  0
   80.0814   49.6547   55.8573 C   0  0  0  0  0  0  0  0  0  0  0  0
   78.8075   49.0719   55.4239 C   0  0  0  0  0  0  0  0  0  0  0  0
   69.7197   49.8540   55.9820 C   0  0  0  0  0  0  0  0  0  0  0  0
   69.2086   48.5132   55.6351 C   0  0  0  0  0  0  0  0  0  0  0  0
   68.7483   47.7181   56.6528 N   0  0  0  0  0  0  0  0  0  0  0  0
   68.2697   46.5158   56.4604 N   0  0  0  0  0  0  0  0  0  0  0  0
   68.1927   45.9683   55.2454 C   0  0  0  0  0  0  0  0  0  0  0  0
   67.7298   44.8070   55.0617 O   0  0  0  0  0  0  0  0  0  0  0  0
   68.6307   46.6962   54.1621 C   0  0  0  0  0  0  0  0  0  0  0  0
   69.1377   47.9632   54.3693 C   0  0  0  0  0  0  0  0  0  0  0  0
   69.6735   48.7383   53.2593 C   0  0  0  0  0  0  0  0  0  0  0  0
   69.3516   48.2233   51.9023 C   0  0  0  0  0  0  0  0  0  0  0  0
   68.8236   46.8734   51.7933 C   0  0  0  0  0  0  0  0  0  0  0  0
   68.4825   46.1512   52.8186 C   0  0  0  0  0  0  0  0  0  0  0  0
  7  8  2  0
  8  9  1  0
  8 10  1  0
  9  1  1  0
  1  2  2  0
  1  6  1  0
  2  3  1  0
  3  4  2  0
  4 15  1  0
  4  5  1  0
 15 16  1  0
 16 17  2  0
 16 22  1  0
 17 18  1  0
 18 19  1  0
 19 20  2  0
 19 21  1  0
 21 22  2  0
 21 26  1  0
 22 23  1  0
 23 24  1  0
 24 25  1  0
 25 26  2  0
  5  6  2  0
 10 11  2  0
 10 14  1  0
 11 12  1  0
 12 13  2  0
 13 14  1  0
M  END
>  <minimizedAffinity>  (280) 
-8.89486

$$$$
cs_full_output_folder/data/smiles/1546.pdb
     RDKit          3D

 25 27  0  0  0  0  0  0  0  0999 V2000
   68.4183   44.2529   56.1587 N   0  0  0  0  0  0  0  0  0  0  0  0
   68.2342   42.8724   56.4300 C   0  0  0  0  0  0  0  0  0  0  0  0
   67.3949   42.2875   55.6528 O   0  0  0  0  0  0  0  0  0  0  0  0
   67.7135   44.8573   55.1187 N   0  0  0  0  0  0  0  0  0  0  0  0
   69.3577   48.0329   52.7930 C   0  0  0  0  0  0  0  0  0  0  0  0
   69.4065   48.0492   54.1707 C   0  0  0  0  0  0  0  0  0  0  0  0
   68.8661   47.0117   54.9288 C   0  0  0  0  0  0  0  0  0  0  0  0
   68.2548   45.9174   54.3391 C   0  0  0  0  0  0  0  0  0  0  0  0
   68.2131   45.9153   52.9576 C   0  0  0  0  0  0  0  0  0  0  0  0
   68.7476   46.9419   52.2079 C   0  0  0  0  0  0  0  0  0  0  0  0
   69.8277   50.4012   52.4331 N   0  0  0  0  0  0  0  0  0  0  0  0
   69.9082   49.0912   52.0047 N   0  0  0  0  0  0  0  0  0  0  0  0
   70.4763   48.8590   50.9223 O   0  0  0  0  0  0  0  0  0  0  0  0
   68.9049   42.1024   57.4854 C   0  0  2  0  0  0  0  0  0  0  0  0
   68.0297   41.2336   58.3015 C   0  0  0  0  0  0  0  0  0  0  0  0
   66.7392   41.3941   58.7519 C   0  0  0  0  0  0  0  0  0  0  0  0
   66.3515   40.3162   59.4920 N   0  0  0  0  0  0  0  0  0  0  0  0
   67.3595   39.4517   59.5360 C   0  0  0  0  0  0  0  0  0  0  0  0
   67.5334   38.2026   60.1349 C   0  0  0  0  0  0  0  0  0  0  0  0
   68.7142   37.5346   60.0022 C   0  0  0  0  0  0  0  0  0  0  0  0
   69.7418   38.0674   59.2880 C   0  0  0  0  0  0  0  0  0  0  0  0
   69.5842   39.2967   58.6934 C   0  0  0  0  0  0  0  0  0  0  0  0
   68.3904   39.9755   58.8260 C   0  0  0  0  0  0  0  0  0  0  0  0
   69.7868   42.9451   58.3321 C   0  0  0  0  0  0  0  0  0  0  0  0
   69.3093   43.5629   59.2386 O   0  0  0  0  0  0  0  0  0  0  0  0
 11 12  1  0
 12 13  2  0
 12  5  1  0
  5  6  2  0
  5 10  1  0
  6  7  1  0
  7  8  2  0
  8  4  1  0
  8  9  1  0
  4  1  1  0
  1  2  1  0
  2  3  2  0
  2 14  1  0
 14 24  1  1
 14 15  1  0
 24 25  2  0
 15 16  2  0
 15 23  1  0
 16 17  1  0
 17 18  1  0
 18 19  1  0
 18 23  2  0
 19 20  2  0
 20 21  1  0
 21 22  2  0
 22 23  1  0
  9 10  2  0
M  CHG  1  12   1
M  END
>  <minimizedAffinity>  (281) 
-8.89253

$$$$
cs_full_output_folder/data/smiles/8400.pdb
     RDKit          3D

 25 27  0  0  0  0  0  0  0  0999 V2000
   69.8487   45.0316   57.4010 N   0  0  0  0  0  0  0  0  0  0  0  0
   69.3365   43.7451   57.1616 C   0  0  0  0  0  0  0  0  0  0  0  0
   68.1949   43.6226   56.6720 O   0  0  0  0  0  0  0  0  0  0  0  0
   70.1934   42.5912   57.5013 C   0  0  0  0  0  0  0  0  0  0  0  0
   69.7565   41.3252   57.8757 C   0  0  0  0  0  0  0  0  0  0  0  0
   70.8308   40.5225   58.1545 C   0  0  0  0  0  0  0  0  0  0  0  0
   71.9105   41.2991   57.9486 N   0  0  0  0  0  0  0  0  0  0  0  0
   71.5268   42.5201   57.5628 N   0  0  0  0  0  0  0  0  0  0  0  0
   70.8944   39.1428   58.6104 C   0  0  0  0  0  0  0  0  0  0  0  0
   70.0066   38.6185   59.5240 C   0  0  0  0  0  0  0  0  0  0  0  0
   70.0493   37.2842   59.9500 C   0  0  0  0  0  0  0  0  0  0  0  0
   71.0058   36.4357   59.4491 C   0  0  0  0  0  0  0  0  0  0  0  0
   71.0518   35.0061   59.9002 C   0  0  0  0  0  0  0  0  0  0  0  0
   71.9039   36.9488   58.5290 C   0  0  0  0  0  0  0  0  0  0  0  0
   71.8533   38.2668   58.1165 C   0  0  0  0  0  0  0  0  0  0  0  0
   67.9523   47.8800   56.3634 C   0  0  0  0  0  0  0  0  0  0  0  0
   68.9203   46.3909   55.8358 C   0  0  0  0  0  0  0  0  0  0  0  0
   69.0691   46.1930   57.0322 N   0  0  0  0  0  0  0  0  0  0  0  0
   68.7490   46.6167   54.4698 C   0  0  0  0  0  0  0  0  0  0  0  0
   67.8928   45.6212   53.8708 C   0  0  0  0  0  0  0  0  0  0  0  0
   67.6512   45.6418   52.5305 C   0  0  0  0  0  0  0  0  0  0  0  0
   68.1956   46.5846   51.7076 C   0  0  0  0  0  0  0  0  0  0  0  0
   69.0150   47.5444   52.2368 C   0  0  0  0  0  0  0  0  0  0  0  0
   69.2635   47.5224   53.6210 C   0  0  0  0  0  0  0  0  0  0  0  0
   70.1267   48.5678   54.0102 O   0  0  0  0  0  0  0  0  0  0  0  0
 16 17  1  0
 17 18  2  0
 17 19  1  0
 18  1  1  0
  1  2  1  0
  2  3  2  0
  2  4  1  0
  4  5  2  0
  4  8  1  0
  5  6  1  0
  6  9  1  0
  6  7  2  0
  9 10  2  0
  9 15  1  0
 10 11  1  0
 11 12  2  0
 12 13  1  0
 12 14  1  0
 14 15  2  0
  7  8  1  0
 19 20  2  0
 19 24  1  0
 20 21  1  0
 21 22  2  0
 22 23  1  0
 23 24  2  0
 24 25  1  0
M  END
>  <minimizedAffinity>  (282) 
-8.89248

$$$$
cs_full_output_folder/data/smiles/916.pdb
     RDKit          3D

 22 24  0  0  0  0  0  0  0  0999 V2000
   69.2928   45.4019   56.9548 C   0  0  0  0  0  0  0  0  0  0  0  0
   70.3714   46.1314   57.4984 C   0  0  0  0  0  0  0  0  0  0  0  0
   71.3437   45.4510   58.1838 C   0  0  0  0  0  0  0  0  0  0  0  0
   71.2300   44.0763   58.3125 C   0  0  0  0  0  0  0  0  0  0  0  0
   70.1789   43.3760   57.7794 C   0  0  0  0  0  0  0  0  0  0  0  0
   69.2522   44.0845   57.1194 N   0  0  0  0  0  0  0  0  0  0  0  0
   70.1034   41.9331   57.9268 C   0  0  0  0  0  0  0  0  0  0  0  0
   71.2699   41.2291   58.2601 C   0  0  0  0  0  0  0  0  0  0  0  0
   71.2719   39.8676   58.4349 C   0  0  0  0  0  0  0  0  0  0  0  0
   70.1148   39.1090   58.2915 C   0  0  0  0  0  0  0  0  0  0  0  0
   68.9638   39.7937   57.9645 C   0  0  0  0  0  0  0  0  0  0  0  0
   68.9726   41.1843   57.7865 C   0  0  0  0  0  0  0  0  0  0  0  0
   68.3508   46.1817   56.2384 N   0  0  0  0  0  0  0  0  0  0  0  0
   69.2143   47.6150   52.9056 C   0  0  0  0  0  0  0  0  0  0  0  0
   68.5796   46.7224   52.0529 C   0  0  0  0  0  0  0  0  0  0  0  0
   67.8715   45.6621   52.5949 C   0  0  0  0  0  0  0  0  0  0  0  0
   67.7834   45.4764   53.9757 C   0  0  0  0  0  0  0  0  0  0  0  0
   68.4149   46.3667   54.8363 C   0  0  0  0  0  0  0  0  0  0  0  0
   69.1094   47.4059   54.2567 C   0  0  0  0  0  0  0  0  0  0  0  0
   71.2895   49.2883   53.1827 O   0  0  0  0  0  0  0  0  0  0  0  0
   70.1423   48.9599   52.2408 S   0  0  0  0  0  0  0  0  0  0  0  0
   70.6103   48.7174   50.8582 O   0  0  0  0  0  0  0  0  0  0  0  0
 20 21  2  0
 21 22  2  0
 21 14  1  0
 14 15  2  0
 14 19  1  0
 15 16  1  0
 16 17  2  0
 17 18  1  0
 18 13  1  0
 18 19  2  0
 13  1  1  0
  1  2  2  0
  1  6  1  0
  2  3  1  0
  3  4  2  0
  4  5  1  0
  5  7  1  0
  5  6  2  0
  7  8  2  0
  7 12  1  0
  8  9  1  0
  9 10  2  0
 10 11  1  0
 11 12  2  0
M  END
>  <minimizedAffinity>  (283) 
-8.89233

$$$$
cs_full_output_folder/data/smiles/2774.pdb
     RDKit          3D

 24 27  0  0  0  0  0  0  0  0999 V2000
   70.3304   45.1791   57.8227 C   0  0  0  0  0  0  0  0  0  0  0  0
   71.3746   45.7559   58.5197 C   0  0  0  0  0  0  0  0  0  0  0  0
   71.5311   47.1379   58.5359 C   0  0  0  0  0  0  0  0  0  0  0  0
   70.6273   47.9133   57.8458 C   0  0  0  0  0  0  0  0  0  0  0  0
   69.5685   47.3236   57.1402 C   0  0  0  0  0  0  0  0  0  0  0  0
   69.5045   46.0002   57.1852 N   0  0  0  0  0  0  0  0  0  0  0  0
   71.1836   42.9923   57.9846 O   0  0  0  0  0  0  0  0  0  0  0  0
   70.1774   43.7269   57.8146 C   0  0  0  0  0  0  0  0  0  0  0  0
   68.9238   43.0914   57.6209 N   0  0  0  0  0  0  0  0  0  0  0  0
   68.7901   41.6269   57.6158 C   0  0  0  0  0  0  0  0  0  0  0  0
   67.8298   41.1270   56.5293 C   0  0  0  0  0  0  0  0  0  0  0  0
   67.4945   41.0519   57.9722 C   0  0  0  0  0  0  0  0  0  0  0  0
   68.6112   48.1931   56.4068 C   0  0  0  0  0  0  0  0  0  0  0  0
   69.0348   48.4712   55.0082 C   0  0  0  0  0  0  0  0  0  0  0  0
   69.5612   49.6564   54.6795 N   0  0  0  0  0  0  0  0  0  0  0  0
   69.9594   49.9562   53.4755 N   0  0  0  0  0  0  0  0  0  0  0  0
   69.8460   49.0442   52.4997 C   0  0  0  0  0  0  0  0  0  0  0  0
   70.2337   49.3329   51.3267 O   0  0  0  0  0  0  0  0  0  0  0  0
   69.3167   47.8107   52.7644 C   0  0  0  0  0  0  0  0  0  0  0  0
   68.8997   47.5029   54.0307 C   0  0  0  0  0  0  0  0  0  0  0  0
   68.3319   46.1846   54.3081 C   0  0  0  0  0  0  0  0  0  0  0  0
   67.5444   45.5755   53.1768 C   0  0  0  0  0  0  0  0  0  0  0  0
   67.7727   46.2261   51.8444 C   0  0  0  0  0  0  0  0  0  0  0  0
   69.1765   46.7798   51.7056 C   0  0  0  0  0  0  0  0  0  0  0  0
  7  8  2  0
  8  9  1  0
  8  1  1  0
  9 10  1  0
 10 11  1  0
 10 12  1  0
 11 12  1  0
  1  2  2  0
  1  6  1  0
  2  3  1  0
  3  4  2  0
  4  5  1  0
  5 13  1  0
  5  6  2  0
 13 14  1  0
 14 15  2  0
 14 20  1  0
 15 16  1  0
 16 17  1  0
 17 18  2  0
 17 19  1  0
 19 20  2  0
 19 24  1  0
 20 21  1  0
 21 22  1  0
 22 23  1  0
 23 24  1  0
M  END
>  <minimizedAffinity>  (284) 
-8.89158

$$$$
cs_full_output_folder/data/smiles/7110.pdb
     RDKit          3D

 24 27  0  0  0  0  0  0  0  0999 V2000
   69.8927   46.8557   57.0508 C   0  0  0  0  0  0  0  0  0  0  0  0
   71.1095   42.5825   58.7611 O   0  0  0  0  0  0  0  0  0  0  0  0
   70.3378   43.2818   58.0279 C   0  0  0  0  0  0  0  0  0  0  0  0
   70.4901   44.6129   57.9172 N   0  0  0  0  0  0  0  0  0  0  0  0
   69.6833   45.3805   57.1441 C   0  0  0  0  0  0  0  0  0  0  0  0
   68.7039   44.7439   56.4786 N   0  0  0  0  0  0  0  0  0  0  0  0
   68.5106   43.4109   56.5575 C   0  0  0  0  0  0  0  0  0  0  0  0
   67.5001   42.7703   55.8670 C   0  0  0  0  0  0  0  0  0  0  0  0
   67.3156   41.4041   55.9590 C   0  0  0  0  0  0  0  0  0  0  0  0
   68.1375   40.6145   56.7466 C   0  0  0  0  0  0  0  0  0  0  0  0
   69.1438   41.2633   57.4322 C   0  0  0  0  0  0  0  0  0  0  0  0
   69.3325   42.6317   57.3441 C   0  0  0  0  0  0  0  0  0  0  0  0
   68.9846   47.4569   56.1553 O   0  0  0  0  0  0  0  0  0  0  0  0
   69.3564   47.8122   54.8593 C   0  0  0  0  0  0  0  0  0  0  0  0
   70.2537   48.7835   54.6153 N   0  0  0  0  0  0  0  0  0  0  0  0
   70.6196   49.1347   53.3881 N   0  0  0  0  0  0  0  0  0  0  0  0
   70.1089   48.5346   52.2971 C   0  0  0  0  0  0  0  0  0  0  0  0
   70.4710   48.8842   51.1466 O   0  0  0  0  0  0  0  0  0  0  0  0
   69.1805   47.5264   52.4704 C   0  0  0  0  0  0  0  0  0  0  0  0
   68.6312   46.8823   51.3594 C   0  0  0  0  0  0  0  0  0  0  0  0
   67.7065   45.8815   51.5748 C   0  0  0  0  0  0  0  0  0  0  0  0
   67.3384   45.5290   52.8558 C   0  0  0  0  0  0  0  0  0  0  0  0
   67.8859   46.1697   53.9503 C   0  0  0  0  0  0  0  0  0  0  0  0
   68.8178   47.1800   53.7527 C   0  0  0  0  0  0  0  0  0  0  0  0
  2  3  2  0
  3  4  1  0
  3 12  1  0
  4  5  1  0
  5  1  1  0
  5  6  2  0
  1 13  1  0
 13 14  1  0
 14 15  2  0
 14 24  1  0
 15 16  1  0
 16 17  1  0
 17 18  2  0
 17 19  1  0
 19 20  1  0
 19 24  2  0
 20 21  2  0
 21 22  1  0
 22 23  2  0
 23 24  1  0
  6  7  1  0
  7  8  1  0
  7 12  2  0
  8  9  2  0
  9 10  1  0
 10 11  2  0
 11 12  1  0
M  END
>  <minimizedAffinity>  (285) 
-8.89119

$$$$
cs_full_output_folder/data/smiles/8155.pdb
     RDKit          3D

 23 25  0  0  0  0  0  0  0  0999 V2000
   71.9766   49.9256   54.9658 O   0  0  0  0  0  0  0  0  0  0  0  0
   70.9591   50.3080   54.2969 C   0  0  0  0  0  0  0  0  0  0  0  0
   70.6113   51.6600   54.4446 N   0  0  0  0  0  0  0  0  0  0  0  0
   70.2988   49.2986   53.4887 C   0  0  0  0  0  0  0  0  0  0  0  0
   70.4364   49.3689   52.1197 N   0  0  0  0  0  0  0  0  0  0  0  0
   69.8559   48.4967   51.3472 N   0  0  0  0  0  0  0  0  0  0  0  0
   69.0985   47.4852   51.8001 C   0  0  0  0  0  0  0  0  0  0  0  0
   68.5660   46.6719   50.9755 O   0  0  0  0  0  0  0  0  0  0  0  0
   68.9071   47.3439   53.1550 C   0  0  0  0  0  0  0  0  0  0  0  0
   68.1053   46.3229   53.6144 C   0  0  0  0  0  0  0  0  0  0  0  0
   67.9023   46.2233   54.9729 C   0  0  0  0  0  0  0  0  0  0  0  0
   68.5021   47.1393   55.8025 C   0  0  0  0  0  0  0  0  0  0  0  0
   69.3110   48.1648   55.3310 C   0  0  0  0  0  0  0  0  0  0  0  0
   69.5269   48.2779   53.9867 C   0  0  0  0  0  0  0  0  0  0  0  0
   71.3489   52.5965   55.2726 C   0  0  0  0  0  0  0  0  0  0  0  0
   70.5805   53.1013   56.4489 C   0  0  0  0  0  0  0  0  0  0  0  0
   69.6532   52.1049   57.0284 C   0  0  0  0  0  0  0  0  0  0  0  0
   70.1690   51.1105   57.8230 C   0  0  0  0  0  0  0  0  0  0  0  0
   69.3387   50.1508   58.3893 C   0  0  0  0  0  0  0  0  0  0  0  0
   67.9830   50.1784   58.1635 C   0  0  0  0  0  0  0  0  0  0  0  0
   67.4446   51.1798   57.3607 C   0  0  0  0  0  0  0  0  0  0  0  0
   66.1065   51.1860   57.1532 F   0  0  0  0  0  0  0  0  0  0  0  0
   68.2955   52.1262   56.8087 C   0  0  0  0  0  0  0  0  0  0  0  0
  1  2  2  0
  2  3  1  0
  2  4  1  0
  3 15  1  0
 15 16  1  0
 16 17  1  0
 17 18  2  0
 17 23  1  0
 18 19  1  0
 19 20  2  0
 20 21  1  0
 21 22  1  0
 21 23  2  0
  4  5  2  0
  4 14  1  0
  5  6  1  0
  6  7  1  0
  7  8  2  0
  7  9  1  0
  9 10  1  0
  9 14  2  0
 10 11  2  0
 11 12  1  0
 12 13  2  0
 13 14  1  0
M  END
>  <minimizedAffinity>  (286) 
-8.88850

$$$$
cs_full_output_folder/data/smiles/5462.pdb
     RDKit          3D

 23 25  0  0  0  0  0  0  0  0999 V2000
   68.9487   45.3921   56.5731 C   0  0  0  0  0  0  0  0  0  0  0  0
   70.0390   46.0121   57.0699 N   0  0  0  0  0  0  0  0  0  0  0  0
   70.9553   45.3109   57.7577 C   0  0  0  0  0  0  0  0  0  0  0  0
   70.8017   43.9580   57.9668 C   0  0  0  0  0  0  0  0  0  0  0  0
   69.7007   43.3285   57.4665 C   0  0  0  0  0  0  0  0  0  0  0  0
   68.8048   44.0750   56.7806 N   0  0  0  0  0  0  0  0  0  0  0  0
   69.4794   41.9004   57.6536 C   0  0  0  0  0  0  0  0  0  0  0  0
   70.4696   41.1415   58.2875 C   0  0  0  0  0  0  0  0  0  0  0  0
   70.3100   39.7891   58.4882 C   0  0  0  0  0  0  0  0  0  0  0  0
   69.1814   39.1173   58.0828 C   0  0  0  0  0  0  0  0  0  0  0  0
   68.1975   39.8499   57.4579 C   0  0  0  0  0  0  0  0  0  0  0  0
   68.3617   41.2233   57.2548 C   0  0  0  0  0  0  0  0  0  0  0  0
   68.0120   46.1306   55.8650 O   0  0  0  0  0  0  0  0  0  0  0  0
   69.3334   47.6439   52.7510 C   0  0  0  0  0  0  0  0  0  0  0  0
   68.7350   46.8119   51.8326 C   0  0  0  0  0  0  0  0  0  0  0  0
   67.9153   45.7757   52.2268 C   0  0  0  0  0  0  0  0  0  0  0  0
   67.6864   45.5659   53.5910 C   0  0  0  0  0  0  0  0  0  0  0  0
   68.2751   46.3870   54.5280 C   0  0  0  0  0  0  0  0  0  0  0  0
   69.0849   47.4064   54.0842 C   0  0  0  0  0  0  0  0  0  0  0  0
   70.2070   48.7494   52.3335 C   0  0  0  0  0  0  0  0  0  0  0  0
   70.0727   49.2873   51.2059 O   0  0  0  0  0  0  0  0  0  0  0  0
   70.9871   50.3099   54.0699 C   0  0  0  0  0  0  0  0  0  0  0  0
   71.2084   49.2434   53.1532 O   0  0  0  0  0  0  0  0  0  0  0  0
 22 23  1  0
 23 20  1  0
 20 21  2  0
 20 14  1  0
 14 15  2  0
 14 19  1  0
 15 16  1  0
 16 17  2  0
 17 18  1  0
 18 13  1  0
 18 19  2  0
 13  1  1  0
  1  2  2  0
  1  6  1  0
  2  3  1  0
  3  4  2  0
  4  5  1  0
  5  7  1  0
  5  6  2  0
  7  8  2  0
  7 12  1  0
  8  9  1  0
  9 10  2  0
 10 11  1  0
 11 12  2  0
M  END
>  <minimizedAffinity>  (287) 
-8.88362

$$$$
cs_full_output_folder/data/smiles/2560.pdb
     RDKit          3D

 23 25  0  0  0  0  0  0  0  0999 V2000
   68.5415   45.9183   56.2576 N   0  0  0  0  0  0  0  0  0  0  0  0
   69.2437   47.7715   53.0876 C   0  0  0  0  0  0  0  0  0  0  0  0
   68.5977   46.9382   52.2075 C   0  0  0  0  0  0  0  0  0  0  0  0
   67.9404   45.7994   52.6390 C   0  0  0  0  0  0  0  0  0  0  0  0
   67.9255   45.4846   53.9731 C   0  0  0  0  0  0  0  0  0  0  0  0
   68.5630   46.2989   54.8864 C   0  0  0  0  0  0  0  0  0  0  0  0
   69.2085   47.4229   54.4279 C   0  0  0  0  0  0  0  0  0  0  0  0
   70.0599   49.1926   52.5005 S   0  0  0  0  0  0  0  0  0  0  0  0
   71.4748   49.1765   53.0374 O   0  0  0  0  0  0  0  0  0  0  0  0
   70.0748   49.2442   51.0015 O   0  0  0  0  0  0  0  0  0  0  0  0
   70.2163   51.1834   54.1266 C   0  0  0  0  0  0  0  0  0  0  0  0
   69.2922   50.5760   53.1864 N   0  0  0  0  0  0  0  0  0  0  0  0
   68.8626   44.5720   56.5845 C   0  0  0  0  0  0  0  0  0  0  0  0
   70.0636   44.1648   57.0679 C   0  0  0  0  0  0  0  0  0  0  0  0
   70.3225   42.8437   57.3681 C   0  0  0  0  0  0  0  0  0  0  0  0
   69.3460   41.8970   57.1748 C   0  0  0  0  0  0  0  0  0  0  0  0
   68.1119   42.3203   56.6764 C   0  0  0  0  0  0  0  0  0  0  0  0
   67.9093   43.6154   56.4017 N   0  0  0  0  0  0  0  0  0  0  0  0
   71.6105   42.4259   57.9282 C   0  0  0  0  0  0  0  0  0  0  0  0
   71.8227   41.6087   58.9345 C   0  0  0  0  0  0  0  0  0  0  0  0
   73.2693   41.4681   59.1620 C   0  0  0  0  0  0  0  0  0  0  0  0
   73.8658   42.3329   58.1336 C   0  0  0  0  0  0  0  0  0  0  0  0
   72.8991   42.8695   57.4396 C   0  0  0  0  0  0  0  0  0  0  0  0
 11 12  1  0
 12  8  1  0
  8  9  2  0
  8 10  2  0
  8  2  1  0
  2  3  2  0
  2  7  1  0
  3  4  1  0
  4  5  2  0
  5  6  1  0
  6  1  1  0
  6  7  2  0
  1 13  1  0
 13 14  2  0
 13 18  1  0
 14 15  1  0
 15 19  1  0
 15 16  2  0
 19 20  2  0
 19 23  1  0
 20 21  1  0
 21 22  1  0
 22 23  2  0
 16 17  1  0
 17 18  2  0
M  END
>  <minimizedAffinity>  (288) 
-8.88346

$$$$
cs_full_output_folder/data/smiles/3613.pdb
     RDKit          3D

 22 23  0  0  0  0  0  0  0  0999 V2000
   68.1697   45.0943   55.2703 C   0  0  0  0  0  0  0  0  0  0  0  0
   68.4750   45.6138   56.3535 O   0  0  0  0  0  0  0  0  0  0  0  0
   67.7045   43.7256   55.3305 N   0  0  0  0  0  0  0  0  0  0  0  0
   69.0304   47.7156   52.6842 C   0  0  0  0  0  0  0  0  0  0  0  0
   68.4284   47.1944   51.5626 C   0  0  0  0  0  0  0  0  0  0  0  0
   67.7487   45.9945   51.6654 C   0  0  0  0  0  0  0  0  0  0  0  0
   67.6882   45.3514   52.8703 C   0  0  0  0  0  0  0  0  0  0  0  0
   68.2862   45.8460   54.0360 C   0  0  0  0  0  0  0  0  0  0  0  0
   68.9533   47.0398   53.8992 C   0  0  0  0  0  0  0  0  0  0  0  0
   69.7746   49.8555   50.9270 N   0  0  0  0  0  0  0  0  0  0  0  0
   69.8843   49.2320   52.5370 S   0  0  0  0  0  0  0  0  0  0  0  0
   71.3363   49.0096   52.8411 O   0  0  0  0  0  0  0  0  0  0  0  0
   69.2918   50.2823   53.4488 O   0  0  0  0  0  0  0  0  0  0  0  0
   67.5761   42.9917   56.4086 N   0  0  0  0  0  0  0  0  0  0  0  0
   67.9520   42.2684   57.3031 C   0  0  0  0  0  0  0  0  0  0  0  0
   69.2377   41.6978   57.6711 C   0  0  0  0  0  0  0  0  0  0  0  0
   70.4079   42.4707   57.6350 C   0  0  0  0  0  0  0  0  0  0  0  0
   71.6417   41.9728   57.9738 C   0  0  0  0  0  0  0  0  0  0  0  0
   71.7968   40.6672   58.3736 C   0  0  0  0  0  0  0  0  0  0  0  0
   70.6805   39.8822   58.4214 C   0  0  0  0  0  0  0  0  0  0  0  0
   69.4258   40.3964   58.0747 C   0  0  0  0  0  0  0  0  0  0  0  0
   68.0614   39.3190   58.1665 Cl  0  0  0  0  0  0  0  0  0  0  0  0
 10 11  1  0
 11 12  2  0
 11 13  2  0
 11  4  1  0
  4  5  2  0
  4  9  1  0
  5  6  1  0
  6  7  2  0
  7  8  1  0
  8  1  1  0
  8  9  2  0
  1  2  2  0
  1  3  1  0
  3 14  1  0
 14 15  2  0
 15 16  1  0
 16 17  2  0
 16 21  1  0
 17 18  1  0
 18 19  2  0
 19 20  1  0
 20 21  2  0
 21 22  1  0
M  END
>  <minimizedAffinity>  (289) 
-8.88269

$$$$
cs_full_output_folder/data/smiles/8248.pdb
     RDKit          3D

 24 26  0  0  0  0  0  0  0  0999 V2000
   70.7888   45.7846   59.1348 O   0  0  0  0  0  0  0  0  0  0  0  0
   70.5347   44.9857   58.2030 C   0  0  0  0  0  0  0  0  0  0  0  0
   69.6039   45.4076   57.2112 N   0  0  0  0  0  0  0  0  0  0  0  0
   71.1716   43.6772   58.1465 C   0  0  0  0  0  0  0  0  0  0  0  0
   70.6511   42.4551   58.4812 C   0  0  0  0  0  0  0  0  0  0  0  0
   71.6009   41.4774   58.2741 C   0  0  0  0  0  0  0  0  0  0  0  0
   72.6828   42.1243   57.8164 N   0  0  0  0  0  0  0  0  0  0  0  0
   72.4271   43.4350   57.7400 N   0  0  0  0  0  0  0  0  0  0  0  0
   71.4728   40.0324   58.5009 C   0  0  0  0  0  0  0  0  0  0  0  0
   70.2287   39.4370   58.5415 C   0  0  0  0  0  0  0  0  0  0  0  0
   70.0354   38.1011   58.7488 C   0  0  0  0  0  0  0  0  0  0  0  0
   71.1621   37.3005   58.9274 C   0  0  0  0  0  0  0  0  0  0  0  0
   72.4291   37.8921   58.8878 C   0  0  0  0  0  0  0  0  0  0  0  0
   72.5674   39.2449   58.6757 C   0  0  0  0  0  0  0  0  0  0  0  0
   69.0193   46.6337   57.2816 N   0  0  0  0  0  0  0  0  0  0  0  0
   68.6071   47.4751   56.4759 C   0  0  0  0  0  0  0  0  0  0  0  0
   68.6474   47.3510   55.0214 C   0  0  0  0  0  0  0  0  0  0  0  0
   69.4169   48.1319   54.1936 C   0  0  0  0  0  0  0  0  0  0  0  0
   69.4361   47.9914   52.8030 C   0  0  0  0  0  0  0  0  0  0  0  0
   68.6481   47.0241   52.2178 C   0  0  0  0  0  0  0  0  0  0  0  0
   68.6408   46.8555   50.8388 O   0  0  0  0  0  0  0  0  0  0  0  0
   67.8660   46.2265   53.0324 C   0  0  0  0  0  0  0  0  0  0  0  0
   67.0697   45.2484   52.4195 O   0  0  0  0  0  0  0  0  0  0  0  0
   67.8550   46.3744   54.3919 C   0  0  0  0  0  0  0  0  0  0  0  0
  1  2  2  0
  2  3  1  0
  2  4  1  0
  3 15  1  0
 15 16  2  0
 16 17  1  0
 17 18  2  0
 17 24  1  0
 18 19  1  0
 19 20  2  0
 20 21  1  0
 20 22  1  0
 22 23  1  0
 22 24  2  0
  4  5  2  0
  4  8  1  0
  5  6  1  0
  6  9  1  0
  6  7  2  0
  9 10  2  0
  9 14  1  0
 10 11  1  0
 11 12  2  0
 12 13  1  0
 13 14  2  0
  7  8  1  0
M  END
>  <minimizedAffinity>  (290) 
-8.88229

$$$$
cs_full_output_folder/data/smiles/1241.pdb
     RDKit          3D

 26 28  0  0  0  0  0  0  0  0999 V2000
   72.4179   47.1881   59.0222 C   0  0  0  0  0  0  0  0  0  0  0  0
   72.2633   48.3917   58.3211 C   0  0  0  0  0  0  0  0  0  0  0  0
   71.1309   48.6455   57.5329 C   0  0  0  0  0  0  0  0  0  0  0  0
   70.1526   47.7510   57.4263 C   0  0  0  0  0  0  0  0  0  0  0  0
   70.2800   46.5246   58.0966 C   0  0  0  0  0  0  0  0  0  0  0  0
   71.3698   46.2853   58.8444 N   0  0  0  0  0  0  0  0  0  0  0  0
   73.4750   47.1986   61.4903 C   0  0  0  0  0  0  0  0  0  0  0  0
   72.5552   47.8975   61.6180 O   0  0  0  0  0  0  0  0  0  0  0  0
   73.3283   46.8140   59.9397 N   0  0  0  0  0  0  0  0  0  0  0  0
   75.2999   46.8344   62.8708 C   0  0  0  0  0  0  0  0  0  0  0  0
   74.6889   46.5470   61.9879 C   0  0  0  0  0  0  0  0  0  0  0  0
   76.9563   48.3671   66.0818 C   0  0  0  0  0  0  0  0  0  0  0  0
   76.4817   47.9020   65.1281 C   0  0  0  0  0  0  0  0  0  0  0  0
   76.0213   47.4788   64.2320 C   0  0  0  0  0  0  0  0  0  0  0  0
   68.6976   48.0313   56.9928 C   0  0  0  0  0  0  0  0  0  0  0  0
   68.6695   47.1642   55.7110 C   0  0  0  0  0  0  0  0  0  0  0  0
   68.1934   45.8964   55.8886 N   0  0  0  0  0  0  0  0  0  0  0  0
   67.8327   45.0326   54.9549 N   0  0  0  0  0  0  0  0  0  0  0  0
   67.9541   45.4719   53.6473 C   0  0  0  0  0  0  0  0  0  0  0  0
   67.6073   44.6681   52.7508 O   0  0  0  0  0  0  0  0  0  0  0  0
   68.4233   46.7255   53.4171 C   0  0  0  0  0  0  0  0  0  0  0  0
   68.7930   47.6045   54.4661 C   0  0  0  0  0  0  0  0  0  0  0  0
   69.3163   48.9479   54.1051 C   0  0  0  0  0  0  0  0  0  0  0  0
   70.2255   48.7855   52.9210 C   0  0  0  0  0  0  0  0  0  0  0  0
   69.9215   47.8403   51.8966 C   0  0  0  0  0  0  0  0  0  0  0  0
   68.5514   47.1484   52.0261 C   0  0  0  0  0  0  0  0  0  0  0  0
 12 13  1  0
 13 14  3  0
 14 10  1  0
 10 11  2  0
 11  7  1  0
  7  8  2  0
  7  9  1  0
  9  1  1  0
  1  2  2  0
  1  6  1  0
  2  3  1  0
  3  4  2  0
  4 15  1  0
  4  5  1  0
 15 16  1  0
 16 17  2  0
 16 22  1  0
 17 18  1  0
 18 19  1  0
 19 20  2  0
 19 21  1  0
 21 22  2  0
 21 26  1  0
 22 23  1  0
 23 24  1  0
 24 25  1  0
 25 26  1  0
  5  6  2  0
M  END
>  <minimizedAffinity>  (291) 
-8.88135

$$$$
cs_full_output_folder/data/smiles/9256.pdb
     RDKit          3D

 24 25  0  0  0  0  0  0  0  0999 V2000
   68.2865   42.3960   56.7927 C   0  0  0  0  0  0  0  0  0  0  0  0
   67.1282   42.2375   56.3216 O   0  0  0  0  0  0  0  0  0  0  0  0
   68.8682   43.6663   56.6240 N   0  0  0  0  0  0  0  0  0  0  0  0
   70.1963   39.0861   58.7812 C   0  0  0  0  0  0  0  0  0  0  0  0
   68.9228   38.9815   58.2610 C   0  0  0  0  0  0  0  0  0  0  0  0
   68.2927   40.0417   57.6145 C   0  0  0  0  0  0  0  0  0  0  0  0
   68.9145   41.2617   57.4621 C   0  0  0  0  0  0  0  0  0  0  0  0
   70.1911   41.3615   57.9853 C   0  0  0  0  0  0  0  0  0  0  0  0
   70.8134   40.3122   58.6245 C   0  0  0  0  0  0  0  0  0  0  0  0
   71.8780   38.4286   60.4827 C   0  0  0  0  0  0  0  0  0  0  0  0
   70.8517   37.9502   59.4633 C   0  0  0  0  0  0  0  0  0  0  0  0
   71.6005   37.1064   58.4563 C   0  0  0  0  0  0  0  0  0  0  0  0
   69.8756   37.0385   60.1581 C   0  0  0  0  0  0  0  0  0  0  0  0
   68.2659   44.7497   55.9835 N   0  0  0  0  0  0  0  0  0  0  0  0
   68.8408   46.0461   56.0517 C   0  0  0  0  0  0  0  0  0  0  0  0
   69.9069   46.1457   56.7152 O   0  0  0  0  0  0  0  0  0  0  0  0
   68.1757   47.1716   55.3632 C   0  0  0  0  0  0  0  0  0  0  0  0
   68.7927   47.4879   54.0633 C   0  0  0  0  0  0  0  0  0  0  0  0
   69.6732   48.5330   53.9487 C   0  0  0  0  0  0  0  0  0  0  0  0
   70.2343   48.8041   52.7147 C   0  0  0  0  0  0  0  0  0  0  0  0
   69.9184   48.0396   51.6156 C   0  0  0  0  0  0  0  0  0  0  0  0
   69.0356   46.9926   51.7379 C   0  0  0  0  0  0  0  0  0  0  0  0
   68.4722   46.7202   52.9703 C   0  0  0  0  0  0  0  0  0  0  0  0
   67.5878   45.6753   53.1035 F   0  0  0  0  0  0  0  0  0  0  0  0
 10 11  1  0
 11 12  1  0
 11 13  1  0
 11  4  1  0
  4  5  2  0
  4  9  1  0
  5  6  1  0
  6  7  2  0
  7  1  1  0
  7  8  1  0
  1  2  2  0
  1  3  1  0
  3 14  1  0
 14 15  1  0
 15 16  2  0
 15 17  1  0
 17 18  1  0
 18 19  2  0
 18 23  1  0
 19 20  1  0
 20 21  2  0
 21 22  1  0
 22 23  2  0
 23 24  1  0
  8  9  2  0
M  END
>  <minimizedAffinity>  (292) 
-8.87691

$$$$
cs_full_output_folder/data/smiles/1165.pdb
     RDKit          3D

 25 27  0  0  0  0  0  0  0  0999 V2000
   71.6096   48.3994   58.6132 C   0  0  0  0  0  0  0  0  0  0  0  0
   70.7682   47.1905   58.2677 C   0  0  2  0  0  0  0  0  0  0  0  0
   69.4420   47.6137   57.7709 C   0  0  0  0  0  0  0  0  0  0  0  0
   69.1015   47.1497   56.4002 C   0  0  0  0  0  0  0  0  0  0  0  0
   69.4231   47.9293   55.3362 N   0  0  0  0  0  0  0  0  0  0  0  0
   69.1397   47.5805   54.0736 C   0  0  0  0  0  0  0  0  0  0  0  0
   69.4748   48.3860   53.0042 C   0  0  0  0  0  0  0  0  0  0  0  0
   69.1401   47.9409   51.7417 C   0  0  0  0  0  0  0  0  0  0  0  0
   68.4877   46.7261   51.5375 C   0  0  0  0  0  0  0  0  0  0  0  0
   68.1608   45.9361   52.6151 C   0  0  0  0  0  0  0  0  0  0  0  0
   68.4890   46.3654   53.8999 C   0  0  0  0  0  0  0  0  0  0  0  0
   68.1553   45.5626   54.9652 C   0  0  0  0  0  0  0  0  0  0  0  0
   67.5586   44.4485   54.8068 O   0  0  0  0  0  0  0  0  0  0  0  0
   68.4743   45.9829   56.2020 N   0  0  0  0  0  0  0  0  0  0  0  0
   70.7622   46.1990   59.2779 N   0  0  0  0  0  0  0  0  0  0  0  0
   70.0889   45.0159   58.9721 N   0  0  0  0  0  0  0  0  0  0  0  0
   70.6946   43.9336   58.3037 C   0  0  0  0  0  0  0  0  0  0  0  0
   71.9215   44.0341   57.9561 O   0  0  0  0  0  0  0  0  0  0  0  0
   69.9449   42.7135   58.0054 C   0  0  0  0  0  0  0  0  0  0  0  0
   70.3819   41.5134   58.6018 C   0  0  0  0  0  0  0  0  0  0  0  0
   69.7154   40.3409   58.3568 C   0  0  0  0  0  0  0  0  0  0  0  0
   68.6096   40.3357   57.5210 C   0  0  0  0  0  0  0  0  0  0  0  0
   67.9280   39.1894   57.2584 F   0  0  0  0  0  0  0  0  0  0  0  0
   68.1669   41.4851   56.9319 C   0  0  0  0  0  0  0  0  0  0  0  0
   68.8455   42.6627   57.1850 C   0  0  0  0  0  0  0  0  0  0  0  0
  2  1  1  1
  2  3  1  0
  2 15  1  0
  3  4  1  0
  4  5  2  0
  4 14  1  0
  5  6  1  0
  6  7  2  0
  6 11  1  0
  7  8  1  0
  8  9  2  0
  9 10  1  0
 10 11  2  0
 11 12  1  0
 12 13  2  0
 12 14  1  0
 15 16  1  0
 16 17  1  0
 17 18  2  0
 17 19  1  0
 19 20  2  0
 19 25  1  0
 20 21  1  0
 21 22  2  0
 22 23  1  0
 22 24  1  0
 24 25  2  0
M  END
>  <minimizedAffinity>  (293) 
-8.87656

$$$$
cs_full_output_folder/data/smiles/38.pdb
     RDKit          3D

 24 26  0  0  0  0  0  0  0  0999 V2000
   70.0114   45.8516   59.2164 O   0  0  0  0  0  0  0  0  0  0  0  0
   70.4466   45.4692   58.1071 C   0  0  0  0  0  0  0  0  0  0  0  0
   69.6928   45.8575   56.9378 N   0  0  0  0  0  0  0  0  0  0  0  0
   71.6531   44.6746   58.0531 C   0  0  0  0  0  0  0  0  0  0  0  0
   71.5660   43.3534   57.6164 C   0  0  0  0  0  0  0  0  0  0  0  0
   72.6609   42.5209   57.5316 C   0  0  0  0  0  0  0  0  0  0  0  0
   73.9197   42.9641   57.8819 C   0  0  0  0  0  0  0  0  0  0  0  0
   74.9845   42.1371   57.7939 N   0  0  0  0  0  0  0  0  0  0  0  0
   76.2121   42.5683   58.1356 C   0  0  0  0  0  0  0  0  0  0  0  0
   76.3699   43.8641   58.5770 C   0  0  0  0  0  0  0  0  0  0  0  0
   75.2771   44.7307   58.6722 C   0  0  0  0  0  0  0  0  0  0  0  0
   74.0302   44.2646   58.3164 C   0  0  0  0  0  0  0  0  0  0  0  0
   72.9138   45.1055   58.3995 C   0  0  0  0  0  0  0  0  0  0  0  0
   68.5640   46.5994   56.9820 N   0  0  0  0  0  0  0  0  0  0  0  0
   67.9744   47.1686   56.0221 C   0  0  0  0  0  0  0  0  0  0  0  0
   68.3947   47.1423   54.6594 C   0  0  0  0  0  0  0  0  0  0  0  0
   67.7901   46.1811   53.8452 C   0  0  0  0  0  0  0  0  0  0  0  0
   68.0901   46.0332   52.5104 C   0  0  0  0  0  0  0  0  0  0  0  0
   69.0299   46.8637   51.9376 C   0  0  0  0  0  0  0  0  0  0  0  0
   69.6481   47.8210   52.6983 C   0  0  0  0  0  0  0  0  0  0  0  0
   69.3070   47.9344   54.0616 C   0  0  0  0  0  0  0  0  0  0  0  0
   70.6167   48.6882   52.1325 N   0  0  0  0  0  0  0  0  0  0  0  0
   71.6208   49.0796   52.7230 O   0  0  0  0  0  0  0  0  0  0  0  0
   70.4506   49.1434   50.8325 O   0  0  0  0  0  0  0  0  0  0  0  0
  1  2  2  0
  2  3  1  0
  2  4  1  0
  3 14  1  0
 14 15  2  0
 15 16  1  0
 16 17  2  0
 16 21  1  0
 17 18  1  0
 18 19  2  0
 19 20  1  0
 20 22  1  0
 20 21  2  0
 22 23  2  0
 22 24  1  0
  4  5  2  0
  4 13  1  0
  5  6  1  0
  6  7  2  0
  7  8  1  0
  7 12  1  0
  8  9  2  0
  9 10  1  0
 10 11  2  0
 11 12  1  0
 12 13  2  0
M  CHG  2  22   1  24  -1
M  END
>  <minimizedAffinity>  (294) 
-8.87647

$$$$
cs_full_output_folder/data/smiles/8362.pdb
     RDKit          3D

 25 27  0  0  0  0  0  0  0  0999 V2000
   70.2166   43.7573   57.7682 C   0  0  0  0  0  0  0  0  0  0  0  0
   71.1004   44.5937   58.4143 C   0  0  0  0  0  0  0  0  0  0  0  0
   70.9786   45.9559   58.1792 C   0  0  0  0  0  0  0  0  0  0  0  0
   70.0399   46.4294   57.3576 N   0  0  0  0  0  0  0  0  0  0  0  0
   69.1578   45.6126   56.7106 C   0  0  0  0  0  0  0  0  0  0  0  0
   69.3046   44.3131   56.9602 N   0  0  0  0  0  0  0  0  0  0  0  0
   70.4242   39.5291   58.3664 C   0  0  0  0  0  0  0  0  0  0  0  0
   71.5695   40.2940   58.3875 C   0  0  0  0  0  0  0  0  0  0  0  0
   71.4625   41.6677   58.1862 C   0  0  0  0  0  0  0  0  0  0  0  0
   70.2625   42.2968   57.9686 C   0  0  0  0  0  0  0  0  0  0  0  0
   69.1421   41.5209   57.9520 C   0  0  0  0  0  0  0  0  0  0  0  0
   69.2226   40.1352   58.1510 C   0  0  0  0  0  0  0  0  0  0  0  0
   70.6052   36.1272   60.1531 C   0  0  0  0  0  0  0  0  0  0  0  0
   70.4709   37.5834   59.8882 C   0  0  0  0  0  0  0  0  0  0  0  0
   70.2717   38.3273   60.8942 O   0  0  0  0  0  0  0  0  0  0  0  0
   70.5602   38.1166   58.5752 N   0  0  0  0  0  0  0  0  0  0  0  0
   68.1671   46.1794   55.8632 N   0  0  0  0  0  0  0  0  0  0  0  0
   68.2635   46.3329   54.4650 C   0  0  0  0  0  0  0  0  0  0  0  0
   67.6607   45.5358   53.5228 C   0  0  0  0  0  0  0  0  0  0  0  0
   67.8072   45.7853   52.1558 C   0  0  0  0  0  0  0  0  0  0  0  0
   68.5566   46.8324   51.7131 C   0  0  0  0  0  0  0  0  0  0  0  0
   69.1876   47.6670   52.6289 C   0  0  0  0  0  0  0  0  0  0  0  0
   69.0179   47.3875   53.9637 C   0  0  0  0  0  0  0  0  0  0  0  0
   69.9960   48.7953   52.1758 C   0  0  0  0  0  0  0  0  0  0  0  0
   70.3987   48.8187   51.0027 O   0  0  0  0  0  0  0  0  0  0  0  0
 13 14  1  0
 14 15  2  0
 14 16  1  0
 16  7  1  0
  7  8  2  0
  7 12  1  0
  8  9  1  0
  9 10  2  0
 10  1  1  0
 10 11  1  0
  1  2  2  0
  1  6  1  0
  2  3  1  0
  3  4  2  0
  4  5  1  0
  5 17  1  0
  5  6  2  0
 17 18  1  0
 18 19  2  0
 18 23  1  0
 19 20  1  0
 20 21  2  0
 21 22  1  0
 22 24  1  0
 22 23  2  0
 24 25  2  0
 11 12  2  0
M  END
>  <minimizedAffinity>  (295) 
-8.87575

$$$$
cs_full_output_folder/data/smiles/1017.pdb
     RDKit          3D

 22 23  0  0  0  0  0  0  0  0999 V2000
   68.2998   45.8889   54.0426 C   0  0  0  0  0  0  0  0  0  0  0  0
   67.7233   45.3851   52.8967 C   0  0  0  0  0  0  0  0  0  0  0  0
   67.8043   46.0344   51.6821 C   0  0  0  0  0  0  0  0  0  0  0  0
   68.4798   47.2320   51.5894 C   0  0  0  0  0  0  0  0  0  0  0  0
   69.0662   47.7618   52.7158 C   0  0  0  0  0  0  0  0  0  0  0  0
   68.9643   47.0830   53.9154 C   0  0  0  0  0  0  0  0  0  0  0  0
   68.4758   45.8168   56.3581 O   0  0  0  0  0  0  0  0  0  0  0  0
   68.1990   45.1857   55.2999 C   0  0  0  0  0  0  0  0  0  0  0  0
   67.8111   43.8282   55.4395 N   0  0  0  0  0  0  0  0  0  0  0  0
   67.7235   43.1760   56.6700 N   0  0  0  0  0  0  0  0  0  0  0  0
   66.7416   42.2548   56.5854 F   0  0  0  0  0  0  0  0  0  0  0  0
   69.9182   49.2902   52.5581 S   0  0  0  0  0  0  0  0  0  0  0  0
   70.1682   49.4974   51.0928 O   0  0  0  0  0  0  0  0  0  0  0  0
   71.2308   49.2521   53.2869 O   0  0  0  0  0  0  0  0  0  0  0  0
   68.9024   50.5261   53.1759 N   0  0  0  0  0  0  0  0  0  0  0  0
   68.9534   50.9122   54.5279 C   0  0  0  0  0  0  0  0  0  0  0  0
   68.9448   49.9912   55.5521 C   0  0  0  0  0  0  0  0  0  0  0  0
   68.9933   50.3557   56.8885 C   0  0  0  0  0  0  0  0  0  0  0  0
   69.0521   51.6843   57.2234 C   0  0  0  0  0  0  0  0  0  0  0  0
   69.0619   52.6353   56.2370 C   0  0  0  0  0  0  0  0  0  0  0  0
   69.1207   53.9510   56.5751 F   0  0  0  0  0  0  0  0  0  0  0  0
   69.0129   52.2491   54.9169 C   0  0  0  0  0  0  0  0  0  0  0  0
  7  8  2  0
  8  9  1  0
  8  1  1  0
  9 10  1  0
 10 11  1  0
  1  2  2  0
  1  6  1  0
  2  3  1  0
  3  4  2  0
  4  5  1  0
  5 12  1  0
  5  6  2  0
 12 13  2  0
 12 14  2  0
 12 15  1  0
 15 16  1  0
 16 17  2  0
 16 22  1  0
 17 18  1  0
 18 19  2  0
 19 20  1  0
 20 21  1  0
 20 22  2  0
M  END
>  <minimizedAffinity>  (296) 
-8.87526

$$$$
cs_full_output_folder/data/smiles/4988.pdb
     RDKit          3D

 21 22  0  0  0  0  0  0  0  0999 V2000
   69.0228   47.0007   54.8835 C   0  0  0  0  0  0  0  0  0  0  0  0
   68.1628   46.0597   54.3256 C   0  0  0  0  0  0  0  0  0  0  0  0
   67.8898   46.0399   52.9783 C   0  0  0  0  0  0  0  0  0  0  0  0
   67.0225   45.0805   52.4514 O   0  0  0  0  0  0  0  0  0  0  0  0
   68.4422   46.9441   52.0829 C   0  0  0  0  0  0  0  0  0  0  0  0
   68.1613   46.9200   50.7169 O   0  0  0  0  0  0  0  0  0  0  0  0
   69.3033   47.8849   52.6450 C   0  0  0  0  0  0  0  0  0  0  0  0
   69.5702   47.8967   53.9974 C   0  0  0  0  0  0  0  0  0  0  0  0
   69.9180   48.8427   51.8030 N   0  0  0  0  0  0  0  0  0  0  0  0
   70.6440   48.4339   50.8781 O   0  0  0  0  0  0  0  0  0  0  0  0
   69.7350   50.1930   51.9637 O   0  0  0  0  0  0  0  0  0  0  0  0
   68.9803   45.9580   56.9964 O   0  0  0  0  0  0  0  0  0  0  0  0
   69.2347   47.0236   56.3294 C   0  0  0  0  0  0  0  0  0  0  0  0
   69.7257   48.2318   57.0247 C   0  0  0  0  0  0  0  0  0  0  0  0
   68.6671   49.2578   57.1622 C   0  0  0  0  0  0  0  0  0  0  0  0
   67.4854   48.9468   57.8506 C   0  0  0  0  0  0  0  0  0  0  0  0
   66.4622   49.8294   58.0124 C   0  0  0  0  0  0  0  0  0  0  0  0
   66.5566   51.1115   57.4819 C   0  0  0  0  0  0  0  0  0  0  0  0
   67.7164   51.4216   56.8051 C   0  0  0  0  0  0  0  0  0  0  0  0
   68.7500   50.5269   56.6433 C   0  0  0  0  0  0  0  0  0  0  0  0
   70.1906   51.0048   55.7591 Cl  0  0  0  0  0  0  0  0  0  0  0  0
 12 13  2  0
 13 14  1  0
 13  1  1  0
 14 15  1  0
 15 16  2  0
 15 20  1  0
 16 17  1  0
 17 18  2  0
 18 19  1  0
 19 20  2  0
 20 21  1  0
  1  2  2  0
  1  8  1  0
  2  3  1  0
  3  4  1  0
  3  5  2  0
  5  6  1  0
  5  7  1  0
  7  9  1  0
  7  8  2  0
  9 10  2  0
  9 11  1  0
M  CHG  2   9   1  11  -1
M  END
>  <minimizedAffinity>  (297) 
-8.87400

$$$$
cs_full_output_folder/data/smiles/6818.pdb
     RDKit          3D

 24 26  0  0  0  0  0  0  0  0999 V2000
   70.6629   45.9308   58.2362 C   0  0  0  0  0  0  0  0  0  0  0  0
   69.8517   46.6505   57.3979 C   0  0  0  0  0  0  0  0  0  0  0  0
   70.0223   48.0292   57.1529 C   0  0  0  0  0  0  0  0  0  0  0  0
   71.0355   48.7066   57.7665 C   0  0  0  0  0  0  0  0  0  0  0  0
   71.8633   47.9726   58.6202 C   0  0  0  0  0  0  0  0  0  0  0  0
   71.6868   46.6260   58.8508 C   0  0  0  0  0  0  0  0  0  0  0  0
   72.4982   45.9203   59.6844 F   0  0  0  0  0  0  0  0  0  0  0  0
   70.4487   44.5078   58.4678 C   0  0  0  0  0  0  0  0  0  0  0  0
   69.7598   44.1546   59.4503 O   0  0  0  0  0  0  0  0  0  0  0  0
   70.9677   43.5190   57.6561 O   0  0  0  0  0  0  0  0  0  0  0  0
   73.2895   42.8975   57.5263 C   0  0  0  0  0  0  0  0  0  0  0  0
   71.9260   42.5671   58.1330 C   0  0  0  0  0  0  0  0  0  0  0  0
   69.0570   48.7092   56.2389 C   0  0  0  0  0  0  0  0  0  0  0  0
   69.4385   48.6368   54.8095 C   0  0  0  0  0  0  0  0  0  0  0  0
   70.3196   49.5511   54.2960 N   0  0  0  0  0  0  0  0  0  0  0  0
   70.6418   49.5511   53.0376 N   0  0  0  0  0  0  0  0  0  0  0  0
   70.1728   48.6972   52.1307 C   0  0  0  0  0  0  0  0  0  0  0  0
   70.5078   48.7325   50.9265 O   0  0  0  0  0  0  0  0  0  0  0  0
   69.2749   47.7361   52.5701 C   0  0  0  0  0  0  0  0  0  0  0  0
   68.7693   46.8101   51.6668 C   0  0  0  0  0  0  0  0  0  0  0  0
   67.8936   45.8409   52.0906 C   0  0  0  0  0  0  0  0  0  0  0  0
   67.5614   45.8481   53.4240 C   0  0  0  0  0  0  0  0  0  0  0  0
   68.0551   46.7602   54.3232 C   0  0  0  0  0  0  0  0  0  0  0  0
   68.9250   47.7291   53.9153 C   0  0  0  0  0  0  0  0  0  0  0  0
 11 12  1  0
 12 10  1  0
 10  8  1  0
  8  9  2  0
  8  1  1  0
  1  2  2  0
  1  6  1  0
  2  3  1  0
  3 13  1  0
  3  4  2  0
 13 14  1  0
 14 15  2  0
 14 24  1  0
 15 16  1  0
 16 17  1  0
 17 18  2  0
 17 19  1  0
 19 20  1  0
 19 24  2  0
 20 21  2  0
 21 22  1  0
 22 23  2  0
 23 24  1  0
  4  5  1  0
  5  6  2  0
  6  7  1  0
M  END
>  <minimizedAffinity>  (298) 
-8.87377

$$$$
cs_full_output_folder/data/smiles/4862.pdb
     RDKit          3D

 25 28  0  0  0  0  0  0  0  0999 V2000
   70.1672   48.2813   57.3549 C   0  0  0  0  0  0  0  0  0  0  0  0
   71.1492   48.9896   58.0112 C   0  0  0  0  0  0  0  0  0  0  0  0
   72.0037   48.3710   58.9215 C   0  0  0  0  0  0  0  0  0  0  0  0
   71.8590   47.0279   59.1642 C   0  0  0  0  0  0  0  0  0  0  0  0
   70.8866   46.2853   58.5238 C   0  0  0  0  0  0  0  0  0  0  0  0
   70.0638   46.9429   57.6332 C   0  0  0  0  0  0  0  0  0  0  0  0
   70.8238   44.8604   58.8072 C   0  0  0  0  0  0  0  0  0  0  0  0
   69.6990   44.4548   59.3162 O   0  0  0  0  0  0  0  0  0  0  0  0
   71.8346   43.9311   58.5895 N   0  0  0  0  0  0  0  0  0  0  0  0
   73.1608   44.0471   58.0505 C   0  0  0  0  0  0  0  0  0  0  0  0
   73.3302   42.7452   57.2917 C   0  0  0  0  0  0  0  0  0  0  0  0
   72.3208   41.8272   57.8026 N   0  0  0  0  0  0  0  0  0  0  0  0
   71.7126   42.4983   58.9224 C   0  0  0  0  0  0  0  0  0  0  0  0
   69.3185   48.9186   56.3785 C   0  0  0  0  0  0  0  0  0  0  0  0
   70.7069   48.3387   50.9588 N   0  0  0  0  0  0  0  0  0  0  0  0
   70.3527   48.4820   52.3261 C   0  0  0  0  0  0  0  0  0  0  0  0
   70.9777   49.3090   53.1666 N   0  0  0  0  0  0  0  0  0  0  0  0
   70.6461   49.4438   54.4407 N   0  0  0  0  0  0  0  0  0  0  0  0
   69.6342   48.7399   54.9861 C   0  0  0  0  0  0  0  0  0  0  0  0
   68.9584   47.8736   54.1655 C   0  0  0  0  0  0  0  0  0  0  0  0
   69.2850   47.7164   52.8339 C   0  0  0  0  0  0  0  0  0  0  0  0
   68.5387   46.8104   51.9533 C   0  0  0  0  0  0  0  0  0  0  0  0
   67.8648   45.7210   52.6857 C   0  0  0  0  0  0  0  0  0  0  0  0
   68.0077   45.6976   54.1668 C   0  0  0  0  0  0  0  0  0  0  0  0
   67.8425   47.1199   54.7526 C   0  0  0  0  0  0  0  0  0  0  0  0
 15 16  1  0
 16 17  2  0
 16 21  1  0
 17 18  1  0
 18 19  2  0
 19 14  1  0
 19 20  1  0
 14  1  1  0
  1  2  2  0
  1  6  1  0
  2  3  1  0
  3  4  2  0
  4  5  1  0
  5  7  1  0
  5  6  2  0
  7  8  2  0
  7  9  1  0
  9 10  1  0
  9 13  1  0
 10 11  1  0
 11 12  1  0
 12 13  1  0
 20 21  2  0
 20 25  1  0
 21 22  1  0
 22 23  1  0
 23 24  1  0
 24 25  1  0
M  CHG  1  12   1
M  END
>  <minimizedAffinity>  (299) 
-8.87127

$$$$
cs_full_output_folder/data/smiles/7388.pdb
     RDKit          3D

 24 26  0  0  0  0  0  0  0  0999 V2000
   70.9696   46.1479   58.3021 C   0  0  0  0  0  0  0  0  0  0  0  0
   71.6401   47.0837   59.0561 C   0  0  0  0  0  0  0  0  0  0  0  0
   71.4196   48.4368   58.9152 C   0  0  0  0  0  0  0  0  0  0  0  0
   70.5098   48.8583   58.0010 C   0  0  0  0  0  0  0  0  0  0  0  0
   69.7951   47.9516   57.2023 C   0  0  0  0  0  0  0  0  0  0  0  0
   70.0473   46.6323   57.3791 C   0  0  0  0  0  0  0  0  0  0  0  0
   71.2135   44.7632   58.4848 N   0  0  0  0  0  0  0  0  0  0  0  0
   70.0104   43.5968   58.7611 S   0  0  0  0  0  0  0  0  0  0  0  0
   69.1182   43.5028   57.5602 O   0  0  0  0  0  0  0  0  0  0  0  0
   69.1522   43.8562   59.9465 O   0  0  0  0  0  0  0  0  0  0  0  0
   71.9184   41.7934   58.0491 C   0  0  0  0  0  0  0  0  0  0  0  0
   70.7236   41.9616   58.9741 C   0  0  0  0  0  0  0  0  0  0  0  0
   68.8229   48.5497   56.2798 C   0  0  0  0  0  0  0  0  0  0  0  0
   69.2929   48.5416   54.8925 C   0  0  0  0  0  0  0  0  0  0  0  0
   70.1965   49.4815   54.4698 N   0  0  0  0  0  0  0  0  0  0  0  0
   70.6139   49.5408   53.2230 N   0  0  0  0  0  0  0  0  0  0  0  0
   70.1874   48.6860   52.2738 C   0  0  0  0  0  0  0  0  0  0  0  0
   70.5681   48.7251   51.0911 O   0  0  0  0  0  0  0  0  0  0  0  0
   69.2786   47.7115   52.6218 C   0  0  0  0  0  0  0  0  0  0  0  0
   68.8238   46.7926   51.6886 C   0  0  0  0  0  0  0  0  0  0  0  0
   67.9357   45.8168   52.0674 C   0  0  0  0  0  0  0  0  0  0  0  0
   67.5029   45.7579   53.3733 C   0  0  0  0  0  0  0  0  0  0  0  0
   67.9388   46.6544   54.3079 C   0  0  0  0  0  0  0  0  0  0  0  0
   68.8402   47.6563   53.9507 C   0  0  0  0  0  0  0  0  0  0  0  0
 11 12  1  0
 12  8  1  0
  8  9  2  0
  8 10  2  0
  8  7  1  0
  7  1  1  0
  1  2  2  0
  1  6  1  0
  2  3  1  0
  3  4  2  0
  4  5  1  0
  5 13  1  0
  5  6  2  0
 13 14  1  0
 14 15  2  0
 14 24  1  0
 15 16  1  0
 16 17  1  0
 17 18  2  0
 17 19  1  0
 19 20  1  0
 19 24  2  0
 20 21  2  0
 21 22  1  0
 22 23  2  0
 23 24  1  0
M  END
>  <minimizedAffinity>  (300) 
-8.87077

$$$$
cs_full_output_folder/data/smiles/1788.pdb
     RDKit          3D

 23 25  0  0  0  0  0  0  0  0999 V2000
   68.5792   44.4670   56.3085 N   0  0  0  0  0  0  0  0  0  0  0  0
   68.8185   43.1684   56.8235 C   0  0  0  0  0  0  0  0  0  0  0  0
   68.3077   42.2017   56.1722 O   0  0  0  0  0  0  0  0  0  0  0  0
   69.6032   42.9414   58.0288 C   0  0  0  0  0  0  0  0  0  0  0  0
   69.3122   43.6640   59.0277 O   0  0  0  0  0  0  0  0  0  0  0  0
   70.6539   41.9528   58.1017 C   0  0  0  0  0  0  0  0  0  0  0  0
   71.9940   42.1092   57.9448 C   0  0  0  0  0  0  0  0  0  0  0  0
   72.5945   40.9183   58.1003 N   0  0  0  0  0  0  0  0  0  0  0  0
   71.6678   39.9608   58.3600 C   0  0  0  0  0  0  0  0  0  0  0  0
   71.7726   38.5962   58.5929 C   0  0  0  0  0  0  0  0  0  0  0  0
   70.6548   37.8361   58.8371 C   0  0  0  0  0  0  0  0  0  0  0  0
   69.4354   38.4891   58.8385 C   0  0  0  0  0  0  0  0  0  0  0  0
   69.3235   39.8445   58.6076 C   0  0  0  0  0  0  0  0  0  0  0  0
   70.4563   40.6102   58.3616 C   0  0  0  0  0  0  0  0  0  0  0  0
   67.8163   44.6821   55.1388 N   0  0  0  0  0  0  0  0  0  0  0  0
   69.0824   47.7611   52.5578 C   0  0  0  0  0  0  0  0  0  0  0  0
   68.4810   46.6259   52.0237 C   0  0  0  0  0  0  0  0  0  0  0  0
   68.0841   45.6429   52.9111 C   0  0  0  0  0  0  0  0  0  0  0  0
   68.2476   45.7219   54.2744 C   0  0  0  0  0  0  0  0  0  0  0  0
   68.8520   46.8702   54.7716 C   0  0  0  0  0  0  0  0  0  0  0  0
   69.2638   47.8773   53.9188 C   0  0  0  0  0  0  0  0  0  0  0  0
   69.8016   49.5852   51.0432 N   0  0  0  0  0  0  0  0  0  0  0  0
   69.4878   48.7601   51.7262 N   0  0  0  0  0  0  0  0  0  0  0  0
 22 23  3  0
 23 16  1  0
 16 17  2  0
 16 21  1  0
 17 18  1  0
 18 19  2  0
 19 15  1  0
 19 20  1  0
 15  1  1  0
  1  2  1  0
  2  3  2  0
  2  4  1  0
  4  5  2  0
  4  6  1  0
  6  7  2  0
  6 14  1  0
  7  8  1  0
  8  9  1  0
  9 10  1  0
  9 14  2  0
 10 11  2  0
 11 12  1  0
 12 13  2  0
 13 14  1  0
 20 21  2  0
M  CHG  1  23   1
M  END
>  <minimizedAffinity>  (301) 
-8.87038

$$$$
cs_full_output_folder/data/smiles/6913.pdb
     RDKit          3D

 26 28  0  0  0  0  0  0  0  0999 V2000
   68.6716   44.6880   56.1011 N   0  0  0  0  0  0  0  0  0  0  0  0
   69.2375   45.8877   56.6284 C   0  0  0  0  0  0  0  0  0  0  0  0
   69.5814   45.8713   57.8362 O   0  0  0  0  0  0  0  0  0  0  0  0
   67.8055   42.4299   56.6624 C   0  0  0  0  0  0  0  0  0  0  0  0
   67.2386   42.3926   55.5422 O   0  0  0  0  0  0  0  0  0  0  0  0
   68.5461   43.6007   56.9678 N   0  0  0  0  0  0  0  0  0  0  0  0
   65.9468   40.5600   60.8371 C   0  0  0  0  0  0  0  0  0  0  0  0
   66.7633   40.3523   59.6050 C   0  0  0  0  0  0  0  0  0  0  0  0
   67.3436   39.1310   59.3585 C   0  0  0  0  0  0  0  0  0  0  0  0
   68.0869   38.9982   58.2041 C   0  0  0  0  0  0  0  0  0  0  0  0
   68.2436   40.0588   57.3223 C   0  0  0  0  0  0  0  0  0  0  0  0
   67.6672   41.2873   57.5606 C   0  0  0  0  0  0  0  0  0  0  0  0
   66.9303   41.3951   58.7195 C   0  0  0  0  0  0  0  0  0  0  0  0
   69.4319   47.1093   55.8397 C   0  0  0  0  0  0  0  0  0  0  0  0
   69.0230   47.0459   54.4419 C   0  0  0  0  0  0  0  0  0  0  0  0
   68.0857   46.1167   54.0503 C   0  0  0  0  0  0  0  0  0  0  0  0
   67.6709   46.0285   52.7150 C   0  0  0  0  0  0  0  0  0  0  0  0
   68.1929   46.8718   51.7588 C   0  0  0  0  0  0  0  0  0  0  0  0
   69.1303   47.8042   52.1364 C   0  0  0  0  0  0  0  0  0  0  0  0
   69.5117   47.8617   53.4486 C   0  0  0  0  0  0  0  0  0  0  0  0
   68.6608   48.2078   56.4771 C   0  0  0  0  0  0  0  0  0  0  0  0
   69.1949   49.4762   56.4429 C   0  0  0  0  0  0  0  0  0  0  0  0
   68.5339   50.5488   57.0076 C   0  0  0  0  0  0  0  0  0  0  0  0
   67.3244   50.3237   57.6096 C   0  0  0  0  0  0  0  0  0  0  0  0
   66.7913   49.0572   57.6431 C   0  0  0  0  0  0  0  0  0  0  0  0
   67.4412   47.9871   57.0841 C   0  0  0  0  0  0  0  0  0  0  0  0
  7  8  1  0
  8  9  2  0
  8 13  1  0
  9 10  1  0
 10 11  2  0
 11 12  1  0
 12  4  1  0
 12 13  2  0
  4  5  2  0
  4  6  1  0
  6  1  1  0
  1  2  1  0
  2  3  2  0
  2 14  1  0
 14 15  1  0
 14 21  1  0
 15 16  2  0
 15 20  1  0
 16 17  1  0
 17 18  2  0
 18 19  1  0
 19 20  2  0
 21 22  2  0
 21 26  1  0
 22 23  1  0
 23 24  2  0
 24 25  1  0
 25 26  2  0
M  END
>  <minimizedAffinity>  (302) 
-8.86870

$$$$
cs_full_output_folder/data/smiles/809.pdb
     RDKit          3D

 23 25  0  0  0  0  0  0  0  0999 V2000
   68.6024   45.8880   56.7307 O   0  0  0  0  0  0  0  0  0  0  0  0
   69.0402   46.7948   56.0098 C   0  0  0  0  0  0  0  0  0  0  0  0
   68.8006   46.7407   54.5720 C   0  0  0  0  0  0  0  0  0  0  0  0
   67.8931   45.8583   54.0094 C   0  0  0  0  0  0  0  0  0  0  0  0
   67.6723   45.8158   52.6507 C   0  0  0  0  0  0  0  0  0  0  0  0
   66.7559   44.9260   52.0740 O   0  0  0  0  0  0  0  0  0  0  0  0
   68.3492   46.6535   51.7900 C   0  0  0  0  0  0  0  0  0  0  0  0
   68.1297   46.6140   50.4238 O   0  0  0  0  0  0  0  0  0  0  0  0
   69.2603   47.5425   52.3320 C   0  0  0  0  0  0  0  0  0  0  0  0
   69.4734   47.5750   53.7054 C   0  0  0  0  0  0  0  0  0  0  0  0
   69.9797   48.4249   51.4835 N   0  0  0  0  0  0  0  0  0  0  0  0
   69.1988   49.4612   51.1056 O   0  0  0  0  0  0  0  0  0  0  0  0
   69.7976   47.9052   56.6426 C   0  0  0  0  0  0  0  0  0  0  0  0
   68.9069   49.0708   56.8674 C   0  0  0  0  0  0  0  0  0  0  0  0
   67.7474   48.9570   57.6221 C   0  0  0  0  0  0  0  0  0  0  0  0
   66.9210   50.0376   57.8178 C   0  0  0  0  0  0  0  0  0  0  0  0
   67.2126   51.2636   57.2764 C   0  0  0  0  0  0  0  0  0  0  0  0
   68.3728   51.4188   56.5095 C   0  0  0  0  0  0  0  0  0  0  0  0
   68.6643   52.6551   55.9698 C   0  0  0  0  0  0  0  0  0  0  0  0
   69.8171   52.7957   55.2161 C   0  0  0  0  0  0  0  0  0  0  0  0
   70.6506   51.7070   55.0194 C   0  0  0  0  0  0  0  0  0  0  0  0
   70.3431   50.4781   55.5674 C   0  0  0  0  0  0  0  0  0  0  0  0
   69.1883   50.3220   56.3257 C   0  0  0  0  0  0  0  0  0  0  0  0
  1  2  2  0
  2 13  1  0
  2  3  1  0
 13 14  1  0
 14 15  2  0
 14 23  1  0
 15 16  1  0
 16 17  2  0
 17 18  1  0
 18 19  1  0
 18 23  2  0
 19 20  2  0
 20 21  1  0
 21 22  2  0
 22 23  1  0
  3  4  2  0
  3 10  1  0
  4  5  1  0
  5  6  1  0
  5  7  2  0
  7  8  1  0
  7  9  1  0
  9 11  1  0
  9 10  2  0
 11 12  1  0
M  CHG  2  11   1  12  -1
M  END
>  <minimizedAffinity>  (303) 
-8.86725

$$$$
cs_full_output_folder/data/smiles/8660.pdb
     RDKit          3D

 25 27  0  0  0  0  0  0  0  0999 V2000
   69.5063   44.7442   57.2620 C   0  0  0  0  0  0  0  0  0  0  0  0
   70.1094   45.6153   57.9064 O   0  0  0  0  0  0  0  0  0  0  0  0
   68.6127   45.0881   56.2458 N   0  0  0  0  0  0  0  0  0  0  0  0
   67.9266   41.8448   56.5914 C   0  0  0  0  0  0  0  0  0  0  0  0
   69.1843   42.1746   57.3714 C   0  0  0  0  0  0  0  0  0  0  0  0
   69.7689   43.3067   57.6123 C   0  0  0  0  0  0  0  0  0  0  0  0
   70.8250   42.6548   58.3836 C   0  0  0  0  0  0  0  0  0  0  0  0
   70.1367   41.4630   58.0821 N   0  0  0  0  0  0  0  0  0  0  0  0
   70.3341   40.0819   58.3832 C   0  0  0  0  0  0  0  0  0  0  0  0
   71.5449   39.4393   58.2284 C   0  0  0  0  0  0  0  0  0  0  0  0
   71.7487   38.1160   58.5121 C   0  0  0  0  0  0  0  0  0  0  0  0
   70.7022   37.3549   58.9816 C   0  0  0  0  0  0  0  0  0  0  0  0
   70.8700   36.0312   59.2743 F   0  0  0  0  0  0  0  0  0  0  0  0
   69.4792   37.9729   59.1454 C   0  0  0  0  0  0  0  0  0  0  0  0
   69.2814   39.2981   58.8592 C   0  0  0  0  0  0  0  0  0  0  0  0
   68.3067   46.4379   55.8469 C   0  0  0  0  0  0  0  0  0  0  0  0
   68.4472   46.5728   54.3925 C   0  0  0  0  0  0  0  0  0  0  0  0
   67.6942   45.7842   53.5518 C   0  0  0  0  0  0  0  0  0  0  0  0
   67.7991   45.8994   52.1641 C   0  0  0  0  0  0  0  0  0  0  0  0
   68.6738   46.8206   51.6291 C   0  0  0  0  0  0  0  0  0  0  0  0
   69.4365   47.6188   52.4545 C   0  0  0  0  0  0  0  0  0  0  0  0
   69.3073   47.4784   53.8312 C   0  0  0  0  0  0  0  0  0  0  0  0
   70.3615   48.5937   51.8392 C   0  0  2  0  0  0  0  0  0  0  0  0
   71.2841   49.1557   52.8057 N   0  0  0  0  0  0  0  0  0  0  0  0
   69.7093   49.5585   51.1149 O   0  0  0  0  0  0  0  0  0  0  0  0
  4  5  1  0
  5  6  2  0
  5  8  1  0
  6  1  1  0
  6  7  1  0
  1  2  2  0
  1  3  1  0
  3 16  1  0
 16 17  1  0
 17 18  2  0
 17 22  1  0
 18 19  1  0
 19 20  2  0
 20 21  1  0
 21 23  1  0
 21 22  2  0
 23 24  1  1
 23 25  1  0
  7  8  1  0
  8  9  1  0
  9 10  2  0
  9 15  1  0
 10 11  1  0
 11 12  2  0
 12 13  1  0
 12 14  1  0
 14 15  2  0
M  CHG  1  24   1
M  END
>  <minimizedAffinity>  (304) 
-8.86497

$$$$
cs_full_output_folder/data/smiles/1474.pdb
     RDKit          3D

 25 27  0  0  0  0  0  0  0  0999 V2000
   68.4470   48.7724   57.3900 O   0  0  0  0  0  0  0  0  0  0  0  0
   68.9051   47.8033   56.6842 C   0  0  0  0  0  0  0  0  0  0  0  0
   69.2877   48.1184   55.3211 C   0  0  0  0  0  0  0  0  0  0  0  0
   70.1565   49.1962   55.0774 C   0  0  0  0  0  0  0  0  0  0  0  0
   70.5165   49.4918   53.8095 C   0  0  0  0  0  0  0  0  0  0  0  0
   71.3049   50.4702   53.5999 O   0  0  0  0  0  0  0  0  0  0  0  0
   70.0943   48.8166   52.7384 N   0  0  0  0  0  0  0  0  0  0  0  0
   69.2629   47.7758   52.9022 C   0  0  0  0  0  0  0  0  0  0  0  0
   68.8270   47.0764   51.7922 C   0  0  0  0  0  0  0  0  0  0  0  0
   67.9781   46.0091   51.9343 C   0  0  0  0  0  0  0  0  0  0  0  0
   67.5902   45.6777   53.2062 C   0  0  0  0  0  0  0  0  0  0  0  0
   68.0126   46.3637   54.3447 C   0  0  0  0  0  0  0  0  0  0  0  0
   68.8612   47.4299   54.1973 C   0  0  0  0  0  0  0  0  0  0  0  0
   68.9629   46.6176   57.3218 O   0  0  0  0  0  0  0  0  0  0  0  0
   70.1108   46.0561   57.9255 C   0  0  1  0  0  0  0  0  0  0  0  0
   70.5411   46.8668   59.0010 O   0  0  0  0  0  0  0  0  0  0  0  0
   69.9200   44.7462   58.4138 N   0  0  0  0  0  0  0  0  0  0  0  0
   70.5697   43.6787   57.7668 C   0  0  0  0  0  0  0  0  0  0  0  0
   69.6093   42.5842   57.4913 C   0  0  0  0  0  0  0  0  0  0  0  0
   69.7545   41.3586   58.1319 C   0  0  0  0  0  0  0  0  0  0  0  0
   68.8882   40.3137   57.8989 C   0  0  0  0  0  0  0  0  0  0  0  0
   67.8420   40.4517   57.0180 C   0  0  0  0  0  0  0  0  0  0  0  0
   67.6757   41.6519   56.3716 C   0  0  0  0  0  0  0  0  0  0  0  0
   68.5517   42.6912   56.6147 C   0  0  0  0  0  0  0  0  0  0  0  0
   68.3747   43.8659   55.9709 F   0  0  0  0  0  0  0  0  0  0  0  0
  1  2  2  0
  2 14  1  0
  2  3  1  0
 14 15  1  0
 15 16  1  1
 15 17  1  0
 17 18  1  0
 18 19  1  0
 19 20  2  0
 19 24  1  0
 20 21  1  0
 21 22  2  0
 22 23  1  0
 23 24  2  0
 24 25  1  0
  3  4  2  0
  3 13  1  0
  4  5  1  0
  5  6  2  0
  5  7  1  0
  7  8  1  0
  8  9  1  0
  8 13  2  0
  9 10  2  0
 10 11  1  0
 11 12  2  0
 12 13  1  0
M  CHG  1  17   1
M  END
>  <minimizedAffinity>  (305) 
-8.86480

$$$$
cs_full_output_folder/data/smiles/9393.pdb
     RDKit          3D

 22 24  0  0  0  0  0  0  0  0999 V2000
   67.4051   44.3635   54.9443 N   0  0  0  0  0  0  0  0  0  0  0  0
   68.0567   43.4966   55.8604 C   0  0  0  0  0  0  0  0  0  0  0  0
   67.7623   42.2149   56.0709 N   0  0  0  0  0  0  0  0  0  0  0  0
   68.3855   41.4027   56.9358 C   0  0  0  0  0  0  0  0  0  0  0  0
   68.0449   40.0852   57.1175 C   0  0  0  0  0  0  0  0  0  0  0  0
   68.7088   39.2855   58.0164 C   0  0  0  0  0  0  0  0  0  0  0  0
   69.7568   39.7879   58.7780 C   0  0  0  0  0  0  0  0  0  0  0  0
   70.1185   41.1185   58.6100 C   0  0  0  0  0  0  0  0  0  0  0  0
   69.4330   41.8959   57.7017 C   0  0  0  0  0  0  0  0  0  0  0  0
   69.7482   43.2208   57.4938 C   0  0  0  0  0  0  0  0  0  0  0  0
   70.7087   43.6782   58.1942 O   0  0  0  0  0  0  0  0  0  0  0  0
   69.0921   43.9918   56.6135 N   0  0  0  0  0  0  0  0  0  0  0  0
   69.1891   47.8469   53.3399 C   0  0  0  0  0  0  0  0  0  0  0  0
   68.7468   46.8567   52.4702 C   0  0  0  0  0  0  0  0  0  0  0  0
   68.1489   45.7037   53.0069 C   0  0  0  0  0  0  0  0  0  0  0  0
   67.9772   45.5004   54.3517 C   0  0  0  0  0  0  0  0  0  0  0  0
   68.4424   46.5336   55.1802 C   0  0  0  0  0  0  0  0  0  0  0  0
   69.0303   47.6714   54.6887 C   0  0  0  0  0  0  0  0  0  0  0  0
   69.8557   49.5049   51.0737 N   0  0  0  0  0  0  0  0  0  0  0  0
   69.9449   49.3097   52.7676 S   0  0  0  0  0  0  0  0  0  0  0  0
   69.3054   50.5334   53.4050 O   0  0  0  0  0  0  0  0  0  0  0  0
   71.4170   49.3274   53.1556 O   0  0  0  0  0  0  0  0  0  0  0  0
 19 20  1  0
 20 21  2  0
 20 22  2  0
 20 13  1  0
 13 14  2  0
 13 18  1  0
 14 15  1  0
 15 16  2  0
 16  1  1  0
 16 17  1  0
  1  2  1  0
  2  3  2  0
  2 12  1  0
  3  4  1  0
  4  5  2  0
  4  9  1  0
  5  6  1  0
  6  7  2  0
  7  8  1  0
  8  9  2  0
  9 10  1  0
 10 11  2  0
 10 12  1  0
 17 18  2  0
M  END
>  <minimizedAffinity>  (306) 
-8.86450

$$$$
cs_full_output_folder/data/smiles/1463.pdb
     RDKit          3D

 25 27  0  0  0  0  0  0  0  0999 V2000
   68.2249   46.2335   55.9240 N   0  0  0  0  0  0  0  0  0  0  0  0
   69.2427   47.5651   52.5610 C   0  0  0  0  0  0  0  0  0  0  0  0
   68.4920   46.6832   51.8133 C   0  0  0  0  0  0  0  0  0  0  0  0
   67.6973   45.7103   52.3023 C   0  0  0  0  0  0  0  0  0  0  0  0
   67.6275   45.5863   53.6892 C   0  0  0  0  0  0  0  0  0  0  0  0
   68.3521   46.4358   54.5189 C   0  0  0  0  0  0  0  0  0  0  0  0
   69.1350   47.3958   53.9295 C   0  0  0  0  0  0  0  0  0  0  0  0
   70.2398   48.7762   51.7902 S   0  0  0  0  0  0  0  0  0  0  0  0
   71.2091   49.0022   52.9948 O   0  0  0  0  0  0  0  0  0  0  0  0
   70.4514   48.4137   50.4966 H   0  0  0  0  0  0  0  0  0  0  0  0
   69.3156   48.8922   50.7992 H   0  0  0  0  0  0  0  0  0  0  0  0
   69.6851   50.7064   53.4543 C   0  0  0  0  0  0  0  0  0  0  0  0
   69.7754   50.3420   52.1070 N   0  0  0  0  0  0  0  0  0  0  0  0
   69.1184   45.4449   56.6764 C   0  0  0  0  0  0  0  0  0  0  0  0
   70.1953   46.0002   57.2491 N   0  0  0  0  0  0  0  0  0  0  0  0
   71.0864   45.2782   57.9649 C   0  0  0  0  0  0  0  0  0  0  0  0
   70.8774   43.9053   58.1120 C   0  0  0  0  0  0  0  0  0  0  0  0
   69.7853   43.3112   57.5385 C   0  0  0  0  0  0  0  0  0  0  0  0
   68.9488   44.1229   56.8409 N   0  0  0  0  0  0  0  0  0  0  0  0
   69.5080   41.8974   57.6868 C   0  0  0  0  0  0  0  0  0  0  0  0
   70.3220   41.0236   58.3484 C   0  0  0  0  0  0  0  0  0  0  0  0
   70.0171   39.6785   58.4926 C   0  0  0  0  0  0  0  0  0  0  0  0
   68.8520   39.1965   57.9505 C   0  0  0  0  0  0  0  0  0  0  0  0
   68.0195   40.0395   57.2853 C   0  0  0  0  0  0  0  0  0  0  0  0
   68.3279   41.3939   57.1417 C   0  0  0  0  0  0  0  0  0  0  0  0
 12 13  1  0
 13  8  1  0
  8  9  2  0
  8  2  1  0
  8 10  1  0
  8 11  1  0
  2  3  2  0
  2  7  1  0
  3  4  1  0
  4  5  2  0
  5  6  1  0
  6  1  1  0
  6  7  2  0
  1 14  1  0
 14 15  2  0
 14 19  1  0
 15 16  1  0
 16 17  2  0
 17 18  1  0
 18 20  1  0
 18 19  2  0
 20 21  2  0
 20 25  1  0
 21 22  1  0
 22 23  2  0
 23 24  1  0
 24 25  2  0
M  END
>  <minimizedAffinity>  (307) 
-8.86378

$$$$
cs_full_output_folder/data/smiles/491.pdb
     RDKit          3D

 26 29  0  0  0  0  0  0  0  0999 V2000
   68.2174   45.2424   55.3286 C   0  0  0  0  0  0  0  0  0  0  0  0
   68.8657   45.6718   56.4343 N   0  0  0  0  0  0  0  0  0  0  0  0
   69.5761   46.8105   56.4551 C   0  0  0  0  0  0  0  0  0  0  0  0
   69.6260   47.5272   55.3224 N   0  0  0  0  0  0  0  0  0  0  0  0
   68.9889   47.1388   54.1769 C   0  0  0  0  0  0  0  0  0  0  0  0
   68.2637   45.9719   54.1599 C   0  0  0  0  0  0  0  0  0  0  0  0
   67.6769   45.7844   52.7844 C   0  0  0  0  0  0  0  0  0  0  0  0
   68.6473   46.6125   51.9260 C   0  0  0  0  0  0  0  0  0  0  0  0
   68.9051   47.7638   52.8388 C   0  0  0  0  0  0  0  0  0  0  0  0
   70.2686   47.2545   57.6613 C   0  0  0  0  0  0  0  0  0  0  0  0
   70.8314   46.3617   58.5466 C   0  0  0  0  0  0  0  0  0  0  0  0
   71.4903   46.8070   59.6965 C   0  0  0  0  0  0  0  0  0  0  0  0
   71.5967   48.1187   59.9740 N   0  0  0  0  0  0  0  0  0  0  0  0
   71.0543   49.0084   59.1221 C   0  0  0  0  0  0  0  0  0  0  0  0
   70.3961   48.5894   57.9772 C   0  0  0  0  0  0  0  0  0  0  0  0
   67.4849   44.0456   55.3471 O   0  0  0  0  0  0  0  0  0  0  0  0
   69.0152   40.7711   57.5747 C   0  0  0  0  0  0  0  0  0  0  0  0
   67.9115   40.6375   56.7757 C   0  0  0  0  0  0  0  0  0  0  0  0
   67.4096   41.7267   56.0407 C   0  0  0  0  0  0  0  0  0  0  0  0
   67.9953   42.9695   56.0855 C   0  0  0  0  0  0  0  0  0  0  0  0
   69.1056   43.1101   56.8872 C   0  0  0  0  0  0  0  0  0  0  0  0
   69.5920   42.0410   57.6046 C   0  0  0  0  0  0  0  0  0  0  0  0
   69.7291   37.7289   59.8778 C   0  0  0  0  0  0  0  0  0  0  0  0
   68.9453   38.7531   59.0861 C   0  0  0  0  0  0  0  0  0  0  0  0
   67.7090   38.6903   59.0946 O   0  0  0  0  0  0  0  0  0  0  0  0
   69.6097   39.7496   58.3600 N   0  0  0  0  0  0  0  0  0  0  0  0
 23 24  1  0
 24 25  2  0
 24 26  1  0
 26 17  1  0
 17 18  2  0
 17 22  1  0
 18 19  1  0
 19 20  2  0
 20 16  1  0
 20 21  1  0
 16  1  1  0
  1  2  2  0
  1  6  1  0
  2  3  1  0
  3 10  1  0
  3  4  2  0
 10 11  2  0
 10 15  1  0
 11 12  1  0
 12 13  2  0
 13 14  1  0
 14 15  2  0
  4  5  1  0
  5  6  2  0
  5  9  1  0
  6  7  1  0
  7  8  1  0
  8  9  1  0
 21 22  2  0
M  END
>  <minimizedAffinity>  (308) 
-8.86151

$$$$
cs_full_output_folder/data/smiles/1077.pdb
     RDKit          3D

 21 23  0  0  0  0  0  0  0  0999 V2000
   70.5128   49.2369   54.0031 C   0  0  0  0  0  0  0  0  0  0  0  0
   71.6926   49.4901   53.4069 N   0  0  0  0  0  0  0  0  0  0  0  0
   72.2867   50.5048   53.9756 N   0  0  0  0  0  0  0  0  0  0  0  0
   71.4871   50.9420   54.9747 C   0  0  0  0  0  0  0  0  0  0  0  0
   70.3453   50.1465   55.0119 C   0  0  0  0  0  0  0  0  0  0  0  0
   66.9133   45.0797   52.6019 O   0  0  0  0  0  0  0  0  0  0  0  0
   67.7895   46.0943   52.9605 C   0  0  0  0  0  0  0  0  0  0  0  0
   68.1444   46.3421   54.2689 C   0  0  0  0  0  0  0  0  0  0  0  0
   69.0173   47.3550   54.6075 C   0  0  0  0  0  0  0  0  0  0  0  0
   69.5868   48.1815   53.6317 C   0  0  0  0  0  0  0  0  0  0  0  0
   69.2290   47.9302   52.3275 C   0  0  0  0  0  0  0  0  0  0  0  0
   69.7684   48.7237   51.3249 O   0  0  0  0  0  0  0  0  0  0  0  0
   68.3588   46.9207   51.9912 C   0  0  0  0  0  0  0  0  0  0  0  0
   67.9876   46.6552   50.6597 O   0  0  0  0  0  0  0  0  0  0  0  0
   69.2167   50.2525   55.9260 C   0  0  0  0  0  0  0  0  0  0  0  0
   69.0707   49.3492   56.9803 C   0  0  0  0  0  0  0  0  0  0  0  0
   68.0358   49.3939   57.8834 C   0  0  0  0  0  0  0  0  0  0  0  0
   67.0909   50.3871   57.7365 C   0  0  0  0  0  0  0  0  0  0  0  0
   67.1837   51.3008   56.7203 C   0  0  0  0  0  0  0  0  0  0  0  0
   68.2466   51.2283   55.8211 C   0  0  0  0  0  0  0  0  0  0  0  0
   68.3374   52.4080   54.5395 Cl  0  0  0  0  0  0  0  0  0  0  0  0
  6  7  1  0
  7  8  2  0
  7 13  1  0
  8  9  1  0
  9 10  2  0
 10  1  1  0
 10 11  1  0
  1  2  2  0
  1  5  1  0
  2  3  1  0
  3  4  1  0
  4  5  2  0
  5 15  1  0
 15 16  2  0
 15 20  1  0
 16 17  1  0
 17 18  2  0
 18 19  1  0
 19 20  2  0
 20 21  1  0
 11 12  1  0
 11 13  2  0
 13 14  1  0
M  END
>  <minimizedAffinity>  (309) 
-8.86088

$$$$
cs_full_output_folder/data/smiles/3670.pdb
     RDKit          3D

 24 27  0  0  0  0  0  0  0  0999 V2000
   69.0914   43.8520   56.9343 C   0  0  0  0  0  0  0  0  0  0  0  0
   70.2042   44.0352   57.7205 C   0  0  0  0  0  0  0  0  0  0  0  0
   70.7441   45.3119   57.8647 C   0  0  0  0  0  0  0  0  0  0  0  0
   71.8433   45.5016   58.6382 F   0  0  0  0  0  0  0  0  0  0  0  0
   70.1295   46.3534   57.2017 C   0  0  0  0  0  0  0  0  0  0  0  0
   70.5809   47.5358   57.2994 O   0  0  0  0  0  0  0  0  0  0  0  0
   69.0410   46.1633   56.4357 N   0  0  0  0  0  0  0  0  0  0  0  0
   68.5748   44.9330   56.3365 N   0  0  0  0  0  0  0  0  0  0  0  0
   67.6191   42.2761   55.9027 O   0  0  0  0  0  0  0  0  0  0  0  0
   68.4907   42.5107   56.7544 C   0  0  0  0  0  0  0  0  0  0  0  0
   68.9068   41.4210   57.5756 N   0  0  0  0  0  0  0  0  0  0  0  0
   68.3646   40.0829   57.4550 C   0  0  0  0  0  0  0  0  0  0  0  0
   67.6578   39.4695   58.6086 C   0  0  0  0  0  0  0  0  0  0  0  0
   69.0646   39.0559   58.3346 C   0  0  0  0  0  0  0  0  0  0  0  0
   68.3983   47.2818   55.7371 C   0  0  0  0  0  0  0  0  0  0  0  0
   68.3855   46.9638   54.2840 C   0  0  0  0  0  0  0  0  0  0  0  0
   67.6269   45.9648   53.7269 C   0  0  0  0  0  0  0  0  0  0  0  0
   67.6438   45.7040   52.3662 C   0  0  0  0  0  0  0  0  0  0  0  0
   68.4480   46.4662   51.5259 C   0  0  0  0  0  0  0  0  0  0  0  0
   69.2057   47.4600   52.0630 C   0  0  0  0  0  0  0  0  0  0  0  0
   70.0476   48.3162   51.4592 N   0  0  0  0  0  0  0  0  0  0  0  0
   70.5675   49.1150   52.3859 N   0  0  0  0  0  0  0  0  0  0  0  0
   70.0666   48.7842   53.6066 C   0  0  0  0  0  0  0  0  0  0  0  0
   69.1915   47.7278   53.4374 C   0  0  0  0  0  0  0  0  0  0  0  0
  9 10  2  0
 10 11  1  0
 10  1  1  0
 11 12  1  0
 12 13  1  0
 12 14  1  0
 13 14  1  0
  1  2  1  0
  1  8  2  0
  2  3  2  0
  3  4  1  0
  3  5  1  0
  5  6  2  0
  5  7  1  0
  7 15  1  0
  7  8  1  0
 15 16  1  0
 16 17  2  0
 16 24  1  0
 17 18  1  0
 18 19  2  0
 19 20  1  0
 20 21  1  0
 20 24  2  0
 21 22  1  0
 22 23  2  0
 23 24  1  0
M  END
>  <minimizedAffinity>  (310) 
-8.85955

$$$$
cs_full_output_folder/data/smiles/552.pdb
     RDKit          3D

 25 26  0  0  0  0  0  0  0  0999 V2000
   69.5156   50.7654   56.7580 C   0  0  0  0  0  0  0  0  0  0  0  0
   69.2214   52.0892   56.9322 C   0  0  0  0  0  0  0  0  0  0  0  0
   68.8850   52.8590   55.8780 C   0  0  0  0  0  0  0  0  0  0  0  0
   68.7901   52.4132   54.5254 C   0  0  0  0  0  0  0  0  0  0  0  0
   69.0849   51.0829   54.3632 C   0  0  0  0  0  0  0  0  0  0  0  0
   69.4280   50.2656   55.3875 C   0  0  0  0  0  0  0  0  0  0  0  0
   70.7531   49.1724   58.3267 C   0  0  0  0  0  0  0  0  0  0  0  0
   70.1750   49.9061   57.5905 C   0  0  0  0  0  0  0  0  0  0  0  0
   72.1439   47.4935   60.0163 C   0  0  0  0  0  0  0  0  0  0  0  0
   71.5443   48.1986   59.3003 C   0  0  0  0  0  0  0  0  0  0  0  0
   73.6718   47.1230   61.8189 C   0  0  0  0  0  0  0  0  0  0  0  0
   72.8665   46.6778   60.8692 C   0  0  0  0  0  0  0  0  0  0  0  0
   74.5239   47.5982   62.8246 C   0  0  0  0  0  0  0  0  0  0  0  0
   74.8963   46.4153   64.9716 O   0  0  0  0  0  0  0  0  0  0  0  0
   74.5597   46.7346   63.9136 C   0  0  0  0  0  0  0  0  0  0  0  0
   69.2116   50.5646   52.9871 N   0  0  0  0  0  0  0  0  0  0  0  0
   70.0278   49.1184   52.6538 S   0  0  0  0  0  0  0  0  0  0  0  0
   71.4370   49.2324   53.2974 O   0  0  0  0  0  0  0  0  0  0  0  0
   70.3588   49.0282   51.1670 O   0  0  0  0  0  0  0  0  0  0  0  0
   69.2197   47.6526   53.1269 C   0  0  0  0  0  0  0  0  0  0  0  0
   68.9944   47.2956   54.3791 C   0  0  0  0  0  0  0  0  0  0  0  0
   68.2533   46.2562   54.7248 C   0  0  0  0  0  0  0  0  0  0  0  0
   67.6628   45.4655   53.7372 C   0  0  0  0  0  0  0  0  0  0  0  0
   67.8937   45.8202   52.3307 C   0  0  0  0  0  0  0  0  0  0  0  0
   68.6771   46.9157   52.0378 C   0  0  0  0  0  0  0  0  0  0  0  0
 14 15  2  0
 15 13  1  0
 13 11  1  0
 11 12  2  3
 12  9  1  0
  9 10  3  0
 10  7  1  0
  7  8  3  0
  8  1  1  0
  1  2  2  0
  1  6  1  0
  2  3  1  0
  3  4  2  0
  4  5  1  0
  5 16  1  0
  5  6  2  0
 16 17  1  0
 17 18  2  0
 17 19  2  0
 17 20  1  0
 20 21  2  0
 20 25  1  0
 21 22  1  0
 22 23  2  0
 23 24  1  0
 24 25  2  0
M  END
>  <minimizedAffinity>  (311) 
-8.85906

$$$$
cs_full_output_folder/data/smiles/3322.pdb
     RDKit          3D

 26 29  0  0  0  0  0  0  0  0999 V2000
   74.7784   35.2881   53.5759 C   0  0  0  0  0  0  0  0  0  0  0  0
   73.4359   35.5546   53.6304 C   0  0  0  0  0  0  0  0  0  0  0  0
   72.6994   35.3400   54.8043 C   0  0  0  0  0  0  0  0  0  0  0  0
   73.3462   34.8595   55.8931 C   0  0  0  0  0  0  0  0  0  0  0  0
   74.7302   34.5919   55.8170 C   0  0  0  0  0  0  0  0  0  0  0  0
   75.3762   34.8155   54.6765 N   0  0  0  0  0  0  0  0  0  0  0  0
   72.7696   34.5437   57.1867 C   0  0  0  0  0  0  0  0  0  0  0  0
   72.6832   33.2497   57.6119 N   0  0  0  0  0  0  0  0  0  0  0  0
   72.1129   32.9375   58.7605 N   0  0  0  0  0  0  0  0  0  0  0  0
   71.5872   33.8736   59.5662 C   0  0  0  0  0  0  0  0  0  0  0  0
   71.0426   33.5578   60.6640 O   0  0  0  0  0  0  0  0  0  0  0  0
   71.6359   35.2180   59.1970 C   0  0  0  0  0  0  0  0  0  0  0  0
   72.2396   35.5242   57.9958 C   0  0  0  0  0  0  0  0  0  0  0  0
   72.4227   36.9165   57.5988 C   0  0  0  0  0  0  0  0  0  0  0  0
   71.5006   37.8735   58.2438 C   0  0  0  0  0  0  0  0  0  0  0  0
   70.9100   37.4581   59.5183 C   0  0  0  0  0  0  0  0  0  0  0  0
   70.9562   36.2284   59.9819 C   0  0  0  0  0  0  0  0  0  0  0  0
   75.0898   33.4522   51.5177 O   0  0  0  0  0  0  0  0  0  0  0  0
   75.7027   34.5538   51.3841 C   0  0  0  0  0  0  0  0  0  0  0  0
   75.5569   35.4911   52.4120 N   0  0  0  0  0  0  0  0  0  0  0  0
   76.5115   34.8167   50.2189 C   0  0  0  0  0  0  0  0  0  0  0  0
   77.5695   35.6849   50.1736 C   0  0  0  0  0  0  0  0  0  0  0  0
   78.3093   35.8926   49.0141 C   0  0  0  0  0  0  0  0  0  0  0  0
   77.9984   35.2221   47.8545 C   0  0  0  0  0  0  0  0  0  0  0  0
   76.9353   34.3444   47.8833 C   0  0  0  0  0  0  0  0  0  0  0  0
   76.2074   34.1454   49.0370 C   0  0  0  0  0  0  0  0  0  0  0  0
 18 19  2  0
 19 20  1  0
 19 21  1  0
 20  1  1  0
  1  2  2  0
  1  6  1  0
  2  3  1  0
  3  4  2  0
  4  7  1  0
  4  5  1  0
  7  8  2  0
  7 13  1  0
  8  9  1  0
  9 10  1  0
 10 11  2  0
 10 12  1  0
 12 13  2  0
 12 17  1  0
 13 14  1  0
 14 15  1  0
 15 16  1  0
 16 17  2  0
  5  6  2  0
 21 22  2  0
 21 26  1  0
 22 23  1  0
 23 24  2  0
 24 25  1  0
 25 26  2  0
M  END
>  <minimizedAffinity>  (312) 
-8.85723

$$$$
cs_full_output_folder/data/smiles/9080.pdb
     RDKit          3D

 23 25  0  0  0  0  0  0  0  0999 V2000
   69.5382   44.9626   56.7123 N   0  0  0  0  0  0  0  0  0  0  0  0
   70.0641   44.4470   57.9195 C   0  0  0  0  0  0  0  0  0  0  0  0
   69.7997   45.1197   58.9568 O   0  0  0  0  0  0  0  0  0  0  0  0
   68.3315   46.8701   55.8209 C   0  0  0  0  0  0  0  0  0  0  0  0
   68.7988   46.0952   56.6527 N   0  0  0  0  0  0  0  0  0  0  0  0
   69.7636   48.9500   54.4802 C   0  0  0  0  0  0  0  0  0  0  0  0
   69.1030   47.8716   53.6804 C   0  0  0  0  0  0  0  0  0  0  0  0
   69.2267   47.8920   52.3320 C   0  0  0  0  0  0  0  0  0  0  0  0
   68.6523   46.9062   51.5634 C   0  0  0  0  0  0  0  0  0  0  0  0
   67.9460   45.8948   52.2148 C   0  0  0  0  0  0  0  0  0  0  0  0
   67.8330   45.8924   53.5868 C   0  0  0  0  0  0  0  0  0  0  0  0
   68.4007   46.8698   54.3652 C   0  0  0  0  0  0  0  0  0  0  0  0
   70.8763   43.2323   58.0522 C   0  0  0  0  0  0  0  0  0  0  0  0
   70.0191   41.9956   57.9054 C   0  0  0  0  0  0  0  0  0  0  0  0
   68.6984   42.1291   57.4873 C   0  0  0  0  0  0  0  0  0  0  0  0
   67.8787   41.0039   57.4196 C   0  0  0  0  0  0  0  0  0  0  0  0
   68.3608   39.7487   57.7650 C   0  0  0  0  0  0  0  0  0  0  0  0
   69.6677   39.5896   58.1817 C   0  0  0  0  0  0  0  0  0  0  0  0
   70.1561   38.3544   58.5020 C   0  0  0  0  0  0  0  0  0  0  0  0
   71.4746   38.2068   58.8971 C   0  0  0  0  0  0  0  0  0  0  0  0
   72.2550   39.3564   58.9458 C   0  0  0  0  0  0  0  0  0  0  0  0
   71.7849   40.5932   58.6301 C   0  0  0  0  0  0  0  0  0  0  0  0
   70.4588   40.7476   58.2326 C   0  0  0  0  0  0  0  0  0  0  0  0
  6  7  1  0
  7  8  2  0
  7 12  1  0
  8  9  1  0
  9 10  2  0
 10 11  1  0
 11 12  2  0
 12  4  1  0
  4  5  2  0
  5  1  1  0
  1  2  1  0
  2  3  2  0
  2 13  1  0
 13 14  1  0
 14 15  2  0
 14 23  1  0
 15 16  1  0
 16 17  2  0
 17 18  1  0
 18 19  1  0
 18 23  2  0
 19 20  2  0
 20 21  1  0
 21 22  2  0
 22 23  1  0
M  END
>  <minimizedAffinity>  (313) 
-8.85521

$$$$
cs_full_output_folder/data/smiles/6861.pdb
     RDKit          3D

 26 29  0  0  0  0  0  0  0  0999 V2000
   73.4998   49.8151   56.7079 C   0  0  0  0  0  0  0  0  0  0  0  0
   72.7988   50.5729   55.8009 C   0  0  0  0  0  0  0  0  0  0  0  0
   71.4113   50.4580   55.6993 C   0  0  0  0  0  0  0  0  0  0  0  0
   70.6916   49.6030   56.4820 C   0  0  0  0  0  0  0  0  0  0  0  0
   71.4400   48.8468   57.3961 C   0  0  0  0  0  0  0  0  0  0  0  0
   72.7919   48.9763   57.4761 N   0  0  0  0  0  0  0  0  0  0  0  0
   75.1895   49.5888   54.6043 O   0  0  0  0  0  0  0  0  0  0  0  0
   75.7736   49.7829   55.7034 C   0  0  0  0  0  0  0  0  0  0  0  0
   74.9191   49.9149   56.8368 N   0  0  0  0  0  0  0  0  0  0  0  0
   77.2113   49.8647   55.8019 C   0  0  0  0  0  0  0  0  0  0  0  0
   77.8621   50.3007   56.8758 C   0  0  0  0  0  0  0  0  0  0  0  0
   79.2267   50.5094   57.3019 C   0  0  0  0  0  0  0  0  0  0  0  0
   78.8922   50.9569   58.4882 C   0  0  0  0  0  0  0  0  0  0  0  0
   77.5322   50.7866   58.1589 N   0  0  0  0  0  0  0  0  0  0  0  0
   69.2265   49.3977   56.4646 C   0  0  0  0  0  0  0  0  0  0  0  0
   68.9201   48.0906   55.8854 C   0  0  0  0  0  0  0  0  0  0  0  0
   68.7309   47.0488   56.7307 N   0  0  0  0  0  0  0  0  0  0  0  0
   68.4085   45.8281   56.3016 N   0  0  0  0  0  0  0  0  0  0  0  0
   68.2580   45.5957   54.9824 C   0  0  0  0  0  0  0  0  0  0  0  0
   67.9512   44.4486   54.5438 O   0  0  0  0  0  0  0  0  0  0  0  0
   68.4336   46.6084   54.0496 C   0  0  0  0  0  0  0  0  0  0  0  0
   68.7735   47.8656   54.5640 C   0  0  0  0  0  0  0  0  0  0  0  0
   69.0229   48.9205   53.5635 C   0  0  0  0  0  0  0  0  0  0  0  0
   69.9798   48.2976   52.5254 C   0  0  0  0  0  0  0  0  0  0  0  0
   69.4036   47.0832   51.8651 C   0  0  0  0  0  0  0  0  0  0  0  0
   68.2709   46.4623   52.6105 C   0  0  0  0  0  0  0  0  0  0  0  0
  7  8  2  0
  8 10  1  0
  8  9  1  0
 10 11  2  0
 11 12  1  0
 11 14  1  0
 12 13  2  0
 13 14  1  0
  9  1  1  0
  1  2  2  0
  1  6  1  0
  2  3  1  0
  3  4  2  0
  4 15  1  0
  4  5  1  0
 15 16  1  0
 16 17  2  0
 16 22  1  0
 17 18  1  0
 18 19  1  0
 19 20  2  0
 19 21  1  0
 21 22  2  0
 21 26  1  0
 22 23  1  0
 23 24  1  0
 24 25  1  0
 25 26  1  0
  5  6  2  0
M  END
>  <minimizedAffinity>  (314) 
-8.85341

$$$$
cs_full_output_folder/data/smiles/6294.pdb
     RDKit          3D

 23 26  0  0  0  0  0  0  0  0999 V2000
   68.8877   47.5849   56.6887 C   0  0  0  0  0  0  0  0  0  0  0  0
   70.2100   49.0436   51.2962 N   0  0  0  0  0  0  0  0  0  0  0  0
   69.9596   48.7821   52.5420 C   0  0  0  0  0  0  0  0  0  0  0  0
   70.5578   49.7378   53.8178 S   0  0  0  0  0  0  0  0  0  0  0  0
   70.0783   49.1686   55.3249 N   0  0  0  0  0  0  0  0  0  0  0  0
   69.2966   48.0541   55.3493 C   0  0  0  0  0  0  0  0  0  0  0  0
   68.8873   47.3812   54.2265 C   0  0  0  0  0  0  0  0  0  0  0  0
   68.0861   46.2545   54.4194 C   0  0  0  0  0  0  0  0  0  0  0  0
   67.6148   45.5020   53.3722 C   0  0  0  0  0  0  0  0  0  0  0  0
   67.9156   45.8331   52.0742 C   0  0  0  0  0  0  0  0  0  0  0  0
   68.6974   46.9309   51.8694 C   0  0  0  0  0  0  0  0  0  0  0  0
   69.1830   47.7045   52.9304 C   0  0  0  0  0  0  0  0  0  0  0  0
   70.0248   47.2046   57.5574 C   0  0  0  0  0  0  0  0  0  0  0  0
   70.8990   46.3355   58.1353 C   0  0  0  0  0  0  0  0  0  0  0  0
   71.0680   47.7622   58.4952 C   0  0  0  0  0  0  0  0  0  0  0  0
   71.4181   45.0268   58.3520 N   0  0  0  0  0  0  0  0  0  0  0  0
   72.7654   44.6774   58.1354 C   0  0  0  0  0  0  0  0  0  0  0  0
   73.6195   45.5498   57.8925 O   0  0  0  0  0  0  0  0  0  0  0  0
   73.2333   43.2581   58.1866 C   0  0  0  0  0  0  0  0  0  0  0  0
   72.1165   42.3349   57.7448 C   0  0  0  0  0  0  0  0  0  0  0  0
   70.8620   42.5293   58.5577 C   0  0  0  0  0  0  0  0  0  0  0  0
   70.5713   43.9614   58.8132 C   0  0  0  0  0  0  0  0  0  0  0  0
   69.5339   44.2384   59.4649 O   0  0  0  0  0  0  0  0  0  0  0  0
  2  3  2  0
  3  4  1  0
  3 12  1  0
  4  5  1  0
  5  6  2  0
  6  1  1  0
  6  7  1  0
  1 13  1  0
 13 14  2  0
 13 15  1  0
 14 16  1  0
 14 15  1  0
 16 17  1  0
 16 22  1  0
 17 18  2  0
 17 19  1  0
 19 20  1  0
 20 21  1  0
 21 22  1  0
 22 23  2  0
  7  8  1  0
  7 12  2  0
  8  9  2  0
  9 10  1  0
 10 11  2  0
 11 12  1  0
M  END
>  <minimizedAffinity>  (315) 
-8.84860

$$$$
cs_full_output_folder/data/smiles/41.pdb
     RDKit          3D

 23 25  0  0  0  0  0  0  0  0999 V2000
   71.4481   49.8185   54.6035 O   0  0  0  0  0  0  0  0  0  0  0  0
   70.7094   50.0099   53.4489 C   0  0  0  0  0  0  0  0  0  0  0  0
   70.4603   51.2163   53.1468 O   0  0  0  0  0  0  0  0  0  0  0  0
   70.2517   48.9131   52.6396 C   0  0  0  0  0  0  0  0  0  0  0  0
   70.5202   48.6041   51.3752 N   0  0  0  0  0  0  0  0  0  0  0  0
   69.8631   47.4796   51.0333 N   0  0  0  0  0  0  0  0  0  0  0  0
   69.1458   47.0221   52.0699 C   0  0  0  0  0  0  0  0  0  0  0  0
   68.3230   45.9251   52.2140 C   0  0  0  0  0  0  0  0  0  0  0  0
   67.7132   45.7286   53.4465 C   0  0  0  0  0  0  0  0  0  0  0  0
   67.9114   46.5830   54.4885 C   0  0  0  0  0  0  0  0  0  0  0  0
   68.7515   47.6738   54.2909 C   0  0  0  0  0  0  0  0  0  0  0  0
   69.3787   47.9128   53.0897 C   0  0  0  0  0  0  0  0  0  0  0  0
   71.8929   50.8606   55.4184 C   0  0  0  0  0  0  0  0  0  0  0  0
   71.2468   52.2959   57.1087 O   0  0  0  0  0  0  0  0  0  0  0  0
   70.9626   51.1921   56.4726 C   0  0  0  0  0  0  0  0  0  0  0  0
   69.7905   50.4879   56.9093 C   0  0  0  0  0  0  0  0  0  0  0  0
   69.6928   49.1657   57.2455 C   0  0  0  0  0  0  0  0  0  0  0  0
   68.5072   48.5433   57.6657 C   0  0  0  0  0  0  0  0  0  0  0  0
   67.3691   49.2618   57.7574 C   0  0  0  0  0  0  0  0  0  0  0  0
   66.2104   48.6663   58.1655 F   0  0  0  0  0  0  0  0  0  0  0  0
   67.4105   50.5917   57.4333 C   0  0  0  0  0  0  0  0  0  0  0  0
   66.2591   51.3127   57.5279 F   0  0  0  0  0  0  0  0  0  0  0  0
   68.5684   51.1969   57.0226 C   0  0  0  0  0  0  0  0  0  0  0  0
 14 15  2  0
 15 13  1  0
 15 16  1  0
 13  1  1  0
  1  2  1  0
  2  3  2  0
  2  4  1  0
  4  5  1  0
  4 12  2  0
  5  6  1  0
  6  7  2  0
  7  8  1  0
  7 12  1  0
  8  9  2  0
  9 10  1  0
 10 11  2  0
 11 12  1  0
 16 17  2  0
 16 23  1  0
 17 18  1  0
 18 19  2  0
 19 20  1  0
 19 21  1  0
 21 22  1  0
 21 23  2  0
M  END
>  <minimizedAffinity>  (316) 
-8.84608

$$$$
cs_full_output_folder/data/smiles/1396.pdb
     RDKit          3D

 24 26  0  0  0  0  0  0  0  0999 V2000
   68.8668   43.5594   56.7005 C   0  0  0  0  0  0  0  0  0  0  0  0
   69.8940   44.0346   57.2516 O   0  0  0  0  0  0  0  0  0  0  0  0
   68.0972   44.4433   55.9007 N   0  0  0  0  0  0  0  0  0  0  0  0
   69.4135   41.8649   59.2979 C   0  0  0  0  0  0  0  0  0  0  0  0
   68.7492   41.4214   58.0297 C   0  0  0  0  0  0  0  0  0  0  0  0
   68.5102   42.1615   56.8955 C   0  0  0  0  0  0  0  0  0  0  0  0
   67.8834   41.3111   56.0229 C   0  0  0  0  0  0  0  0  0  0  0  0
   67.7591   40.1076   56.6319 N   0  0  0  0  0  0  0  0  0  0  0  0
   68.2893   40.1667   57.8640 N   0  0  0  0  0  0  0  0  0  0  0  0
   68.2874   39.0473   58.7312 C   0  0  0  0  0  0  0  0  0  0  0  0
   69.3109   38.2874   59.0985 C   0  0  0  0  0  0  0  0  0  0  0  0
   69.0499   37.5456   60.1392 C   0  0  0  0  0  0  0  0  0  0  0  0
   67.6037   37.5445   60.2928 C   0  0  0  0  0  0  0  0  0  0  0  0
   67.1555   38.4597   59.4316 C   0  0  0  0  0  0  0  0  0  0  0  0
   68.4383   45.8289   55.6927 C   0  0  0  0  0  0  0  0  0  0  0  0
   68.4623   46.1718   54.2658 C   0  0  0  0  0  0  0  0  0  0  0  0
   67.6939   45.4955   53.3565 C   0  0  0  0  0  0  0  0  0  0  0  0
   67.6982   45.8384   52.0016 C   0  0  0  0  0  0  0  0  0  0  0  0
   68.5115   46.8852   51.6194 C   0  0  0  0  0  0  0  0  0  0  0  0
   69.3006   47.5903   52.4980 C   0  0  0  0  0  0  0  0  0  0  0  0
   69.2533   47.2056   53.8292 C   0  0  0  0  0  0  0  0  0  0  0  0
   70.1445   48.7025   52.0796 C   0  0  0  0  0  0  0  0  0  0  0  0
   71.2686   49.0956   52.8383 N   0  0  0  0  0  0  0  0  0  0  0  0
   69.8758   49.3243   51.0237 O   0  0  0  0  0  0  0  0  0  0  0  0
  4  5  1  0
  5  6  2  0
  5  9  1  0
  6  1  1  0
  6  7  1  0
  1  2  2  0
  1  3  1  0
  3 15  1  0
 15 16  1  0
 16 17  2  0
 16 21  1  0
 17 18  1  0
 18 19  2  0
 19 20  1  0
 20 22  1  0
 20 21  2  0
 22 23  1  0
 22 24  2  0
  7  8  2  0
  8  9  1  0
  9 10  1  0
 10 11  2  0
 10 14  1  0
 11 12  2  0
 12 13  1  0
 13 14  2  0
M  END
>  <minimizedAffinity>  (317) 
-8.84472

$$$$
cs_full_output_folder/data/smiles/8874.pdb
     RDKit          3D

 25 27  0  0  0  0  0  0  0  0999 V2000
   70.8717   46.2338   58.1219 C   0  0  0  0  0  0  0  0  0  0  0  0
   69.9074   46.9144   57.3871 C   0  0  0  0  0  0  0  0  0  0  0  0
   70.0128   48.2485   57.0298 C   0  0  0  0  0  0  0  0  0  0  0  0
   71.1430   48.9095   57.4359 C   0  0  0  0  0  0  0  0  0  0  0  0
   72.1059   48.2633   58.1596 C   0  0  0  0  0  0  0  0  0  0  0  0
   71.9808   46.9169   58.5116 C   0  0  0  0  0  0  0  0  0  0  0  0
   72.9528   46.3364   59.2299 F   0  0  0  0  0  0  0  0  0  0  0  0
   71.3650   43.7449   57.8983 N   0  0  0  0  0  0  0  0  0  0  0  0
   70.6290   44.8344   58.4114 C   0  0  0  0  0  0  0  0  0  0  0  0
   69.6770   44.4878   59.1928 O   0  0  0  0  0  0  0  0  0  0  0  0
   72.3086   41.5064   58.2521 C   0  0  0  0  0  0  0  0  0  0  0  0
   71.0673   42.3640   58.2324 C   0  0  2  0  0  0  0  0  0  0  0  0
   70.1480   41.7965   57.3869 F   0  0  0  0  0  0  0  0  0  0  0  0
   68.9336   48.8836   56.2108 C   0  0  0  0  0  0  0  0  0  0  0  0
   69.3061   48.7892   54.7801 C   0  0  0  0  0  0  0  0  0  0  0  0
   70.1724   49.7029   54.2442 N   0  0  0  0  0  0  0  0  0  0  0  0
   70.5996   49.6953   53.0180 N   0  0  0  0  0  0  0  0  0  0  0  0
   70.1781   48.7186   52.1627 C   0  0  0  0  0  0  0  0  0  0  0  0
   70.5918   48.7099   50.9745 O   0  0  0  0  0  0  0  0  0  0  0  0
   69.3004   47.7441   52.5960 C   0  0  0  0  0  0  0  0  0  0  0  0
   68.8360   46.7477   51.7691 C   0  0  0  0  0  0  0  0  0  0  0  0
   67.9500   45.7934   52.2134 C   0  0  0  0  0  0  0  0  0  0  0  0
   67.5178   45.8379   53.5218 C   0  0  0  0  0  0  0  0  0  0  0  0
   67.9987   46.8458   54.3304 C   0  0  0  0  0  0  0  0  0  0  0  0
   68.8812   47.8091   53.9202 C   0  0  0  0  0  0  0  0  0  0  0  0
 12 11  1  6
 12 13  1  0
 12  8  1  0
  8  9  1  0
  9 10  2  0
  9  1  1  0
  1  2  2  0
  1  6  1  0
  2  3  1  0
  3 14  1  0
  3  4  2  0
 14 15  1  0
 15 16  2  0
 15 25  1  0
 16 17  1  0
 17 18  1  0
 18 19  2  0
 18 20  1  0
 20 21  1  0
 20 25  2  0
 21 22  2  0
 22 23  1  0
 23 24  2  0
 24 25  1  0
  4  5  1  0
  5  6  2  0
  6  7  1  0
M  END
>  <minimizedAffinity>  (318) 
-8.84257

$$$$
cs_full_output_folder/data/smiles/8349.pdb
     RDKit          3D

 24 26  0  0  0  0  0  0  0  0999 V2000
   70.6277   46.8676   57.9614 C   0  0  0  0  0  0  0  0  0  0  0  0
   69.4746   46.4204   58.0503 O   0  0  0  0  0  0  0  0  0  0  0  0
   70.7859   48.0075   57.0951 N   0  0  0  0  0  0  0  0  0  0  0  0
   71.8142   46.3283   58.6623 C   0  0  2  0  0  0  0  0  0  0  0  0
   72.0576   44.9150   58.2734 C   0  0  0  0  0  0  0  0  0  0  0  0
   73.3236   44.4353   57.9216 C   0  0  0  0  0  0  0  0  0  0  0  0
   73.5368   43.1243   57.5571 C   0  0  0  0  0  0  0  0  0  0  0  0
   72.4840   42.2482   57.5345 C   0  0  0  0  0  0  0  0  0  0  0  0
   71.2349   42.6667   57.8688 C   0  0  0  0  0  0  0  0  0  0  0  0
   71.0427   43.9990   58.2338 C   0  0  0  0  0  0  0  0  0  0  0  0
   72.7053   47.6683   60.5838 C   0  0  0  0  0  0  0  0  0  0  0  0
   71.8271   46.5363   60.1340 C   0  0  0  0  0  0  0  0  0  0  0  0
   69.6717   48.5677   56.3937 C   0  0  0  0  0  0  0  0  0  0  0  0
   69.8588   48.6017   54.9299 C   0  0  0  0  0  0  0  0  0  0  0  0
   70.6780   49.5001   54.3537 N   0  0  0  0  0  0  0  0  0  0  0  0
   70.8775   49.5685   53.0457 N   0  0  0  0  0  0  0  0  0  0  0  0
   70.2670   48.7333   52.1912 C   0  0  0  0  0  0  0  0  0  0  0  0
   70.4457   48.7864   50.9522 O   0  0  0  0  0  0  0  0  0  0  0  0
   69.4148   47.7916   52.7295 C   0  0  0  0  0  0  0  0  0  0  0  0
   68.7353   46.8820   51.9265 C   0  0  0  0  0  0  0  0  0  0  0  0
   67.8878   45.9495   52.4880 C   0  0  0  0  0  0  0  0  0  0  0  0
   67.7037   45.9084   53.8682 C   0  0  0  0  0  0  0  0  0  0  0  0
   68.3620   46.7962   54.6923 C   0  0  0  0  0  0  0  0  0  0  0  0
   69.2027   47.7166   54.1035 C   0  0  0  0  0  0  0  0  0  0  0  0
 11 12  1  0
  4 12  1  1
  4  1  1  0
  4  5  1  0
  1  2  2  0
  1  3  1  0
  3 13  1  0
 13 14  1  0
 14 15  2  0
 14 24  1  0
 15 16  1  0
 16 17  1  0
 17 18  2  0
 17 19  1  0
 19 20  1  0
 19 24  2  0
 20 21  2  0
 21 22  1  0
 22 23  2  0
 23 24  1  0
  5  6  2  0
  5 10  1  0
  6  7  1  0
  7  8  2  0
  8  9  1  0
  9 10  2  0
M  END
>  <minimizedAffinity>  (319) 
-8.84230

$$$$
cs_full_output_folder/data/smiles/969.pdb
     RDKit          3D

 24 26  0  0  0  0  0  0  0  0999 V2000
   71.4831   49.3754   53.4818 O   0  0  0  0  0  0  0  0  0  0  0  0
   70.2340   49.5822   53.7252 C   0  0  0  0  0  0  0  0  0  0  0  0
   69.5085   48.4632   54.2798 C   0  0  0  0  0  0  0  0  0  0  0  0
   69.4213   48.3163   55.6738 C   0  0  0  0  0  0  0  0  0  0  0  0
   68.7394   47.2633   56.2221 C   0  0  0  0  0  0  0  0  0  0  0  0
   68.7019   47.1925   57.4784 O   0  0  0  0  0  0  0  0  0  0  0  0
   68.1237   46.3269   55.4875 N   0  0  0  0  0  0  0  0  0  0  0  0
   68.1796   46.4264   54.1488 C   0  0  0  0  0  0  0  0  0  0  0  0
   67.5349   45.4432   53.4288 C   0  0  0  0  0  0  0  0  0  0  0  0
   67.5912   45.5442   52.0566 C   0  0  0  0  0  0  0  0  0  0  0  0
   68.2556   46.5712   51.4327 C   0  0  0  0  0  0  0  0  0  0  0  0
   68.9005   47.5518   52.1875 C   0  0  0  0  0  0  0  0  0  0  0  0
   68.8656   47.4846   53.5430 C   0  0  0  0  0  0  0  0  0  0  0  0
   69.8217   50.8330   53.4112 O   0  0  0  0  0  0  0  0  0  0  0  0
   68.7201   51.5000   54.0000 C   0  0  0  0  0  0  0  0  0  0  0  0
   69.0992   52.7847   54.4024 O   0  0  0  0  0  0  0  0  0  0  0  0
   68.6502   52.9679   55.6640 N   0  0  0  0  0  0  0  0  0  0  0  0
   69.0752   52.1007   56.6967 C   0  0  0  0  0  0  0  0  0  0  0  0
   70.4018   52.0089   57.0437 C   0  0  0  0  0  0  0  0  0  0  0  0
   70.8281   51.1613   58.0538 C   0  0  0  0  0  0  0  0  0  0  0  0
   69.9133   50.3880   58.7346 C   0  0  0  0  0  0  0  0  0  0  0  0
   68.5701   50.4559   58.4112 C   0  0  0  0  0  0  0  0  0  0  0  0
   68.1814   51.3169   57.3922 C   0  0  0  0  0  0  0  0  0  0  0  0
   66.8490   51.3896   57.0654 F   0  0  0  0  0  0  0  0  0  0  0  0
  1  2  2  0
  2 14  1  0
  2  3  1  0
 14 15  1  0
 15 16  1  0
 16 17  1  0
 17 18  1  0
 18 19  2  0
 18 23  1  0
 19 20  1  0
 20 21  2  0
 21 22  1  0
 22 23  2  0
 23 24  1  0
  3  4  2  0
  3 13  1  0
  4  5  1  0
  5  6  2  0
  5  7  1  0
  7  8  1  0
  8  9  1  0
  8 13  2  0
  9 10  2  0
 10 11  1  0
 11 12  2  0
 12 13  1  0
M  END
>  <minimizedAffinity>  (320) 
-8.84181

$$$$
cs_full_output_folder/data/smiles/9218.pdb
     RDKit          3D

 25 27  0  0  0  0  0  0  0  0999 V2000
   68.0414   41.7121   56.5945 C   0  0  0  0  0  0  0  0  0  0  0  0
   68.7372   42.8838   56.2758 C   0  0  0  0  0  0  0  0  0  0  0  0
   67.9209   43.7347   55.5673 C   0  0  0  0  0  0  0  0  0  0  0  0
   66.7365   43.0593   55.4681 N   0  0  0  0  0  0  0  0  0  0  0  0
   66.8238   41.8940   56.0668 N   0  0  0  0  0  0  0  0  0  0  0  0
   68.2068   45.0572   55.0270 C   0  0  0  0  0  0  0  0  0  0  0  0
   67.9172   45.3133   53.7018 C   0  0  0  0  0  0  0  0  0  0  0  0
   68.1624   46.5463   53.1236 C   0  0  0  0  0  0  0  0  0  0  0  0
   67.8652   46.7645   51.8166 F   0  0  0  0  0  0  0  0  0  0  0  0
   68.7132   47.5589   53.8837 C   0  0  0  0  0  0  0  0  0  0  0  0
   69.0110   47.3370   55.1973 C   0  0  0  0  0  0  0  0  0  0  0  0
   68.7522   46.0891   55.7461 C   0  0  0  0  0  0  0  0  0  0  0  0
   69.0686   45.9086   57.0762 O   0  0  0  0  0  0  0  0  0  0  0  0
   68.0181   39.4501   57.1545 O   0  0  0  0  0  0  0  0  0  0  0  0
   68.5569   40.5699   57.3366 C   0  0  0  0  0  0  0  0  0  0  0  0
   69.6345   40.6628   58.2494 N   0  0  0  0  0  0  0  0  0  0  0  0
   70.1783   39.5734   59.0035 C   0  0  0  0  0  0  0  0  0  0  0  0
   71.4887   39.0365   58.4373 C   0  0  0  0  0  0  0  0  0  0  0  0
   71.5825   37.5759   58.5503 C   0  0  0  0  0  0  0  0  0  0  0  0
   72.3383   36.8220   57.6775 C   0  0  0  0  0  0  0  0  0  0  0  0
   72.4473   35.4475   57.7535 C   0  0  0  0  0  0  0  0  0  0  0  0
   71.7747   34.7786   58.7430 C   0  0  0  0  0  0  0  0  0  0  0  0
   71.9170   33.3919   58.7769 O   0  0  0  0  0  0  0  0  0  0  0  0
   71.0163   35.4826   59.6271 C   0  0  0  0  0  0  0  0  0  0  0  0
   70.9159   36.8530   59.5396 C   0  0  0  0  0  0  0  0  0  0  0  0
 14 15  2  0
 15 16  1  0
 15  1  1  0
 16 17  1  0
 17 18  1  0
 18 19  1  0
 19 20  2  0
 19 25  1  0
 20 21  1  0
 21 22  2  0
 22 23  1  0
 22 24  1  0
 24 25  2  0
  1  2  2  0
  1  5  1  0
  2  3  1  0
  3  6  1  0
  3  4  2  0
  6  7  2  0
  6 12  1  0
  7  8  1  0
  8  9  1  0
  8 10  2  0
 10 11  1  0
 11 12  2  0
 12 13  1  0
  4  5  1  0
M  END
>  <minimizedAffinity>  (321) 
-8.84153

$$$$
cs_full_output_folder/data/smiles/8312.pdb
     RDKit          3D

 21 23  0  0  0  0  0  0  0  0999 V2000
   70.5261   49.3053   54.0434 C   0  0  0  0  0  0  0  0  0  0  0  0
   71.7378   49.6150   53.5238 N   0  0  0  0  0  0  0  0  0  0  0  0
   72.2625   50.6376   54.1751 N   0  0  0  0  0  0  0  0  0  0  0  0
   71.4346   51.0501   55.1442 C   0  0  0  0  0  0  0  0  0  0  0  0
   70.3174   50.1988   55.0660 C   0  0  0  0  0  0  0  0  0  0  0  0
   66.9328   45.1242   52.7146 O   0  0  0  0  0  0  0  0  0  0  0  0
   67.8273   46.1687   53.0046 C   0  0  0  0  0  0  0  0  0  0  0  0
   68.1521   46.4296   54.3122 C   0  0  0  0  0  0  0  0  0  0  0  0
   69.0149   47.4377   54.5971 C   0  0  0  0  0  0  0  0  0  0  0  0
   69.6144   48.2517   53.6306 C   0  0  0  0  0  0  0  0  0  0  0  0
   69.2756   47.9738   52.3239 C   0  0  0  0  0  0  0  0  0  0  0  0
   69.8234   48.7321   51.2964 O   0  0  0  0  0  0  0  0  0  0  0  0
   68.3860   46.9361   52.0223 C   0  0  0  0  0  0  0  0  0  0  0  0
   68.0655   46.6804   50.7058 O   0  0  0  0  0  0  0  0  0  0  0  0
   69.1796   50.3183   55.9584 C   0  0  0  0  0  0  0  0  0  0  0  0
   68.9562   49.4568   57.0073 C   0  0  0  0  0  0  0  0  0  0  0  0
   67.8327   49.6263   57.8283 C   0  0  0  0  0  0  0  0  0  0  0  0
   66.9534   50.6412   57.5968 C   0  0  0  0  0  0  0  0  0  0  0  0
   67.1860   51.4837   56.5579 N   0  0  0  0  0  0  0  0  0  0  0  0
   68.2760   51.3262   55.7557 C   0  0  0  0  0  0  0  0  0  0  0  0
   68.5239   52.4280   54.4237 Cl  0  0  0  0  0  0  0  0  0  0  0  0
  6  7  1  0
  7  8  2  0
  7 13  1  0
  8  9  1  0
  9 10  2  0
 10  1  1  0
 10 11  1  0
  1  2  2  0
  1  5  1  0
  2  3  1  0
  3  4  1  0
  4  5  2  0
  5 15  1  0
 15 16  2  0
 15 20  1  0
 16 17  1  0
 17 18  2  0
 18 19  1  0
 19 20  2  0
 20 21  1  0
 11 12  1  0
 11 13  2  0
 13 14  1  0
M  END
>  <minimizedAffinity>  (322) 
-8.84095

$$$$
cs_full_output_folder/data/smiles/193.pdb
     RDKit          3D

 23 25  0  0  0  0  0  0  0  0999 V2000
   69.1773   48.7885   56.2024 C   0  0  0  0  0  0  0  0  0  0  0  0
   69.4600   48.6933   54.7765 C   0  0  0  0  0  0  0  0  0  0  0  0
   70.3513   49.5885   54.2450 N   0  0  0  0  0  0  0  0  0  0  0  0
   70.7072   49.5665   52.9814 N   0  0  0  0  0  0  0  0  0  0  0  0
   70.2138   48.6565   52.1249 C   0  0  0  0  0  0  0  0  0  0  0  0
   70.5687   48.6551   50.9219 O   0  0  0  0  0  0  0  0  0  0  0  0
   69.3019   47.7017   52.5535 C   0  0  0  0  0  0  0  0  0  0  0  0
   68.7754   46.7692   51.6956 C   0  0  0  0  0  0  0  0  0  0  0  0
   67.8708   45.8573   52.1662 C   0  0  0  0  0  0  0  0  0  0  0  0
   67.5235   45.9222   53.5141 C   0  0  0  0  0  0  0  0  0  0  0  0
   68.0499   46.8572   54.3791 C   0  0  0  0  0  0  0  0  0  0  0  0
   68.9500   47.7623   53.9116 C   0  0  0  0  0  0  0  0  0  0  0  0
   70.2458   45.6516   58.1129 C   0  0  0  0  0  0  0  0  0  0  0  0
   71.4274   46.0982   58.7065 C   0  0  0  0  0  0  0  0  0  0  0  0
   71.8468   47.3799   58.4727 C   0  0  0  0  0  0  0  0  0  0  0  0
   71.1169   48.1953   57.6738 C   0  0  0  0  0  0  0  0  0  0  0  0
   69.9203   47.8087   57.0463 C   0  0  0  0  0  0  0  0  0  0  0  0
   69.5332   46.5217   57.3028 C   0  0  0  0  0  0  0  0  0  0  0  0
   69.8915   44.3609   58.3883 O   0  0  0  0  0  0  0  0  0  0  0  0
   70.0255   43.3377   57.4522 C   0  0  0  0  0  0  0  0  0  0  0  0
   68.2303   41.5616   57.0112 C   0  0  0  0  0  0  0  0  0  0  0  0
   68.7282   42.9380   56.8694 C   0  0  0  0  0  0  0  0  0  0  0  0
   68.0214   43.7335   56.2445 O   0  0  0  0  0  0  0  0  0  0  0  0
 21 22  1  0
 22 23  2  0
 22 20  1  0
 20 19  1  0
 19 13  1  0
 13 14  2  0
 13 18  1  0
 14 15  1  0
 15 16  2  0
 16 17  1  0
 17  1  1  0
 17 18  2  0
  1  2  1  0
  2  3  2  0
  2 12  1  0
  3  4  1  0
  4  5  1  0
  5  6  2  0
  5  7  1  0
  7  8  1  0
  7 12  2  0
  8  9  2  0
  9 10  1  0
 10 11  2  0
 11 12  1  0
M  END
>  <minimizedAffinity>  (323) 
-8.83930

$$$$
cs_full_output_folder/data/smiles/1031.pdb
     RDKit          3D

 22 23  0  0  0  0  0  0  0  0999 V2000
   68.0924   44.3563   55.3732 N   0  0  0  0  0  0  0  0  0  0  0  0
   68.3097   45.7521   55.3610 C   0  0  0  0  0  0  0  0  0  0  0  0
   68.2124   46.3547   56.4661 O   0  0  0  0  0  0  0  0  0  0  0  0
   68.6345   46.5238   54.1685 C   0  0  0  0  0  0  0  0  0  0  0  0
   68.2396   46.0818   52.9262 C   0  0  0  0  0  0  0  0  0  0  0  0
   68.5258   46.7800   51.7673 C   0  0  0  0  0  0  0  0  0  0  0  0
   69.2288   47.9582   51.8532 C   0  0  0  0  0  0  0  0  0  0  0  0
   69.6535   48.4512   53.0936 C   0  0  0  0  0  0  0  0  0  0  0  0
   69.3392   47.7127   54.2050 C   0  0  0  0  0  0  0  0  0  0  0  0
   70.3922   49.7019   53.1102 C   0  0  0  0  0  0  0  0  0  0  0  0
   70.0286   50.6774   52.4242 O   0  0  0  0  0  0  0  0  0  0  0  0
   71.5512   49.8642   53.9030 N   0  0  0  0  0  0  0  0  0  0  0  0
   72.2469   51.0505   53.9146 O   0  0  0  0  0  0  0  0  0  0  0  0
   67.7881   43.6214   56.4624 O   0  0  0  0  0  0  0  0  0  0  0  0
   67.4086   42.3568   56.0521 C   0  0  0  0  0  0  0  0  0  0  0  0
   67.5585   38.3437   60.1909 C   0  0  0  0  0  0  0  0  0  0  0  0
   67.5205   39.3881   59.1189 C   0  0  0  0  0  0  0  0  0  0  0  0
   68.2234   39.1965   57.9538 C   0  0  0  0  0  0  0  0  0  0  0  0
   68.1802   40.1651   56.9734 C   0  0  0  0  0  0  0  0  0  0  0  0
   67.4615   41.3232   57.1048 C   0  0  0  0  0  0  0  0  0  0  0  0
   66.7503   41.5028   58.2976 C   0  0  0  0  0  0  0  0  0  0  0  0
   66.7819   40.5366   59.2986 C   0  0  0  0  0  0  0  0  0  0  0  0
 16 17  1  0
 17 18  2  0
 17 22  1  0
 18 19  1  0
 19 20  2  0
 20 15  1  0
 20 21  1  0
 15 14  1  0
 14  1  1  0
  1  2  1  0
  2  3  2  0
  2  4  1  0
  4  5  2  0
  4  9  1  0
  5  6  1  0
  6  7  2  0
  7  8  1  0
  8 10  1  0
  8  9  2  0
 10 11  2  0
 10 12  1  0
 12 13  1  0
 21 22  2  0
M  END
>  <minimizedAffinity>  (324) 
-8.83855

$$$$
cs_full_output_folder/data/smiles/5440.pdb
     RDKit          3D

 23 25  0  0  0  0  0  0  0  0999 V2000
   69.0176   48.5445   56.2063 C   0  0  0  0  0  0  0  0  0  0  0  0
   69.4364   48.5046   54.7879 C   0  0  0  0  0  0  0  0  0  0  0  0
   70.3355   49.4119   54.3192 N   0  0  0  0  0  0  0  0  0  0  0  0
   70.7147   49.5150   53.0792 N   0  0  0  0  0  0  0  0  0  0  0  0
   70.1868   48.6694   52.1894 C   0  0  0  0  0  0  0  0  0  0  0  0
   70.5148   48.7174   50.9576 O   0  0  0  0  0  0  0  0  0  0  0  0
   69.2613   47.7024   52.5635 C   0  0  0  0  0  0  0  0  0  0  0  0
   68.7555   46.8306   51.6058 C   0  0  0  0  0  0  0  0  0  0  0  0
   67.8570   45.8604   51.9846 C   0  0  0  0  0  0  0  0  0  0  0  0
   67.4963   45.8014   53.3284 C   0  0  0  0  0  0  0  0  0  0  0  0
   67.9965   46.6608   54.2644 C   0  0  0  0  0  0  0  0  0  0  0  0
   68.8892   47.6324   53.8994 C   0  0  0  0  0  0  0  0  0  0  0  0
   70.3872   45.6490   58.2353 C   0  0  0  0  0  0  0  0  0  0  0  0
   71.5017   46.2268   58.7799 C   0  0  0  0  0  0  0  0  0  0  0  0
   71.8263   47.5597   58.5051 C   0  0  0  0  0  0  0  0  0  0  0  0
   71.0109   48.2871   57.6792 C   0  0  0  0  0  0  0  0  0  0  0  0
   69.8521   47.7089   57.1049 C   0  0  0  0  0  0  0  0  0  0  0  0
   69.5585   46.4172   57.3846 C   0  0  0  0  0  0  0  0  0  0  0  0
   70.0548   44.3111   58.4903 N   0  0  0  0  0  0  0  0  0  0  0  0
   70.2243   43.2620   57.5576 C   0  0  1  0  0  0  0  0  0  0  0  0
   71.4735   42.4167   57.8415 C   0  0  0  0  0  0  0  0  0  0  0  0
   68.0858   42.8098   56.2790 C   0  0  0  0  0  0  0  0  0  0  0  0
   69.0436   42.3644   57.3435 C   0  0  0  0  0  0  0  0  0  0  0  0
 22 23  1  0
 23 20  1  0
 20 21  1  1
 20 19  1  0
 19 13  1  0
 13 14  2  0
 13 18  1  0
 14 15  1  0
 15 16  2  0
 16 17  1  0
 17  1  1  0
 17 18  2  0
  1  2  1  0
  2  3  2  0
  2 12  1  0
  3  4  1  0
  4  5  1  0
  5  6  2  0
  5  7  1  0
  7  8  1  0
  7 12  2  0
  8  9  2  0
  9 10  1  0
 10 11  2  0
 11 12  1  0
M  END
>  <minimizedAffinity>  (325) 
-8.83650

$$$$
cs_full_output_folder/data/smiles/8397.pdb
     RDKit          3D

 22 24  0  0  0  0  0  0  0  0999 V2000
   70.5331   48.7146   50.9272 O   0  0  0  0  0  0  0  0  0  0  0  0
   70.1845   48.7210   52.1442 C   0  0  0  0  0  0  0  0  0  0  0  0
   70.6800   49.6363   52.9848 N   0  0  0  0  0  0  0  0  0  0  0  0
   70.2971   49.6101   54.2217 N   0  0  0  0  0  0  0  0  0  0  0  0
   69.4029   48.6765   54.6964 C   0  0  0  0  0  0  0  0  0  0  0  0
   68.8725   47.7242   53.8764 C   0  0  0  0  0  0  0  0  0  0  0  0
   67.9943   46.7783   54.3310 C   0  0  0  0  0  0  0  0  0  0  0  0
   67.5131   45.8420   53.4337 C   0  0  0  0  0  0  0  0  0  0  0  0
   67.8941   45.8333   52.0971 C   0  0  0  0  0  0  0  0  0  0  0  0
   68.7913   46.8100   51.6732 C   0  0  0  0  0  0  0  0  0  0  0  0
   69.2851   47.7502   52.5362 C   0  0  0  0  0  0  0  0  0  0  0  0
   69.0249   48.8093   56.1075 C   0  0  0  0  0  0  0  0  0  0  0  0
   69.8755   48.0825   57.0740 C   0  0  0  0  0  0  0  0  0  0  0  0
   70.8790   48.7179   57.7803 C   0  0  0  0  0  0  0  0  0  0  0  0
   71.6734   48.0217   58.6445 C   0  0  0  0  0  0  0  0  0  0  0  0
   71.4967   46.6650   58.8346 C   0  0  0  0  0  0  0  0  0  0  0  0
   72.2952   45.9722   59.7022 F   0  0  0  0  0  0  0  0  0  0  0  0
   70.5126   45.9887   58.1551 C   0  0  0  0  0  0  0  0  0  0  0  0
   69.7206   46.7394   57.2801 C   0  0  0  0  0  0  0  0  0  0  0  0
   70.2896   44.5148   58.3352 C   0  0  0  0  0  0  0  0  0  0  0  0
   69.7306   44.3021   59.5870 O   0  0  0  0  0  0  0  0  0  0  0  0
   69.4630   44.0217   57.3519 O   0  0  0  0  0  0  0  0  0  0  0  0
  1  2  2  0
  2  3  1  0
  2 11  1  0
  3  4  1  0
  4  5  2  0
  5 12  1  0
  5  6  1  0
 12 13  1  0
 13 14  2  0
 13 19  1  0
 14 15  1  0
 15 16  2  0
 16 17  1  0
 16 18  1  0
 18 20  1  0
 18 19  2  0
 20 21  1  0
 20 22  1  0
  6  7  1  0
  6 11  2  0
  7  8  2  0
  8  9  1  0
  9 10  2  0
 10 11  1  0
M  END
>  <minimizedAffinity>  (326) 
-8.83283

$$$$
cs_full_output_folder/data/smiles/2256.pdb
     RDKit          3D

 25 27  0  0  0  0  0  0  0  0999 V2000
   71.6620   49.9613   54.7483 N   0  0  0  0  0  0  0  0  0  0  0  0
   70.5757   49.5491   53.9518 C   0  0  0  0  0  0  0  0  0  0  0  0
   70.3698   50.0633   52.8404 O   0  0  0  0  0  0  0  0  0  0  0  0
   69.6660   48.4885   54.4451 C   0  0  0  0  0  0  0  0  0  0  0  0
   69.5031   48.3870   55.7999 C   0  0  0  0  0  0  0  0  0  0  0  0
   68.6532   47.3936   56.2923 C   0  0  0  0  0  0  0  0  0  0  0  0
   68.4910   47.2841   57.5247 O   0  0  0  0  0  0  0  0  0  0  0  0
   68.0170   46.5637   55.4375 N   0  0  0  0  0  0  0  0  0  0  0  0
   68.1540   46.6351   54.1003 C   0  0  0  0  0  0  0  0  0  0  0  0
   67.4843   45.7646   53.2721 C   0  0  0  0  0  0  0  0  0  0  0  0
   67.6442   45.8604   51.9078 C   0  0  0  0  0  0  0  0  0  0  0  0
   66.9969   45.0132   51.0452 F   0  0  0  0  0  0  0  0  0  0  0  0
   68.4916   46.8506   51.4157 C   0  0  0  0  0  0  0  0  0  0  0  0
   69.1597   47.7202   52.2587 C   0  0  0  0  0  0  0  0  0  0  0  0
   69.0042   47.6278   53.6043 C   0  0  0  0  0  0  0  0  0  0  0  0
   72.6479   50.9580   54.4839 C   0  0  0  0  0  0  0  0  0  0  0  0
   72.3722   52.3168   55.0015 C   0  0  0  0  0  0  0  0  0  0  0  0
   71.5716   52.5212   56.0620 O   0  0  0  0  0  0  0  0  0  0  0  0
   66.4576   50.7089   57.6768 C   0  0  0  0  0  0  0  0  0  0  0  0
   67.8158   51.1707   57.2900 C   0  0  0  0  0  0  0  0  0  0  0  0
   67.9873   51.8051   56.0766 C   0  0  0  0  0  0  0  0  0  0  0  0
   69.2316   52.2462   55.6834 C   0  0  0  0  0  0  0  0  0  0  0  0
   70.3685   52.0741   56.4853 C   0  0  0  0  0  0  0  0  0  0  0  0
   70.1747   51.4446   57.6794 C   0  0  0  0  0  0  0  0  0  0  0  0
   68.9194   50.9907   58.0937 C   0  0  0  0  0  0  0  0  0  0  0  0
 19 20  1  0
 20 21  2  0
 20 25  1  0
 21 22  1  0
 22 23  2  0
 23 18  1  0
 23 24  1  0
 18 17  1  0
 17 16  1  0
 16  1  1  0
  1  2  1  0
  2  3  2  0
  2  4  1  0
  4  5  2  0
  4 15  1  0
  5  6  1  0
  6  7  2  0
  6  8  1  0
  8  9  1  0
  9 10  1  0
  9 15  2  0
 10 11  2  0
 11 12  1  0
 11 13  1  0
 13 14  2  0
 14 15  1  0
 24 25  2  0
M  END
>  <minimizedAffinity>  (327) 
-8.83101

$$$$
cs_full_output_folder/data/smiles/580.pdb
     RDKit          3D

 24 26  0  0  0  0  0  0  0  0999 V2000
   68.7842   43.5108   56.5433 C   0  0  0  0  0  0  0  0  0  0  0  0
   69.9112   44.0563   57.0336 N   0  0  0  0  0  0  0  0  0  0  0  0
   70.8630   43.3349   57.6636 C   0  0  0  0  0  0  0  0  0  0  0  0
   72.0198   43.8949   58.1666 C   0  0  0  0  0  0  0  0  0  0  0  0
   72.9885   43.1515   58.8103 C   0  0  0  0  0  0  0  0  0  0  0  0
   72.8188   41.7832   58.9722 C   0  0  0  0  0  0  0  0  0  0  0  0
   71.6635   41.2158   58.4719 C   0  0  0  0  0  0  0  0  0  0  0  0
   70.7040   41.9738   57.8301 C   0  0  0  0  0  0  0  0  0  0  0  0
   69.5761   41.4266   57.3399 N   0  0  0  0  0  0  0  0  0  0  0  0
   68.6298   42.1506   56.7114 C   0  0  0  0  0  0  0  0  0  0  0  0
   67.4114   41.5367   56.1860 C   0  0  0  0  0  0  0  0  0  0  0  0
   66.2856   41.9926   56.5086 O   0  0  0  0  0  0  0  0  0  0  0  0
   67.4486   40.4509   55.3293 O   0  0  0  0  0  0  0  0  0  0  0  0
   67.8082   44.2602   55.8946 O   0  0  0  0  0  0  0  0  0  0  0  0
   68.8908   47.2948   53.2605 C   0  0  0  0  0  0  0  0  0  0  0  0
   69.1095   47.3993   54.6160 C   0  0  0  0  0  0  0  0  0  0  0  0
   68.7567   46.4003   55.5095 C   0  0  0  0  0  0  0  0  0  0  0  0
   68.1690   45.2655   55.0337 C   0  0  0  0  0  0  0  0  0  0  0  0
   67.9385   45.1313   53.6960 C   0  0  0  0  0  0  0  0  0  0  0  0
   68.2942   46.1368   52.8013 C   0  0  0  0  0  0  0  0  0  0  0  0
   69.2728   48.3652   52.3302 C   0  0  0  0  0  0  0  0  0  0  0  0
   69.6487   50.6260   53.4208 C   0  0  0  0  0  0  0  0  0  0  0  0
   70.2145   49.3426   52.9164 C   0  0  0  0  0  0  0  0  0  0  0  0
   71.4093   49.1832   53.0182 O   0  0  0  0  0  0  0  0  0  0  0  0
 22 23  1  0
 23 24  2  0
 23 21  1  0
 21 15  1  0
 15 16  2  0
 15 20  1  0
 16 17  1  0
 17 18  2  0
 18 14  1  0
 18 19  1  0
 14  1  1  0
  1  2  2  0
  1 10  1  0
  2  3  1  0
  3  4  2  0
  3  8  1  0
  4  5  1  0
  5  6  2  0
  6  7  1  0
  7  8  2  0
  8  9  1  0
  9 10  2  0
 10 11  1  0
 11 12  2  0
 11 13  1  0
 19 20  2  0
M  END
>  <minimizedAffinity>  (328) 
-8.83080

$$$$
cs_full_output_folder/data/smiles/1459.pdb
     RDKit          3D

 25 28  0  0  0  0  0  0  0  0999 V2000
   69.8571   47.8293   57.2053 C   0  0  0  0  0  0  0  0  0  0  0  0
   70.7444   48.6892   57.8432 C   0  0  0  0  0  0  0  0  0  0  0  0
   71.7590   48.1570   58.6119 C   0  0  0  0  0  0  0  0  0  0  0  0
   71.8754   46.7857   58.7348 C   0  0  0  0  0  0  0  0  0  0  0  0
   72.8899   46.3086   59.5026 F   0  0  0  0  0  0  0  0  0  0  0  0
   71.0046   45.9052   58.1098 C   0  0  0  0  0  0  0  0  0  0  0  0
   70.0010   46.4905   57.3474 C   0  0  0  0  0  0  0  0  0  0  0  0
   71.1512   44.5042   58.2495 N   0  0  0  0  0  0  0  0  0  0  0  0
   72.2537   43.6970   57.8320 C   0  0  0  0  0  0  0  0  0  0  0  0
   71.8239   42.2827   57.9301 C   0  0  0  0  0  0  0  0  0  0  0  0
   70.3609   42.2882   58.1956 C   0  0  0  0  0  0  0  0  0  0  0  0
   70.1922   43.6427   58.8422 C   0  0  0  0  0  0  0  0  0  0  0  0
   69.3350   43.8522   59.7270 O   0  0  0  0  0  0  0  0  0  0  0  0
   68.7752   48.4587   56.4259 C   0  0  0  0  0  0  0  0  0  0  0  0
   70.5758   48.7644   51.1287 N   0  0  0  0  0  0  0  0  0  0  0  0
   70.1092   48.6943   52.4754 C   0  0  0  0  0  0  0  0  0  0  0  0
   70.5158   49.5819   53.3726 N   0  0  0  0  0  0  0  0  0  0  0  0
   70.0583   49.4787   54.5978 N   0  0  0  0  0  0  0  0  0  0  0  0
   69.1844   48.5076   55.0070 C   0  0  0  0  0  0  0  0  0  0  0  0
   68.7676   47.6022   54.0923 C   0  0  0  0  0  0  0  0  0  0  0  0
   67.8744   46.5924   54.3929 C   0  0  0  0  0  0  0  0  0  0  0  0
   67.4844   45.7146   53.4093 C   0  0  0  0  0  0  0  0  0  0  0  0
   67.9420   45.7842   52.1121 C   0  0  0  0  0  0  0  0  0  0  0  0
   68.8358   46.7877   51.7865 C   0  0  0  0  0  0  0  0  0  0  0  0
   69.2323   47.6761   52.7717 C   0  0  0  0  0  0  0  0  0  0  0  0
 15 16  1  0
 16 17  2  0
 16 25  1  0
 17 18  1  0
 18 19  2  0
 19 14  1  0
 19 20  1  0
 14  1  1  0
  1  2  2  0
  1  7  1  0
  2  3  1  0
  3  4  2  0
  4  5  1  0
  4  6  1  0
  6  8  1  0
  6  7  2  0
  8  9  1  0
  8 12  1  0
  9 10  1  0
 10 11  1  0
 11 12  1  0
 12 13  2  0
 20 21  1  0
 20 25  2  0
 21 22  2  0
 22 23  1  0
 23 24  2  0
 24 25  1  0
M  END
>  <minimizedAffinity>  (329) 
-8.82931

$$$$
cs_full_output_folder/data/smiles/9198.pdb
     RDKit          3D

 23 25  0  0  0  0  0  0  0  0999 V2000
   68.9078   48.7678   56.2256 C   0  0  0  0  0  0  0  0  0  0  0  0
   69.3491   48.6772   54.8355 C   0  0  0  0  0  0  0  0  0  0  0  0
   70.2508   49.5864   54.3558 N   0  0  0  0  0  0  0  0  0  0  0  0
   70.6527   49.5889   53.1044 N   0  0  0  0  0  0  0  0  0  0  0  0
   70.2036   48.6945   52.2094 C   0  0  0  0  0  0  0  0  0  0  0  0
   70.5816   48.6842   51.0006 O   0  0  0  0  0  0  0  0  0  0  0  0
   69.2830   47.7327   52.6223 C   0  0  0  0  0  0  0  0  0  0  0  0
   68.8272   46.7977   51.6994 C   0  0  0  0  0  0  0  0  0  0  0  0
   67.9283   45.8327   52.0966 C   0  0  0  0  0  0  0  0  0  0  0  0
   67.5216   45.8465   53.4130 C   0  0  0  0  0  0  0  0  0  0  0  0
   67.9692   46.7682   54.3276 C   0  0  0  0  0  0  0  0  0  0  0  0
   68.8728   47.7477   53.9457 C   0  0  0  0  0  0  0  0  0  0  0  0
   70.6351   46.1601   58.3660 C   0  0  0  0  0  0  0  0  0  0  0  0
   69.8248   46.8266   57.4439 C   0  0  0  0  0  0  0  0  0  0  0  0
   69.8282   48.1639   57.2180 C   0  0  0  0  0  0  0  0  0  0  0  0
   70.7036   48.9448   57.9551 C   0  0  0  0  0  0  0  0  0  0  0  0
   71.5248   48.3465   58.8755 C   0  0  0  0  0  0  0  0  0  0  0  0
   71.4908   46.9609   59.0800 C   0  0  0  0  0  0  0  0  0  0  0  0
   72.3299   46.4317   59.9977 F   0  0  0  0  0  0  0  0  0  0  0  0
   71.0623   42.3161   58.0030 C   0  0  0  0  0  0  0  0  0  0  0  0
   71.2438   43.7554   57.7899 N   0  0  0  0  0  0  0  0  0  0  0  0
   70.5186   44.7189   58.5137 C   0  0  0  0  0  0  0  0  0  0  0  0
   69.6908   44.2708   59.3723 O   0  0  0  0  0  0  0  0  0  0  0  0
 20 21  1  0
 21 22  1  0
 22 23  2  0
 22 13  1  0
 13 14  2  0
 13 18  1  0
 14 15  1  0
 15  1  1  0
 15 16  2  0
  1  2  1  0
  2  3  2  0
  2 12  1  0
  3  4  1  0
  4  5  1  0
  5  6  2  0
  5  7  1  0
  7  8  1  0
  7 12  2  0
  8  9  2  0
  9 10  1  0
 10 11  2  0
 11 12  1  0
 16 17  1  0
 17 18  2  0
 18 19  1  0
M  END
>  <minimizedAffinity>  (330) 
-8.82923

$$$$
cs_full_output_folder/data/smiles/4772.pdb
     RDKit          3D

 23 24  0  0  0  0  0  0  0  0999 V2000
   67.3283   47.5432   57.0080 O   0  0  0  0  0  0  0  0  0  0  0  0
   68.5062   47.4848   56.5057 C   0  0  0  0  0  0  0  0  0  0  0  0
   68.6223   47.3622   55.0815 C   0  0  0  0  0  0  0  0  0  0  0  0
   67.8310   46.4492   54.4094 C   0  0  0  0  0  0  0  0  0  0  0  0
   67.8582   46.2679   53.0490 C   0  0  0  0  0  0  0  0  0  0  0  0
   67.0465   45.3363   52.3956 O   0  0  0  0  0  0  0  0  0  0  0  0
   68.7064   47.0205   52.2929 C   0  0  0  0  0  0  0  0  0  0  0  0
   68.7972   46.8996   50.8962 O   0  0  0  0  0  0  0  0  0  0  0  0
   69.5163   47.9443   52.9198 C   0  0  0  0  0  0  0  0  0  0  0  0
   69.4709   48.1115   54.3061 C   0  0  0  0  0  0  0  0  0  0  0  0
   70.4018   48.7315   52.1313 N   0  0  0  0  0  0  0  0  0  0  0  0
   71.5976   48.8690   52.4573 O   0  0  0  0  0  0  0  0  0  0  0  0
   69.9658   49.3548   50.9984 O   0  0  0  0  0  0  0  0  0  0  0  0
   69.6136   47.5509   57.4495 C   0  0  0  0  0  0  0  0  0  0  0  0
   70.1530   48.7276   57.9235 C   0  0  0  0  0  0  0  0  0  0  0  0
   71.2050   48.7324   58.8336 C   0  0  0  0  0  0  0  0  0  0  0  0
   71.7665   47.5693   59.3105 C   0  0  0  0  0  0  0  0  0  0  0  0
   71.2366   46.3844   58.8435 C   0  0  0  0  0  0  0  0  0  0  0  0
   70.1934   46.3806   57.9422 C   0  0  0  0  0  0  0  0  0  0  0  0
   72.8890   47.6117   60.2838 C   0  0  0  0  0  0  0  0  0  0  0  0
   72.5603   47.1133   61.5116 F   0  0  0  0  0  0  0  0  0  0  0  0
   73.9765   46.9407   59.7339 F   0  0  0  0  0  0  0  0  0  0  0  0
   73.3263   48.9293   60.4794 F   0  0  0  0  0  0  0  0  0  0  0  0
  1  2  2  0
  2 14  1  0
  2  3  1  0
 14 15  2  0
 14 19  1  0
 15 16  1  0
 16 17  2  0
 17 20  1  0
 17 18  1  0
 20 21  1  0
 20 22  1  0
 20 23  1  0
 18 19  2  0
  3  4  2  0
  3 10  1  0
  4  5  1  0
  5  6  1  0
  5  7  2  0
  7  8  1  0
  7  9  1  0
  9 11  1  0
  9 10  2  0
 11 12  2  0
 11 13  1  0
M  CHG  2  11   1  13  -1
M  END
>  <minimizedAffinity>  (331) 
-8.82815

$$$$
cs_full_output_folder/data/smiles/4649.pdb
     RDKit          3D

 22 23  0  0  0  0  0  0  0  0999 V2000
   69.3925   47.8622   53.0043 C   0  0  0  0  0  0  0  0  0  0  0  0
   69.2516   47.8847   54.3853 C   0  0  0  0  0  0  0  0  0  0  0  0
   68.3855   47.0301   55.0285 C   0  0  0  0  0  0  0  0  0  0  0  0
   67.6503   46.1314   54.2225 C   0  0  0  0  0  0  0  0  0  0  0  0
   67.8055   46.1291   52.8733 C   0  0  0  0  0  0  0  0  0  0  0  0
   68.6740   46.9883   52.2411 C   0  0  0  0  0  0  0  0  0  0  0  0
   68.8268   46.9762   50.8426 O   0  0  0  0  0  0  0  0  0  0  0  0
   71.4192   49.0289   52.9015 O   0  0  0  0  0  0  0  0  0  0  0  0
   70.3246   48.7894   52.3633 C   0  0  0  0  0  0  0  0  0  0  0  0
   69.9822   49.3819   51.1813 O   0  0  0  0  0  0  0  0  0  0  0  0
   67.0725   45.2286   52.0261 N   0  0  0  0  0  0  0  0  0  0  0  0
   66.8056   44.0861   52.4200 O   0  0  0  0  0  0  0  0  0  0  0  0
   66.6827   45.6599   50.7879 O   0  0  0  0  0  0  0  0  0  0  0  0
   68.2135   47.0160   56.3668 O   0  0  0  0  0  0  0  0  0  0  0  0
   68.6127   47.7126   57.4497 C   0  0  0  0  0  0  0  0  0  0  0  0
   68.6014   49.1953   57.3786 C   0  0  0  0  0  0  0  0  0  0  0  0
   69.7901   49.8910   57.2485 C   0  0  0  0  0  0  0  0  0  0  0  0
   69.8082   51.2499   57.1479 C   0  0  0  0  0  0  0  0  0  0  0  0
   68.6377   51.9780   57.1720 C   0  0  0  0  0  0  0  0  0  0  0  0
   68.7057   53.3282   57.0684 F   0  0  0  0  0  0  0  0  0  0  0  0
   67.4611   51.3043   57.2992 C   0  0  0  0  0  0  0  0  0  0  0  0
   67.4428   49.9135   57.4021 C   0  0  0  0  0  0  0  0  0  0  0  0
  8  9  2  0
  9 10  1  0
  9  1  1  0
  1  2  2  0
  1  6  1  0
  2  3  1  0
  3 14  1  0
  3  4  2  0
 14 15  1  0
 15 16  1  0
 16 17  2  0
 16 22  1  0
 17 18  1  0
 18 19  2  0
 19 20  1  0
 19 21  1  0
 21 22  2  0
  4  5  1  0
  5 11  1  0
  5  6  2  0
 11 12  2  0
 11 13  1  0
  6  7  1  0
M  CHG  2  11   1  13  -1
M  END
>  <minimizedAffinity>  (332) 
-8.82616

$$$$
cs_full_output_folder/data/smiles/5436.pdb
     RDKit          3D

 23 25  0  0  0  0  0  0  0  0999 V2000
   69.8091   46.2349   57.1820 N   0  0  0  0  0  0  0  0  0  0  0  0
   69.3000   45.0416   57.0474 N   0  0  0  0  0  0  0  0  0  0  0  0
   69.9016   43.9360   57.5571 C   0  0  0  0  0  0  0  0  0  0  0  0
   71.0871   44.0872   58.2383 C   0  0  0  0  0  0  0  0  0  0  0  0
   71.6050   45.3644   58.3662 C   0  0  0  0  0  0  0  0  0  0  0  0
   70.9542   46.4489   57.8307 C   0  0  0  0  0  0  0  0  0  0  0  0
   71.4070   47.6180   57.9361 O   0  0  0  0  0  0  0  0  0  0  0  0
   69.2910   42.6315   57.3770 C   0  0  0  0  0  0  0  0  0  0  0  0
   68.2594   42.4356   56.5070 C   0  0  0  0  0  0  0  0  0  0  0  0
   67.7022   41.1675   56.3638 C   0  0  0  0  0  0  0  0  0  0  0  0
   68.1855   40.1154   57.0936 C   0  0  0  0  0  0  0  0  0  0  0  0
   69.2266   40.3153   57.9713 C   0  0  0  0  0  0  0  0  0  0  0  0
   69.7703   41.5726   58.1056 C   0  0  0  0  0  0  0  0  0  0  0  0
   69.0549   47.3303   56.5820 C   0  0  0  0  0  0  0  0  0  0  0  0
   69.3370   47.7623   52.8347 C   0  0  0  0  0  0  0  0  0  0  0  0
   68.5850   46.6966   52.3928 C   0  0  0  0  0  0  0  0  0  0  0  0
   67.9883   45.8402   53.3165 C   0  0  0  0  0  0  0  0  0  0  0  0
   68.1516   46.0598   54.6706 C   0  0  0  0  0  0  0  0  0  0  0  0
   68.9030   47.1258   55.1190 C   0  0  0  0  0  0  0  0  0  0  0  0
   69.4924   47.9712   54.2047 C   0  0  0  0  0  0  0  0  0  0  0  0
   69.9108   50.0586   52.1486 N   0  0  0  0  0  0  0  0  0  0  0  0
   69.9677   48.6663   51.8956 C   0  0  0  0  0  0  0  0  0  0  0  0
   70.5427   48.2050   50.8938 O   0  0  0  0  0  0  0  0  0  0  0  0
 21 22  1  0
 22 23  2  0
 22 15  1  0
 15 16  2  0
 15 20  1  0
 16 17  1  0
 17 18  2  0
 18 19  1  0
 19 14  1  0
 19 20  2  0
 14  1  1  0
  1  2  1  0
  1  6  1  0
  2  3  2  0
  3  8  1  0
  3  4  1  0
  8  9  2  0
  8 13  1  0
  9 10  1  0
 10 11  2  0
 11 12  1  0
 12 13  2  0
  4  5  2  0
  5  6  1  0
  6  7  2  0
M  END
>  <minimizedAffinity>  (333) 
-8.82458

$$$$
cs_full_output_folder/data/smiles/8535.pdb
     RDKit          3D

 23 25  0  0  0  0  0  0  0  0999 V2000
   69.0618   48.9172   56.1592 C   0  0  0  0  0  0  0  0  0  0  0  0
   69.3867   48.8141   54.7471 C   0  0  0  0  0  0  0  0  0  0  0  0
   70.2374   49.7209   54.1861 N   0  0  0  0  0  0  0  0  0  0  0  0
   70.6365   49.7074   52.9509 N   0  0  0  0  0  0  0  0  0  0  0  0
   70.2096   48.7504   52.1159 C   0  0  0  0  0  0  0  0  0  0  0  0
   70.5559   48.6796   50.9118 O   0  0  0  0  0  0  0  0  0  0  0  0
   69.3348   47.7846   52.6146 C   0  0  0  0  0  0  0  0  0  0  0  0
   68.8578   46.7872   51.7915 C   0  0  0  0  0  0  0  0  0  0  0  0
   67.9821   45.8367   52.2739 C   0  0  0  0  0  0  0  0  0  0  0  0
   67.5658   45.8638   53.5854 C   0  0  0  0  0  0  0  0  0  0  0  0
   68.0362   46.8488   54.3968 C   0  0  0  0  0  0  0  0  0  0  0  0
   68.9187   47.8162   53.9393 C   0  0  0  0  0  0  0  0  0  0  0  0
   70.5059   46.1884   58.4612 C   0  0  0  0  0  0  0  0  0  0  0  0
   71.7024   46.7723   58.7794 C   0  0  0  0  0  0  0  0  0  0  0  0
   72.0641   48.0259   58.2634 C   0  0  0  0  0  0  0  0  0  0  0  0
   71.1999   48.6768   57.4237 C   0  0  0  0  0  0  0  0  0  0  0  0
   69.9606   48.1236   57.0646 C   0  0  0  0  0  0  0  0  0  0  0  0
   69.6632   46.9053   57.5954 C   0  0  0  0  0  0  0  0  0  0  0  0
   70.1035   44.9207   58.9562 N   0  0  0  0  0  0  0  0  0  0  0  0
   71.1049   42.5476   57.7540 C   0  0  0  0  0  0  0  0  0  0  0  0
   69.6891   43.5442   58.0689 S   0  0  0  0  0  0  0  0  0  0  0  0
   68.9896   43.9186   56.7710 O   0  0  0  0  0  0  0  0  0  0  0  0
   68.6395   42.7682   58.8553 O   0  0  0  0  0  0  0  0  0  0  0  0
 20 21  1  0
 21 22  2  0
 21 23  2  0
 21 19  1  0
 19 13  1  0
 13 14  2  0
 13 18  1  0
 14 15  1  0
 15 16  2  0
 16 17  1  0
 17  1  1  0
 17 18  2  0
  1  2  1  0
  2  3  2  0
  2 12  1  0
  3  4  1  0
  4  5  1  0
  5  6  2  0
  5  7  1  0
  7  8  1  0
  7 12  2  0
  8  9  2  0
  9 10  1  0
 10 11  2  0
 11 12  1  0
M  END
>  <minimizedAffinity>  (334) 
-8.82281

$$$$
cs_full_output_folder/data/smiles/1006.pdb
     RDKit          3D

 21 22  0  0  0  0  0  0  0  0999 V2000
   68.9611   46.8381   57.1591 N   0  0  0  0  0  0  0  0  0  0  0  0
   68.2221   47.1829   56.2039 C   0  0  0  0  0  0  0  0  0  0  0  0
   68.3917   47.0257   54.7766 C   0  0  0  0  0  0  0  0  0  0  0  0
   67.7598   46.0748   54.0257 C   0  0  0  0  0  0  0  0  0  0  0  0
   67.9834   46.0016   52.6783 C   0  0  0  0  0  0  0  0  0  0  0  0
   68.8452   46.8704   52.0192 C   0  0  0  0  0  0  0  0  0  0  0  0
   69.4938   47.8371   52.7564 C   0  0  0  0  0  0  0  0  0  0  0  0
   69.2610   47.8996   54.1067 C   0  0  0  0  0  0  0  0  0  0  0  0
   70.3891   48.7578   52.1396 N   0  0  0  0  0  0  0  0  0  0  0  0
   71.4877   49.0074   52.6592 O   0  0  0  0  0  0  0  0  0  0  0  0
   70.0331   49.3726   50.9656 O   0  0  0  0  0  0  0  0  0  0  0  0
   69.7902   45.2278   59.1110 O   0  0  0  0  0  0  0  0  0  0  0  0
   70.6040   45.3393   58.1447 C   0  0  0  0  0  0  0  0  0  0  0  0
   70.1749   46.1965   57.0933 N   0  0  0  0  0  0  0  0  0  0  0  0
   71.8749   44.6318   58.1360 C   0  0  0  0  0  0  0  0  0  0  0  0
   71.9176   43.2567   57.8786 C   0  0  0  0  0  0  0  0  0  0  0  0
   73.1029   42.5521   57.8623 C   0  0  0  0  0  0  0  0  0  0  0  0
   74.3045   43.1843   58.1009 C   0  0  0  0  0  0  0  0  0  0  0  0
   75.8287   42.3001   58.0842 Cl  0  0  0  0  0  0  0  0  0  0  0  0
   74.2799   44.5356   58.3555 C   0  0  0  0  0  0  0  0  0  0  0  0
   73.0708   45.2489   58.3716 C   0  0  0  0  0  0  0  0  0  0  0  0
 12 13  2  0
 13 14  1  0
 13 15  1  0
 14  1  1  0
  1  2  2  0
  2  3  1  0
  3  4  2  0
  3  8  1  0
  4  5  1  0
  5  6  2  0
  6  7  1  0
  7  9  1  0
  7  8  2  0
  9 10  2  0
  9 11  1  0
 15 16  2  0
 15 21  1  0
 16 17  1  0
 17 18  2  0
 18 19  1  0
 18 20  1  0
 20 21  2  0
M  CHG  2   9   1  11  -1
M  END
>  <minimizedAffinity>  (335) 
-8.82126

$$$$
cs_full_output_folder/data/smiles/1289.pdb
     RDKit          3D

 24 26  0  0  0  0  0  0  0  0999 V2000
   68.0985   42.7784   56.4734 C   0  0  0  0  0  0  0  0  0  0  0  0
   67.3663   42.0421   55.7727 O   0  0  0  0  0  0  0  0  0  0  0  0
   68.2761   44.1197   56.0628 N   0  0  0  0  0  0  0  0  0  0  0  0
   70.2406   42.1488   57.6195 C   0  0  0  0  0  0  0  0  0  0  0  0
   68.7414   42.2277   57.6867 C   0  0  2  0  0  0  0  0  0  0  0  0
   68.1754   40.9354   58.1337 C   0  0  0  0  0  0  0  0  0  0  0  0
   68.4624   39.6612   57.6536 C   0  0  0  0  0  0  0  0  0  0  0  0
   67.7630   38.7428   58.3352 N   0  0  0  0  0  0  0  0  0  0  0  0
   66.9986   39.3450   59.2737 C   0  0  0  0  0  0  0  0  0  0  0  0
   66.1261   38.8018   60.1927 C   0  0  0  0  0  0  0  0  0  0  0  0
   65.4585   39.6516   61.0455 C   0  0  0  0  0  0  0  0  0  0  0  0
   65.6902   41.0057   60.9432 C   0  0  0  0  0  0  0  0  0  0  0  0
   66.5770   41.5343   60.0075 C   0  0  0  0  0  0  0  0  0  0  0  0
   67.2474   40.7025   59.1556 C   0  0  0  0  0  0  0  0  0  0  0  0
   67.6554   44.5715   54.9080 N   0  0  0  0  0  0  0  0  0  0  0  0
   68.1456   45.7288   54.2652 C   0  0  0  0  0  0  0  0  0  0  0  0
   68.5888   46.7885   55.0178 C   0  0  0  0  0  0  0  0  0  0  0  0
   69.0834   47.9224   54.3785 C   0  0  0  0  0  0  0  0  0  0  0  0
   69.1413   48.0139   53.0208 C   0  0  0  0  0  0  0  0  0  0  0  0
   68.6977   46.9547   52.2663 C   0  0  0  0  0  0  0  0  0  0  0  0
   68.1993   45.8103   52.9002 C   0  0  0  0  0  0  0  0  0  0  0  0
   69.6441   49.1904   52.4054 N   0  0  0  0  0  0  0  0  0  0  0  0
   70.1879   49.0796   51.1277 N   0  0  0  0  0  0  0  0  0  0  0  0
   69.5772   50.2673   53.0252 O   0  0  0  0  0  0  0  0  0  0  0  0
  5  4  1  6
  5  1  1  0
  5  6  1  0
  1  2  2  0
  1  3  1  0
  3 15  1  0
 15 16  1  0
 16 17  2  0
 16 21  1  0
 17 18  1  0
 18 19  2  0
 19 22  1  0
 19 20  1  0
 22 23  1  0
 22 24  2  0
 20 21  2  0
  6  7  2  0
  6 14  1  0
  7  8  1  0
  8  9  1  0
  9 10  1  0
  9 14  2  0
 10 11  2  0
 11 12  1  0
 12 13  2  0
 13 14  1  0
M  CHG  1  22   1
M  END
>  <minimizedAffinity>  (336) 
-8.82026

$$$$
cs_full_output_folder/data/smiles/5047.pdb
     RDKit          3D

 23 25  0  0  0  0  0  0  0  0999 V2000
   69.6707   48.3642   54.3221 C   0  0  0  0  0  0  0  0  0  0  0  0
   69.8562   48.1570   55.6856 C   0  0  0  0  0  0  0  0  0  0  0  0
   69.3848   47.0481   56.3459 C   0  0  0  0  0  0  0  0  0  0  0  0
   68.6921   46.0927   55.6128 C   0  0  0  0  0  0  0  0  0  0  0  0
   68.1848   44.9434   56.2134 O   0  0  0  0  0  0  0  0  0  0  0  0
   68.5058   46.2910   54.2696 C   0  0  0  0  0  0  0  0  0  0  0  0
   67.8118   45.3205   53.5663 C   0  0  0  0  0  0  0  0  0  0  0  0
   67.5763   45.4333   52.2146 C   0  0  0  0  0  0  0  0  0  0  0  0
   68.0516   46.5439   51.5664 C   0  0  0  0  0  0  0  0  0  0  0  0
   68.7544   47.5341   52.2563 C   0  0  0  0  0  0  0  0  0  0  0  0
   68.9871   47.4166   53.6074 C   0  0  0  0  0  0  0  0  0  0  0  0
   71.4465   49.6545   53.4780 O   0  0  0  0  0  0  0  0  0  0  0  0
   70.1959   49.5603   53.6859 C   0  0  0  0  0  0  0  0  0  0  0  0
   69.5631   46.8392   57.7331 N   0  0  0  0  0  0  0  0  0  0  0  0
   71.0915   46.5578   58.4256 S   0  0  0  0  0  0  0  0  0  0  0  0
   71.0100   46.7269   59.9063 O   0  0  0  0  0  0  0  0  0  0  0  0
   72.1277   47.5458   57.9145 O   0  0  0  0  0  0  0  0  0  0  0  0
   71.6757   44.9296   58.0942 C   0  0  0  0  0  0  0  0  0  0  0  0
   70.7513   43.8820   57.9973 C   0  0  0  0  0  0  0  0  0  0  0  0
   71.1662   42.6003   57.7467 C   0  0  0  0  0  0  0  0  0  0  0  0
   72.4987   42.3309   57.5866 C   0  0  0  0  0  0  0  0  0  0  0  0
   73.4245   43.3494   57.6787 C   0  0  0  0  0  0  0  0  0  0  0  0
   73.0107   44.6619   57.9347 C   0  0  0  0  0  0  0  0  0  0  0  0
 12 13  2  0
 13  1  1  0
  1  2  2  0
  1 11  1  0
  2  3  1  0
  3 14  1  0
  3  4  2  0
 14 15  1  0
 15 16  2  0
 15 17  2  0
 15 18  1  0
 18 19  2  0
 18 23  1  0
 19 20  1  0
 20 21  2  0
 21 22  1  0
 22 23  2  0
  4  5  1  0
  4  6  1  0
  6  7  1  0
  6 11  2  0
  7  8  2  0
  8  9  1  0
  9 10  2  0
 10 11  1  0
M  END
>  <minimizedAffinity>  (337) 
-8.81954

$$$$
cs_full_output_folder/data/smiles/7969.pdb
     RDKit          3D

 24 27  0  0  0  0  0  0  0  0999 V2000
   71.7318   47.0081   58.4274 C   0  0  0  0  0  0  0  0  0  0  0  0
   71.5525   45.6574   58.4036 C   0  0  0  0  0  0  0  0  0  0  0  0
   70.4986   45.1128   57.7050 C   0  0  0  0  0  0  0  0  0  0  0  0
   69.6052   45.9459   57.0147 C   0  0  0  0  0  0  0  0  0  0  0  0
   69.7532   47.3071   57.0135 C   0  0  0  0  0  0  0  0  0  0  0  0
   70.8447   47.8026   57.7434 C   0  0  0  0  0  0  0  0  0  0  0  0
   71.7295   47.1929   61.1026 O   0  0  0  0  0  0  0  0  0  0  0  0
   72.7571   47.6950   60.5529 C   0  0  0  0  0  0  0  0  0  0  0  0
   72.8139   47.6262   59.1402 N   0  0  0  0  0  0  0  0  0  0  0  0
   73.8259   48.3145   61.3770 C   0  0  0  0  0  0  0  0  0  0  0  0
   74.3315   47.5758   62.5824 C   0  0  0  0  0  0  0  0  0  0  0  0
   75.2060   47.7749   61.4021 C   0  0  0  0  0  0  0  0  0  0  0  0
   68.8579   48.2660   56.2956 C   0  0  0  0  0  0  0  0  0  0  0  0
   69.2254   48.3517   54.9037 C   0  0  0  0  0  0  0  0  0  0  0  0
   70.1420   49.3053   54.5430 N   0  0  0  0  0  0  0  0  0  0  0  0
   70.5820   49.4464   53.3185 N   0  0  0  0  0  0  0  0  0  0  0  0
   70.1648   48.6596   52.3212 C   0  0  0  0  0  0  0  0  0  0  0  0
   70.5736   48.7712   51.1252 O   0  0  0  0  0  0  0  0  0  0  0  0
   69.2506   47.6796   52.5769 C   0  0  0  0  0  0  0  0  0  0  0  0
   68.7771   46.8509   51.5821 C   0  0  0  0  0  0  0  0  0  0  0  0
   67.8462   45.8774   51.8508 C   0  0  0  0  0  0  0  0  0  0  0  0
   67.4069   45.7672   53.1617 C   0  0  0  0  0  0  0  0  0  0  0  0
   67.8713   46.5871   54.1656 C   0  0  0  0  0  0  0  0  0  0  0  0
   68.7908   47.5434   53.8880 C   0  0  0  0  0  0  0  0  0  0  0  0
  7  8  2  0
  8  9  1  0
  8 10  1  0
  9  1  1  0
  1  2  2  0
  1  6  1  0
  2  3  1  0
  3  4  2  0
  4  5  1  0
  5 13  1  0
  5  6  2  0
 13 14  1  0
 14 15  2  0
 14 24  1  0
 15 16  1  0
 16 17  1  0
 17 18  2  0
 17 19  1  0
 19 20  1  0
 19 24  2  0
 20 21  2  0
 21 22  1  0
 22 23  2  0
 23 24  1  0
 10 11  1  0
 10 12  1  0
 11 12  1  0
M  END
>  <minimizedAffinity>  (338) 
-8.81742

$$$$
cs_full_output_folder/data/smiles/2089.pdb
     RDKit          3D

 25 28  0  0  0  0  0  0  0  0999 V2000
   72.0659   47.4935   58.5845 C   0  0  0  0  0  0  0  0  0  0  0  0
   71.7609   46.1504   58.6844 C   0  0  0  0  0  0  0  0  0  0  0  0
   70.6341   45.7004   58.0242 C   0  0  0  0  0  0  0  0  0  0  0  0
   69.8404   46.5489   57.2913 C   0  0  0  0  0  0  0  0  0  0  0  0
   70.1418   47.9216   57.1862 C   0  0  0  0  0  0  0  0  0  0  0  0
   71.2527   48.3577   57.8382 C   0  0  0  0  0  0  0  0  0  0  0  0
   72.5173   47.7738   61.3875 O   0  0  0  0  0  0  0  0  0  0  0  0
   73.2820   48.3551   60.5740 C   0  0  0  0  0  0  0  0  0  0  0  0
   74.1745   49.3866   60.9505 N   0  0  0  0  0  0  0  0  0  0  0  0
   74.6718   50.2527   59.9060 C   0  0  0  0  0  0  0  0  0  0  0  0
   75.0563   49.5582   58.6507 C   0  0  0  0  0  0  0  0  0  0  0  0
   74.5290   48.1456   58.5041 C   0  0  0  0  0  0  0  0  0  0  0  0
   73.2682   47.9711   59.1913 N   0  0  0  0  0  0  0  0  0  0  0  0
   69.2439   48.7396   56.3071 C   0  0  0  0  0  0  0  0  0  0  0  0
   69.6604   48.5544   54.8970 C   0  0  0  0  0  0  0  0  0  0  0  0
   70.6983   49.2711   54.3763 N   0  0  0  0  0  0  0  0  0  0  0  0
   71.0102   49.2079   53.0963 N   0  0  0  0  0  0  0  0  0  0  0  0
   70.3445   48.4436   52.2111 C   0  0  0  0  0  0  0  0  0  0  0  0
   70.6740   48.4094   50.9891 O   0  0  0  0  0  0  0  0  0  0  0  0
   69.2896   47.6901   52.6476 C   0  0  0  0  0  0  0  0  0  0  0  0
   68.9688   47.7667   54.0061 C   0  0  0  0  0  0  0  0  0  0  0  0
   67.8675   46.8836   54.5064 C   0  0  0  0  0  0  0  0  0  0  0  0
   68.0841   45.5640   53.7240 C   0  0  0  0  0  0  0  0  0  0  0  0
   67.6603   45.8372   52.3194 C   0  0  0  0  0  0  0  0  0  0  0  0
   68.5948   46.8255   51.6759 C   0  0  0  0  0  0  0  0  0  0  0  0
  7  8  2  0
  8  9  1  0
  8 13  1  0
  9 10  1  0
 10 11  1  0
 11 12  1  0
 12 13  1  0
 13  1  1  0
  1  2  2  0
  1  6  1  0
  2  3  1  0
  3  4  2  0
  4  5  1  0
  5 14  1  0
  5  6  2  0
 14 15  1  0
 15 16  2  0
 15 21  1  0
 16 17  1  0
 17 18  1  0
 18 19  2  0
 18 20  1  0
 20 21  2  0
 20 25  1  0
 21 22  1  0
 22 23  1  0
 23 24  1  0
 24 25  1  0
M  END
>  <minimizedAffinity>  (339) 
-8.81681

$$$$
cs_full_output_folder/data/smiles/3372.pdb
     RDKit          3D

 26 28  0  0  0  0  0  0  0  0999 V2000
   74.4543   50.5137   56.1219 C   0  0  0  0  0  0  0  0  0  0  0  0
   73.3925   50.0036   56.8361 C   0  0  0  0  0  0  0  0  0  0  0  0
   72.0970   50.0537   56.3724 C   0  0  0  0  0  0  0  0  0  0  0  0
   71.8011   50.6379   55.1294 C   0  0  0  0  0  0  0  0  0  0  0  0
   72.8872   51.1331   54.4523 C   0  0  0  0  0  0  0  0  0  0  0  0
   74.1525   51.0770   54.9200 N   0  0  0  0  0  0  0  0  0  0  0  0
   76.8306   49.8179   55.8300 C   0  0  0  0  0  0  0  0  0  0  0  0
   76.4712   49.3140   54.7365 O   0  0  0  0  0  0  0  0  0  0  0  0
   75.8038   50.4567   56.5865 N   0  0  0  0  0  0  0  0  0  0  0  0
   79.0937   49.2137   55.3987 C   0  0  0  0  0  0  0  0  0  0  0  0
   78.2181   49.7279   56.2516 C   0  0  0  0  0  0  0  0  0  0  0  0
   82.2981   48.0325   57.0558 C   0  0  0  0  0  0  0  0  0  0  0  0
   80.8990   48.1927   56.6425 C   0  0  0  0  0  0  0  0  0  0  0  0
   80.4972   49.0991   55.7729 C   0  0  0  0  0  0  0  0  0  0  0  0
   70.4008   50.6534   54.6406 C   0  0  0  0  0  0  0  0  0  0  0  0
   70.0518   49.6078   53.6798 C   0  0  0  0  0  0  0  0  0  0  0  0
   70.3209   49.7788   52.3703 N   0  0  0  0  0  0  0  0  0  0  0  0
   70.0539   48.9058   51.4256 N   0  0  0  0  0  0  0  0  0  0  0  0
   69.4706   47.7477   51.7424 C   0  0  0  0  0  0  0  0  0  0  0  0
   69.1901   46.8672   50.8697 O   0  0  0  0  0  0  0  0  0  0  0  0
   69.1574   47.4926   53.0708 C   0  0  0  0  0  0  0  0  0  0  0  0
   69.4552   48.4313   54.0417 C   0  0  0  0  0  0  0  0  0  0  0  0
   69.1989   48.1401   55.4470 C   0  0  0  0  0  0  0  0  0  0  0  0
   68.2646   47.0108   55.7182 C   0  0  0  0  0  0  0  0  0  0  0  0
   68.0176   46.0642   54.6233 C   0  0  0  0  0  0  0  0  0  0  0  0
   68.4266   46.2883   53.4005 C   0  0  0  0  0  0  0  0  0  0  0  0
 12 13  1  0
 13 14  2  0
 14 10  1  0
 10 11  2  0
 11  7  1  0
  7  8  2  0
  7  9  1  0
  9  1  1  0
  1  2  2  0
  1  6  1  0
  2  3  1  0
  3  4  2  0
  4 15  1  0
  4  5  1  0
 15 16  1  0
 16 17  2  0
 16 22  1  0
 17 18  1  0
 18 19  1  0
 19 20  2  0
 19 21  1  0
 21 22  2  0
 21 26  1  0
 22 23  1  0
 23 24  1  0
 24 25  1  0
 25 26  2  0
  5  6  2  0
M  END
>  <minimizedAffinity>  (340) 
-8.81619

$$$$
cs_full_output_folder/data/smiles/866.pdb
     RDKit          3D

 25 27  0  0  0  0  0  0  0  0999 V2000
   70.7466   46.6412   58.4866 C   0  0  0  0  0  0  0  0  0  0  0  0
   69.9073   47.1778   57.5313 C   0  0  0  0  0  0  0  0  0  0  0  0
   69.8358   48.5143   57.3194 C   0  0  0  0  0  0  0  0  0  0  0  0
   70.6140   49.3511   58.0677 C   0  0  0  0  0  0  0  0  0  0  0  0
   71.4482   48.8233   59.0162 C   0  0  0  0  0  0  0  0  0  0  0  0
   71.5450   47.4489   59.2613 C   0  0  0  0  0  0  0  0  0  0  0  0
   72.3898   47.0055   60.2306 F   0  0  0  0  0  0  0  0  0  0  0  0
   71.8598   44.5900   58.2582 O   0  0  0  0  0  0  0  0  0  0  0  0
   70.7894   45.1781   58.6548 C   0  0  0  0  0  0  0  0  0  0  0  0
   69.7887   44.3607   59.2016 N   0  0  0  0  0  0  0  0  0  0  0  0
   69.9502   42.9052   59.3200 C   0  0  0  0  0  0  0  0  0  0  0  0
   69.3460   42.1624   58.1596 C   0  0  0  0  0  0  0  0  0  0  0  0
   68.4776   42.9755   57.4220 O   0  0  0  0  0  0  0  0  0  0  0  0
   68.9208   49.1070   56.3067 C   0  0  0  0  0  0  0  0  0  0  0  0
   69.3056   48.9048   54.9112 C   0  0  0  0  0  0  0  0  0  0  0  0
   70.1350   49.8278   54.3325 N   0  0  0  0  0  0  0  0  0  0  0  0
   70.5498   49.7560   53.0858 N   0  0  0  0  0  0  0  0  0  0  0  0
   70.1979   48.7726   52.2681 C   0  0  0  0  0  0  0  0  0  0  0  0
   70.5909   48.6991   51.0780 O   0  0  0  0  0  0  0  0  0  0  0  0
   69.3502   47.7833   52.7756 C   0  0  0  0  0  0  0  0  0  0  0  0
   68.9164   47.8683   54.0961 C   0  0  0  0  0  0  0  0  0  0  0  0
   68.0234   46.8443   54.6710 C   0  0  0  0  0  0  0  0  0  0  0  0
   68.0211   45.5904   53.7815 C   0  0  0  0  0  0  0  0  0  0  0  0
   67.7110   46.0427   52.3522 C   0  0  0  0  0  0  0  0  0  0  0  0
   68.9744   46.6895   51.8506 C   0  0  0  0  0  0  0  0  0  0  0  0
  8  9  2  0
  9 10  1  0
  9  1  1  0
 10 11  1  0
 11 12  1  0
 12 13  1  0
  1  2  2  0
  1  6  1  0
  2  3  1  0
  3 14  1  0
  3  4  2  0
 14 15  1  0
 15 16  2  0
 15 21  1  0
 16 17  1  0
 17 18  1  0
 18 19  2  0
 18 20  1  0
 20 21  2  0
 20 25  1  0
 21 22  1  0
 22 23  1  0
 23 24  1  0
 24 25  1  0
  4  5  1  0
  5  6  2  0
  6  7  1  0
M  END
>  <minimizedAffinity>  (341) 
-8.81582

$$$$
cs_full_output_folder/data/smiles/228.pdb
     RDKit          3D

 23 25  0  0  0  0  0  0  0  0999 V2000
   68.6086   44.4436   56.3953 C   0  0  0  0  0  0  0  0  0  0  0  0
   67.6391   43.5233   56.1925 N   0  0  0  0  0  0  0  0  0  0  0  0
   67.8159   42.2248   56.4539 C   0  0  0  0  0  0  0  0  0  0  0  0
   69.0472   41.7860   56.9593 C   0  0  0  0  0  0  0  0  0  0  0  0
   70.0370   42.7097   57.1692 C   0  0  0  0  0  0  0  0  0  0  0  0
   69.7854   44.0225   56.8781 N   0  0  0  0  0  0  0  0  0  0  0  0
   71.3226   42.3097   57.7072 C   0  0  0  0  0  0  0  0  0  0  0  0
   71.4015   41.0823   58.3591 C   0  0  0  0  0  0  0  0  0  0  0  0
   72.5832   40.6052   58.9015 C   0  0  0  0  0  0  0  0  0  0  0  0
   73.7370   41.3747   58.7946 C   0  0  0  0  0  0  0  0  0  0  0  0
   73.6794   42.5833   58.1574 C   0  0  0  0  0  0  0  0  0  0  0  0
   72.4728   43.0471   57.6161 C   0  0  0  0  0  0  0  0  0  0  0  0
   68.3228   45.8067   56.1095 N   0  0  0  0  0  0  0  0  0  0  0  0
   69.1501   47.8040   53.0615 C   0  0  0  0  0  0  0  0  0  0  0  0
   68.6647   46.9710   52.0466 C   0  0  0  0  0  0  0  0  0  0  0  0
   68.0756   45.7851   52.4081 C   0  0  0  0  0  0  0  0  0  0  0  0
   67.9434   45.3793   53.7272 C   0  0  0  0  0  0  0  0  0  0  0  0
   68.4206   46.1958   54.7446 C   0  0  0  0  0  0  0  0  0  0  0  0
   69.0002   47.3694   54.3584 C   0  0  0  0  0  0  0  0  0  0  0  0
   71.5732   49.2198   53.0592 N   0  0  0  0  0  0  0  0  0  0  0  0
   69.9175   49.3263   52.6752 S   0  0  1  0  0  0  0  0  0  0  0  0
   69.7352   49.6226   51.2050 O   0  0  0  0  0  0  0  0  0  0  0  0
   69.1283   50.5695   53.5403 S   0  0  0  0  0  0  0  0  0  0  0  0
 21 20  1  1
 21 22  2  0
 21 23  2  0
 21 14  1  0
 14 15  2  0
 14 19  1  0
 15 16  1  0
 16 17  2  0
 17 18  1  0
 18 13  1  0
 18 19  2  0
 13  1  1  0
  1  2  2  0
  1  6  1  0
  2  3  1  0
  3  4  2  0
  4  5  1  0
  5  7  1  0
  5  6  2  0
  7  8  2  0
  7 12  1  0
  8  9  1  0
  9 10  2  0
 10 11  1  0
 11 12  2  0
M  END
>  <minimizedAffinity>  (342) 
-8.81538

$$$$
cs_full_output_folder/data/smiles/1441.pdb
     RDKit          3D

 23 25  0  0  0  0  0  0  0  0999 V2000
   68.8657   45.3992   56.2708 C   0  0  0  0  0  0  0  0  0  0  0  0
   69.7617   46.1970   56.9611 C   0  0  0  0  0  0  0  0  0  0  0  0
   70.5652   45.6013   57.8980 C   0  0  0  0  0  0  0  0  0  0  0  0
   70.4753   44.2324   58.1409 C   0  0  0  0  0  0  0  0  0  0  0  0
   69.5822   43.4516   57.4506 C   0  0  0  0  0  0  0  0  0  0  0  0
   68.8179   44.0805   56.5430 N   0  0  0  0  0  0  0  0  0  0  0  0
   69.4302   42.0098   57.6451 C   0  0  0  0  0  0  0  0  0  0  0  0
   68.3183   41.3315   57.2426 C   0  0  0  0  0  0  0  0  0  0  0  0
   68.2029   39.9499   57.4478 C   0  0  0  0  0  0  0  0  0  0  0  0
   69.2033   39.2276   58.0595 C   0  0  0  0  0  0  0  0  0  0  0  0
   70.3313   39.9137   58.4677 C   0  0  0  0  0  0  0  0  0  0  0  0
   70.4343   41.2690   58.2622 C   0  0  0  0  0  0  0  0  0  0  0  0
   68.0007   45.8882   55.2665 N   0  0  0  0  0  0  0  0  0  0  0  0
   69.5676   48.6226   53.2534 C   0  0  0  0  0  0  0  0  0  0  0  0
   69.4774   48.0996   51.9707 C   0  0  0  0  0  0  0  0  0  0  0  0
   68.8886   46.8487   51.7915 C   0  0  0  0  0  0  0  0  0  0  0  0
   68.4034   46.1473   52.8754 C   0  0  0  0  0  0  0  0  0  0  0  0
   68.4775   46.6395   54.1646 C   0  0  0  0  0  0  0  0  0  0  0  0
   69.0725   47.8904   54.3108 C   0  0  0  0  0  0  0  0  0  0  0  0
   69.6731   50.9853   54.7148 C   0  0  0  0  0  0  0  0  0  0  0  0
   70.3024   50.1752   53.4946 S   0  0  1  0  0  0  0  0  0  0  0  0
   71.9674   49.9432   53.7919 N   0  0  0  0  0  0  0  0  0  0  0  0
   70.0473   51.1308   52.3485 O   0  0  0  0  0  0  0  0  0  0  0  0
 20 21  2  0
 21 22  1  1
 21 23  2  0
 21 14  1  0
 14 15  2  0
 14 19  1  0
 15 16  1  0
 16 17  2  0
 17 18  1  0
 18 13  1  0
 18 19  2  0
 13  1  1  0
  1  2  2  0
  1  6  1  0
  2  3  1  0
  3  4  2  0
  4  5  1  0
  5  7  1  0
  5  6  2  0
  7  8  2  0
  7 12  1  0
  8  9  1  0
  9 10  2  0
 10 11  1  0
 11 12  2  0
M  END
>  <minimizedAffinity>  (343) 
-8.81497

$$$$
cs_full_output_folder/data/smiles/5938.pdb
     RDKit          3D

 24 26  0  0  0  0  0  0  0  0999 V2000
   69.2210   46.6679   57.2723 N   0  0  0  0  0  0  0  0  0  0  0  0
   68.7948   47.4449   56.3021 C   0  0  0  0  0  0  0  0  0  0  0  0
   68.2903   48.7700   56.7584 C   0  0  0  0  0  0  0  0  0  0  0  0
   67.1754   48.8071   57.6120 C   0  0  0  0  0  0  0  0  0  0  0  0
   66.5666   49.9771   57.9919 C   0  0  0  0  0  0  0  0  0  0  0  0
   67.0333   51.1906   57.5447 C   0  0  0  0  0  0  0  0  0  0  0  0
   68.1136   51.1858   56.7133 C   0  0  0  0  0  0  0  0  0  0  0  0
   68.7268   49.9825   56.3300 C   0  0  0  0  0  0  0  0  0  0  0  0
   68.7371   47.0684   54.9269 C   0  0  0  0  0  0  0  0  0  0  0  0
   69.3165   47.8140   53.9358 C   0  0  0  0  0  0  0  0  0  0  0  0
   69.1632   47.5394   52.5725 C   0  0  0  0  0  0  0  0  0  0  0  0
   68.3994   46.4700   52.1757 C   0  0  0  0  0  0  0  0  0  0  0  0
   67.8061   45.7007   53.1343 C   0  0  0  0  0  0  0  0  0  0  0  0
   67.9781   46.0029   54.5001 C   0  0  0  0  0  0  0  0  0  0  0  0
   70.5282   45.4423   59.2903 O   0  0  0  0  0  0  0  0  0  0  0  0
   70.4304   44.7468   58.2139 C   0  0  0  0  0  0  0  0  0  0  0  0
   69.7396   45.4049   57.1611 N   0  0  0  0  0  0  0  0  0  0  0  0
   71.0136   43.4341   58.2133 C   0  0  0  0  0  0  0  0  0  0  0  0
   72.4056   43.3012   58.3377 C   0  0  0  0  0  0  0  0  0  0  0  0
   73.0518   42.0889   58.3486 C   0  0  0  0  0  0  0  0  0  0  0  0
   72.3186   40.9294   58.2320 C   0  0  0  0  0  0  0  0  0  0  0  0
   70.9893   41.0326   58.1129 N   0  0  0  0  0  0  0  0  0  0  0  0
   70.3432   42.2449   58.1020 C   0  0  0  0  0  0  0  0  0  0  0  0
   69.0854   42.2538   57.9855 O   0  0  0  0  0  0  0  0  0  0  0  0
 15 16  2  0
 16 17  1  0
 16 18  1  0
 17  1  1  0
  1  2  2  0
  2  3  1  0
  2  9  1  0
  3  4  2  0
  3  8  1  0
  4  5  1  0
  5  6  2  0
  6  7  1  0
  7  8  2  0
  9 10  2  0
  9 14  1  0
 10 11  1  0
 11 12  2  0
 12 13  1  0
 13 14  2  0
 18 19  2  0
 18 23  1  0
 19 20  1  0
 20 21  2  0
 21 22  1  0
 22 23  1  0
 23 24  2  0
M  END
>  <minimizedAffinity>  (344) 
-8.81422

$$$$
cs_full_output_folder/data/smiles/4483.pdb
     RDKit          3D

 24 26  0  0  0  0  0  0  0  0999 V2000
   70.9506   42.0415   58.5336 C   0  0  0  0  0  0  0  0  0  0  0  0
   69.7204   41.7012   57.7993 C   0  0  0  0  0  0  0  0  0  0  0  0
   68.9474   42.5702   57.0817 C   0  0  0  0  0  0  0  0  0  0  0  0
   67.9179   41.8119   56.5697 C   0  0  0  0  0  0  0  0  0  0  0  0
   68.0966   40.5461   56.9828 N   0  0  0  0  0  0  0  0  0  0  0  0
   69.2021   40.4503   57.7433 N   0  0  0  0  0  0  0  0  0  0  0  0
   69.7019   39.2678   58.3544 C   0  0  0  0  0  0  0  0  0  0  0  0
   70.9120   38.7068   58.0555 C   0  0  0  0  0  0  0  0  0  0  0  0
   71.3891   37.5604   58.6480 C   0  0  0  0  0  0  0  0  0  0  0  0
   70.5792   36.9577   59.5994 C   0  0  0  0  0  0  0  0  0  0  0  0
   71.1467   35.4949   60.3797 Cl  0  0  0  0  0  0  0  0  0  0  0  0
   69.3407   37.4756   59.9486 C   0  0  0  0  0  0  0  0  0  0  0  0
   68.9240   38.6294   59.3139 C   0  0  0  0  0  0  0  0  0  0  0  0
   69.1468   43.9976   56.8822 C   0  0  0  0  0  0  0  0  0  0  0  0
   69.9167   44.6672   57.5922 O   0  0  0  0  0  0  0  0  0  0  0  0
   68.4528   44.7016   55.8399 N   0  0  0  0  0  0  0  0  0  0  0  0
   68.5721   46.0961   55.5461 C   0  0  0  0  0  0  0  0  0  0  0  0
   68.4806   46.3510   54.0879 C   0  0  0  0  0  0  0  0  0  0  0  0
   67.6625   45.5479   53.2767 C   0  0  0  0  0  0  0  0  0  0  0  0
   67.5941   45.7703   51.9145 C   0  0  0  0  0  0  0  0  0  0  0  0
   68.2968   46.7536   51.2935 C   0  0  0  0  0  0  0  0  0  0  0  0
   69.1119   47.5549   52.0932 C   0  0  0  0  0  0  0  0  0  0  0  0
   69.8468   48.5801   51.4209 N   0  0  0  0  0  0  0  0  0  0  0  0
   69.1850   47.3397   53.4563 C   0  0  0  0  0  0  0  0  0  0  0  0
  1  2  1  0
  2  3  2  0
  2  6  1  0
  3 14  1  0
  3  4  1  0
 14 15  2  0
 14 16  1  0
 16 17  1  0
 17 18  1  0
 18 19  2  0
 18 24  1  0
 19 20  1  0
 20 21  2  0
 21 22  1  0
 22 23  1  0
 22 24  2  0
  4  5  2  0
  5  6  1  0
  6  7  1  0
  7  8  2  0
  7 13  1  0
  8  9  1  0
  9 10  2  0
 10 11  1  0
 10 12  1  0
 12 13  2  0
M  END
>  <minimizedAffinity>  (345) 
-8.81399

$$$$
cs_full_output_folder/data/smiles/2709.pdb
     RDKit          3D

 22 24  0  0  0  0  0  0  0  0999 V2000
   68.1503   46.2406   56.0915 N   0  0  0  0  0  0  0  0  0  0  0  0
   69.1571   47.8258   52.9210 C   0  0  0  0  0  0  0  0  0  0  0  0
   68.6218   46.9612   51.9910 C   0  0  0  0  0  0  0  0  0  0  0  0
   67.9189   45.8289   52.3859 C   0  0  0  0  0  0  0  0  0  0  0  0
   67.7726   45.5966   53.7544 C   0  0  0  0  0  0  0  0  0  0  0  0
   68.2957   46.4402   54.7082 C   0  0  0  0  0  0  0  0  0  0  0  0
   68.9904   47.5597   54.2618 C   0  0  0  0  0  0  0  0  0  0  0  0
   69.4938   50.6509   53.4414 C   0  0  0  0  0  0  0  0  0  0  0  0
   70.0472   49.2646   52.4735 S   0  0  0  0  0  0  0  0  0  0  0  0
   69.9137   49.5242   50.9913 O   0  0  0  0  0  0  0  0  0  0  0  0
   71.5056   49.0233   52.7520 O   0  0  0  0  0  0  0  0  0  0  0  0
   69.2764   46.0072   56.9364 C   0  0  0  0  0  0  0  0  0  0  0  0
   69.8875   47.0392   57.5533 N   0  0  0  0  0  0  0  0  0  0  0  0
   70.9495   46.8794   58.3720 C   0  0  0  0  0  0  0  0  0  0  0  0
   71.4295   45.6049   58.5836 C   0  0  0  0  0  0  0  0  0  0  0  0
   70.8277   44.5167   57.9652 C   0  0  0  0  0  0  0  0  0  0  0  0
   69.7713   44.7861   57.1658 N   0  0  0  0  0  0  0  0  0  0  0  0
   71.3164   43.1649   58.1781 C   0  0  0  0  0  0  0  0  0  0  0  0
   70.5601   42.0846   58.1214 C   0  0  0  0  0  0  0  0  0  0  0  0
   71.3930   40.8713   58.3916 C   0  0  0  0  0  0  0  0  0  0  0  0
   72.7380   41.4364   58.6061 C   0  0  0  0  0  0  0  0  0  0  0  0
   72.6524   42.7386   58.4778 C   0  0  0  0  0  0  0  0  0  0  0  0
  8  9  1  0
  9 10  2  0
  9 11  2  0
  9  2  1  0
  2  3  2  0
  2  7  1  0
  3  4  1  0
  4  5  2  0
  5  6  1  0
  6  1  1  0
  6  7  2  0
  1 12  1  0
 12 13  2  0
 12 17  1  0
 13 14  1  0
 14 15  2  0
 15 16  1  0
 16 18  1  0
 16 17  2  0
 18 19  2  0
 18 22  1  0
 19 20  1  0
 20 21  1  0
 21 22  2  0
M  END
>  <minimizedAffinity>  (346) 
-8.81219

$$$$
cs_full_output_folder/data/smiles/9092.pdb
     RDKit          3D

 24 27  0  0  0  0  0  0  0  0999 V2000
   69.5216   51.2531   57.2394 C   0  0  0  0  0  0  0  0  0  0  0  0
   68.1872   51.5334   57.5409 C   0  0  0  0  0  0  0  0  0  0  0  0
   67.2328   50.5399   57.6186 C   0  0  0  0  0  0  0  0  0  0  0  0
   67.6555   49.2479   57.3838 C   0  0  0  0  0  0  0  0  0  0  0  0
   68.9887   48.9434   57.0803 C   0  0  0  0  0  0  0  0  0  0  0  0
   69.8322   49.9642   57.0276 N   0  0  0  0  0  0  0  0  0  0  0  0
   72.1685   51.5660   58.6984 O   0  0  0  0  0  0  0  0  0  0  0  0
   71.6943   52.4085   57.8960 C   0  0  0  0  0  0  0  0  0  0  0  0
   72.3313   53.7230   57.5491 C   0  0  0  0  0  0  0  0  0  0  0  0
   71.7789   53.9272   56.1431 C   0  0  0  0  0  0  0  0  0  0  0  0
   70.3563   53.4455   56.2924 C   0  0  0  0  0  0  0  0  0  0  0  0
   70.4829   52.2974   57.1648 N   0  0  0  0  0  0  0  0  0  0  0  0
   69.3598   47.5727   56.8280 C   0  0  0  0  0  0  0  0  0  0  0  0
   68.8212   46.8799   55.6760 C   0  0  0  0  0  0  0  0  0  0  0  0
   68.2826   45.6388   55.8971 N   0  0  0  0  0  0  0  0  0  0  0  0
   67.7912   44.8774   54.9574 N   0  0  0  0  0  0  0  0  0  0  0  0
   67.7780   45.2664   53.6707 C   0  0  0  0  0  0  0  0  0  0  0  0
   67.3104   44.5492   52.7493 O   0  0  0  0  0  0  0  0  0  0  0  0
   68.2880   46.4770   53.3502 C   0  0  0  0  0  0  0  0  0  0  0  0
   68.8081   47.2772   54.3686 C   0  0  0  0  0  0  0  0  0  0  0  0
   69.3180   48.5913   54.0023 C   0  0  0  0  0  0  0  0  0  0  0  0
   70.2082   48.5541   52.7726 C   0  0  0  0  0  0  0  0  0  0  0  0
   69.7676   47.5299   51.7684 C   0  0  0  0  0  0  0  0  0  0  0  0
   68.3524   47.0534   51.9768 C   0  0  0  0  0  0  0  0  0  0  0  0
  7  8  2  0
  8  9  1  0
  8 12  1  0
  9 10  1  0
 10 11  1  0
 11 12  1  0
 12  1  1  0
  1  2  2  0
  1  6  1  0
  2  3  1  0
  3  4  2  0
  4  5  1  0
  5 13  1  0
  5  6  2  0
 13 14  1  0
 14 15  2  0
 14 20  1  0
 15 16  1  0
 16 17  1  0
 17 18  2  0
 17 19  1  0
 19 20  2  0
 19 24  1  0
 20 21  1  0
 21 22  1  0
 22 23  1  0
 23 24  1  0
M  END
>  <minimizedAffinity>  (347) 
-8.81216

$$$$
cs_full_output_folder/data/smiles/7391.pdb
     RDKit          3D

 23 25  0  0  0  0  0  0  0  0999 V2000
   69.1280   46.7436   57.1677 N   0  0  0  0  0  0  0  0  0  0  0  0
   68.6518   47.4255   56.2217 C   0  0  0  0  0  0  0  0  0  0  0  0
   68.6578   47.0074   54.8457 C   0  0  0  0  0  0  0  0  0  0  0  0
   67.9283   45.9463   54.3271 C   0  0  0  0  0  0  0  0  0  0  0  0
   67.8091   45.6630   52.9830 C   0  0  0  0  0  0  0  0  0  0  0  0
   68.4238   46.4376   52.0335 C   0  0  0  0  0  0  0  0  0  0  0  0
   69.1546   47.4986   52.5037 C   0  0  0  0  0  0  0  0  0  0  0  0
   69.2770   47.7904   53.8591 C   0  0  0  0  0  0  0  0  0  0  0  0
   68.1099   48.7463   56.6094 C   0  0  0  0  0  0  0  0  0  0  0  0
   67.0561   48.8038   57.5355 C   0  0  0  0  0  0  0  0  0  0  0  0
   66.5497   49.9648   58.0531 C   0  0  0  0  0  0  0  0  0  0  0  0
   67.0991   51.1482   57.6461 C   0  0  0  0  0  0  0  0  0  0  0  0
   68.1272   51.1759   56.7496 C   0  0  0  0  0  0  0  0  0  0  0  0
   68.6143   49.9575   56.2483 C   0  0  0  0  0  0  0  0  0  0  0  0
   70.6845   45.7958   59.1978 O   0  0  0  0  0  0  0  0  0  0  0  0
   70.5383   45.0278   58.2047 C   0  0  0  0  0  0  0  0  0  0  0  0
   69.7233   45.5249   57.1406 N   0  0  0  0  0  0  0  0  0  0  0  0
   71.1758   43.7240   58.1784 C   0  0  0  0  0  0  0  0  0  0  0  0
   72.5742   43.6843   58.0365 C   0  0  0  0  0  0  0  0  0  0  0  0
   73.2346   42.4874   58.0041 C   0  0  0  0  0  0  0  0  0  0  0  0
   72.5419   41.3006   58.1095 C   0  0  0  0  0  0  0  0  0  0  0  0
   71.1767   41.3039   58.2488 C   0  0  0  0  0  0  0  0  0  0  0  0
   70.5314   42.5269   58.2786 C   0  0  0  0  0  0  0  0  0  0  0  0
 15 16  2  0
 16 17  1  0
 16 18  1  0
 17  1  1  0
  1  2  2  0
  2  3  1  0
  2  9  1  0
  3  4  2  0
  3  8  1  0
  4  5  1  0
  5  6  2  0
  6  7  1  0
  7  8  2  0
  9 10  2  0
  9 14  1  0
 10 11  1  0
 11 12  2  0
 12 13  1  0
 13 14  2  0
 18 19  2  0
 18 23  1  0
 19 20  1  0
 20 21  2  0
 21 22  1  0
 22 23  2  0
M  END
>  <minimizedAffinity>  (348) 
-8.81018

$$$$
cs_full_output_folder/data/smiles/8692.pdb
     RDKit          3D

 22 23  0  0  0  0  0  0  0  0999 V2000
   68.3834   42.4297   56.8143 C   0  0  0  0  0  0  0  0  0  0  0  0
   67.2941   42.3176   56.1757 O   0  0  0  0  0  0  0  0  0  0  0  0
   68.9810   43.7103   56.8074 N   0  0  0  0  0  0  0  0  0  0  0  0
   69.9444   38.9469   58.8070 C   0  0  0  0  0  0  0  0  0  0  0  0
   68.6997   38.9524   58.2115 C   0  0  0  0  0  0  0  0  0  0  0  0
   68.2150   40.0770   57.5780 C   0  0  0  0  0  0  0  0  0  0  0  0
   68.9322   41.2563   57.4966 C   0  0  0  0  0  0  0  0  0  0  0  0
   70.1732   41.2421   58.0928 C   0  0  0  0  0  0  0  0  0  0  0  0
   70.6651   40.1181   58.7300 C   0  0  0  0  0  0  0  0  0  0  0  0
   71.4588   37.0367   58.5681 C   0  0  0  0  0  0  0  0  0  0  0  0
   70.4790   37.7327   59.4963 C   0  0  0  0  0  0  0  0  0  0  0  0
   68.4368   44.8188   56.1477 N   0  0  0  0  0  0  0  0  0  0  0  0
   69.0391   46.0967   56.3149 C   0  0  0  0  0  0  0  0  0  0  0  0
   70.0532   46.2222   57.0525 O   0  0  0  0  0  0  0  0  0  0  0  0
   68.5134   47.3133   55.6447 C   0  0  0  0  0  0  0  0  0  0  0  0
   68.5983   47.2092   54.1714 C   0  0  0  0  0  0  0  0  0  0  0  0
   69.4800   47.9861   53.4394 C   0  0  0  0  0  0  0  0  0  0  0  0
   69.5460   47.8734   52.0536 C   0  0  0  0  0  0  0  0  0  0  0  0
   68.7366   46.9889   51.3808 C   0  0  0  0  0  0  0  0  0  0  0  0
   67.8626   46.2161   52.0907 C   0  0  0  0  0  0  0  0  0  0  0  0
   67.0499   45.3296   51.4379 F   0  0  0  0  0  0  0  0  0  0  0  0
   67.8029   46.3326   53.4683 C   0  0  0  0  0  0  0  0  0  0  0  0
 10 11  1  0
 11  4  1  0
  4  5  2  0
  4  9  1  0
  5  6  1  0
  6  7  2  0
  7  1  1  0
  7  8  1  0
  1  2  2  0
  1  3  1  0
  3 12  1  0
 12 13  1  0
 13 14  2  0
 13 15  1  0
 15 16  1  0
 16 17  2  0
 16 22  1  0
 17 18  1  0
 18 19  2  0
 19 20  1  0
 20 21  1  0
 20 22  2  0
  8  9  2  0
M  END
>  <minimizedAffinity>  (349) 
-8.80799

$$$$
cs_full_output_folder/data/smiles/5818.pdb
     RDKit          3D

 25 27  0  0  0  0  0  0  0  0999 V2000
   69.7123   45.6247   57.4046 N   0  0  0  0  0  0  0  0  0  0  0  0
   70.5762   45.0453   58.3926 C   0  0  0  0  0  0  0  0  0  0  0  0
   70.8322   45.7477   59.3991 O   0  0  0  0  0  0  0  0  0  0  0  0
   71.1260   43.7024   58.2254 C   0  0  0  0  0  0  0  0  0  0  0  0
   70.5697   42.5038   58.6169 C   0  0  0  0  0  0  0  0  0  0  0  0
   71.4054   41.4607   58.2755 C   0  0  0  0  0  0  0  0  0  0  0  0
   72.4590   42.0481   57.6801 N   0  0  0  0  0  0  0  0  0  0  0  0
   72.2938   43.3730   57.6497 N   0  0  0  0  0  0  0  0  0  0  0  0
   71.2174   40.0288   58.4975 C   0  0  0  0  0  0  0  0  0  0  0  0
   69.9721   39.4838   58.7221 C   0  0  0  0  0  0  0  0  0  0  0  0
   69.8093   38.1100   58.9339 C   0  0  0  0  0  0  0  0  0  0  0  0
   70.8953   37.2592   58.9227 C   0  0  0  0  0  0  0  0  0  0  0  0
   72.1379   37.8052   58.6981 C   0  0  0  0  0  0  0  0  0  0  0  0
   72.2921   39.1677   58.4889 C   0  0  0  0  0  0  0  0  0  0  0  0
   68.7163   47.6598   56.6313 C   0  0  0  0  0  0  0  0  0  0  0  0
   69.1575   46.8584   57.4756 N   0  0  0  0  0  0  0  0  0  0  0  0
   68.7069   47.4647   55.1970 C   0  0  0  0  0  0  0  0  0  0  0  0
   69.3694   48.3619   54.3428 C   0  0  0  0  0  0  0  0  0  0  0  0
   69.3980   48.2091   52.9821 C   0  0  0  0  0  0  0  0  0  0  0  0
   68.7619   47.1417   52.3773 C   0  0  0  0  0  0  0  0  0  0  0  0
   68.7649   46.9484   51.0103 O   0  0  0  0  0  0  0  0  0  0  0  0
   68.1057   46.2445   53.1694 C   0  0  0  0  0  0  0  0  0  0  0  0
   68.0890   46.4172   54.5433 C   0  0  0  0  0  0  0  0  0  0  0  0
   66.8356   48.8239   57.8052 C   0  0  0  0  0  0  0  0  0  0  0  0
   68.1637   48.9781   57.1492 C   0  0  0  0  0  0  0  0  0  0  0  0
 24 25  1  0
 25 15  1  0
 15 16  2  0
 15 17  1  0
 16  1  1  0
  1  2  1  0
  2  3  2  0
  2  4  1  0
  4  5  2  0
  4  8  1  0
  5  6  1  0
  6  9  1  0
  6  7  2  0
  9 10  2  0
  9 14  1  0
 10 11  1  0
 11 12  2  0
 12 13  1  0
 13 14  2  0
  7  8  1  0
 17 18  2  0
 17 23  1  0
 18 19  1  0
 19 20  2  0
 20 21  1  0
 20 22  1  0
 22 23  2  0
M  END
>  <minimizedAffinity>  (350) 
-8.80795

$$$$
cs_full_output_folder/data/smiles/4359.pdb
     RDKit          3D

 23 24  0  0  0  0  0  0  0  0999 V2000
   67.6435   43.1320   56.5686 N   0  0  0  0  0  0  0  0  0  0  0  0
   67.5236   41.7314   56.7327 C   0  0  0  0  0  0  0  0  0  0  0  0
   67.4685   41.0531   55.6739 O   0  0  0  0  0  0  0  0  0  0  0  0
   67.4618   41.0479   58.0193 C   0  0  0  0  0  0  0  0  0  0  0  0
   68.1840   39.9143   58.3181 C   0  0  0  0  0  0  0  0  0  0  0  0
   68.1237   39.2641   59.5473 C   0  0  0  0  0  0  0  0  0  0  0  0
   68.9229   38.0407   59.8256 C   0  0  0  0  0  0  0  0  0  0  0  0
   67.2994   39.7751   60.5237 C   0  0  0  0  0  0  0  0  0  0  0  0
   67.2241   39.1615   61.7240 F   0  0  0  0  0  0  0  0  0  0  0  0
   66.5632   40.9089   60.2563 C   0  0  0  0  0  0  0  0  0  0  0  0
   65.6879   41.4381   61.3184 C   0  0  0  0  0  0  0  0  0  0  0  0
   66.6372   41.5470   59.0191 C   0  0  0  0  0  0  0  0  0  0  0  0
   68.1617   45.0856   55.1903 C   0  0  0  0  0  0  0  0  0  0  0  0
   68.5130   45.6537   56.2800 O   0  0  0  0  0  0  0  0  0  0  0  0
   67.7006   43.7562   55.3258 N   0  0  0  0  0  0  0  0  0  0  0  0
   69.9764   48.6912   52.2195 C   0  0  0  0  0  0  0  0  0  0  0  0
   69.1161   47.5194   52.4913 C   0  0  0  0  0  0  0  0  0  0  0  0
   68.3267   47.0455   51.4681 C   0  0  0  0  0  0  0  0  0  0  0  0
   67.4995   45.9579   51.6491 C   0  0  0  0  0  0  0  0  0  0  0  0
   66.6900   45.4693   50.6067 N   0  0  0  0  0  0  0  0  0  0  0  0
   67.4662   45.3362   52.8760 C   0  0  0  0  0  0  0  0  0  0  0  0
   68.2419   45.7824   53.9217 C   0  0  0  0  0  0  0  0  0  0  0  0
   69.0575   46.8711   53.7123 C   0  0  0  0  0  0  0  0  0  0  0  0
 16 17  1  0
 17 18  2  0
 17 23  1  0
 18 19  1  0
 19 20  1  0
 19 21  2  0
 21 22  1  0
 22 13  1  0
 22 23  2  0
 13 14  2  0
 13 15  1  0
 15  1  1  0
  1  2  1  0
  2  3  2  0
  2  4  1  0
  4  5  2  0
  4 12  1  0
  5  6  1  0
  6  7  1  0
  6  8  2  0
  8  9  1  0
  8 10  1  0
 10 11  1  0
 10 12  2  0
M  END
>  <minimizedAffinity>  (351) 
-8.80574

$$$$
cs_full_output_folder/data/smiles/4800.pdb
     RDKit          3D

 24 25  0  0  0  0  0  0  0  0999 V2000
   71.0385   51.6580   55.4232 C   0  0  0  0  0  0  0  0  0  0  0  0
   71.5180   51.6812   57.8193 C   0  0  0  0  0  0  0  0  0  0  0  0
   70.4330   51.8536   56.7760 C   0  0  2  0  0  0  0  0  0  0  0  0
   69.3383   50.9094   57.1064 C   0  0  0  0  0  0  0  0  0  0  0  0
   69.5168   49.5754   57.3048 C   0  0  0  0  0  0  0  0  0  0  0  0
   68.4400   48.7771   57.5996 C   0  0  0  0  0  0  0  0  0  0  0  0
   68.6448   47.4131   57.7987 O   0  0  0  0  0  0  0  0  0  0  0  0
   67.1508   49.2580   57.7099 C   0  0  0  0  0  0  0  0  0  0  0  0
   66.0824   48.4961   57.9969 F   0  0  0  0  0  0  0  0  0  0  0  0
   66.9966   50.6264   57.5024 C   0  0  0  0  0  0  0  0  0  0  0  0
   65.7426   51.1359   57.6026 F   0  0  0  0  0  0  0  0  0  0  0  0
   68.0635   51.4176   57.2099 C   0  0  0  0  0  0  0  0  0  0  0  0
   70.2313   50.7613   54.6819 O   0  0  0  0  0  0  0  0  0  0  0  0
   70.7897   49.7726   53.8831 C   0  0  0  0  0  0  0  0  0  0  0  0
   72.0028   49.8470   53.6383 O   0  0  0  0  0  0  0  0  0  0  0  0
   69.9265   48.7131   53.3837 C   0  0  0  0  0  0  0  0  0  0  0  0
   69.0405   48.0844   54.2553 C   0  0  0  0  0  0  0  0  0  0  0  0
   68.2270   47.0989   53.8053 C   0  0  0  0  0  0  0  0  0  0  0  0
   68.2179   46.6638   52.5046 C   0  0  0  0  0  0  0  0  0  0  0  0
   69.0926   47.2822   51.6339 C   0  0  0  0  0  0  0  0  0  0  0  0
   69.9204   48.2813   52.0833 C   0  0  0  0  0  0  0  0  0  0  0  0
   67.3504   45.6279   52.0702 N   0  0  0  0  0  0  0  0  0  0  0  0
   67.0539   44.6927   52.8049 O   0  0  0  0  0  0  0  0  0  0  0  0
   66.8274   45.6674   50.7996 O   0  0  0  0  0  0  0  0  0  0  0  0
  3  2  1  1
  3  1  1  0
  3  4  1  0
  1 13  1  0
 13 14  1  0
 14 15  2  0
 14 16  1  0
 16 17  2  0
 16 21  1  0
 17 18  1  0
 18 19  2  0
 19 22  1  0
 19 20  1  0
 22 23  2  0
 22 24  1  0
 20 21  2  0
  4  5  2  0
  4 12  1  0
  5  6  1  0
  6  7  1  0
  6  8  2  0
  8  9  1  0
  8 10  1  0
 10 11  1  0
 10 12  2  0
M  CHG  2  22   1  24  -1
M  END
>  <minimizedAffinity>  (352) 
-8.80440

$$$$
cs_full_output_folder/data/smiles/1394.pdb
     RDKit          3D

 26 29  0  0  0  0  0  0  0  0999 V2000
   72.5528   45.0079   59.3720 C   0  0  0  0  0  0  0  0  0  0  0  0
   71.7565   45.9767   58.5948 C   0  0  0  0  0  0  0  0  0  0  0  0
   70.5800   45.4881   58.0061 C   0  0  0  0  0  0  0  0  0  0  0  0
   69.7451   46.2896   57.2843 C   0  0  0  0  0  0  0  0  0  0  0  0
   70.0929   47.6394   57.1394 C   0  0  0  0  0  0  0  0  0  0  0  0
   71.2322   48.0864   57.7173 C   0  0  0  0  0  0  0  0  0  0  0  0
   72.0999   47.2795   58.4596 C   0  0  0  0  0  0  0  0  0  0  0  0
   73.2499   47.8322   59.0464 N   0  0  0  0  0  0  0  0  0  0  0  0
   74.5497   47.8325   58.3457 C   0  0  0  0  0  0  0  0  0  0  0  0
   75.0912   49.2389   58.2352 C   0  0  0  0  0  0  0  0  0  0  0  0
   74.4379   50.2192   59.1540 C   0  0  0  0  0  0  0  0  0  0  0  0
   74.1374   49.6374   60.5261 C   0  0  0  0  0  0  0  0  0  0  0  0
   73.2751   48.4425   60.3299 C   0  0  0  0  0  0  0  0  0  0  0  0
   72.5602   47.9470   61.2703 O   0  0  0  0  0  0  0  0  0  0  0  0
   69.1263   48.4568   56.3580 C   0  0  0  0  0  0  0  0  0  0  0  0
   69.4626   48.4522   54.9127 C   0  0  0  0  0  0  0  0  0  0  0  0
   70.3502   49.3891   54.4492 N   0  0  0  0  0  0  0  0  0  0  0  0
   70.6615   49.4752   53.1790 N   0  0  0  0  0  0  0  0  0  0  0  0
   70.1549   48.6708   52.2317 C   0  0  0  0  0  0  0  0  0  0  0  0
   70.5092   48.8198   51.0198 O   0  0  0  0  0  0  0  0  0  0  0  0
   69.2599   47.7065   52.6184 C   0  0  0  0  0  0  0  0  0  0  0  0
   68.7399   46.8664   51.6618 C   0  0  0  0  0  0  0  0  0  0  0  0
   67.8553   45.9010   52.0857 C   0  0  0  0  0  0  0  0  0  0  0  0
   67.5144   45.7929   53.4277 C   0  0  0  0  0  0  0  0  0  0  0  0
   68.0504   46.6489   54.3695 C   0  0  0  0  0  0  0  0  0  0  0  0
   68.9312   47.6173   53.9667 C   0  0  0  0  0  0  0  0  0  0  0  0
  1  2  1  0
  2  3  2  0
  2  7  1  0
  3  4  1  0
  4  5  2  0
  5 15  1  0
  5  6  1  0
 15 16  1  0
 16 17  2  0
 16 26  1  0
 17 18  1  0
 18 19  1  0
 19 20  2  0
 19 21  1  0
 21 22  1  0
 21 26  2  0
 22 23  2  0
 23 24  1  0
 24 25  2  0
 25 26  1  0
  6  7  2  0
  7  8  1  0
  8  9  1  0
  8 13  1  0
  9 10  1  0
 10 11  1  0
 11 12  1  0
 12 13  1  0
 13 14  2  0
M  END
>  <minimizedAffinity>  (353) 
-8.80393

$$$$
cs_full_output_folder/data/smiles/7544.pdb
     RDKit          3D

 23 25  0  0  0  0  0  0  0  0999 V2000
   72.0406   49.8134   54.9924 O   0  0  0  0  0  0  0  0  0  0  0  0
   71.0387   50.2487   54.3248 C   0  0  0  0  0  0  0  0  0  0  0  0
   70.7848   51.6276   54.4538 N   0  0  0  0  0  0  0  0  0  0  0  0
   70.3121   49.2831   53.5288 C   0  0  0  0  0  0  0  0  0  0  0  0
   70.4512   49.3844   52.1721 N   0  0  0  0  0  0  0  0  0  0  0  0
   69.8413   48.5501   51.3590 N   0  0  0  0  0  0  0  0  0  0  0  0
   69.0545   47.5564   51.7993 C   0  0  0  0  0  0  0  0  0  0  0  0
   68.4838   46.7743   50.9638 O   0  0  0  0  0  0  0  0  0  0  0  0
   68.8629   47.3821   53.1478 C   0  0  0  0  0  0  0  0  0  0  0  0
   68.0817   46.3492   53.6125 C   0  0  0  0  0  0  0  0  0  0  0  0
   67.9377   46.1834   54.9706 C   0  0  0  0  0  0  0  0  0  0  0  0
   68.5856   47.0591   55.8077 C   0  0  0  0  0  0  0  0  0  0  0  0
   69.3762   48.1062   55.3607 C   0  0  0  0  0  0  0  0  0  0  0  0
   69.5172   48.2760   54.0048 C   0  0  0  0  0  0  0  0  0  0  0  0
   71.5063   52.5626   55.2551 C   0  0  0  0  0  0  0  0  0  0  0  0
   70.6127   53.1603   56.3139 C   0  0  0  0  0  0  0  0  0  0  0  0
   69.6056   52.1941   56.8004 C   0  0  0  0  0  0  0  0  0  0  0  0
   68.3126   52.1633   56.3314 C   0  0  0  0  0  0  0  0  0  0  0  0
   67.3777   51.2532   56.7880 C   0  0  0  0  0  0  0  0  0  0  0  0
   67.7234   50.3412   57.7388 C   0  0  0  0  0  0  0  0  0  0  0  0
   66.5618   49.1611   58.3506 Cl  0  0  0  0  0  0  0  0  0  0  0  0
   69.0172   50.3561   58.2220 C   0  0  0  0  0  0  0  0  0  0  0  0
   69.9602   51.2550   57.7782 C   0  0  0  0  0  0  0  0  0  0  0  0
  1  2  2  0
  2  3  1  0
  2  4  1  0
  3 15  1  0
 15 16  1  0
 16 17  1  0
 17 18  2  0
 17 23  1  0
 18 19  1  0
 19 20  2  0
 20 21  1  0
 20 22  1  0
 22 23  2  0
  4  5  2  0
  4 14  1  0
  5  6  1  0
  6  7  1  0
  7  8  2  0
  7  9  1  0
  9 10  1  0
  9 14  2  0
 10 11  2  0
 11 12  1  0
 12 13  2  0
 13 14  1  0
M  END
>  <minimizedAffinity>  (354) 
-8.80095

$$$$
cs_full_output_folder/data/smiles/6690.pdb
     RDKit          3D

 25 27  0  0  0  0  0  0  0  0999 V2000
   70.5076   45.5194   58.1994 C   0  0  0  0  0  0  0  0  0  0  0  0
   70.5372   46.2535   59.2361 O   0  0  0  0  0  0  0  0  0  0  0  0
   69.5657   45.9528   57.2071 N   0  0  0  0  0  0  0  0  0  0  0  0
   73.5897   43.3642   58.0814 C   0  0  0  0  0  0  0  0  0  0  0  0
   73.0037   42.1483   57.8167 C   0  0  0  0  0  0  0  0  0  0  0  0
   71.6341   42.0163   57.6764 C   0  0  0  0  0  0  0  0  0  0  0  0
   70.8118   43.1349   57.8041 C   0  0  0  0  0  0  0  0  0  0  0  0
   71.3611   44.3608   58.0675 C   0  0  0  0  0  0  0  0  0  0  0  0
   72.7317   44.4435   58.1997 C   0  0  0  0  0  0  0  0  0  0  0  0
   75.5326   44.6559   58.5501 O   0  0  0  0  0  0  0  0  0  0  0  0
   75.0410   43.5413   58.2372 C   0  0  0  0  0  0  0  0  0  0  0  0
   75.9472   42.4723   58.0423 N   0  0  0  0  0  0  0  0  0  0  0  0
   77.2950   42.6919   58.1996 O   0  0  0  0  0  0  0  0  0  0  0  0
   68.7739   47.0369   57.3409 N   0  0  0  0  0  0  0  0  0  0  0  0
   68.5623   48.0079   56.5901 C   0  0  0  0  0  0  0  0  0  0  0  0
   69.1300   48.2812   55.2820 C   0  0  0  0  0  0  0  0  0  0  0  0
   70.0404   49.2930   55.0625 C   0  0  0  0  0  0  0  0  0  0  0  0
   70.5853   49.5550   53.8066 C   0  0  0  0  0  0  0  0  0  0  0  0
   70.2077   48.7843   52.7509 C   0  0  0  0  0  0  0  0  0  0  0  0
   69.2916   47.7451   52.8969 C   0  0  0  0  0  0  0  0  0  0  0  0
   68.9417   46.9929   51.7917 C   0  0  0  0  0  0  0  0  0  0  0  0
   68.0471   45.9668   51.8998 C   0  0  0  0  0  0  0  0  0  0  0  0
   67.5140   45.7107   53.1317 C   0  0  0  0  0  0  0  0  0  0  0  0
   67.8751   46.4781   54.2469 C   0  0  0  0  0  0  0  0  0  0  0  0
   68.7729   47.5162   54.1616 C   0  0  0  0  0  0  0  0  0  0  0  0
 10 11  2  0
 11 12  1  0
 11  4  1  0
 12 13  1  0
  4  5  2  0
  4  9  1  0
  5  6  1  0
  6  7  2  0
  7  8  1  0
  8  1  1  0
  8  9  2  0
  1  2  2  0
  1  3  1  0
  3 14  1  0
 14 15  2  0
 15 16  1  0
 16 17  2  0
 16 25  1  0
 17 18  1  0
 18 19  2  0
 19 20  1  0
 20 21  1  0
 20 25  2  0
 21 22  2  0
 22 23  1  0
 23 24  2  0
 24 25  1  0
M  END
>  <minimizedAffinity>  (355) 
-8.79831

$$$$
cs_full_output_folder/data/smiles/506.pdb
     RDKit          3D

 21 22  0  0  0  0  0  0  0  0999 V2000
   68.5669   47.4148   55.1981 C   0  0  0  0  0  0  0  0  0  0  0  0
   67.7998   46.4699   54.5277 C   0  0  0  0  0  0  0  0  0  0  0  0
   67.8620   46.2887   53.1607 C   0  0  0  0  0  0  0  0  0  0  0  0
   67.0735   45.3287   52.5407 O   0  0  0  0  0  0  0  0  0  0  0  0
   68.7362   47.1006   52.4691 C   0  0  0  0  0  0  0  0  0  0  0  0
   68.8261   46.9487   51.0996 O   0  0  0  0  0  0  0  0  0  0  0  0
   69.5189   48.0516   53.0758 C   0  0  0  0  0  0  0  0  0  0  0  0
   69.4117   48.1868   54.4502 C   0  0  0  0  0  0  0  0  0  0  0  0
   70.3928   48.8469   52.2867 N   0  0  0  0  0  0  0  0  0  0  0  0
   71.5806   48.9727   52.6776 O   0  0  0  0  0  0  0  0  0  0  0  0
   69.9907   49.4690   51.1387 O   0  0  0  0  0  0  0  0  0  0  0  0
   69.0732   46.7555   57.3814 O   0  0  0  0  0  0  0  0  0  0  0  0
   68.4712   47.5739   56.6428 C   0  0  0  0  0  0  0  0  0  0  0  0
   67.7009   48.6531   57.2722 C   0  0  0  0  0  0  0  0  0  0  0  0
   68.4155   49.9628   57.1350 C   0  0  0  0  0  0  0  0  0  0  0  0
   67.8389   50.9255   56.3340 C   0  0  0  0  0  0  0  0  0  0  0  0
   68.4582   52.1460   56.1765 C   0  0  0  0  0  0  0  0  0  0  0  0
   69.6492   52.3888   56.8236 C   0  0  0  0  0  0  0  0  0  0  0  0
   70.4162   53.9427   56.6098 Cl  0  0  0  0  0  0  0  0  0  0  0  0
   70.2221   51.4082   57.6304 C   0  0  0  0  0  0  0  0  0  0  0  0
   69.6059   50.2072   57.7818 C   0  0  0  0  0  0  0  0  0  0  0  0
 12 13  2  0
 13 14  1  0
 13  1  1  0
 14 15  1  0
 15 16  2  0
 15 21  1  0
 16 17  1  0
 17 18  2  0
 18 19  1  0
 18 20  1  0
 20 21  2  0
  1  2  2  0
  1  8  1  0
  2  3  1  0
  3  4  1  0
  3  5  2  0
  5  6  1  0
  5  7  1  0
  7  9  1  0
  7  8  2  0
  9 10  2  0
  9 11  1  0
M  CHG  2   9   1  11  -1
M  END
>  <minimizedAffinity>  (356) 
-8.79469

$$$$
cs_full_output_folder/data/smiles/1370.pdb
     RDKit          3D

 23 25  0  0  0  0  0  0  0  0999 V2000
   70.8492   45.1969   57.8575 C   0  0  0  0  0  0  0  0  0  0  0  0
   69.9651   44.1048   57.5504 C   0  0  0  0  0  0  0  0  0  0  0  0
   70.3115   42.9070   58.1280 N   0  0  0  0  0  0  0  0  0  0  0  0
   69.6695   41.7661   57.9373 C   0  0  0  0  0  0  0  0  0  0  0  0
   70.0628   40.5781   58.5506 C   0  0  0  0  0  0  0  0  0  0  0  0
   69.3830   39.3997   58.3426 C   0  0  0  0  0  0  0  0  0  0  0  0
   68.2770   39.3672   57.5084 C   0  0  0  0  0  0  0  0  0  0  0  0
   67.9000   40.5491   56.9091 C   0  0  0  0  0  0  0  0  0  0  0  0
   68.5759   41.7327   57.1127 C   0  0  0  0  0  0  0  0  0  0  0  0
   68.2083   42.9162   56.5212 C   0  0  0  0  0  0  0  0  0  0  0  0
   67.2295   42.9569   55.7640 O   0  0  0  0  0  0  0  0  0  0  0  0
   68.9054   44.0668   56.7511 N   0  0  0  0  0  0  0  0  0  0  0  0
   70.3901   46.5281   58.2205 C   0  0  0  0  0  0  0  0  0  0  0  0
   70.0107   47.5088   57.1884 C   0  0  0  0  0  0  0  0  0  0  0  0
   67.6957   47.4465   57.0600 O   0  0  0  0  0  0  0  0  0  0  0  0
   68.8005   47.3979   56.4292 C   0  0  0  0  0  0  0  0  0  0  0  0
   68.7147   47.2344   54.9891 C   0  0  0  0  0  0  0  0  0  0  0  0
   69.3141   48.0931   54.0962 C   0  0  0  0  0  0  0  0  0  0  0  0
   69.1875   47.8767   52.7505 C   0  0  0  0  0  0  0  0  0  0  0  0
   68.4673   46.8098   52.2362 C   0  0  0  0  0  0  0  0  0  0  0  0
   68.3282   46.5760   50.9113 F   0  0  0  0  0  0  0  0  0  0  0  0
   67.8630   45.9441   53.1237 C   0  0  0  0  0  0  0  0  0  0  0  0
   67.9903   46.1606   54.4731 C   0  0  0  0  0  0  0  0  0  0  0  0
 15 16  2  0
 16 14  1  0
 16 17  1  0
 14 13  1  0
 13  1  1  0
  1  2  1  0
  2  3  2  0
  2 12  1  0
  3  4  1  0
  4  5  2  0
  4  9  1  0
  5  6  1  0
  6  7  2  0
  7  8  1  0
  8  9  2  0
  9 10  1  0
 10 11  2  0
 10 12  1  0
 17 18  2  0
 17 23  1  0
 18 19  1  0
 19 20  2  0
 20 21  1  0
 20 22  1  0
 22 23  2  0
M  END
>  <minimizedAffinity>  (357) 
-8.79256

$$$$
cs_full_output_folder/data/smiles/47.pdb
     RDKit          3D

 24 26  0  0  0  0  0  0  0  0999 V2000
   70.2583   44.4674   58.3645 S   0  0  0  0  0  0  0  0  0  0  0  0
   69.6470   44.1138   59.7034 O   0  0  0  0  0  0  0  0  0  0  0  0
   69.8236   43.4228   57.3964 O   0  0  0  0  0  0  0  0  0  0  0  0
   71.9996   44.5518   58.5170 C   0  0  0  0  0  0  0  0  0  0  0  0
   72.6512   45.7032   58.9071 C   0  0  0  0  0  0  0  0  0  0  0  0
   74.0210   45.7736   59.0293 C   0  0  0  0  0  0  0  0  0  0  0  0
   74.8003   44.6710   58.7583 C   0  0  0  0  0  0  0  0  0  0  0  0
   76.1769   44.7208   58.8748 C   0  0  0  0  0  0  0  0  0  0  0  0
   76.9583   43.6183   58.6047 C   0  0  0  0  0  0  0  0  0  0  0  0
   76.3592   42.4388   58.2100 C   0  0  0  0  0  0  0  0  0  0  0  0
   74.9848   42.4101   58.1005 C   0  0  0  0  0  0  0  0  0  0  0  0
   74.1818   43.4994   58.3649 C   0  0  0  0  0  0  0  0  0  0  0  0
   72.8053   43.4486   58.2494 C   0  0  0  0  0  0  0  0  0  0  0  0
   69.6668   46.0185   57.8341 N   0  0  0  0  0  0  0  0  0  0  0  0
   68.5783   46.6281   55.6916 C   0  0  0  0  0  0  0  0  0  0  0  0
   67.6209   47.1492   56.3467 O   0  0  0  0  0  0  0  0  0  0  0  0
   69.6219   46.0513   56.4411 N   0  0  0  0  0  0  0  0  0  0  0  0
   66.8145   44.8642   51.4609 N   0  0  0  0  0  0  0  0  0  0  0  0
   67.6321   45.8055   52.1470 C   0  0  0  0  0  0  0  0  0  0  0  0
   68.3364   46.7422   51.4270 C   0  0  0  0  0  0  0  0  0  0  0  0
   69.1246   47.6452   52.1099 C   0  0  0  0  0  0  0  0  0  0  0  0
   69.2005   47.6060   53.4944 C   0  0  0  0  0  0  0  0  0  0  0  0
   68.5043   46.6773   54.2389 C   0  0  0  0  0  0  0  0  0  0  0  0
   67.7235   45.7826   53.5442 C   0  0  0  0  0  0  0  0  0  0  0  0
 18 19  1  0
 19 20  2  0
 19 24  1  0
 20 21  1  0
 21 22  2  0
 22 23  1  0
 23 15  1  0
 23 24  2  0
 15 16  2  0
 15 17  1  0
 17 14  1  0
 14  1  1  0
  1  2  2  0
  1  3  2  0
  1  4  1  0
  4  5  2  0
  4 13  1  0
  5  6  1  0
  6  7  2  0
  7  8  1  0
  7 12  1  0
  8  9  2  0
  9 10  1  0
 10 11  2  0
 11 12  1  0
 12 13  2  0
M  END
>  <minimizedAffinity>  (358) 
-8.79189

$$$$
cs_full_output_folder/data/smiles/2794.pdb
     RDKit          3D

 24 26  0  0  0  0  0  0  0  0999 V2000
   68.6792   47.2795   56.4135 C   0  0  0  0  0  0  0  0  0  0  0  0
   69.3147   46.3766   57.0529 O   0  0  0  0  0  0  0  0  0  0  0  0
   69.2341   48.0209   52.7392 C   0  0  0  0  0  0  0  0  0  0  0  0
   69.2732   48.0826   54.1292 C   0  0  0  0  0  0  0  0  0  0  0  0
   68.6442   47.2114   54.9655 C   0  0  0  0  0  0  0  0  0  0  0  0
   67.9060   46.1786   54.3687 C   0  0  0  0  0  0  0  0  0  0  0  0
   67.8343   46.0709   52.9986 C   0  0  0  0  0  0  0  0  0  0  0  0
   67.0877   45.0276   52.4302 O   0  0  0  0  0  0  0  0  0  0  0  0
   68.4879   46.9782   52.1978 C   0  0  0  0  0  0  0  0  0  0  0  0
   68.4025   46.8516   50.8278 O   0  0  0  0  0  0  0  0  0  0  0  0
   69.8499   50.1789   52.0354 N   0  0  0  0  0  0  0  0  0  0  0  0
   69.9054   48.9426   51.9039 N   0  0  0  0  0  0  0  0  0  0  0  0
   70.6828   48.4238   50.8642 O   0  0  0  0  0  0  0  0  0  0  0  0
   68.0010   48.3617   57.1816 C   0  0  0  0  0  0  0  0  0  0  0  0
   68.7683   49.6514   57.0365 C   0  0  0  0  0  0  0  0  0  0  0  0
   68.1686   50.7086   56.3738 C   0  0  0  0  0  0  0  0  0  0  0  0
   68.3987   52.0509   56.6340 C   0  0  0  0  0  0  0  0  0  0  0  0
   69.6338   52.6440   56.7302 C   0  0  0  0  0  0  0  0  0  0  0  0
   70.6604   52.6097   55.8103 C   0  0  0  0  0  0  0  0  0  0  0  0
   71.0342   51.5051   55.0781 C   0  0  0  0  0  0  0  0  0  0  0  0
   71.4486   50.2875   55.5677 C   0  0  0  0  0  0  0  0  0  0  0  0
   71.2734   50.0299   56.9003 C   0  0  0  0  0  0  0  0  0  0  0  0
   71.2273   49.7781   58.2996 C   0  0  0  0  0  0  0  0  0  0  0  0
   70.0147   49.7331   57.5697 C   0  0  0  0  0  0  0  0  0  0  0  0
 11 12  2  0
 12 13  1  0
 12  3  1  0
  3  4  2  0
  3  9  1  0
  4  5  1  0
  5  1  1  0
  5  6  2  0
  1  2  2  0
  1 14  1  0
 14 15  1  0
 15 16  2  0
 15 24  1  0
 16 17  1  0
 17 18  2  0
 18 19  1  0
 19 20  2  0
 20 21  1  0
 21 22  2  0
 22 23  1  0
 22 24  1  0
 23 24  2  0
  6  7  1  0
  7  8  1  0
  7  9  2  0
  9 10  1  0
M  CHG  2  12   1  13  -1
M  END
>  <minimizedAffinity>  (359) 
-8.79152

$$$$
cs_full_output_folder/data/smiles/1110.pdb
     RDKit          3D

 24 26  0  0  0  0  0  0  0  0999 V2000
   68.2418   44.6339   56.0137 N   0  0  0  0  0  0  0  0  0  0  0  0
   69.1282   43.8579   56.7996 C   0  0  0  0  0  0  0  0  0  0  0  0
   70.1186   44.3908   57.3120 O   0  0  0  0  0  0  0  0  0  0  0  0
   68.8561   42.4153   56.9950 C   0  0  0  0  0  0  0  0  0  0  0  0
   67.9132   41.6349   56.3635 C   0  0  0  0  0  0  0  0  0  0  0  0
   68.0245   40.3689   56.8578 N   0  0  0  0  0  0  0  0  0  0  0  0
   68.9831   40.3218   57.7598 N   0  0  0  0  0  0  0  0  0  0  0  0
   69.5032   41.5573   57.8589 C   0  0  0  0  0  0  0  0  0  0  0  0
   69.4101   39.1610   58.5141 C   0  0  0  0  0  0  0  0  0  0  0  0
   68.7120   38.5244   59.4312 C   0  0  0  0  0  0  0  0  0  0  0  0
   69.4781   37.4114   59.9621 C   0  0  0  0  0  0  0  0  0  0  0  0
   70.6531   37.3704   59.3611 C   0  0  0  0  0  0  0  0  0  0  0  0
   71.9089   36.1611   59.7087 Cl  0  0  0  0  0  0  0  0  0  0  0  0
   70.7089   38.4665   58.4022 C   0  0  0  0  0  0  0  0  0  0  0  0
   68.3813   46.0392   55.7418 C   0  0  0  0  0  0  0  0  0  0  0  0
   69.3615   47.7226   52.5314 C   0  0  0  0  0  0  0  0  0  0  0  0
   68.6408   46.9798   51.6340 C   0  0  0  0  0  0  0  0  0  0  0  0
   67.8397   45.9443   52.0387 C   0  0  0  0  0  0  0  0  0  0  0  0
   67.7646   45.6541   53.3731 C   0  0  0  0  0  0  0  0  0  0  0  0
   68.4692   46.3727   54.3007 C   0  0  0  0  0  0  0  0  0  0  0  0
   69.2694   47.4098   53.8749 C   0  0  0  0  0  0  0  0  0  0  0  0
   69.7565   49.6714   51.0068 N   0  0  0  0  0  0  0  0  0  0  0  0
   70.1940   48.8073   52.0420 C   0  0  0  0  0  0  0  0  0  0  0  0
   71.3300   48.9917   52.5415 O   0  0  0  0  0  0  0  0  0  0  0  0
 22 23  1  0
 23 24  2  0
 23 16  1  0
 16 17  2  0
 16 21  1  0
 17 18  1  0
 18 19  2  0
 19 20  1  0
 20 15  1  0
 20 21  2  0
 15  1  1  0
  1  2  1  0
  2  3  2  0
  2  4  1  0
  4  5  1  0
  4  8  2  0
  5  6  2  0
  6  7  1  0
  7  9  1  0
  7  8  1  0
  9 10  2  0
  9 14  1  0
 10 11  1  0
 11 12  2  0
 12 13  1  0
 12 14  1  0
M  END
>  <minimizedAffinity>  (360) 
-8.78959

$$$$
cs_full_output_folder/data/smiles/684.pdb
     RDKit          3D

 25 27  0  0  0  0  0  0  0  0999 V2000
   68.7700   47.4919   56.7301 C   0  0  0  0  0  0  0  0  0  0  0  0
   67.5188   47.5813   56.9949 O   0  0  0  0  0  0  0  0  0  0  0  0
   69.1607   47.8953   55.4037 C   0  0  0  0  0  0  0  0  0  0  0  0
   69.9793   49.0168   55.2114 C   0  0  0  0  0  0  0  0  0  0  0  0
   70.3534   49.4049   53.9573 C   0  0  0  0  0  0  0  0  0  0  0  0
   71.0893   50.4195   53.8353 O   0  0  0  0  0  0  0  0  0  0  0  0
   69.9557   48.7348   52.8721 N   0  0  0  0  0  0  0  0  0  0  0  0
   69.1804   47.6621   52.9746 C   0  0  0  0  0  0  0  0  0  0  0  0
   68.7589   46.9552   51.8535 C   0  0  0  0  0  0  0  0  0  0  0  0
   67.9560   45.8452   51.9500 C   0  0  0  0  0  0  0  0  0  0  0  0
   67.5500   45.4091   53.1831 C   0  0  0  0  0  0  0  0  0  0  0  0
   67.9745   46.1231   54.3109 C   0  0  0  0  0  0  0  0  0  0  0  0
   68.7800   47.2395   54.2368 C   0  0  0  0  0  0  0  0  0  0  0  0
   69.4704   47.0255   57.7870 O   0  0  0  0  0  0  0  0  0  0  0  0
   70.4773   46.0635   57.7541 C   0  0  0  0  0  0  0  0  0  0  0  0
   69.6466   44.3967   59.2162 O   0  0  0  0  0  0  0  0  0  0  0  0
   70.0792   44.6870   58.0434 C   0  0  0  0  0  0  0  0  0  0  0  0
   70.1094   43.5834   57.1709 N   0  0  0  0  0  0  0  0  0  0  0  0
   69.6994   42.2744   57.5319 C   0  0  0  0  0  0  0  0  0  0  0  0
   70.4700   41.4651   58.2390 C   0  0  0  0  0  0  0  0  0  0  0  0
   69.8928   40.1339   58.5299 C   0  0  0  0  0  0  0  0  0  0  0  0
   68.7954   39.7565   57.9489 C   0  0  0  0  0  0  0  0  0  0  0  0
   67.9487   40.6228   57.4906 C   0  0  0  0  0  0  0  0  0  0  0  0
   68.3913   41.7955   57.1172 C   0  0  0  0  0  0  0  0  0  0  0  0
   67.6585   42.6154   56.3304 F   0  0  0  0  0  0  0  0  0  0  0  0
 16 17  2  0
 17 15  1  0
 17 18  1  0
 15 14  1  0
 14  1  1  0
  1  2  2  0
  1  3  1  0
  3  4  2  0
  3 13  1  0
  4  5  1  0
  5  6  2  0
  5  7  1  0
  7  8  1  0
  8  9  1  0
  8 13  2  0
  9 10  2  0
 10 11  1  0
 11 12  2  0
 12 13  1  0
 18 19  1  0
 19 20  2  0
 19 24  1  0
 20 21  1  0
 21 22  2  0
 22 23  2  0
 23 24  2  0
 24 25  1  0
M  END
>  <minimizedAffinity>  (361) 
-8.78947

$$$$
cs_full_output_folder/data/smiles/8572.pdb
     RDKit          3D

 24 26  0  0  0  0  0  0  0  0999 V2000
   70.7918   46.0832   58.2099 C   0  0  0  0  0  0  0  0  0  0  0  0
   69.8253   46.7274   57.4231 C   0  0  0  0  0  0  0  0  0  0  0  0
   69.9779   48.0212   57.0316 C   0  0  0  0  0  0  0  0  0  0  0  0
   71.1178   48.6987   57.4297 C   0  0  0  0  0  0  0  0  0  0  0  0
   72.0826   48.0973   58.1997 C   0  0  0  0  0  0  0  0  0  0  0  0
   71.9126   46.7652   58.5947 C   0  0  0  0  0  0  0  0  0  0  0  0
   72.8377   46.1668   59.3522 F   0  0  0  0  0  0  0  0  0  0  0  0
   70.5673   44.6904   58.5636 C   0  0  0  0  0  0  0  0  0  0  0  0
   69.8011   44.4209   59.5467 O   0  0  0  0  0  0  0  0  0  0  0  0
   70.0477   42.6501   57.3776 C   0  0  0  0  0  0  0  0  0  0  0  0
   71.1741   43.5472   57.8489 C   0  0  0  0  0  0  0  0  0  0  0  0
   72.0740   42.8048   58.8220 C   0  0  0  0  0  0  0  0  0  0  0  0
   68.9523   48.7276   56.1869 C   0  0  0  0  0  0  0  0  0  0  0  0
   69.3239   48.6406   54.8113 C   0  0  0  0  0  0  0  0  0  0  0  0
   70.1752   49.6074   54.3474 N   0  0  0  0  0  0  0  0  0  0  0  0
   70.5405   49.6713   53.0722 N   0  0  0  0  0  0  0  0  0  0  0  0
   70.1078   48.8039   52.1580 C   0  0  0  0  0  0  0  0  0  0  0  0
   70.4437   48.8491   50.9447 O   0  0  0  0  0  0  0  0  0  0  0  0
   69.2349   47.7846   52.5564 C   0  0  0  0  0  0  0  0  0  0  0  0
   68.7780   46.8522   51.6560 C   0  0  0  0  0  0  0  0  0  0  0  0
   67.9336   45.8345   52.0629 C   0  0  0  0  0  0  0  0  0  0  0  0
   67.5807   45.8039   53.4021 C   0  0  0  0  0  0  0  0  0  0  0  0
   68.0484   46.7475   54.2903 C   0  0  0  0  0  0  0  0  0  0  0  0
   68.8726   47.7397   53.8835 C   0  0  0  0  0  0  0  0  0  0  0  0
 10 11  1  0
 11 12  1  0
 11  8  1  0
  8  9  2  0
  8  1  1  0
  1  2  2  0
  1  6  1  0
  2  3  1  0
  3 13  1  0
  3  4  2  0
 13 14  1  0
 14 15  2  0
 14 24  1  0
 15 16  1  0
 16 17  1  0
 17 18  2  0
 17 19  1  0
 19 20  1  0
 19 24  2  0
 20 21  2  0
 21 22  1  0
 22 23  2  0
 23 24  1  0
  4  5  1  0
  5  6  2  0
  6  7  1  0
M  END
>  <minimizedAffinity>  (362) 
-8.78853

$$$$
cs_full_output_folder/data/smiles/2597.pdb
     RDKit          3D

 25 27  0  0  0  0  0  0  0  0999 V2000
   68.9320   43.9716   56.7140 C   0  0  0  0  0  0  0  0  0  0  0  0
   67.8142   43.6190   56.2858 O   0  0  0  0  0  0  0  0  0  0  0  0
   69.2903   45.3336   56.6411 N   0  0  0  0  0  0  0  0  0  0  0  0
   68.2406   40.9768   57.3658 C   0  0  0  0  0  0  0  0  0  0  0  0
   69.5464   41.6464   57.5660 C   0  0  0  0  0  0  0  0  0  0  0  0
   69.8229   42.9724   57.2689 C   0  0  0  0  0  0  0  0  0  0  0  0
   71.1706   43.1324   57.6269 C   0  0  0  0  0  0  0  0  0  0  0  0
   71.6068   41.9480   58.0965 N   0  0  0  0  0  0  0  0  0  0  0  0
   70.6394   41.0522   58.0634 N   0  0  0  0  0  0  0  0  0  0  0  0
   70.6976   39.6943   58.4689 C   0  0  0  0  0  0  0  0  0  0  0  0
   69.8803   39.1727   59.4393 C   0  0  0  0  0  0  0  0  0  0  0  0
   69.9361   37.8399   59.8409 C   0  0  0  0  0  0  0  0  0  0  0  0
   70.8419   37.0184   59.2430 C   0  0  0  0  0  0  0  0  0  0  0  0
   71.6640   37.5476   58.2648 C   0  0  0  0  0  0  0  0  0  0  0  0
   71.5856   38.8282   57.9039 N   0  0  0  0  0  0  0  0  0  0  0  0
   68.4849   46.3980   56.1159 C   0  0  0  0  0  0  0  0  0  0  0  0
   68.5750   46.5451   54.6450 C   0  0  0  0  0  0  0  0  0  0  0  0
   67.8717   45.6962   53.8201 C   0  0  0  0  0  0  0  0  0  0  0  0
   67.9569   45.8420   52.4280 C   0  0  0  0  0  0  0  0  0  0  0  0
   68.7489   46.8417   51.8894 C   0  0  0  0  0  0  0  0  0  0  0  0
   69.4551   47.6943   52.7077 C   0  0  0  0  0  0  0  0  0  0  0  0
   69.3532   47.5273   54.0544 C   0  0  0  0  0  0  0  0  0  0  0  0
   70.2823   48.7402   52.1417 C   0  0  0  0  0  0  0  0  0  0  0  0
   71.3790   49.0134   52.6453 O   0  0  0  0  0  0  0  0  0  0  0  0
   69.8861   49.4761   51.0214 O   0  0  0  0  0  0  0  0  0  0  0  0
  4  5  1  0
  5  6  2  0
  5  9  1  0
  6  1  1  0
  6  7  1  0
  1  2  2  0
  1  3  1  0
  3 16  1  0
 16 17  1  0
 17 18  2  0
 17 22  1  0
 18 19  1  0
 19 20  2  0
 20 21  1  0
 21 23  1  0
 21 22  2  0
 23 24  2  0
 23 25  1  0
  7  8  2  0
  8  9  1  0
  9 10  1  0
 10 11  2  0
 10 15  1  0
 11 12  1  0
 12 13  2  0
 13 14  1  0
 14 15  2  0
M  END
>  <minimizedAffinity>  (363) 
-8.78554

$$$$
cs_full_output_folder/data/smiles/525.pdb
     RDKit          3D

 23 25  0  0  0  0  0  0  0  0999 V2000
   69.4997   51.0197   54.5724 C   0  0  0  0  0  0  0  0  0  0  0  0
   68.4164   50.6488   55.3747 C   0  0  0  0  0  0  0  0  0  0  0  0
   68.3684   50.9803   56.6957 C   0  0  0  0  0  0  0  0  0  0  0  0
   67.0215   50.5302   57.7337 Cl  0  0  0  0  0  0  0  0  0  0  0  0
   69.4130   51.6961   57.2505 C   0  0  0  0  0  0  0  0  0  0  0  0
   70.4760   52.0559   56.4519 C   0  0  0  0  0  0  0  0  0  0  0  0
   70.5337   51.7202   55.1050 C   0  0  0  0  0  0  0  0  0  0  0  0
   69.4594   50.6870   53.1741 N   0  0  0  0  0  0  0  0  0  0  0  0
   71.6007   49.0842   52.8928 O   0  0  0  0  0  0  0  0  0  0  0  0
   70.1524   49.2245   52.5631 S   0  0  0  0  0  0  0  0  0  0  0  0
   70.0701   49.2942   51.0487 O   0  0  0  0  0  0  0  0  0  0  0  0
   69.2213   47.8301   53.0597 C   0  0  0  0  0  0  0  0  0  0  0  0
   68.9717   47.4903   54.3625 C   0  0  0  0  0  0  0  0  0  0  0  0
   68.2230   46.3941   54.7532 C   0  0  0  0  0  0  0  0  0  0  0  0
   67.6867   45.5805   53.7836 C   0  0  0  0  0  0  0  0  0  0  0  0
   67.9191   45.8928   52.4434 C   0  0  0  0  0  0  0  0  0  0  0  0
   68.6703   46.9934   52.0818 C   0  0  0  0  0  0  0  0  0  0  0  0
   71.7459   52.0915   54.3737 C   0  0  0  0  0  0  0  0  0  0  0  0
   72.8971   51.3398   54.7785 N   0  0  0  0  0  0  0  0  0  0  0  0
   73.4355   51.1220   55.9595 C   0  0  0  0  0  0  0  0  0  0  0  0
   74.5540   50.3210   55.7468 C   0  0  0  0  0  0  0  0  0  0  0  0
   74.6482   50.0875   54.4484 N   0  0  0  0  0  0  0  0  0  0  0  0
   73.6559   50.6964   53.8683 N   0  0  0  0  0  0  0  0  0  0  0  0
  9 10  2  0
 10 11  2  0
 10  8  1  0
 10 12  1  0
  8  1  1  0
  1  2  2  0
  1  7  1  0
  2  3  1  0
  3  4  1  0
  3  5  2  0
  5  6  1  0
  6  7  2  0
  7 18  1  0
 18 19  1  0
 19 20  1  0
 19 23  1  0
 20 21  2  0
 21 22  1  0
 22 23  2  0
 12 13  2  0
 12 17  1  0
 13 14  1  0
 14 15  2  0
 15 16  1  0
 16 17  2  0
M  END
>  <minimizedAffinity>  (364) 
-8.78553

$$$$
cs_full_output_folder/data/smiles/6062.pdb
     RDKit          3D

 23 25  0  0  0  0  0  0  0  0999 V2000
   68.2020   48.5283   56.6508 C   0  0  0  0  0  0  0  0  0  0  0  0
   67.1878   48.7199   57.5374 C   0  0  0  0  0  0  0  0  0  0  0  0
   66.7715   49.9932   57.9403 C   0  0  0  0  0  0  0  0  0  0  0  0
   67.3694   51.1255   57.4626 C   0  0  0  0  0  0  0  0  0  0  0  0
   68.4051   50.9593   56.5635 C   0  0  0  0  0  0  0  0  0  0  0  0
   68.8059   49.7021   56.1730 C   0  0  0  0  0  0  0  0  0  0  0  0
   69.4149   45.1139   56.9048 N   0  0  0  0  0  0  0  0  0  0  0  0
   68.9894   46.3809   56.9762 N   0  0  0  0  0  0  0  0  0  0  0  0
   68.6247   47.2417   56.0847 C   0  0  0  0  0  0  0  0  0  0  0  0
   68.6130   46.9343   54.6682 C   0  0  0  0  0  0  0  0  0  0  0  0
   69.2737   47.7336   53.7356 C   0  0  0  0  0  0  0  0  0  0  0  0
   69.1532   47.5275   52.3753 C   0  0  0  0  0  0  0  0  0  0  0  0
   68.3773   46.5242   51.8723 C   0  0  0  0  0  0  0  0  0  0  0  0
   67.7184   45.7271   52.7500 C   0  0  0  0  0  0  0  0  0  0  0  0
   67.8410   45.9389   54.1320 C   0  0  0  0  0  0  0  0  0  0  0  0
   69.0846   52.1402   56.0516 C   0  0  0  0  0  0  0  0  0  0  0  0
   68.5351   52.7805   55.1241 O   0  0  0  0  0  0  0  0  0  0  0  0
   70.3570   52.5282   56.6253 C   0  0  0  0  0  0  0  0  0  0  0  0
   70.9517   51.9152   57.7045 C   0  0  0  0  0  0  0  0  0  0  0  0
   72.1756   52.3508   58.2244 C   0  0  0  0  0  0  0  0  0  0  0  0
   72.8413   53.4208   57.6700 C   0  0  0  0  0  0  0  0  0  0  0  0
   72.2635   54.0469   56.5884 C   0  0  0  0  0  0  0  0  0  0  0  0
   71.0581   53.6153   56.0802 C   0  0  0  0  0  0  0  0  0  0  0  0
  7  8  1  0
  8  9  2  0
  9 10  1  0
  9  1  1  0
 10 11  2  0
 10 15  1  0
 11 12  1  0
 12 13  2  0
 13 14  1  0
 14 15  2  0
  1  2  2  0
  1  6  1  0
  2  3  1  0
  3  4  2  0
  4  5  1  0
  5 16  1  0
  5  6  2  0
 16 17  2  0
 16 18  1  0
 18 19  2  0
 18 23  1  0
 19 20  1  0
 20 21  2  0
 21 22  1  0
 22 23  2  0
M  END
>  <minimizedAffinity>  (365) 
-8.77944

$$$$
cs_full_output_folder/data/smiles/1494.pdb
     RDKit          3D

 22 24  0  0  0  0  0  0  0  0999 V2000
   68.6885   47.5253   56.5197 C   0  0  0  0  0  0  0  0  0  0  0  0
   69.4974   46.4700   57.0968 C   0  0  0  0  0  0  0  0  0  0  0  0
   69.1221   45.1830   56.8532 N   0  0  0  0  0  0  0  0  0  0  0  0
   69.7481   44.1705   57.4363 N   0  0  0  0  0  0  0  0  0  0  0  0
   70.7649   44.4131   58.2795 C   0  0  0  0  0  0  0  0  0  0  0  0
   71.3448   43.4269   58.8263 O   0  0  0  0  0  0  0  0  0  0  0  0
   71.2130   45.7044   58.5806 C   0  0  0  0  0  0  0  0  0  0  0  0
   70.5514   46.7399   57.9620 C   0  0  0  0  0  0  0  0  0  0  0  0
   70.9692   48.1212   58.0699 C   0  0  0  0  0  0  0  0  0  0  0  0
   71.9800   48.3351   59.1634 C   0  0  0  0  0  0  0  0  0  0  0  0
   72.0193   47.2485   60.2013 C   0  0  0  0  0  0  0  0  0  0  0  0
   72.3344   45.9026   59.5247 C   0  0  0  0  0  0  0  0  0  0  0  0
   69.3002   47.9855   52.7726 C   0  0  0  0  0  0  0  0  0  0  0  0
   69.3434   48.2038   54.1562 C   0  0  0  0  0  0  0  0  0  0  0  0
   68.6958   47.3870   55.0347 C   0  0  0  0  0  0  0  0  0  0  0  0
   67.9873   46.3191   54.4537 C   0  0  0  0  0  0  0  0  0  0  0  0
   67.9440   46.1025   53.1007 C   0  0  0  0  0  0  0  0  0  0  0  0
   68.6005   46.9348   52.2448 C   0  0  0  0  0  0  0  0  0  0  0  0
   68.5556   46.7203   50.8935 F   0  0  0  0  0  0  0  0  0  0  0  0
   69.9184   50.3146   52.0823 N   0  0  0  0  0  0  0  0  0  0  0  0
   70.0002   48.8893   51.8582 C   0  0  0  0  0  0  0  0  0  0  0  0
   70.6629   48.4792   50.8948 O   0  0  0  0  0  0  0  0  0  0  0  0
 20 21  1  0
 21 22  2  0
 21 13  1  0
 13 14  2  0
 13 18  1  0
 14 15  1  0
 15  1  1  0
 15 16  2  0
  1  2  1  0
  2  3  2  0
  2  8  1  0
  3  4  1  0
  4  5  1  0
  5  6  2  0
  5  7  1  0
  7  8  2  0
  7 12  1  0
  8  9  1  0
  9 10  1  0
 10 11  1  0
 11 12  1  0
 16 17  1  0
 17 18  2  0
 18 19  1  0
M  END
>  <minimizedAffinity>  (366) 
-8.77905

$$$$
cs_full_output_folder/data/smiles/6206.pdb
     RDKit          3D

 24 26  0  0  0  0  0  0  0  0999 V2000
   70.8554   47.7827   57.6846 N   0  0  0  0  0  0  0  0  0  0  0  0
   69.5520   47.5661   57.1281 C   0  0  0  0  0  0  0  0  0  0  0  0
   69.0368   46.4630   57.3912 O   0  0  0  0  0  0  0  0  0  0  0  0
   72.1257   44.4680   58.8951 C   0  0  0  0  0  0  0  0  0  0  0  0
   72.5594   44.8383   60.1511 C   0  0  0  0  0  0  0  0  0  0  0  0
   72.4460   46.1497   60.5993 C   0  0  0  0  0  0  0  0  0  0  0  0
   71.8814   47.0881   59.7520 C   0  0  0  0  0  0  0  0  0  0  0  0
   71.4303   46.7544   58.4771 C   0  0  0  0  0  0  0  0  0  0  0  0
   71.5717   45.4405   58.0925 C   0  0  0  0  0  0  0  0  0  0  0  0
   73.4463   43.0428   57.4857 C   0  0  0  0  0  0  0  0  0  0  0  0
   72.2511   43.0534   58.4569 C   0  0  0  0  0  0  0  0  0  0  0  0
   71.0768   42.5299   57.7150 C   0  0  0  0  0  0  0  0  0  0  0  0
   68.8930   48.6140   56.2954 C   0  0  0  0  0  0  0  0  0  0  0  0
   69.3047   48.6053   54.8760 C   0  0  0  0  0  0  0  0  0  0  0  0
   70.2293   49.5271   54.4555 N   0  0  0  0  0  0  0  0  0  0  0  0
   70.6763   49.5451   53.2284 N   0  0  0  0  0  0  0  0  0  0  0  0
   70.2746   48.6749   52.2906 C   0  0  0  0  0  0  0  0  0  0  0  0
   70.6699   48.6473   51.1048 O   0  0  0  0  0  0  0  0  0  0  0  0
   69.3379   47.7164   52.6545 C   0  0  0  0  0  0  0  0  0  0  0  0
   68.8766   46.7979   51.7487 C   0  0  0  0  0  0  0  0  0  0  0  0
   67.9333   45.8512   52.1325 C   0  0  0  0  0  0  0  0  0  0  0  0
   67.4532   45.8253   53.4215 C   0  0  0  0  0  0  0  0  0  0  0  0
   67.9211   46.7595   54.3490 C   0  0  0  0  0  0  0  0  0  0  0  0
   68.8582   47.6933   53.9590 C   0  0  0  0  0  0  0  0  0  0  0  0
 10 11  1  0
 11 12  1  0
 11  4  1  0
  4  5  2  0
  4  9  1  0
  5  6  1  0
  6  7  2  0
  7  8  1  0
  8  1  1  0
  8  9  2  0
  1  2  1  0
  2  3  2  0
  2 13  1  0
 13 14  1  0
 14 15  2  0
 14 24  1  0
 15 16  1  0
 16 17  1  0
 17 18  2  0
 17 19  1  0
 19 20  1  0
 19 24  2  0
 20 21  2  0
 21 22  1  0
 22 23  2  0
 23 24  1  0
M  END
>  <minimizedAffinity>  (367) 
-8.77573

$$$$
cs_full_output_folder/data/smiles/6795.pdb
     RDKit          3D

 23 25  0  0  0  0  0  0  0  0999 V2000
   69.9919   45.3574   59.1426 O   0  0  0  0  0  0  0  0  0  0  0  0
   70.1138   44.7479   58.0565 C   0  0  0  0  0  0  0  0  0  0  0  0
   69.5504   45.3651   56.8894 N   0  0  0  0  0  0  0  0  0  0  0  0
   70.8040   43.4628   58.0075 C   0  0  0  0  0  0  0  0  0  0  0  0
   70.3317   42.2200   58.4089 C   0  0  0  0  0  0  0  0  0  0  0  0
   71.2864   41.2447   58.2020 C   0  0  0  0  0  0  0  0  0  0  0  0
   72.3299   41.9124   57.6749 N   0  0  0  0  0  0  0  0  0  0  0  0
   72.0461   43.1992   57.5635 N   0  0  0  0  0  0  0  0  0  0  0  0
   71.2127   39.8181   58.4778 C   0  0  0  0  0  0  0  0  0  0  0  0
   72.3325   39.0176   58.4814 C   0  0  0  0  0  0  0  0  0  0  0  0
   72.2706   37.6633   58.7425 C   0  0  0  0  0  0  0  0  0  0  0  0
   71.0679   37.0797   59.0096 C   0  0  0  0  0  0  0  0  0  0  0  0
   69.9366   37.8370   59.0161 C   0  0  0  0  0  0  0  0  0  0  0  0
   70.0076   39.2107   58.7498 C   0  0  0  0  0  0  0  0  0  0  0  0
   68.8996   46.5618   56.8906 N   0  0  0  0  0  0  0  0  0  0  0  0
   68.4379   47.3173   56.0030 C   0  0  0  0  0  0  0  0  0  0  0  0
   68.4809   47.0858   54.5693 C   0  0  0  0  0  0  0  0  0  0  0  0
   69.3259   47.8665   53.7568 C   0  0  0  0  0  0  0  0  0  0  0  0
   69.4120   47.6965   52.3959 C   0  0  0  0  0  0  0  0  0  0  0  0
   68.6258   46.7051   51.7959 C   0  0  0  0  0  0  0  0  0  0  0  0
   67.7914   45.9275   52.5658 C   0  0  0  0  0  0  0  0  0  0  0  0
   67.0037   44.9420   52.0065 O   0  0  0  0  0  0  0  0  0  0  0  0
   67.7316   46.1287   53.9359 C   0  0  0  0  0  0  0  0  0  0  0  0
  1  2  2  0
  2  3  1  0
  2  4  1  0
  3 15  1  0
 15 16  2  0
 16 17  1  0
 17 18  2  0
 17 23  1  0
 18 19  1  0
 19 20  2  0
 20 21  1  0
 21 22  1  0
 21 23  2  0
  4  5  2  0
  4  8  1  0
  5  6  1  0
  6  9  1  0
  6  7  2  0
  9 10  2  0
  9 14  1  0
 10 11  1  0
 11 12  2  0
 12 13  1  0
 13 14  2  0
  7  8  1  0
M  END
>  <minimizedAffinity>  (368) 
-8.77503

$$$$
cs_full_output_folder/data/smiles/5790.pdb
     RDKit          3D

 25 27  0  0  0  0  0  0  0  0999 V2000
   69.7351   44.6481   57.8628 C   0  0  0  0  0  0  0  0  0  0  0  0
   69.9817   45.5341   58.7570 O   0  0  0  0  0  0  0  0  0  0  0  0
   69.2086   45.1372   56.6536 N   0  0  0  0  0  0  0  0  0  0  0  0
   68.3300   41.7677   56.8087 C   0  0  0  0  0  0  0  0  0  0  0  0
   69.4778   42.1195   57.7446 C   0  0  0  0  0  0  0  0  0  0  0  0
   70.0066   43.2337   58.1412 C   0  0  0  0  0  0  0  0  0  0  0  0
   70.9725   42.5331   58.9648 C   0  0  0  0  0  0  0  0  0  0  0  0
   70.3492   41.3616   58.4762 N   0  0  0  0  0  0  0  0  0  0  0  0
   70.5795   39.9616   58.6811 C   0  0  0  0  0  0  0  0  0  0  0  0
   69.6722   39.1270   59.3207 C   0  0  0  0  0  0  0  0  0  0  0  0
   69.9019   37.7914   59.5088 C   0  0  0  0  0  0  0  0  0  0  0  0
   71.0588   37.2082   59.0635 C   0  0  0  0  0  0  0  0  0  0  0  0
   71.3097   35.7330   59.2753 C   0  0  0  0  0  0  0  0  0  0  0  0
   71.9867   37.9932   58.4243 C   0  0  0  0  0  0  0  0  0  0  0  0
   71.7355   39.3357   58.2467 C   0  0  0  0  0  0  0  0  0  0  0  0
   68.9493   46.5618   56.4222 C   0  0  0  0  0  0  0  0  0  0  0  0
   68.8424   46.7549   54.9646 C   0  0  0  0  0  0  0  0  0  0  0  0
   68.1086   45.8601   54.2262 C   0  0  0  0  0  0  0  0  0  0  0  0
   67.9762   45.9790   52.8461 C   0  0  0  0  0  0  0  0  0  0  0  0
   68.6058   47.0351   52.2121 C   0  0  0  0  0  0  0  0  0  0  0  0
   69.3498   47.9497   52.9319 C   0  0  0  0  0  0  0  0  0  0  0  0
   69.4566   47.7926   54.3062 C   0  0  0  0  0  0  0  0  0  0  0  0
   69.9908   49.0447   52.2367 C   0  0  0  0  0  0  0  0  0  0  0  0
   70.3007   50.2875   52.8049 N   0  0  0  0  0  0  0  0  0  0  0  0
   70.3132   48.8987   51.0038 O   0  0  0  0  0  0  0  0  0  0  0  0
  4  5  1  0
  5  6  2  0
  5  8  1  0
  6  1  1  0
  6  7  1  0
  1  2  2  0
  1  3  1  0
  3 16  1  0
 16 17  1  0
 17 18  2  0
 17 22  1  0
 18 19  1  0
 19 20  2  0
 20 21  1  0
 21 23  1  0
 21 22  2  0
 23 24  1  0
 23 25  2  0
  7  8  1  0
  8  9  1  0
  9 10  2  0
  9 15  1  0
 10 11  1  0
 11 12  2  0
 12 13  1  0
 12 14  1  0
 14 15  2  0
M  END
>  <minimizedAffinity>  (369) 
-8.77408

$$$$
cs_full_output_folder/data/smiles/207.pdb
     RDKit          3D

 25 28  0  0  0  0  0  0  0  0999 V2000
   73.8145   50.2909   56.3990 C   0  0  0  0  0  0  0  0  0  0  0  0
   73.0409   49.4932   57.2084 C   0  0  0  0  0  0  0  0  0  0  0  0
   71.6823   49.3498   57.0368 C   0  0  0  0  0  0  0  0  0  0  0  0
   71.0268   50.0343   56.0005 C   0  0  0  0  0  0  0  0  0  0  0  0
   71.8296   50.8205   55.2115 C   0  0  0  0  0  0  0  0  0  0  0  0
   73.1765   50.9348   55.4167 N   0  0  0  0  0  0  0  0  0  0  0  0
   75.6386   49.3567   54.6488 O   0  0  0  0  0  0  0  0  0  0  0  0
   76.1688   49.8929   55.6871 C   0  0  0  0  0  0  0  0  0  0  0  0
   75.2134   50.3952   56.6276 N   0  0  0  0  0  0  0  0  0  0  0  0
   77.5844   49.9734   55.8678 C   0  0  0  0  0  0  0  0  0  0  0  0
   78.4572   50.7289   56.4128 C   0  0  0  0  0  0  0  0  0  0  0  0
   79.2147   49.7086   56.5927 C   0  0  0  0  0  0  0  0  0  0  0  0
   78.7309   49.1907   55.5140 C   0  0  0  0  0  0  0  0  0  0  0  0
   69.5709   49.8814   55.8023 C   0  0  0  0  0  0  0  0  0  0  0  0
   69.1400   48.4765   55.5545 C   0  0  0  0  0  0  0  0  0  0  0  0
   68.8241   47.7008   56.6201 N   0  0  0  0  0  0  0  0  0  0  0  0
   68.4178   46.4580   56.5386 N   0  0  0  0  0  0  0  0  0  0  0  0
   68.2940   45.8826   55.3344 C   0  0  0  0  0  0  0  0  0  0  0  0
   67.8999   44.6843   55.2808 O   0  0  0  0  0  0  0  0  0  0  0  0
   68.5924   46.5935   54.1944 C   0  0  0  0  0  0  0  0  0  0  0  0
   69.0237   47.9156   54.3046 C   0  0  0  0  0  0  0  0  0  0  0  0
   69.3625   48.6946   53.1046 C   0  0  0  0  0  0  0  0  0  0  0  0
   69.6997   47.7294   51.9875 C   0  0  0  0  0  0  0  0  0  0  0  0
   68.4662   46.8630   51.7455 C   0  0  0  0  0  0  0  0  0  0  0  0
   68.4297   45.8872   52.9081 C   0  0  0  0  0  0  0  0  0  0  0  0
  7  8  2  0
  8  9  1  0
  8 10  1  0
  9  1  1  0
  1  2  2  0
  1  6  1  0
  2  3  1  0
  3  4  2  0
  4 14  1  0
  4  5  1  0
 14 15  1  0
 15 16  2  0
 15 21  1  0
 16 17  1  0
 17 18  1  0
 18 19  2  0
 18 20  1  0
 20 21  2  0
 20 25  1  0
 21 22  1  0
 22 23  1  0
 23 24  1  0
 24 25  1  0
  5  6  2  0
 10 11  2  0
 10 13  1  0
 11 12  2  0
 12 13  2  0
M  END
>  <minimizedAffinity>  (370) 
-8.77403

$$$$
cs_full_output_folder/data/smiles/5987.pdb
     RDKit          3D

 23 25  0  0  0  0  0  0  0  0999 V2000
   68.9106   48.4511   56.1436 C   0  0  0  0  0  0  0  0  0  0  0  0
   70.6134   48.7053   50.9376 O   0  0  0  0  0  0  0  0  0  0  0  0
   70.2038   48.6470   52.1427 C   0  0  0  0  0  0  0  0  0  0  0  0
   70.6587   49.4874   53.0821 N   0  0  0  0  0  0  0  0  0  0  0  0
   70.2362   49.4283   54.3290 N   0  0  0  0  0  0  0  0  0  0  0  0
   69.3115   48.5074   54.7296 C   0  0  0  0  0  0  0  0  0  0  0  0
   68.8311   47.6401   53.7910 C   0  0  0  0  0  0  0  0  0  0  0  0
   67.8893   46.6887   54.0822 C   0  0  0  0  0  0  0  0  0  0  0  0
   67.3896   45.8133   53.1266 C   0  0  0  0  0  0  0  0  0  0  0  0
   67.8520   45.8973   51.8321 C   0  0  0  0  0  0  0  0  0  0  0  0
   68.7922   46.8377   51.5051 C   0  0  0  0  0  0  0  0  0  0  0  0
   69.2716   47.6907   52.4583 C   0  0  0  0  0  0  0  0  0  0  0  0
   69.6473   47.4204   56.9391 C   0  0  0  0  0  0  0  0  0  0  0  0
   70.5550   47.6866   57.9266 C   0  0  0  0  0  0  0  0  0  0  0  0
   71.1807   46.6514   58.6258 C   0  0  0  0  0  0  0  0  0  0  0  0
   70.9282   45.3221   58.3703 C   0  0  0  0  0  0  0  0  0  0  0  0
   70.0160   45.0451   57.3762 C   0  0  0  0  0  0  0  0  0  0  0  0
   69.7405   43.7460   57.0937 F   0  0  0  0  0  0  0  0  0  0  0  0
   69.3988   46.0608   56.6874 C   0  0  0  0  0  0  0  0  0  0  0  0
   71.5834   44.2824   59.1034 N   0  0  0  0  0  0  0  0  0  0  0  0
   70.7528   43.4389   60.3464 S   0  0  0  0  0  0  0  0  0  0  0  0
   69.0949   43.6189   60.1697 O   0  0  0  0  0  0  0  0  0  0  0  0
   71.1725   43.9426   61.8782 O   0  0  0  0  0  0  0  0  0  0  0  0
  2  3  2  0
  3  4  1  0
  3 12  1  0
  4  5  1  0
  5  6  2  0
  6  1  1  0
  6  7  1  0
  1 13  1  0
 13 14  2  0
 13 19  1  0
 14 15  1  0
 15 16  2  0
 16 20  1  0
 16 17  1  0
 20 21  1  0
 21 22  1  6
 21 23  1  0
 17 18  1  0
 17 19  2  0
  7  8  1  0
  7 12  2  0
  8  9  2  0
  9 10  1  0
 10 11  2  0
 11 12  1  0
M  CHG  2  21   1  22  -1
M  END
>  <minimizedAffinity>  (371) 
-8.77346

$$$$
cs_full_output_folder/data/smiles/2108.pdb
     RDKit          3D

 23 25  0  0  0  0  0  0  0  0999 V2000
   68.9568   48.6221   56.1833 C   0  0  0  0  0  0  0  0  0  0  0  0
   69.3745   48.5794   54.7709 C   0  0  0  0  0  0  0  0  0  0  0  0
   70.2665   49.5008   54.2844 N   0  0  0  0  0  0  0  0  0  0  0  0
   70.6346   49.5295   53.0127 N   0  0  0  0  0  0  0  0  0  0  0  0
   70.1503   48.6492   52.1176 C   0  0  0  0  0  0  0  0  0  0  0  0
   70.5355   48.7260   50.9229 O   0  0  0  0  0  0  0  0  0  0  0  0
   69.2508   47.6925   52.5300 C   0  0  0  0  0  0  0  0  0  0  0  0
   68.7411   46.7679   51.6575 C   0  0  0  0  0  0  0  0  0  0  0  0
   67.8517   45.7905   52.0410 C   0  0  0  0  0  0  0  0  0  0  0  0
   67.4671   45.7523   53.3563 C   0  0  0  0  0  0  0  0  0  0  0  0
   67.9856   46.6876   54.2272 C   0  0  0  0  0  0  0  0  0  0  0  0
   68.8757   47.6780   53.8766 C   0  0  0  0  0  0  0  0  0  0  0  0
   70.6793   45.9879   58.2469 C   0  0  0  0  0  0  0  0  0  0  0  0
   69.8420   46.6895   57.3923 C   0  0  0  0  0  0  0  0  0  0  0  0
   69.9625   48.0182   57.1075 C   0  0  0  0  0  0  0  0  0  0  0  0
   70.9800   48.7104   57.7067 C   0  0  0  0  0  0  0  0  0  0  0  0
   71.8569   48.0688   58.5741 C   0  0  0  0  0  0  0  0  0  0  0  0
   71.6882   46.7097   58.8294 C   0  0  0  0  0  0  0  0  0  0  0  0
   72.5459   46.0872   59.6875 F   0  0  0  0  0  0  0  0  0  0  0  0
   70.7233   42.0853   58.0562 C   0  0  0  0  0  0  0  0  0  0  0  0
   71.0288   43.4987   57.7460 N   0  0  0  0  0  0  0  0  0  0  0  0
   70.4541   44.5556   58.4603 C   0  0  0  0  0  0  0  0  0  0  0  0
   69.6464   44.2351   59.3943 O   0  0  0  0  0  0  0  0  0  0  0  0
 20 21  1  0
 21 22  1  0
 22 23  2  0
 22 13  1  0
 13 14  2  0
 13 18  1  0
 14 15  1  0
 15  1  1  0
 15 16  2  0
  1  2  1  0
  2  3  2  0
  2 12  1  0
  3  4  1  0
  4  5  1  0
  5  6  2  0
  5  7  1  0
  7  8  1  0
  7 12  2  0
  8  9  2  0
  9 10  1  0
 10 11  2  0
 11 12  1  0
 16 17  1  0
 17 18  2  0
 18 19  1  0
M  END
>  <minimizedAffinity>  (372) 
-8.77093

$$$$
cs_full_output_folder/data/smiles/1044.pdb
     RDKit          3D

 22 23  0  0  0  0  0  0  0  0999 V2000
   67.8569   47.3391   56.9166 O   0  0  0  0  0  0  0  0  0  0  0  0
   68.7272   46.7180   56.2567 C   0  0  0  0  0  0  0  0  0  0  0  0
   69.7490   46.0479   56.9777 N   0  0  0  0  0  0  0  0  0  0  0  0
   68.6390   46.7210   54.8016 C   0  0  0  0  0  0  0  0  0  0  0  0
   67.8669   45.7778   54.1371 C   0  0  0  0  0  0  0  0  0  0  0  0
   67.7469   45.7331   52.7643 C   0  0  0  0  0  0  0  0  0  0  0  0
   68.4221   46.6646   52.0034 C   0  0  0  0  0  0  0  0  0  0  0  0
   69.1958   47.6132   52.6074 C   0  0  0  0  0  0  0  0  0  0  0  0
   69.2936   47.6291   53.9991 C   0  0  0  0  0  0  0  0  0  0  0  0
   69.9021   48.5852   51.8530 N   0  0  0  0  0  0  0  0  0  0  0  0
   70.4855   48.2049   50.8203 O   0  0  0  0  0  0  0  0  0  0  0  0
   69.9682   49.9030   52.2064 O   0  0  0  0  0  0  0  0  0  0  0  0
   69.8135   46.0591   58.3800 N   0  0  0  0  0  0  0  0  0  0  0  0
   71.4388   46.1433   58.9254 S   0  0  0  0  0  0  0  0  0  0  0  0
   71.4680   46.3261   60.3950 O   0  0  0  0  0  0  0  0  0  0  0  0
   72.1050   47.3511   58.2991 O   0  0  0  0  0  0  0  0  0  0  0  0
   72.3167   44.7230   58.4306 C   0  0  0  0  0  0  0  0  0  0  0  0
   73.6879   44.7727   58.4222 C   0  0  0  0  0  0  0  0  0  0  0  0
   74.4705   43.7134   58.0515 C   0  0  0  0  0  0  0  0  0  0  0  0
   73.8538   42.5410   57.6676 C   0  0  0  0  0  0  0  0  0  0  0  0
   72.4603   42.4779   57.6711 C   0  0  0  0  0  0  0  0  0  0  0  0
   71.7027   43.5622   58.0503 C   0  0  0  0  0  0  0  0  0  0  0  0
  1  2  2  0
  2  3  1  0
  2  4  1  0
  3 13  1  0
 13 14  1  0
 14 15  2  0
 14 16  2  0
 14 17  1  0
 17 18  2  0
 17 22  1  0
 18 19  1  0
 19 20  2  0
 20 21  1  0
 21 22  2  0
  4  5  2  0
  4  9  1  0
  5  6  1  0
  6  7  2  0
  7  8  1  0
  8 10  1  0
  8  9  2  0
 10 11  2  0
 10 12  1  0
M  CHG  2  10   1  12  -1
M  END
>  <minimizedAffinity>  (373) 
-8.77010

$$$$
cs_full_output_folder/data/smiles/2273.pdb
     RDKit          3D

 22 23  0  0  0  0  0  0  0  0999 V2000
   68.4486   47.6399   56.6479 C   0  0  0  0  0  0  0  0  0  0  0  0
   69.0761   46.8133   57.4012 O   0  0  0  0  0  0  0  0  0  0  0  0
   68.5615   47.4361   55.2198 C   0  0  0  0  0  0  0  0  0  0  0  0
   67.7719   46.5004   54.5895 C   0  0  0  0  0  0  0  0  0  0  0  0
   67.8528   46.3347   53.2211 C   0  0  0  0  0  0  0  0  0  0  0  0
   67.0898   45.4154   52.5513 O   0  0  0  0  0  0  0  0  0  0  0  0
   68.7187   47.1011   52.4749 C   0  0  0  0  0  0  0  0  0  0  0  0
   68.7933   46.9248   51.0825 O   0  0  0  0  0  0  0  0  0  0  0  0
   69.5183   48.0414   53.0680 C   0  0  0  0  0  0  0  0  0  0  0  0
   69.4266   48.1983   54.4612 C   0  0  0  0  0  0  0  0  0  0  0  0
   70.4224   48.8631   52.3327 N   0  0  0  0  0  0  0  0  0  0  0  0
   70.1264   49.3052   51.2259 O   0  0  0  0  0  0  0  0  0  0  0  0
   71.6393   49.1503   52.9043 O   0  0  0  0  0  0  0  0  0  0  0  0
   67.6810   48.6980   57.3327 C   0  0  0  0  0  0  0  0  0  0  0  0
   69.7957   52.3515   56.6932 C   0  0  0  0  0  0  0  0  0  0  0  0
   70.3054   51.3258   57.4455 C   0  0  0  0  0  0  0  0  0  0  0  0
   69.6198   50.1532   57.6575 C   0  0  0  0  0  0  0  0  0  0  0  0
   68.3645   50.0092   57.0871 C   0  0  0  0  0  0  0  0  0  0  0  0
   67.8131   51.0063   56.3288 C   0  0  0  0  0  0  0  0  0  0  0  0
   68.5448   52.1863   56.1356 C   0  0  0  0  0  0  0  0  0  0  0  0
   71.9167   53.5161   57.2568 C   0  0  0  0  0  0  0  0  0  0  0  0
   70.5946   53.5786   56.5320 C   0  0  0  0  0  0  0  0  0  0  0  0
 21 22  1  0
 22 15  1  0
 15 16  2  0
 15 20  1  0
 16 17  1  0
 17 18  2  0
 18 14  1  0
 18 19  1  0
 14  1  1  0
  1  2  2  0
  1  3  1  0
  3  4  2  0
  3 10  1  0
  4  5  1  0
  5  6  1  0
  5  7  2  0
  7  8  1  0
  7  9  1  0
  9 11  1  0
  9 10  2  0
 11 12  2  0
 11 13  1  0
 19 20  2  0
M  CHG  2  11   1  13  -1
M  END
>  <minimizedAffinity>  (374) 
-8.76974

$$$$
cs_full_output_folder/data/smiles/1358.pdb
     RDKit          3D

 25 27  0  0  0  0  0  0  0  0999 V2000
   68.8491   42.1843   57.1145 C   0  0  0  0  0  0  0  0  0  0  0  0
   69.2955   43.4027   56.6546 C   0  0  0  0  0  0  0  0  0  0  0  0
   68.3198   43.9934   55.8550 C   0  0  0  0  0  0  0  0  0  0  0  0
   67.3010   43.0931   55.8612 N   0  0  0  0  0  0  0  0  0  0  0  0
   67.6223   42.0402   56.6002 N   0  0  0  0  0  0  0  0  0  0  0  0
   68.3919   45.2725   55.1803 C   0  0  0  0  0  0  0  0  0  0  0  0
   68.1345   45.3246   53.8394 C   0  0  0  0  0  0  0  0  0  0  0  0
   68.1878   46.5241   53.1341 C   0  0  0  0  0  0  0  0  0  0  0  0
   67.9271   46.5451   51.8037 F   0  0  0  0  0  0  0  0  0  0  0  0
   68.5098   47.6740   53.8233 C   0  0  0  0  0  0  0  0  0  0  0  0
   68.7655   47.6075   55.1658 C   0  0  0  0  0  0  0  0  0  0  0  0
   68.7129   46.4092   55.8730 C   0  0  0  0  0  0  0  0  0  0  0  0
   68.9850   46.4188   57.2365 O   0  0  0  0  0  0  0  0  0  0  0  0
   70.3187   41.7030   58.8778 O   0  0  0  0  0  0  0  0  0  0  0  0
   69.5689   41.2587   57.9766 C   0  0  0  0  0  0  0  0  0  0  0  0
   69.4543   39.8443   57.8352 N   0  0  0  0  0  0  0  0  0  0  0  0
   70.1498   38.9130   58.6685 C   0  0  0  0  0  0  0  0  0  0  0  0
   71.4900   38.4859   58.1847 C   0  0  0  0  0  0  0  0  0  0  0  0
   71.7273   37.0159   58.2608 C   0  0  0  0  0  0  0  0  0  0  0  0
   71.1014   36.3315   59.2725 C   0  0  0  0  0  0  0  0  0  0  0  0
   71.2741   34.9601   59.3939 C   0  0  0  0  0  0  0  0  0  0  0  0
   72.0810   34.3208   58.4804 C   0  0  0  0  0  0  0  0  0  0  0  0
   72.2538   32.9762   58.5941 F   0  0  0  0  0  0  0  0  0  0  0  0
   72.7091   35.0077   57.4638 C   0  0  0  0  0  0  0  0  0  0  0  0
   72.5250   36.3589   57.3636 C   0  0  0  0  0  0  0  0  0  0  0  0
 14 15  2  0
 15 16  1  0
 15  1  1  0
 16 17  1  0
 17 18  1  0
 18 19  1  0
 19 20  2  0
 19 25  1  0
 20 21  1  0
 21 22  2  0
 22 23  1  0
 22 24  1  0
 24 25  2  0
  1  2  2  0
  1  5  1  0
  2  3  1  0
  3  6  1  0
  3  4  2  0
  6  7  2  0
  6 12  1  0
  7  8  1  0
  8  9  1  0
  8 10  2  0
 10 11  1  0
 11 12  2  0
 12 13  1  0
  4  5  1  0
M  END
>  <minimizedAffinity>  (375) 
-8.76965

$$$$
cs_full_output_folder/data/smiles/888.pdb
     RDKit          3D

 24 27  0  0  0  0  0  0  0  0999 V2000
   70.7254   45.8792   58.1737 C   0  0  0  0  0  0  0  0  0  0  0  0
   71.7122   46.6727   58.7109 C   0  0  0  0  0  0  0  0  0  0  0  0
   71.8106   48.0142   58.4680 C   0  0  0  0  0  0  0  0  0  0  0  0
   70.8769   48.5927   57.6481 C   0  0  0  0  0  0  0  0  0  0  0  0
   69.8484   47.8512   57.0691 C   0  0  0  0  0  0  0  0  0  0  0  0
   69.7969   46.5100   57.3449 C   0  0  0  0  0  0  0  0  0  0  0  0
   71.1104   44.2525   60.7700 O   0  0  0  0  0  0  0  0  0  0  0  0
   71.0772   43.7807   59.6060 C   0  0  0  0  0  0  0  0  0  0  0  0
   71.4757   42.3951   59.2359 C   0  0  0  0  0  0  0  0  0  0  0  0
   70.9613   42.2540   57.8224 C   0  0  0  0  0  0  0  0  0  0  0  0
   70.1023   43.4932   57.5539 C   0  0  0  0  0  0  0  0  0  0  0  0
   70.6524   44.4903   58.4536 N   0  0  0  0  0  0  0  0  0  0  0  0
   68.9200   48.6010   56.1898 C   0  0  0  0  0  0  0  0  0  0  0  0
   69.3539   48.5553   54.7709 C   0  0  0  0  0  0  0  0  0  0  0  0
   70.2506   49.4828   54.3149 N   0  0  0  0  0  0  0  0  0  0  0  0
   70.6438   49.5445   53.0657 N   0  0  0  0  0  0  0  0  0  0  0  0
   70.1640   48.6714   52.1623 C   0  0  0  0  0  0  0  0  0  0  0  0
   70.5143   48.6965   50.9551 O   0  0  0  0  0  0  0  0  0  0  0  0
   69.2597   47.7049   52.5310 C   0  0  0  0  0  0  0  0  0  0  0  0
   68.7653   46.7904   51.6399 C   0  0  0  0  0  0  0  0  0  0  0  0
   67.8771   45.8230   52.0398 C   0  0  0  0  0  0  0  0  0  0  0  0
   67.4660   45.7554   53.3531 C   0  0  0  0  0  0  0  0  0  0  0  0
   67.9637   46.6777   54.2548 C   0  0  0  0  0  0  0  0  0  0  0  0
   68.8596   47.6586   53.8601 C   0  0  0  0  0  0  0  0  0  0  0  0
  7  8  2  0
  8  9  1  0
  8 12  1  0
  9 10  1  0
 10 11  1  0
 11 12  1  0
 12  1  1  0
  1  2  2  0
  1  6  1  0
  2  3  1  0
  3  4  2  0
  4  5  1  0
  5 13  1  0
  5  6  2  0
 13 14  1  0
 14 15  2  0
 14 24  1  0
 15 16  1  0
 16 17  1  0
 17 18  2  0
 17 19  1  0
 19 20  1  0
 19 24  2  0
 20 21  2  0
 21 22  1  0
 22 23  2  0
 23 24  1  0
M  END
>  <minimizedAffinity>  (376) 
-8.76900

$$$$
cs_full_output_folder/data/smiles/6890.pdb
     RDKit          3D

 23 25  0  0  0  0  0  0  0  0999 V2000
   71.0596   46.6832   58.3578 C   0  0  0  0  0  0  0  0  0  0  0  0
   70.1494   45.8399   57.5618 C   0  0  0  0  0  0  0  0  0  0  0  0
   69.3918   46.3952   56.5558 C   0  0  0  0  0  0  0  0  0  0  0  0
   68.5237   45.6072   55.7922 C   0  0  0  0  0  0  0  0  0  0  0  0
   68.4867   44.3002   56.1080 N   0  0  0  0  0  0  0  0  0  0  0  0
   69.2095   43.7350   57.0781 C   0  0  0  0  0  0  0  0  0  0  0  0
   70.0260   44.5214   57.7846 N   0  0  0  0  0  0  0  0  0  0  0  0
   69.0871   42.3026   57.3330 C   0  0  0  0  0  0  0  0  0  0  0  0
   68.0821   41.5401   56.7768 C   0  0  0  0  0  0  0  0  0  0  0  0
   67.9635   40.1858   57.0154 C   0  0  0  0  0  0  0  0  0  0  0  0
   68.8604   39.5315   57.8341 C   0  0  0  0  0  0  0  0  0  0  0  0
   69.8684   40.2884   58.3947 C   0  0  0  0  0  0  0  0  0  0  0  0
   69.9810   41.6443   58.1504 C   0  0  0  0  0  0  0  0  0  0  0  0
   67.7583   46.1680   54.7764 O   0  0  0  0  0  0  0  0  0  0  0  0
   68.4345   46.9345   53.8349 C   0  0  0  0  0  0  0  0  0  0  0  0
   68.7600   46.4148   52.5904 C   0  0  0  0  0  0  0  0  0  0  0  0
   69.4284   47.1512   51.6393 C   0  0  0  0  0  0  0  0  0  0  0  0
   69.7787   48.4394   51.9433 C   0  0  0  0  0  0  0  0  0  0  0  0
   69.4786   48.9993   53.1617 C   0  0  0  0  0  0  0  0  0  0  0  0
   68.8075   48.2361   54.0941 C   0  0  0  0  0  0  0  0  0  0  0  0
   69.8881   50.4029   53.4273 C   0  0  0  0  0  0  0  0  0  0  0  0
   71.0865   50.3941   54.3111 C   0  0  0  0  0  0  0  0  0  0  0  0
   72.1661   49.9905   53.8966 O   0  0  0  0  0  0  0  0  0  0  0  0
  1  2  1  0
  2  3  2  0
  2  7  1  0
  3  4  1  0
  4 14  1  0
  4  5  2  0
 14 15  1  0
 15 16  2  0
 15 20  1  0
 16 17  1  0
 17 18  2  0
 18 19  1  0
 19 21  1  0
 19 20  2  0
 21 22  1  0
 22 23  2  0
  5  6  1  0
  6  8  1  0
  6  7  2  0
  8  9  2  0
  8 13  1  0
  9 10  1  0
 10 11  2  0
 11 12  1  0
 12 13  2  0
M  END
>  <minimizedAffinity>  (377) 
-8.76845

$$$$
cs_full_output_folder/data/smiles/408.pdb
     RDKit          3D

 25 27  0  0  0  0  0  0  0  0999 V2000
   68.6022   47.7397   56.6399 C   0  0  0  0  0  0  0  0  0  0  0  0
   67.4308   47.5521   56.9808 O   0  0  0  0  0  0  0  0  0  0  0  0
   69.1115   48.0918   55.3393 C   0  0  0  0  0  0  0  0  0  0  0  0
   69.9900   49.1794   55.1967 C   0  0  0  0  0  0  0  0  0  0  0  0
   70.5114   49.5692   54.0027 C   0  0  0  0  0  0  0  0  0  0  0  0
   71.3066   50.5586   53.8914 O   0  0  0  0  0  0  0  0  0  0  0  0
   70.1709   48.8834   52.9108 N   0  0  0  0  0  0  0  0  0  0  0  0
   69.3350   47.8299   52.9659 C   0  0  0  0  0  0  0  0  0  0  0  0
   69.0150   47.1574   51.8141 C   0  0  0  0  0  0  0  0  0  0  0  0
   68.1746   46.0880   51.8250 C   0  0  0  0  0  0  0  0  0  0  0  0
   67.6366   45.6759   53.0170 C   0  0  0  0  0  0  0  0  0  0  0  0
   67.9510   46.3484   54.1967 C   0  0  0  0  0  0  0  0  0  0  0  0
   68.7900   47.4185   54.1939 C   0  0  0  0  0  0  0  0  0  0  0  0
   69.5254   47.5755   57.7072 O   0  0  0  0  0  0  0  0  0  0  0  0
   70.6057   46.6638   57.6239 C   0  0  0  0  0  0  0  0  0  0  0  0
   69.7759   44.9368   59.0525 O   0  0  0  0  0  0  0  0  0  0  0  0
   70.0655   45.3147   57.8984 C   0  0  0  0  0  0  0  0  0  0  0  0
   69.8447   44.3605   56.8402 N   0  0  0  0  0  0  0  0  0  0  0  0
   69.3270   43.0637   57.0884 C   0  0  0  0  0  0  0  0  0  0  0  0
   69.9042   42.1599   57.9350 C   0  0  0  0  0  0  0  0  0  0  0  0
   69.2994   40.9339   58.0879 C   0  0  0  0  0  0  0  0  0  0  0  0
   68.1419   40.5650   57.4333 C   0  0  0  0  0  0  0  0  0  0  0  0
   67.5954   41.4747   56.6068 N   0  0  0  0  0  0  0  0  0  0  0  0
   68.1643   42.6874   56.4353 C   0  0  0  0  0  0  0  0  0  0  0  0
   67.5754   43.5888   55.5809 F   0  0  0  0  0  0  0  0  0  0  0  0
 16 17  2  0
 17 15  1  0
 17 18  1  0
 15 14  1  0
 14  1  1  0
  1  2  2  0
  1  3  1  0
  3  4  2  0
  3 13  1  0
  4  5  1  0
  5  6  2  0
  5  7  1  0
  7  8  1  0
  8  9  1  0
  8 13  2  0
  9 10  2  0
 10 11  1  0
 11 12  2  0
 12 13  1  0
 18 19  1  0
 19 20  2  0
 19 24  1  0
 20 21  1  0
 21 22  2  0
 22 23  1  0
 23 24  2  0
 24 25  1  0
M  END
>  <minimizedAffinity>  (378) 
-8.76792

$$$$
cs_full_output_folder/data/smiles/142.pdb
     RDKit          3D

 24 27  0  0  0  0  0  0  0  0999 V2000
   69.6508   49.0982   56.2859 C   0  0  0  0  0  0  0  0  0  0  0  0
   70.5365   48.2106   50.9618 O   0  0  0  0  0  0  0  0  0  0  0  0
   70.3365   48.4093   52.1914 C   0  0  0  0  0  0  0  0  0  0  0  0
   71.0701   49.2696   52.9147 N   0  0  0  0  0  0  0  0  0  0  0  0
   70.8514   49.4702   54.1976 N   0  0  0  0  0  0  0  0  0  0  0  0
   69.8666   48.8171   54.8733 C   0  0  0  0  0  0  0  0  0  0  0  0
   69.0992   47.9294   54.1639 C   0  0  0  0  0  0  0  0  0  0  0  0
   69.3213   47.7109   52.8042 C   0  0  0  0  0  0  0  0  0  0  0  0
   68.5157   46.7681   52.0203 C   0  0  0  0  0  0  0  0  0  0  0  0
   68.0859   45.5721   52.8320 C   0  0  0  0  0  0  0  0  0  0  0  0
   67.6735   45.8524   54.2226 C   0  0  0  0  0  0  0  0  0  0  0  0
   68.0316   47.1717   54.8118 C   0  0  0  0  0  0  0  0  0  0  0  0
   70.5433   48.3726   57.2249 C   0  0  0  0  0  0  0  0  0  0  0  0
   71.8004   48.9031   57.5076 C   0  0  0  0  0  0  0  0  0  0  0  0
   72.6502   48.2446   58.3627 C   0  0  0  0  0  0  0  0  0  0  0  0
   72.2841   47.0548   58.9543 C   0  0  0  0  0  0  0  0  0  0  0  0
   71.0414   46.5366   58.6698 C   0  0  0  0  0  0  0  0  0  0  0  0
   70.1829   47.1956   57.8113 C   0  0  0  0  0  0  0  0  0  0  0  0
   70.6652   45.3016   59.2865 N   0  0  0  0  0  0  0  0  0  0  0  0
   70.3012   44.1945   58.4653 C   0  0  0  0  0  0  0  0  0  0  0  0
   70.9555   42.9842   58.4153 C   0  0  0  0  0  0  0  0  0  0  0  0
   70.2951   42.1916   57.5055 C   0  0  0  0  0  0  0  0  0  0  0  0
   69.2504   42.9503   57.0266 C   0  0  0  0  0  0  0  0  0  0  0  0
   69.2974   44.1148   57.6187 O   0  0  0  0  0  0  0  0  0  0  0  0
  2  3  2  0
  3  4  1  0
  3  8  1  0
  4  5  1  0
  5  6  2  0
  6  1  1  0
  6  7  1  0
  1 13  1  0
 13 14  2  0
 13 18  1  0
 14 15  1  0
 15 16  2  0
 16 17  1  0
 17 19  1  0
 17 18  2  0
 19 20  1  0
 20 21  2  0
 20 24  1  0
 21 22  1  0
 22 23  2  0
 23 24  1  0
  7  8  2  0
  7 12  1  0
  8  9  1  0
  9 10  1  0
 10 11  1  0
 11 12  1  0
M  END
>  <minimizedAffinity>  (379) 
-8.76664

$$$$
cs_full_output_folder/data/smiles/9259.pdb
     RDKit          3D

 24 27  0  0  0  0  0  0  0  0999 V2000
   68.8296   43.8791   56.8740 N   0  0  0  0  0  0  0  0  0  0  0  0
   68.2222   42.6059   56.8174 C   0  0  0  0  0  0  0  0  0  0  0  0
   67.3655   42.4356   55.9005 O   0  0  0  0  0  0  0  0  0  0  0  0
   68.5182   41.5014   57.7360 C   0  0  2  0  0  0  0  0  0  0  0  0
   68.1475   40.1421   57.1472 C   0  0  0  0  0  0  0  0  0  0  0  0
   68.3711   39.0720   58.1816 C   0  0  1  0  0  0  0  0  0  0  0  0
   69.8344   39.0179   58.5149 C   0  0  0  0  0  0  0  0  0  0  0  0
   70.2674   40.3632   59.0602 C   0  0  2  0  0  0  0  0  0  0  0  0
   69.5330   40.6750   60.3489 C   0  0  0  0  0  0  0  0  0  0  0  0
   68.0535   40.6271   60.0312 C   0  0  2  0  0  0  0  0  0  0  0  0
   67.6160   39.3068   59.4674 C   0  0  0  0  0  0  0  0  0  0  0  0
   67.7236   41.6849   59.0003 C   0  0  0  0  0  0  0  0  0  0  0  0
   70.0080   41.4158   58.0461 C   0  0  0  0  0  0  0  0  0  0  0  0
   69.5103   46.3719   57.5599 O   0  0  0  0  0  0  0  0  0  0  0  0
   68.9583   46.2425   56.4174 C   0  0  0  0  0  0  0  0  0  0  0  0
   68.5798   44.9524   56.0245 N   0  0  0  0  0  0  0  0  0  0  0  0
   68.7848   47.4940   55.6306 C   0  0  0  0  0  0  0  0  0  0  0  0
   68.7721   47.3154   54.1846 C   0  0  0  0  0  0  0  0  0  0  0  0
   69.5487   48.0652   53.3282 C   0  0  0  0  0  0  0  0  0  0  0  0
   69.4933   47.8312   51.9489 C   0  0  0  0  0  0  0  0  0  0  0  0
   68.6774   46.8613   51.4162 C   0  0  0  0  0  0  0  0  0  0  0  0
   67.9017   46.1099   52.2562 C   0  0  0  0  0  0  0  0  0  0  0  0
   67.0806   45.1354   51.7471 F   0  0  0  0  0  0  0  0  0  0  0  0
   67.9604   46.3462   53.6130 C   0  0  0  0  0  0  0  0  0  0  0  0
 14 15  2  0
 15 17  1  0
 15 16  1  0
 17 18  1  0
 18 19  2  0
 18 24  1  0
 19 20  1  0
 20 21  2  0
 21 22  1  0
 22 23  1  0
 22 24  2  0
 16  1  1  0
  1  2  1  0
  2  3  2  0
  4  2  1  6
  4  5  1  0
  4 12  1  0
  4 13  1  0
  6  5  1  6
  6  7  1  0
  6 11  1  0
  8  7  1  6
  8  9  1  0
  8 13  1  0
 10  9  1  6
 10 11  1  0
 10 12  1  0
M  END
>  <minimizedAffinity>  (380) 
-8.76651

$$$$
cs_full_output_folder/data/smiles/4943.pdb
     RDKit          3D

 24 25  0  0  0  0  0  0  0  0999 V2000
   70.2259   51.8757   54.3825 C   0  0  0  0  0  0  0  0  0  0  0  0
   70.2739   53.2902   56.3616 C   0  0  0  0  0  0  0  0  0  0  0  0
   70.2600   51.8639   55.8648 C   0  0  1  0  0  0  0  0  0  0  0  0
   69.2321   51.0440   56.4780 C   0  0  0  0  0  0  0  0  0  0  0  0
   69.4854   49.7018   56.7839 C   0  0  0  0  0  0  0  0  0  0  0  0
   68.5470   48.8949   57.3518 C   0  0  0  0  0  0  0  0  0  0  0  0
   68.7878   47.5298   57.6686 N   0  0  0  0  0  0  0  0  0  0  0  0
   67.2984   49.4027   57.6406 C   0  0  0  0  0  0  0  0  0  0  0  0
   66.3096   48.6639   58.2059 F   0  0  0  0  0  0  0  0  0  0  0  0
   66.9951   50.7325   57.3561 C   0  0  0  0  0  0  0  0  0  0  0  0
   65.7776   51.2305   57.6375 F   0  0  0  0  0  0  0  0  0  0  0  0
   67.9817   51.5341   56.7741 C   0  0  0  0  0  0  0  0  0  0  0  0
   69.7162   50.7889   53.7017 O   0  0  0  0  0  0  0  0  0  0  0  0
   70.2417   49.5715   53.4081 C   0  0  0  0  0  0  0  0  0  0  0  0
   71.4681   49.4345   53.4041 O   0  0  0  0  0  0  0  0  0  0  0  0
   69.4224   48.3884   53.0888 C   0  0  0  0  0  0  0  0  0  0  0  0
   68.7063   47.7102   54.0531 C   0  0  0  0  0  0  0  0  0  0  0  0
   67.9373   46.6007   53.7569 C   0  0  0  0  0  0  0  0  0  0  0  0
   67.8532   46.1175   52.4654 C   0  0  0  0  0  0  0  0  0  0  0  0
   68.5694   46.7942   51.4994 C   0  0  0  0  0  0  0  0  0  0  0  0
   69.3393   47.9059   51.8002 C   0  0  0  0  0  0  0  0  0  0  0  0
   67.0676   44.9752   52.1357 N   0  0  0  0  0  0  0  0  0  0  0  0
   66.7837   44.0868   52.9562 O   0  0  0  0  0  0  0  0  0  0  0  0
   66.6018   44.8477   50.8540 O   0  0  0  0  0  0  0  0  0  0  0  0
  3  2  1  1
  3  1  1  0
  3  4  1  0
  1 13  1  0
 13 14  1  0
 14 15  2  0
 14 16  1  0
 16 17  2  0
 16 21  1  0
 17 18  1  0
 18 19  2  0
 19 22  1  0
 19 20  1  0
 22 23  2  0
 22 24  1  0
 20 21  2  0
  4  5  2  0
  4 12  1  0
  5  6  1  0
  6  7  1  0
  6  8  2  0
  8  9  1  0
  8 10  1  0
 10 11  1  0
 10 12  2  0
M  CHG  2  22   1  24  -1
M  END
>  <minimizedAffinity>  (381) 
-8.76150

$$$$
cs_full_output_folder/data/smiles/728.pdb
     RDKit          3D

 25 28  0  0  0  0  0  0  0  0999 V2000
   71.1337   45.8515   58.1860 C   0  0  0  0  0  0  0  0  0  0  0  0
   70.0747   46.4570   57.4870 C   0  0  0  0  0  0  0  0  0  0  0  0
   70.0593   47.7849   57.2008 C   0  0  0  0  0  0  0  0  0  0  0  0
   71.1063   48.6076   57.5957 C   0  0  0  0  0  0  0  0  0  0  0  0
   72.1650   48.0630   58.2821 C   0  0  0  0  0  0  0  0  0  0  0  0
   72.1539   46.6908   58.5634 C   0  0  0  0  0  0  0  0  0  0  0  0
   73.2123   46.1903   59.2434 F   0  0  0  0  0  0  0  0  0  0  0  0
   73.0361   43.2555   57.3375 C   0  0  0  0  0  0  0  0  0  0  0  0
   72.0151   43.3207   58.4228 C   0  0  2  0  0  0  0  0  0  0  0  0
   70.7453   42.5081   58.1259 C   0  0  0  0  0  0  0  0  0  0  0  0
   70.1285   43.5845   58.9615 C   0  0  0  0  0  0  0  0  0  0  0  0
   69.1844   43.7398   59.7486 O   0  0  0  0  0  0  0  0  0  0  0  0
   71.1345   44.4579   58.4653 N   0  0  0  0  0  0  0  0  0  0  0  0
   68.9728   48.4576   56.4635 C   0  0  0  0  0  0  0  0  0  0  0  0
   69.2990   48.4751   55.0247 C   0  0  0  0  0  0  0  0  0  0  0  0
   70.1728   49.4572   54.6086 N   0  0  0  0  0  0  0  0  0  0  0  0
   70.5710   49.5395   53.3572 N   0  0  0  0  0  0  0  0  0  0  0  0
   70.1592   48.6895   52.4140 C   0  0  0  0  0  0  0  0  0  0  0  0
   70.5641   48.8012   51.2201 O   0  0  0  0  0  0  0  0  0  0  0  0
   69.2745   47.6678   52.7453 C   0  0  0  0  0  0  0  0  0  0  0  0
   68.8239   46.7819   51.7881 C   0  0  0  0  0  0  0  0  0  0  0  0
   67.9378   45.7931   52.1515 C   0  0  0  0  0  0  0  0  0  0  0  0
   67.5356   45.7276   53.4599 C   0  0  0  0  0  0  0  0  0  0  0  0
   67.9854   46.6111   54.4162 C   0  0  0  0  0  0  0  0  0  0  0  0
   68.8741   47.6083   54.0778 C   0  0  0  0  0  0  0  0  0  0  0  0
  9  8  1  6
  9 10  1  0
  9 13  1  0
 10 11  1  0
 11 12  2  0
 11 13  1  0
 13  1  1  0
  1  2  2  0
  1  6  1  0
  2  3  1  0
  3 14  1  0
  3  4  2  0
 14 15  1  0
 15 16  2  0
 15 25  1  0
 16 17  1  0
 17 18  1  0
 18 19  2  0
 18 20  1  0
 20 21  1  0
 20 25  2  0
 21 22  2  0
 22 23  1  0
 23 24  2  0
 24 25  1  0
  4  5  1  0
  5  6  2  0
  6  7  1  0
M  END
>  <minimizedAffinity>  (382) 
-8.76118

$$$$
cs_full_output_folder/data/smiles/3503.pdb
     RDKit          3D

 23 25  0  0  0  0  0  0  0  0999 V2000
   69.6699   47.2309   57.5441 O   0  0  0  0  0  0  0  0  0  0  0  0
   69.2456   46.8429   56.4251 C   0  0  0  0  0  0  0  0  0  0  0  0
   68.5920   45.6472   56.3783 N   0  0  0  0  0  0  0  0  0  0  0  0
   68.1226   45.2011   55.1887 C   0  0  0  0  0  0  0  0  0  0  0  0
   67.5225   44.0991   55.1550 O   0  0  0  0  0  0  0  0  0  0  0  0
   68.3239   45.9769   54.0538 C   0  0  0  0  0  0  0  0  0  0  0  0
   67.8685   45.5131   52.8440 C   0  0  0  0  0  0  0  0  0  0  0  0
   68.0942   46.2843   51.7174 C   0  0  0  0  0  0  0  0  0  0  0  0
   68.7552   47.4864   51.7950 C   0  0  0  0  0  0  0  0  0  0  0  0
   69.2245   47.9789   53.0040 C   0  0  0  0  0  0  0  0  0  0  0  0
   68.9921   47.1968   54.1110 C   0  0  0  0  0  0  0  0  0  0  0  0
   69.4262   47.5734   55.3143 N   0  0  0  0  0  0  0  0  0  0  0  0
   69.9887   49.5245   53.0419 S   0  0  0  0  0  0  0  0  0  0  0  0
   71.4902   49.4062   53.2236 O   0  0  0  0  0  0  0  0  0  0  0  0
   69.8665   50.1421   51.6471 O   0  0  0  0  0  0  0  0  0  0  0  0
   69.2882   50.5902   54.1458 N   0  0  0  0  0  0  0  0  0  0  0  0
   69.4515   50.7389   55.5215 C   0  0  0  0  0  0  0  0  0  0  0  0
   70.6325   50.3904   56.1223 C   0  0  0  0  0  0  0  0  0  0  0  0
   70.7825   50.4981   57.4831 C   0  0  0  0  0  0  0  0  0  0  0  0
   69.7515   50.9544   58.2505 C   0  0  0  0  0  0  0  0  0  0  0  0
   68.5387   51.3189   57.6934 C   0  0  0  0  0  0  0  0  0  0  0  0
   68.4219   51.1964   56.3099 C   0  0  0  0  0  0  0  0  0  0  0  0
   67.2152   51.5644   55.7977 F   0  0  0  0  0  0  0  0  0  0  0  0
  1  2  2  0
  2  3  1  0
  2 12  1  0
  3  4  1  0
  4  5  2  0
  4  6  1  0
  6  7  1  0
  6 11  2  0
  7  8  2  0
  8  9  1  0
  9 10  2  0
 10 13  1  0
 10 11  1  0
 13 14  2  0
 13 15  2  0
 13 16  1  0
 16 17  1  0
 17 18  2  0
 17 22  1  0
 18 19  1  0
 19 20  2  0
 20 21  1  0
 21 22  2  0
 22 23  1  0
 11 12  1  0
M  END
>  <minimizedAffinity>  (383) 
-8.76117

$$$$
cs_full_output_folder/data/smiles/651.pdb
     RDKit          3D

 21 23  0  0  0  0  0  0  0  0999 V2000
   69.4673   48.2660   53.9842 C   0  0  0  0  0  0  0  0  0  0  0  0
   69.2163   48.0651   55.3533 C   0  0  0  0  0  0  0  0  0  0  0  0
   68.3402   47.1340   55.8016 C   0  0  0  0  0  0  0  0  0  0  0  0
   68.1614   47.0048   57.0444 O   0  0  0  0  0  0  0  0  0  0  0  0
   67.6907   46.3827   54.9754 O   0  0  0  0  0  0  0  0  0  0  0  0
   67.8538   46.4896   53.6771 C   0  0  0  0  0  0  0  0  0  0  0  0
   67.1599   45.6870   52.8486 N   0  0  0  0  0  0  0  0  0  0  0  0
   67.3029   45.7633   51.5092 C   0  0  0  0  0  0  0  0  0  0  0  0
   66.6302   44.9880   50.7748 O   0  0  0  0  0  0  0  0  0  0  0  0
   68.1644   46.6696   51.0103 N   0  0  0  0  0  0  0  0  0  0  0  0
   68.8790   47.4973   51.8141 C   0  0  0  0  0  0  0  0  0  0  0  0
   69.6787   48.3334   51.3331 O   0  0  0  0  0  0  0  0  0  0  0  0
   68.7312   47.4183   53.1595 C   0  0  0  0  0  0  0  0  0  0  0  0
   70.3736   49.3100   53.5162 C   0  0  0  0  0  0  0  0  0  0  0  0
   70.8922   50.2570   54.5438 C   0  0  0  0  0  0  0  0  0  0  0  0
   70.0087   51.4953   54.5408 C   0  0  0  0  0  0  0  0  0  0  0  0
   69.5838   51.9249   55.9216 C   0  0  1  0  0  0  0  0  0  0  0  0
   70.5989   51.9781   56.9844 C   0  0  0  0  0  0  0  0  0  0  0  0
   70.1310   53.6288   56.3316 S   0  0  0  0  0  0  0  0  0  0  0  0
   67.8391   50.8438   57.3713 C   0  0  0  0  0  0  0  0  0  0  0  0
   68.1266   51.7101   56.1930 C   0  0  0  0  0  0  0  0  0  0  0  0
 20 21  1  0
 17 21  1  1
 17 16  1  0
 17 18  1  0
 17 19  1  0
 16 15  1  0
 15 14  1  0
 14  1  1  0
  1  2  2  0
  1 13  1  0
  2  3  1  0
  3  4  2  0
  3  5  1  0
  5  6  1  0
  6  7  1  0
  6 13  2  0
  7  8  1  0
  8  9  2  0
  8 10  1  0
 10 11  1  0
 11 12  2  0
 11 13  1  0
 18 19  1  0
M  END
>  <minimizedAffinity>  (384) 
-8.76008

$$$$
cs_full_output_folder/data/smiles/7932.pdb
     RDKit          3D

 24 26  0  0  0  0  0  0  0  0999 V2000
   71.3053   46.7419   58.8684 C   0  0  0  0  0  0  0  0  0  0  0  0
   70.4565   47.5787   58.1188 C   0  0  0  0  0  0  0  0  0  0  0  0
   69.6177   47.1054   57.1571 C   0  0  0  0  0  0  0  0  0  0  0  0
   69.6494   45.7140   56.9552 C   0  0  0  0  0  0  0  0  0  0  0  0
   70.4718   44.8818   57.6775 C   0  0  0  0  0  0  0  0  0  0  0  0
   71.3110   45.4030   58.6462 C   0  0  0  0  0  0  0  0  0  0  0  0
   72.0911   44.5183   59.3013 F   0  0  0  0  0  0  0  0  0  0  0  0
   73.6244   48.5098   61.9431 O   0  0  0  0  0  0  0  0  0  0  0  0
   74.0263   48.6814   60.7774 C   0  0  0  0  0  0  0  0  0  0  0  0
   73.3060   48.1167   59.6542 N   0  0  0  0  0  0  0  0  0  0  0  0
   72.1371   47.3528   59.8776 C   0  0  0  0  0  0  0  0  0  0  0  0
   71.8078   47.2011   61.0992 O   0  0  0  0  0  0  0  0  0  0  0  0
   68.7030   47.9256   56.3302 C   0  0  0  0  0  0  0  0  0  0  0  0
   69.2048   48.0603   54.9833 C   0  0  0  0  0  0  0  0  0  0  0  0
   70.1732   49.0028   54.7595 N   0  0  0  0  0  0  0  0  0  0  0  0
   70.6562   49.2401   53.5433 N   0  0  0  0  0  0  0  0  0  0  0  0
   70.2342   48.5832   52.4626 C   0  0  0  0  0  0  0  0  0  0  0  0
   70.6660   48.7807   51.3017 O   0  0  0  0  0  0  0  0  0  0  0  0
   69.2633   47.6214   52.6163 C   0  0  0  0  0  0  0  0  0  0  0  0
   68.7870   46.8824   51.5541 C   0  0  0  0  0  0  0  0  0  0  0  0
   67.8269   45.8935   51.6750 C   0  0  0  0  0  0  0  0  0  0  0  0
   67.3482   45.6672   52.9442 C   0  0  0  0  0  0  0  0  0  0  0  0
   67.8045   46.3954   54.0423 C   0  0  0  0  0  0  0  0  0  0  0  0
   68.7682   47.3807   53.8773 C   0  0  0  0  0  0  0  0  0  0  0  0
  8  9  2  0
  9 10  1  0
 10 11  1  0
 11 12  2  0
 11  1  1  0
  1  2  2  0
  1  6  1  0
  2  3  1  0
  3 13  1  0
  3  4  2  0
 13 14  1  0
 14 15  2  0
 14 24  1  0
 15 16  1  0
 16 17  1  0
 17 18  2  0
 17 19  1  0
 19 20  1  0
 19 24  2  0
 20 21  2  0
 21 22  1  0
 22 23  2  0
 23 24  1  0
  4  5  1  0
  5  6  2  0
  6  7  1  0
M  END
>  <minimizedAffinity>  (385) 
-8.75733

$$$$
cs_full_output_folder/data/smiles/7201.pdb
     RDKit          3D

 23 24  0  0  0  0  0  0  0  0999 V2000
   68.4279   42.5789   56.5608 C   0  0  1  0  0  0  0  0  0  0  0  0
   67.4133   41.4794   56.3912 C   0  0  0  0  0  0  0  0  0  0  0  0
   66.6000   41.4198   57.5514 F   0  0  0  0  0  0  0  0  0  0  0  0
   67.9793   40.2221   56.3231 F   0  0  0  0  0  0  0  0  0  0  0  0
   66.5843   41.6634   55.3087 F   0  0  0  0  0  0  0  0  0  0  0  0
   67.8721   43.8476   56.3477 N   0  0  0  0  0  0  0  0  0  0  0  0
   68.2477   46.5537   56.4453 O   0  0  0  0  0  0  0  0  0  0  0  0
   68.4025   45.9739   55.3188 C   0  0  0  0  0  0  0  0  0  0  0  0
   68.2053   44.5819   55.2612 N   0  0  0  0  0  0  0  0  0  0  0  0
   68.7785   46.7879   54.1442 C   0  0  0  0  0  0  0  0  0  0  0  0
   68.6131   46.3550   52.8559 C   0  0  0  0  0  0  0  0  0  0  0  0
   68.9862   47.1679   51.7740 C   0  0  0  0  0  0  0  0  0  0  0  0
   69.5285   48.4209   51.9559 C   0  0  0  0  0  0  0  0  0  0  0  0
   69.6926   48.8483   53.2597 C   0  0  0  0  0  0  0  0  0  0  0  0
   69.3267   48.0521   54.3250 C   0  0  0  0  0  0  0  0  0  0  0  0
   69.1563   42.3774   57.8741 C   0  0  0  0  0  0  0  0  0  0  0  0
   70.5126   42.9532   57.8450 C   0  0  0  0  0  0  0  0  0  0  0  0
   71.6054   42.1809   57.5763 C   0  0  0  0  0  0  0  0  0  0  0  0
   72.8880   42.7183   57.5548 C   0  0  0  0  0  0  0  0  0  0  0  0
   73.0089   44.0607   57.8149 C   0  0  0  0  0  0  0  0  0  0  0  0
   74.2413   44.6485   57.8090 F   0  0  0  0  0  0  0  0  0  0  0  0
   71.9229   44.8472   58.0862 C   0  0  0  0  0  0  0  0  0  0  0  0
   70.6665   44.2889   58.1013 C   0  0  0  0  0  0  0  0  0  0  0  0
  7  8  2  0
  8  9  1  0
  8 10  1  0
  9  6  1  0
  6  1  1  0
  1 16  1  1
  1  2  1  0
 16 17  1  0
 17 18  2  0
 17 23  1  0
 18 19  1  0
 19 20  2  0
 20 21  1  0
 20 22  1  0
 22 23  2  0
  2  3  1  0
  2  4  1  0
  2  5  1  0
 10 11  2  0
 10 15  1  0
 11 12  1  0
 12 13  2  0
 13 14  1  0
 14 15  2  0
M  END
>  <minimizedAffinity>  (386) 
-8.75606

$$$$
cs_full_output_folder/data/smiles/2539.pdb
     RDKit          3D

 24 25  0  0  0  0  0  0  0  0999 V2000
   69.9408   50.2109   52.9605 N   0  0  0  0  0  0  0  0  0  0  0  0
   70.7678   50.4308   54.0840 C   0  0  0  0  0  0  0  0  0  0  0  0
   71.5287   49.4936   54.4274 O   0  0  0  0  0  0  0  0  0  0  0  0
   70.7468   51.6888   54.8193 C   0  0  0  0  0  0  0  0  0  0  0  0
   71.9037   52.4826   54.8703 C   0  0  0  0  0  0  0  0  0  0  0  0
   71.9078   53.6470   55.5507 N   0  0  0  0  0  0  0  0  0  0  0  0
   70.8443   54.1256   56.2118 C   0  0  0  0  0  0  0  0  0  0  0  0
   69.7044   53.3736   56.1772 C   0  0  0  0  0  0  0  0  0  0  0  0
   69.6398   52.1645   55.4918 C   0  0  0  0  0  0  0  0  0  0  0  0
   68.3988   51.3601   55.4878 C   0  0  0  0  0  0  0  0  0  0  0  0
   67.5851   51.8454   56.5300 F   0  0  0  0  0  0  0  0  0  0  0  0
   67.7064   51.5438   54.3252 F   0  0  0  0  0  0  0  0  0  0  0  0
   68.5972   50.0309   55.8237 F   0  0  0  0  0  0  0  0  0  0  0  0
   70.5075   48.9715   51.0735 N   0  0  0  0  0  0  0  0  0  0  0  0
   69.9126   49.0275   52.1755 C   0  0  0  0  0  0  0  0  0  0  0  0
   69.1487   47.8375   52.6285 C   0  0  0  0  0  0  0  0  0  0  0  0
   68.5657   46.9871   51.7272 C   0  0  0  0  0  0  0  0  0  0  0  0
   67.8658   45.8726   52.2117 C   0  0  0  0  0  0  0  0  0  0  0  0
   67.7590   45.6238   53.5666 C   0  0  0  0  0  0  0  0  0  0  0  0
   68.3562   46.4915   54.4724 C   0  0  0  0  0  0  0  0  0  0  0  0
   69.0260   47.5638   53.9714 C   0  0  0  0  0  0  0  0  0  0  0  0
   68.2677   46.2495   55.8728 N   0  0  0  0  0  0  0  0  0  0  0  0
   68.5597   45.0929   56.2950 O   0  0  0  0  0  0  0  0  0  0  0  0
   67.8872   47.2017   56.7712 O   0  0  0  0  0  0  0  0  0  0  0  0
 14 15  2  0
 15  1  1  0
 15 16  1  0
  1  2  1  0
  2  3  2  0
  2  4  1  0
  4  5  2  0
  4  9  1  0
  5  6  1  0
  6  7  2  0
  7  8  1  0
  8  9  2  0
  9 10  1  0
 10 11  1  0
 10 12  1  0
 10 13  1  0
 16 17  2  0
 16 21  1  0
 17 18  1  0
 18 19  2  0
 19 20  1  0
 20 22  1  0
 20 21  2  0
 22 23  2  0
 22 24  1  0
M  CHG  3  14   1  22   1  24  -1
M  END
>  <minimizedAffinity>  (387) 
-8.75467

$$$$
cs_full_output_folder/data/smiles/4598.pdb
     RDKit          3D

 24 27  0  0  0  0  0  0  0  0999 V2000
   70.2872   45.5621   57.9005 C   0  0  0  0  0  0  0  0  0  0  0  0
   71.4523   45.8738   58.5068 C   0  0  0  0  0  0  0  0  0  0  0  0
   72.0310   47.1319   58.4515 C   0  0  0  0  0  0  0  0  0  0  0  0
   71.4104   48.1438   57.7460 C   0  0  0  0  0  0  0  0  0  0  0  0
   70.2261   47.8825   57.1122 C   0  0  0  0  0  0  0  0  0  0  0  0
   69.6748   46.6030   57.1919 C   0  0  0  0  0  0  0  0  0  0  0  0
   71.4160   42.9856   57.4301 O   0  0  0  0  0  0  0  0  0  0  0  0
   70.1957   43.0564   57.6643 C   0  0  0  0  0  0  0  0  0  0  0  0
   69.6224   44.3214   57.8992 N   0  0  0  0  0  0  0  0  0  0  0  0
   69.3825   41.8534   57.6930 C   0  0  0  0  0  0  0  0  0  0  0  0
   68.1503   41.2583   57.2833 C   0  0  0  0  0  0  0  0  0  0  0  0
   69.0904   40.4546   58.0595 C   0  0  0  0  0  0  0  0  0  0  0  0
   69.5251   48.9533   56.3554 C   0  0  0  0  0  0  0  0  0  0  0  0
   69.7398   48.7464   54.9055 C   0  0  0  0  0  0  0  0  0  0  0  0
   70.8045   49.4040   54.3269 N   0  0  0  0  0  0  0  0  0  0  0  0
   71.1278   49.2684   53.0598 N   0  0  0  0  0  0  0  0  0  0  0  0
   70.3910   48.4487   52.2714 C   0  0  0  0  0  0  0  0  0  0  0  0
   70.7302   48.3455   51.0723 O   0  0  0  0  0  0  0  0  0  0  0  0
   69.3155   47.7574   52.7664 C   0  0  0  0  0  0  0  0  0  0  0  0
   69.0046   47.9281   54.1129 C   0  0  0  0  0  0  0  0  0  0  0  0
   67.8247   47.2153   54.6037 C   0  0  0  0  0  0  0  0  0  0  0  0
   67.9080   45.7875   54.0749 C   0  0  0  0  0  0  0  0  0  0  0  0
   67.9294   45.7033   52.5888 C   0  0  0  0  0  0  0  0  0  0  0  0
   68.5518   46.8759   51.8822 C   0  0  0  0  0  0  0  0  0  0  0  0
  7  8  2  0
  8  9  1  0
  8 10  1  0
  9  1  1  0
  1  2  2  0
  1  6  1  0
  2  3  1  0
  3  4  2  0
  4  5  1  0
  5 13  1  0
  5  6  2  0
 13 14  1  0
 14 15  2  0
 14 20  1  0
 15 16  1  0
 16 17  1  0
 17 18  2  0
 17 19  1  0
 19 20  2  0
 19 24  1  0
 20 21  1  0
 21 22  1  0
 22 23  1  0
 23 24  1  0
 10 11  2  0
 10 12  1  0
 11 12  1  0
M  END
>  <minimizedAffinity>  (388) 
-8.75467

$$$$
cs_full_output_folder/data/smiles/6560.pdb
     RDKit          3D

 25 27  0  0  0  0  0  0  0  0999 V2000
   72.5615   50.5485   55.4276 C   0  0  0  0  0  0  0  0  0  0  0  0
   73.0986   52.9484   56.0719 C   0  0  0  0  0  0  0  0  0  0  0  0
   73.5080   51.6705   55.4673 C   0  0  1  0  0  0  0  0  0  0  0  0
   74.7535   51.1411   56.0332 N   0  0  0  0  0  0  0  0  0  0  0  0
   75.5484   50.1559   55.4338 C   0  0  0  0  0  0  0  0  0  0  0  0
   75.1338   49.7078   54.3218 O   0  0  0  0  0  0  0  0  0  0  0  0
   76.7847   49.6341   56.0008 C   0  0  0  0  0  0  0  0  0  0  0  0
   76.8973   49.4571   57.3634 C   0  0  0  0  0  0  0  0  0  0  0  0
   78.0729   48.9575   57.9347 C   0  0  0  0  0  0  0  0  0  0  0  0
   79.1353   48.6368   57.1340 C   0  0  0  0  0  0  0  0  0  0  0  0
   80.2928   48.1468   57.6742 F   0  0  0  0  0  0  0  0  0  0  0  0
   79.0535   48.8010   55.7835 C   0  0  0  0  0  0  0  0  0  0  0  0
   77.8811   49.2964   55.2446 C   0  0  0  0  0  0  0  0  0  0  0  0
   71.1288   50.7529   55.2208 C   0  0  0  0  0  0  0  0  0  0  0  0
   70.4972   49.7156   54.3892 C   0  0  0  0  0  0  0  0  0  0  0  0
   69.7181   48.7275   54.8214 N   0  0  0  0  0  0  0  0  0  0  0  0
   69.1521   47.7882   54.0477 C   0  0  0  0  0  0  0  0  0  0  0  0
   68.3473   46.7788   54.5551 C   0  0  0  0  0  0  0  0  0  0  0  0
   67.7682   45.8170   53.7548 C   0  0  0  0  0  0  0  0  0  0  0  0
   67.9941   45.8533   52.3992 C   0  0  0  0  0  0  0  0  0  0  0  0
   68.8042   46.8681   51.8766 C   0  0  0  0  0  0  0  0  0  0  0  0
   69.3741   47.8219   52.6955 C   0  0  0  0  0  0  0  0  0  0  0  0
   70.1777   48.8334   52.2131 C   0  0  0  0  0  0  0  0  0  0  0  0
   70.3844   48.8684   50.9728 O   0  0  0  0  0  0  0  0  0  0  0  0
   70.7157   49.7449   53.0403 N   0  0  0  0  0  0  0  0  0  0  0  0
  3  2  1  1
  3  1  1  0
  3  4  1  0
  1 14  1  0
 14 15  1  0
 15 16  2  0
 15 25  1  0
 16 17  1  0
 17 18  2  0
 17 22  1  0
 18 19  1  0
 19 20  2  0
 20 21  1  0
 21 22  2  0
 22 23  1  0
 23 24  2  0
 23 25  1  0
  4  5  1  0
  5  6  2  0
  5  7  1  0
  7  8  2  0
  7 13  1  0
  8  9  1  0
  9 10  2  0
 10 11  1  0
 10 12  1  0
 12 13  2  0
M  END
>  <minimizedAffinity>  (389) 
-8.75414

$$$$
cs_full_output_folder/data/smiles/8292.pdb
     RDKit          3D

 23 25  0  0  0  0  0  0  0  0999 V2000
   69.5649   48.5462   54.8316 C   0  0  0  0  0  0  0  0  0  0  0  0
   70.4369   49.4526   54.3454 N   0  0  0  0  0  0  0  0  0  0  0  0
   70.7485   49.5200   53.0641 N   0  0  0  0  0  0  0  0  0  0  0  0
   70.2157   48.6869   52.1475 C   0  0  0  0  0  0  0  0  0  0  0  0
   70.5137   48.7522   50.9248 O   0  0  0  0  0  0  0  0  0  0  0  0
   69.3123   47.7306   52.5725 C   0  0  0  0  0  0  0  0  0  0  0  0
   68.7421   46.8508   51.6492 C   0  0  0  0  0  0  0  0  0  0  0  0
   67.8431   45.8965   52.0611 C   0  0  0  0  0  0  0  0  0  0  0  0
   67.5358   45.8487   53.4077 C   0  0  0  0  0  0  0  0  0  0  0  0
   68.1052   46.7242   54.3189 C   0  0  0  0  0  0  0  0  0  0  0  0
   67.7993   46.6730   55.6468 F   0  0  0  0  0  0  0  0  0  0  0  0
   69.0060   47.6809   53.9061 C   0  0  0  0  0  0  0  0  0  0  0  0
   69.2381   48.4729   56.1653 O   0  0  0  0  0  0  0  0  0  0  0  0
   70.0249   48.5931   57.2805 C   0  0  0  0  0  0  0  0  0  0  0  0
   70.5654   45.0183   58.1044 C   0  0  0  0  0  0  0  0  0  0  0  0
   71.4833   45.1137   59.1301 C   0  0  0  0  0  0  0  0  0  0  0  0
   71.9471   46.3311   59.5731 C   0  0  0  0  0  0  0  0  0  0  0  0
   71.4391   47.4637   58.9302 C   0  0  0  0  0  0  0  0  0  0  0  0
   70.5225   47.3706   57.9063 C   0  0  0  0  0  0  0  0  0  0  0  0
   70.0660   46.1332   57.4718 C   0  0  0  0  0  0  0  0  0  0  0  0
   71.0310   42.5057   57.7895 C   0  0  0  0  0  0  0  0  0  0  0  0
   70.1470   43.6787   57.7192 C   0  0  0  0  0  0  0  0  0  0  0  0
   68.9707   43.5267   57.3077 O   0  0  0  0  0  0  0  0  0  0  0  0
 21 22  1  0
 22 23  2  0
 22 15  1  0
 15 16  2  0
 15 20  1  0
 16 17  1  0
 17 18  2  0
 18 19  1  0
 19 14  1  0
 19 20  2  0
 14 13  1  0
 13  1  1  0
  1  2  2  0
  1 12  1  0
  2  3  1  0
  3  4  1  0
  4  5  2  0
  4  6  1  0
  6  7  1  0
  6 12  2  0
  7  8  2  0
  8  9  1  0
  9 10  2  0
 10 11  1  0
 10 12  1  0
M  END
>  <minimizedAffinity>  (390) 
-8.75271

$$$$
cs_full_output_folder/data/smiles/1805.pdb
     RDKit          3D

 24 26  0  0  0  0  0  0  0  0999 V2000
   71.4050   46.9532   58.8531 C   0  0  0  0  0  0  0  0  0  0  0  0
   70.6176   47.7622   58.0730 C   0  0  0  0  0  0  0  0  0  0  0  0
   69.7444   47.1900   57.1353 C   0  0  0  0  0  0  0  0  0  0  0  0
   69.7234   45.8428   57.0449 C   0  0  0  0  0  0  0  0  0  0  0  0
   70.5191   45.0454   57.8359 C   0  0  0  0  0  0  0  0  0  0  0  0
   71.3894   45.5686   58.7684 C   0  0  0  0  0  0  0  0  0  0  0  0
   72.1775   44.8115   59.5557 F   0  0  0  0  0  0  0  0  0  0  0  0
   74.5202   48.6538   60.3127 C   0  0  0  0  0  0  0  0  0  0  0  0
   73.5735   48.0470   59.3986 N   0  0  0  0  0  0  0  0  0  0  0  0
   73.9591   47.9578   58.0119 C   0  0  0  0  0  0  0  0  0  0  0  0
   72.3207   47.5559   59.8349 C   0  0  0  0  0  0  0  0  0  0  0  0
   72.0314   47.6521   61.0439 O   0  0  0  0  0  0  0  0  0  0  0  0
   68.9549   48.1654   56.3293 C   0  0  0  0  0  0  0  0  0  0  0  0
   69.4229   48.2655   54.9174 C   0  0  0  0  0  0  0  0  0  0  0  0
   70.3758   49.1804   54.5843 N   0  0  0  0  0  0  0  0  0  0  0  0
   70.7662   49.3168   53.3351 N   0  0  0  0  0  0  0  0  0  0  0  0
   70.2841   48.6014   52.3283 C   0  0  0  0  0  0  0  0  0  0  0  0
   70.6515   48.7237   51.1182 O   0  0  0  0  0  0  0  0  0  0  0  0
   69.3190   47.6557   52.5885 C   0  0  0  0  0  0  0  0  0  0  0  0
   68.7823   46.8655   51.5947 C   0  0  0  0  0  0  0  0  0  0  0  0
   67.8292   45.9246   51.9131 C   0  0  0  0  0  0  0  0  0  0  0  0
   67.3902   45.7409   53.1920 C   0  0  0  0  0  0  0  0  0  0  0  0
   67.9420   46.5453   54.1816 C   0  0  0  0  0  0  0  0  0  0  0  0
   68.8988   47.5016   53.8981 C   0  0  0  0  0  0  0  0  0  0  0  0
  8  9  1  0
  9 10  1  0
  9 11  1  0
 11 12  2  0
 11  1  1  0
  1  2  2  0
  1  6  1  0
  2  3  1  0
  3 13  1  0
  3  4  2  0
 13 14  1  0
 14 15  2  0
 14 24  1  0
 15 16  1  0
 16 17  1  0
 17 18  2  0
 17 19  1  0
 19 20  1  0
 19 24  2  0
 20 21  2  0
 21 22  1  0
 22 23  2  0
 23 24  1  0
  4  5  1  0
  5  6  2  0
  6  7  1  0
M  END
>  <minimizedAffinity>  (391) 
-8.75225

$$$$
cs_full_output_folder/data/smiles/1093.pdb
     RDKit          3D

 23 25  0  0  0  0  0  0  0  0999 V2000
   69.5311   47.6910   57.4431 O   0  0  0  0  0  0  0  0  0  0  0  0
   69.7033   46.4410   57.4718 C   0  0  0  0  0  0  0  0  0  0  0  0
   68.8515   45.7889   56.5079 N   0  0  0  0  0  0  0  0  0  0  0  0
   70.5703   45.6635   58.2788 C   0  0  0  0  0  0  0  0  0  0  0  0
   69.9130   44.9422   59.1704 O   0  0  0  0  0  0  0  0  0  0  0  0
   71.9878   45.4731   58.3590 C   0  0  0  0  0  0  0  0  0  0  0  0
   72.9281   46.5018   58.6418 C   0  0  0  0  0  0  0  0  0  0  0  0
   74.1543   45.9888   58.6541 N   0  0  0  0  0  0  0  0  0  0  0  0
   74.1287   44.6779   58.3983 C   0  0  0  0  0  0  0  0  0  0  0  0
   75.1298   43.7491   58.3086 C   0  0  0  0  0  0  0  0  0  0  0  0
   74.8083   42.4434   58.0260 C   0  0  0  0  0  0  0  0  0  0  0  0
   73.5010   42.0887   57.8380 C   0  0  0  0  0  0  0  0  0  0  0  0
   72.4923   43.0388   57.9316 C   0  0  0  0  0  0  0  0  0  0  0  0
   72.7766   44.3602   58.2149 C   0  0  0  0  0  0  0  0  0  0  0  0
   67.9787   46.5347   55.6912 N   0  0  0  0  0  0  0  0  0  0  0  0
   68.3046   46.8046   54.3372 C   0  0  0  0  0  0  0  0  0  0  0  0
   69.0393   47.8094   53.9541 C   0  0  0  0  0  0  0  0  0  0  0  0
   69.4451   47.7596   52.7135 C   0  0  0  0  0  0  0  0  0  0  0  0
   68.6493   46.6948   52.1102 C   0  0  0  0  0  0  0  0  0  0  0  0
   67.9558   46.1160   53.1006 C   0  0  0  0  0  0  0  0  0  0  0  0
   70.4451   48.5770   52.1159 N   0  0  0  0  0  0  0  0  0  0  0  0
   70.5244   48.8188   50.8970 O   0  0  0  0  0  0  0  0  0  0  0  0
   71.3991   49.1489   52.9208 O   0  0  0  0  0  0  0  0  0  0  0  0
  1  2  2  0
  2  3  1  0
  2  4  1  0
  3 15  1  0
 15 16  1  0
 16 17  2  0
 16 20  1  0
 17 18  2  0
 18 21  1  0
 18 19  1  0
 21 22  2  0
 21 23  1  0
 19 20  2  0
  4  5  2  0
  4  6  1  0
  6  7  2  0
  6 14  1  0
  7  8  1  0
  8  9  1  0
  9 10  1  0
  9 14  2  0
 10 11  2  0
 11 12  1  0
 12 13  2  0
 13 14  1  0
M  CHG  2  21   1  23  -1
M  END
>  <minimizedAffinity>  (392) 
-8.74857

$$$$
cs_full_output_folder/data/smiles/445.pdb
     RDKit          3D

 24 26  0  0  0  0  0  0  0  0999 V2000
   68.2219   45.1841   55.2276 N   0  0  0  0  0  0  0  0  0  0  0  0
   68.6901   47.1871   52.1727 C   0  0  0  0  0  0  0  0  0  0  0  0
   67.9075   46.4218   51.3086 C   0  0  0  0  0  0  0  0  0  0  0  0
   67.2323   45.2902   51.6863 C   0  0  0  0  0  0  0  0  0  0  0  0
   67.3718   44.9354   53.0234 C   0  0  0  0  0  0  0  0  0  0  0  0
   68.1323   45.6605   53.9091 C   0  0  0  0  0  0  0  0  0  0  0  0
   68.7927   46.7887   53.4832 C   0  0  0  0  0  0  0  0  0  0  0  0
   69.3940   48.3303   51.6549 N   0  0  0  0  0  0  0  0  0  0  0  0
   71.4766   49.4444   53.3019 N   0  0  0  0  0  0  0  0  0  0  0  0
   69.9077   49.6365   52.6294 S   0  0  0  0  0  0  0  0  0  0  0  0
   69.8840   50.9309   51.8182 O   0  0  0  0  0  0  0  0  0  0  0  0
   68.8847   49.8289   53.7333 O   0  0  0  0  0  0  0  0  0  0  0  0
   68.9533   45.9093   56.1983 C   0  0  0  0  0  0  0  0  0  0  0  0
   69.7395   45.2964   57.1158 N   0  0  0  0  0  0  0  0  0  0  0  0
   70.3705   46.0136   58.0559 C   0  0  0  0  0  0  0  0  0  0  0  0
   70.2377   47.4022   58.1185 C   0  0  0  0  0  0  0  0  0  0  0  0
   69.4462   48.0180   57.1949 C   0  0  0  0  0  0  0  0  0  0  0  0
   68.8412   47.2301   56.2744 N   0  0  0  0  0  0  0  0  0  0  0  0
   69.1674   49.4484   57.1648 C   0  0  0  0  0  0  0  0  0  0  0  0
   67.9042   49.9516   57.4074 C   0  0  0  0  0  0  0  0  0  0  0  0
   67.6398   51.3103   57.3376 C   0  0  0  0  0  0  0  0  0  0  0  0
   68.6120   52.2307   57.0241 C   0  0  0  0  0  0  0  0  0  0  0  0
   69.8775   51.7254   56.7815 C   0  0  0  0  0  0  0  0  0  0  0  0
   70.1343   50.3773   56.8523 C   0  0  0  0  0  0  0  0  0  0  0  0
  9 10  1  0
 10 11  2  0
 10 12  2  0
 10  8  1  0
  8  2  1  0
  2  3  2  0
  2  7  1  0
  3  4  1  0
  4  5  2  0
  5  6  1  0
  6  1  1  0
  6  7  2  0
  1 13  1  0
 13 14  2  0
 13 18  1  0
 14 15  1  0
 15 16  2  0
 16 17  1  0
 17 19  1  0
 17 18  2  0
 19 20  2  0
 19 24  1  0
 20 21  1  0
 21 22  2  0
 22 23  1  0
 23 24  2  0
M  END
>  <minimizedAffinity>  (393) 
-8.74773

$$$$
cs_full_output_folder/data/smiles/8463.pdb
     RDKit          3D

 23 25  0  0  0  0  0  0  0  0999 V2000
   69.6627   50.8690   52.8152 N   0  0  0  0  0  0  0  0  0  0  0  0
   70.5838   52.9562   55.7768 C   0  0  0  0  0  0  0  0  0  0  0  0
   69.3628   52.8530   56.4618 C   0  0  0  0  0  0  0  0  0  0  0  0
   68.2932   52.1314   55.9789 C   0  0  0  0  0  0  0  0  0  0  0  0
   68.4013   51.4749   54.7747 C   0  0  0  0  0  0  0  0  0  0  0  0
   69.5972   51.5436   54.0479 C   0  0  0  0  0  0  0  0  0  0  0  0
   70.6312   52.2840   54.5902 C   0  0  0  0  0  0  0  0  0  0  0  0
   72.1197   52.2545   58.0821 O   0  0  0  0  0  0  0  0  0  0  0  0
   72.3352   53.3446   57.5251 C   0  0  0  0  0  0  0  0  0  0  0  0
   71.5929   53.7234   56.3812 N   0  0  0  0  0  0  0  0  0  0  0  0
   73.4008   54.2695   58.0775 C   0  0  0  0  0  0  0  0  0  0  0  0
   74.3283   54.4582   57.0612 O   0  0  0  0  0  0  0  0  0  0  0  0
   70.2163   49.2977   52.5005 S   0  0  0  0  0  0  0  0  0  0  0  0
   71.6590   49.1119   52.9599 O   0  0  0  0  0  0  0  0  0  0  0  0
   70.2298   49.0062   51.0121 O   0  0  0  0  0  0  0  0  0  0  0  0
   69.2927   48.0269   53.2395 C   0  0  0  0  0  0  0  0  0  0  0  0
   69.1771   47.8303   54.6154 C   0  0  0  0  0  0  0  0  0  0  0  0
   69.7550   48.5837   55.5915 F   0  0  0  0  0  0  0  0  0  0  0  0
   68.3770   46.7401   54.8726 C   0  0  0  0  0  0  0  0  0  0  0  0
   67.9616   46.2120   53.6888 C   0  0  0  0  0  0  0  0  0  0  0  0
   67.7459   45.9597   52.3376 C   0  0  0  0  0  0  0  0  0  0  0  0
   67.1192   45.1367   51.4633 F   0  0  0  0  0  0  0  0  0  0  0  0
   68.5605   47.0543   52.6366 C   0  0  0  0  0  0  0  0  0  0  0  0
  8  9  2  0
  9 11  1  0
  9 10  1  0
 11 12  1  0
 10  2  1  0
  2  3  2  0
  2  7  1  0
  3  4  1  0
  4  5  2  0
  5  6  1  0
  6  1  1  0
  6  7  2  0
  1 13  1  0
 13 14  2  0
 13 15  2  0
 13 16  1  0
 16 17  2  0
 16 23  1  0
 17 18  1  0
 17 19  1  0
 19 20  2  0
 20 21  1  0
 20 23  1  0
 21 22  1  0
 21 23  2  0
M  END
>  <minimizedAffinity>  (394) 
-8.74311

$$$$
cs_full_output_folder/data/smiles/446.pdb
     RDKit          3D

 21 23  0  0  0  0  0  0  0  0999 V2000
   71.9302   50.0891   53.9717 O   0  0  0  0  0  0  0  0  0  0  0  0
   70.6660   50.0437   53.7187 C   0  0  0  0  0  0  0  0  0  0  0  0
   69.9372   51.1043   54.2795 N   0  0  0  0  0  0  0  0  0  0  0  0
   70.1986   48.9385   52.9223 C   0  0  0  0  0  0  0  0  0  0  0  0
   70.5454   48.7377   51.6078 N   0  0  0  0  0  0  0  0  0  0  0  0
   69.9565   47.6775   51.1278 N   0  0  0  0  0  0  0  0  0  0  0  0
   69.1815   47.0883   52.0529 C   0  0  0  0  0  0  0  0  0  0  0  0
   68.3675   45.9762   52.0379 C   0  0  0  0  0  0  0  0  0  0  0  0
   67.6731   45.6270   53.1728 C   0  0  0  0  0  0  0  0  0  0  0  0
   67.8215   46.4141   54.2883 C   0  0  0  0  0  0  0  0  0  0  0  0
   68.6320   47.5305   54.3243 C   0  0  0  0  0  0  0  0  0  0  0  0
   69.3333   47.8876   53.1934 C   0  0  0  0  0  0  0  0  0  0  0  0
   70.7405   52.3898   55.2353 S   0  0  0  0  0  0  0  0  0  0  0  0
   70.7710   51.8166   56.9544 C   0  0  0  0  0  0  0  0  0  0  0  0
   69.5359   51.0218   57.1858 C   0  0  0  0  0  0  0  0  0  0  0  0
   68.2810   51.5563   57.2813 C   0  0  0  0  0  0  0  0  0  0  0  0
   67.1638   50.7578   57.5071 C   0  0  0  0  0  0  0  0  0  0  0  0
   67.3411   49.3886   57.6355 C   0  0  0  0  0  0  0  0  0  0  0  0
   66.2701   48.5578   57.8600 F   0  0  0  0  0  0  0  0  0  0  0  0
   68.5752   48.8255   57.5459 C   0  0  0  0  0  0  0  0  0  0  0  0
   69.6716   49.6558   57.3187 C   0  0  0  0  0  0  0  0  0  0  0  0
  1  2  2  0
  2  3  1  0
  2  4  1  0
  3 13  1  0
 13 14  1  0
 14 15  1  0
 15 16  2  0
 15 21  1  0
 16 17  1  0
 17 18  2  0
 18 19  1  0
 18 20  1  0
 20 21  2  0
  4  5  1  0
  4 12  2  0
  5  6  1  0
  6  7  2  0
  7  8  1  0
  7 12  1  0
  8  9  2  0
  9 10  1  0
 10 11  2  0
 11 12  1  0
M  END
>  <minimizedAffinity>  (395) 
-8.74290

$$$$
cs_full_output_folder/data/smiles/6146.pdb
     RDKit          3D

 23 25  0  0  0  0  0  0  0  0999 V2000
   69.0254   48.3458   56.3077 C   0  0  0  0  0  0  0  0  0  0  0  0
   69.4746   48.3733   54.8798 C   0  0  0  0  0  0  0  0  0  0  0  0
   70.3489   49.2920   54.4585 N   0  0  0  0  0  0  0  0  0  0  0  0
   70.6659   49.4162   53.2110 N   0  0  0  0  0  0  0  0  0  0  0  0
   70.1352   48.6260   52.2780 C   0  0  0  0  0  0  0  0  0  0  0  0
   70.4753   48.7854   51.0665 O   0  0  0  0  0  0  0  0  0  0  0  0
   69.2333   47.6565   52.6238 C   0  0  0  0  0  0  0  0  0  0  0  0
   68.7005   46.8436   51.6599 C   0  0  0  0  0  0  0  0  0  0  0  0
   67.8127   45.8740   52.0289 C   0  0  0  0  0  0  0  0  0  0  0  0
   67.4432   45.6959   53.3360 C   0  0  0  0  0  0  0  0  0  0  0  0
   68.0010   46.5366   54.2781 C   0  0  0  0  0  0  0  0  0  0  0  0
   68.9028   47.5367   53.9739 C   0  0  0  0  0  0  0  0  0  0  0  0
   70.9971   47.8482   57.5453 O   0  0  0  0  0  0  0  0  0  0  0  0
   69.9453   47.4221   57.0631 C   0  0  0  0  0  0  0  0  0  0  0  0
   69.5794   46.0697   57.1909 N   0  0  0  0  0  0  0  0  0  0  0  0
   70.3865   45.0519   57.8631 C   0  0  0  0  0  0  0  0  0  0  0  0
   69.6906   43.7627   57.5043 C   0  0  0  0  0  0  0  0  0  0  0  0
   70.0120   42.5778   58.0909 C   0  0  0  0  0  0  0  0  0  0  0  0
   69.3972   41.3725   57.7531 C   0  0  0  0  0  0  0  0  0  0  0  0
   68.4335   41.3952   56.7893 C   0  0  0  0  0  0  0  0  0  0  0  0
   67.7977   40.2371   56.4312 F   0  0  0  0  0  0  0  0  0  0  0  0
   68.0845   42.5606   56.1785 C   0  0  0  0  0  0  0  0  0  0  0  0
   68.7150   43.7585   56.5345 C   0  0  0  0  0  0  0  0  0  0  0  0
 13 14  2  0
 14  1  1  0
 14 15  1  0
  1  2  1  0
  2  3  2  0
  2 12  1  0
  3  4  1  0
  4  5  1  0
  5  6  2  0
  5  7  1  0
  7  8  1  0
  7 12  2  0
  8  9  2  0
  9 10  1  0
 10 11  2  0
 11 12  1  0
 15 16  1  0
 16 17  1  0
 17 18  2  0
 17 23  1  0
 18 19  1  0
 19 20  2  0
 20 21  1  0
 20 22  1  0
 22 23  2  0
M  END
>  <minimizedAffinity>  (396) 
-8.74267

$$$$
cs_full_output_folder/data/smiles/6626.pdb
     RDKit          3D

 23 26  0  0  0  0  0  0  0  0999 V2000
   68.7367   47.6015   56.4226 C   0  0  0  0  0  0  0  0  0  0  0  0
   70.3583   49.0290   51.2037 N   0  0  0  0  0  0  0  0  0  0  0  0
   69.9378   48.6366   52.4977 C   0  0  0  0  0  0  0  0  0  0  0  0
   70.3590   49.2859   53.5904 N   0  0  0  0  0  0  0  0  0  0  0  0
   69.9756   48.9314   54.7958 N   0  0  0  0  0  0  0  0  0  0  0  0
   69.1271   47.8847   55.0406 C   0  0  0  0  0  0  0  0  0  0  0  0
   68.6655   47.1853   53.9762 C   0  0  0  0  0  0  0  0  0  0  0  0
   67.8043   46.0914   54.1133 C   0  0  0  0  0  0  0  0  0  0  0  0
   67.3993   45.4439   52.9864 C   0  0  0  0  0  0  0  0  0  0  0  0
   67.7810   45.7922   51.7140 C   0  0  0  0  0  0  0  0  0  0  0  0
   68.6309   46.8707   51.6004 C   0  0  0  0  0  0  0  0  0  0  0  0
   69.0783   47.5703   52.6982 C   0  0  0  0  0  0  0  0  0  0  0  0
   69.6181   46.5706   57.0433 C   0  0  0  0  0  0  0  0  0  0  0  0
   69.3058   45.2449   56.8931 N   0  0  0  0  0  0  0  0  0  0  0  0
   70.0455   44.2724   57.4461 C   0  0  0  0  0  0  0  0  0  0  0  0
   69.7231   42.9303   57.2891 C   0  0  0  0  0  0  0  0  0  0  0  0
   70.4996   41.9424   57.8677 C   0  0  0  0  0  0  0  0  0  0  0  0
   71.6108   42.2248   58.6129 C   0  0  0  0  0  0  0  0  0  0  0  0
   71.9430   43.5720   58.7758 C   0  0  0  0  0  0  0  0  0  0  0  0
   71.1649   44.5530   58.1980 C   0  0  0  0  0  0  0  0  0  0  0  0
   71.4830   45.8846   58.3508 C   0  0  0  0  0  0  0  0  0  0  0  0
   72.4944   46.1679   59.0284 O   0  0  0  0  0  0  0  0  0  0  0  0
   70.7016   46.8443   57.7713 N   0  0  0  0  0  0  0  0  0  0  0  0
  2  3  1  0
  3  4  2  0
  3 12  1  0
  4  5  1  0
  5  6  2  0
  6  1  1  0
  6  7  1  0
  1 13  1  0
 13 14  2  0
 13 23  1  0
 14 15  1  0
 15 16  2  0
 15 20  1  0
 16 17  1  0
 17 18  2  0
 18 19  1  0
 19 20  2  0
 20 21  1  0
 21 22  2  0
 21 23  1  0
  7  8  1  0
  7 12  2  0
  8  9  2  0
  9 10  1  0
 10 11  2  0
 11 12  1  0
M  END
>  <minimizedAffinity>  (397) 
-8.74231

$$$$
cs_full_output_folder/data/smiles/7167.pdb
     RDKit          3D

 23 25  0  0  0  0  0  0  0  0999 V2000
   69.4582   48.7492   54.8221 C   0  0  0  0  0  0  0  0  0  0  0  0
   70.3656   49.6022   54.2721 N   0  0  0  0  0  0  0  0  0  0  0  0
   70.7233   49.5566   53.0057 N   0  0  0  0  0  0  0  0  0  0  0  0
   70.2035   48.6513   52.1629 C   0  0  0  0  0  0  0  0  0  0  0  0
   70.5401   48.5957   50.9406 O   0  0  0  0  0  0  0  0  0  0  0  0
   69.2690   47.7323   52.6103 C   0  0  0  0  0  0  0  0  0  0  0  0
   68.7076   46.7976   51.7688 C   0  0  0  0  0  0  0  0  0  0  0  0
   67.7750   45.9096   52.2318 C   0  0  0  0  0  0  0  0  0  0  0  0
   67.2014   44.9667   51.4134 F   0  0  0  0  0  0  0  0  0  0  0  0
   67.4351   46.0013   53.5628 C   0  0  0  0  0  0  0  0  0  0  0  0
   67.9845   46.9277   54.4191 C   0  0  0  0  0  0  0  0  0  0  0  0
   68.9224   47.8216   53.9631 C   0  0  0  0  0  0  0  0  0  0  0  0
   69.1851   48.8523   56.2553 C   0  0  0  0  0  0  0  0  0  0  0  0
   70.7784   45.9642   58.2089 C   0  0  0  0  0  0  0  0  0  0  0  0
   69.8868   46.6970   57.4190 C   0  0  0  0  0  0  0  0  0  0  0  0
   70.0722   48.0099   57.1041 C   0  0  0  0  0  0  0  0  0  0  0  0
   71.2474   48.5845   57.6451 C   0  0  0  0  0  0  0  0  0  0  0  0
   72.1279   47.8996   58.4138 C   0  0  0  0  0  0  0  0  0  0  0  0
   71.9079   46.5811   58.7067 C   0  0  0  0  0  0  0  0  0  0  0  0
   72.8012   45.9120   59.4768 F   0  0  0  0  0  0  0  0  0  0  0  0
   71.0391   43.6538   57.8292 O   0  0  0  0  0  0  0  0  0  0  0  0
   70.5097   44.5666   58.4873 C   0  0  0  0  0  0  0  0  0  0  0  0
   69.6452   44.2057   59.5078 O   0  0  0  0  0  0  0  0  0  0  0  0
 21 22  2  0
 22 23  1  0
 22 14  1  0
 14 15  2  0
 14 19  1  0
 15 16  1  0
 16 13  1  0
 16 17  2  0
 13  1  1  0
  1  2  2  0
  1 12  1  0
  2  3  1  0
  3  4  1  0
  4  5  2  0
  4  6  1  0
  6  7  1  0
  6 12  2  0
  7  8  2  0
  8  9  1  0
  8 10  1  0
 10 11  2  0
 11 12  1  0
 17 18  1  0
 18 19  2  0
 19 20  1  0
M  END
>  <minimizedAffinity>  (398) 
-8.73939

$$$$
cs_full_output_folder/data/smiles/2300.pdb
     RDKit          3D

 23 25  0  0  0  0  0  0  0  0999 V2000
   68.1114   44.5047   55.9087 N   0  0  0  0  0  0  0  0  0  0  0  0
   68.9560   43.6856   56.6919 C   0  0  0  0  0  0  0  0  0  0  0  0
   69.9764   44.1848   57.1999 O   0  0  0  0  0  0  0  0  0  0  0  0
   68.6673   42.2632   56.9262 C   0  0  0  0  0  0  0  0  0  0  0  0
   69.2045   41.4253   57.8817 C   0  0  0  0  0  0  0  0  0  0  0  0
   68.6502   40.1483   57.7527 C   0  0  0  0  0  0  0  0  0  0  0  0
   67.7987   40.2658   56.7195 N   0  0  0  0  0  0  0  0  0  0  0  0
   67.8058   41.4977   56.2363 N   0  0  0  0  0  0  0  0  0  0  0  0
   68.9504   38.9816   58.5647 C   0  0  0  0  0  0  0  0  0  0  0  0
   70.1466   38.3178   58.6899 C   0  0  0  0  0  0  0  0  0  0  0  0
   69.9419   37.2620   59.5826 C   0  0  0  0  0  0  0  0  0  0  0  0
   68.6891   37.3002   59.9648 O   0  0  0  0  0  0  0  0  0  0  0  0
   68.0596   38.3186   59.3762 C   0  0  0  0  0  0  0  0  0  0  0  0
   68.2969   45.8964   55.6143 C   0  0  0  0  0  0  0  0  0  0  0  0
   69.2525   47.5748   52.4236 C   0  0  0  0  0  0  0  0  0  0  0  0
   68.5400   46.8645   51.5024 C   0  0  0  0  0  0  0  0  0  0  0  0
   67.7266   45.8068   51.9214 C   0  0  0  0  0  0  0  0  0  0  0  0
   67.6359   45.4741   53.2441 C   0  0  0  0  0  0  0  0  0  0  0  0
   68.3610   46.1984   54.1653 C   0  0  0  0  0  0  0  0  0  0  0  0
   69.1631   47.2437   53.7519 C   0  0  0  0  0  0  0  0  0  0  0  0
   69.6487   49.6373   51.0665 N   0  0  0  0  0  0  0  0  0  0  0  0
   70.1147   48.6897   52.0135 C   0  0  0  0  0  0  0  0  0  0  0  0
   71.2724   48.8381   52.4798 O   0  0  0  0  0  0  0  0  0  0  0  0
 21 22  1  0
 22 23  2  0
 22 15  1  0
 15 16  2  0
 15 20  1  0
 16 17  1  0
 17 18  2  0
 18 19  1  0
 19 14  1  0
 19 20  2  0
 14  1  1  0
  1  2  1  0
  2  3  2  0
  2  4  1  0
  4  5  2  0
  4  8  1  0
  5  6  1  0
  6  9  1  0
  6  7  2  0
  9 10  1  0
  9 13  2  0
 10 11  2  0
 11 12  1  0
 12 13  1  0
  7  8  1  0
M  END
>  <minimizedAffinity>  (399) 
-8.73933

$$$$
cs_full_output_folder/data/smiles/7730.pdb
     RDKit          3D

 23 25  0  0  0  0  0  0  0  0999 V2000
   70.8508   49.4041   58.3792 C   0  0  0  0  0  0  0  0  0  0  0  0
   69.8611   50.3121   58.7501 C   0  0  0  0  0  0  0  0  0  0  0  0
   68.9483   50.7854   57.8354 C   0  0  0  0  0  0  0  0  0  0  0  0
   69.0242   50.3452   56.5245 C   0  0  0  0  0  0  0  0  0  0  0  0
   69.9821   49.4437   56.0879 C   0  0  0  0  0  0  0  0  0  0  0  0
   70.8742   49.0046   57.0623 C   0  0  0  0  0  0  0  0  0  0  0  0
   70.0612   48.9729   54.7171 C   0  0  0  0  0  0  0  0  0  0  0  0
   70.9411   49.4938   53.8513 N   0  0  0  0  0  0  0  0  0  0  0  0
   71.0316   49.0740   52.5989 N   0  0  0  0  0  0  0  0  0  0  0  0
   70.2286   48.0956   52.1594 C   0  0  0  0  0  0  0  0  0  0  0  0
   70.3211   47.6955   50.9508 O   0  0  0  0  0  0  0  0  0  0  0  0
   69.2854   47.4999   52.9994 C   0  0  0  0  0  0  0  0  0  0  0  0
   69.2298   47.9700   54.2930 C   0  0  0  0  0  0  0  0  0  0  0  0
   68.2407   47.3239   55.2311 C   0  0  0  0  0  0  0  0  0  0  0  0
   68.3090   45.8326   54.8787 C   0  0  0  0  0  0  0  0  0  0  0  0
   67.6426   45.7305   53.5267 C   0  0  0  0  0  0  0  0  0  0  0  0
   68.4133   46.4317   52.4749 C   0  0  0  0  0  0  0  0  0  0  0  0
   71.6884   47.5800   59.7924 C   0  0  0  0  0  0  0  0  0  0  0  0
   70.7372   46.8970   59.3103 O   0  0  0  0  0  0  0  0  0  0  0  0
   71.7945   48.9171   59.3318 N   0  0  0  0  0  0  0  0  0  0  0  0
   72.6222   46.9834   60.7806 C   0  0  0  0  0  0  0  0  0  0  0  0
   74.2886   47.6348   62.4829 C   0  0  0  0  0  0  0  0  0  0  0  0
   73.5827   48.0667   61.2163 C   0  0  0  0  0  0  0  0  0  0  0  0
 22 23  1  0
 23 21  1  0
 21 18  1  0
 18 19  2  0
 18 20  1  0
 20  1  1  0
  1  2  2  0
  1  6  1  0
  2  3  1  0
  3  4  2  0
  4  5  1  0
  5  7  1  0
  5  6  2  0
  7  8  2  0
  7 13  1  0
  8  9  1  0
  9 10  1  0
 10 11  2  0
 10 12  1  0
 12 13  2  0
 12 17  1  0
 13 14  1  0
 14 15  1  0
 15 16  1  0
 16 17  1  0
M  END
>  <minimizedAffinity>  (400) 
-8.73876

$$$$
cs_full_output_folder/data/smiles/7158.pdb
     RDKit          3D

 23 25  0  0  0  0  0  0  0  0999 V2000
   68.8447   48.4138   56.2877 C   0  0  0  0  0  0  0  0  0  0  0  0
   69.2805   48.4952   54.8749 C   0  0  0  0  0  0  0  0  0  0  0  0
   70.1380   49.4331   54.4605 N   0  0  0  0  0  0  0  0  0  0  0  0
   70.5656   49.5472   53.2102 N   0  0  0  0  0  0  0  0  0  0  0  0
   70.1221   48.6715   52.2744 C   0  0  0  0  0  0  0  0  0  0  0  0
   70.5351   48.7851   51.0770 O   0  0  0  0  0  0  0  0  0  0  0  0
   69.2355   47.6668   52.6003 C   0  0  0  0  0  0  0  0  0  0  0  0
   68.7721   46.7670   51.6652 C   0  0  0  0  0  0  0  0  0  0  0  0
   67.8830   45.7636   51.9994 C   0  0  0  0  0  0  0  0  0  0  0  0
   67.4716   45.6917   53.3106 C   0  0  0  0  0  0  0  0  0  0  0  0
   67.9332   46.5920   54.2561 C   0  0  0  0  0  0  0  0  0  0  0  0
   68.8197   47.5943   53.9284 C   0  0  0  0  0  0  0  0  0  0  0  0
   71.0254   48.5615   57.1773 O   0  0  0  0  0  0  0  0  0  0  0  0
   69.9856   47.8783   57.1373 C   0  0  0  0  0  0  0  0  0  0  0  0
   69.8285   46.6752   57.8223 N   0  0  0  0  0  0  0  0  0  0  0  0
   70.7841   46.0378   58.6478 C   0  0  0  0  0  0  0  0  0  0  0  0
   71.3786   44.7796   58.1977 C   0  0  0  0  0  0  0  0  0  0  0  0
   70.5093   43.7061   57.9723 C   0  0  0  0  0  0  0  0  0  0  0  0
   70.9929   42.4695   57.6314 C   0  0  0  0  0  0  0  0  0  0  0  0
   72.3346   42.2045   57.4883 C   0  0  0  0  0  0  0  0  0  0  0  0
   73.1982   43.2454   57.7031 C   0  0  0  0  0  0  0  0  0  0  0  0
   72.7201   44.5095   58.0502 C   0  0  0  0  0  0  0  0  0  0  0  0
   73.8907   45.8126   58.1870 Cl  0  0  0  0  0  0  0  0  0  0  0  0
 13 14  2  0
 14  1  1  0
 14 15  1  0
  1  2  1  0
  2  3  2  0
  2 12  1  0
  3  4  1  0
  4  5  1  0
  5  6  2  0
  5  7  1  0
  7  8  1  0
  7 12  2  0
  8  9  2  0
  9 10  1  0
 10 11  2  0
 11 12  1  0
 15 16  1  0
 16 17  1  0
 17 18  2  0
 17 22  1  0
 18 19  1  0
 19 20  2  0
 20 21  1  0
 21 22  2  0
 22 23  1  0
M  END
>  <minimizedAffinity>  (401) 
-8.73806

$$$$
cs_full_output_folder/data/smiles/9404.pdb
     RDKit          3D

 24 26  0  0  0  0  0  0  0  0999 V2000
   69.1864   46.6580   57.0598 N   0  0  0  0  0  0  0  0  0  0  0  0
   68.7341   47.4459   56.2079 C   0  0  0  0  0  0  0  0  0  0  0  0
   71.0128   43.0343   57.8044 C   0  0  0  0  0  0  0  0  0  0  0  0
   71.6398   44.2291   58.1278 C   0  0  0  0  0  0  0  0  0  0  0  0
   71.0047   45.3933   57.8708 C   0  0  0  0  0  0  0  0  0  0  0  0
   69.7282   45.4455   57.2881 C   0  0  0  0  0  0  0  0  0  0  0  0
   69.1488   44.2551   56.9869 N   0  0  0  0  0  0  0  0  0  0  0  0
   69.7649   43.0984   57.2347 C   0  0  0  0  0  0  0  0  0  0  0  0
   72.9885   41.8044   58.2360 O   0  0  0  0  0  0  0  0  0  0  0  0
   71.7245   41.8010   58.0941 C   0  0  0  0  0  0  0  0  0  0  0  0
   71.0588   40.5517   58.2309 N   0  0  0  0  0  0  0  0  0  0  0  0
   71.7686   39.4464   58.4984 O   0  0  0  0  0  0  0  0  0  0  0  0
   68.6986   47.0504   54.8093 C   0  0  0  0  0  0  0  0  0  0  0  0
   69.3187   47.7609   53.8175 C   0  0  0  0  0  0  0  0  0  0  0  0
   69.1997   47.4785   52.4635 C   0  0  0  0  0  0  0  0  0  0  0  0
   68.4135   46.4142   52.0902 C   0  0  0  0  0  0  0  0  0  0  0  0
   67.7608   45.6489   53.0267 C   0  0  0  0  0  0  0  0  0  0  0  0
   67.9188   45.9860   54.3707 C   0  0  0  0  0  0  0  0  0  0  0  0
   68.2510   48.7276   56.7322 C   0  0  0  0  0  0  0  0  0  0  0  0
   67.1365   48.6812   57.5832 C   0  0  0  0  0  0  0  0  0  0  0  0
   66.5361   49.8239   58.0520 C   0  0  0  0  0  0  0  0  0  0  0  0
   67.0478   51.0258   57.6724 C   0  0  0  0  0  0  0  0  0  0  0  0
   68.1311   51.1140   56.8431 C   0  0  0  0  0  0  0  0  0  0  0  0
   68.7205   49.9407   56.3810 C   0  0  0  0  0  0  0  0  0  0  0  0
  9 10  2  0
 10 11  1  0
 10  3  1  0
 11 12  1  0
  3  4  2  0
  3  8  1  0
  4  5  1  0
  5  6  2  0
  6  1  1  0
  6  7  1  0
  1  2  2  0
  2 13  1  0
  2 19  1  0
 13 14  2  0
 13 18  1  0
 14 15  1  0
 15 16  2  0
 16 17  1  0
 17 18  2  0
 19 20  2  0
 19 24  1  0
 20 21  1  0
 21 22  2  0
 22 23  1  0
 23 24  2  0
  7  8  2  0
M  END
>  <minimizedAffinity>  (402) 
-8.73790

$$$$
cs_full_output_folder/data/smiles/4825.pdb
     RDKit          3D

 23 26  0  0  0  0  0  0  0  0999 V2000
   70.6008   50.6621   54.5969 C   0  0  0  0  0  0  0  0  0  0  0  0
   75.9463   50.0307   55.6780 O   0  0  0  0  0  0  0  0  0  0  0  0
   74.7209   50.1835   55.4125 C   0  0  0  0  0  0  0  0  0  0  0  0
   74.2649   50.2953   54.1570 N   0  0  0  0  0  0  0  0  0  0  0  0
   72.9841   50.4514   53.9392 N   0  0  0  0  0  0  0  0  0  0  0  0
   72.0316   50.5141   54.9173 C   0  0  0  0  0  0  0  0  0  0  0  0
   72.4396   50.4085   56.2156 C   0  0  0  0  0  0  0  0  0  0  0  0
   73.8020   50.2401   56.4685 C   0  0  0  0  0  0  0  0  0  0  0  0
   74.2253   50.1029   57.8719 C   0  0  0  0  0  0  0  0  0  0  0  0
   73.5216   51.0500   58.7832 C   0  0  0  0  0  0  0  0  0  0  0  0
   72.1899   51.5053   58.3218 C   0  0  0  0  0  0  0  0  0  0  0  0
   71.5120   50.5062   57.3483 C   0  0  0  0  0  0  0  0  0  0  0  0
   70.2057   49.5663   53.6789 C   0  0  0  0  0  0  0  0  0  0  0  0
   70.4873   49.6697   52.3728 N   0  0  0  0  0  0  0  0  0  0  0  0
   70.1633   48.7994   51.4467 N   0  0  0  0  0  0  0  0  0  0  0  0
   69.4882   47.6824   51.7642 C   0  0  0  0  0  0  0  0  0  0  0  0
   69.1707   46.8399   50.8879 O   0  0  0  0  0  0  0  0  0  0  0  0
   69.1588   47.4980   53.0914 C   0  0  0  0  0  0  0  0  0  0  0  0
   68.4811   46.3614   53.4648 C   0  0  0  0  0  0  0  0  0  0  0  0
   68.1579   46.1518   54.7808 C   0  0  0  0  0  0  0  0  0  0  0  0
   68.5174   47.0869   55.7270 C   0  0  0  0  0  0  0  0  0  0  0  0
   69.1994   48.2369   55.3739 C   0  0  0  0  0  0  0  0  0  0  0  0
   69.5142   48.4336   54.0531 C   0  0  0  0  0  0  0  0  0  0  0  0
  2  3  2  0
  3  4  1  0
  3  8  1  0
  4  5  1  0
  5  6  2  0
  6  1  1  0
  6  7  1  0
  1 13  1  0
 13 14  2  0
 13 23  1  0
 14 15  1  0
 15 16  1  0
 16 17  2  0
 16 18  1  0
 18 19  1  0
 18 23  2  0
 19 20  2  0
 20 21  1  0
 21 22  2  0
 22 23  1  0
  7  8  2  0
  7 12  1  0
  8  9  1  0
  9 10  1  0
 10 11  1  0
 11 12  1  0
M  END
>  <minimizedAffinity>  (403) 
-8.73357

$$$$
cs_full_output_folder/data/smiles/688.pdb
     RDKit          3D

 25 28  0  0  0  0  0  0  0  0999 V2000
   70.8657   46.1778   58.2090 C   0  0  0  0  0  0  0  0  0  0  0  0
   72.0018   46.9224   58.5868 C   0  0  0  0  0  0  0  0  0  0  0  0
   72.1445   48.2416   58.2199 C   0  0  0  0  0  0  0  0  0  0  0  0
   71.1357   48.8058   57.4686 C   0  0  0  0  0  0  0  0  0  0  0  0
   70.0133   48.1103   57.0791 C   0  0  0  0  0  0  0  0  0  0  0  0
   69.8850   46.7927   57.4542 C   0  0  0  0  0  0  0  0  0  0  0  0
   69.6804   44.5764   59.3728 O   0  0  0  0  0  0  0  0  0  0  0  0
   70.7259   44.8156   58.6628 C   0  0  0  0  0  0  0  0  0  0  0  0
   71.5780   43.7072   58.4375 N   0  0  0  0  0  0  0  0  0  0  0  0
   71.2676   42.3434   58.9392 C   0  0  0  0  0  0  0  0  0  0  0  0
   72.2996   41.4706   58.2910 C   0  0  0  0  0  0  0  0  0  0  0  0
   73.4380   42.3828   58.2117 N   0  0  0  0  0  0  0  0  0  0  0  0
   72.8245   43.6351   57.7507 C   0  0  0  0  0  0  0  0  0  0  0  0
   68.9508   48.7541   56.2261 C   0  0  0  0  0  0  0  0  0  0  0  0
   69.3125   48.7227   54.7921 C   0  0  0  0  0  0  0  0  0  0  0  0
   70.1662   49.6253   54.2722 N   0  0  0  0  0  0  0  0  0  0  0  0
   70.5937   49.6340   53.0420 N   0  0  0  0  0  0  0  0  0  0  0  0
   70.1929   48.6996   52.1632 C   0  0  0  0  0  0  0  0  0  0  0  0
   70.5802   48.6742   50.9764 O   0  0  0  0  0  0  0  0  0  0  0  0
   69.3191   47.7472   52.6260 C   0  0  0  0  0  0  0  0  0  0  0  0
   68.8729   46.7839   51.7327 C   0  0  0  0  0  0  0  0  0  0  0  0
   67.9781   45.8231   52.1482 C   0  0  0  0  0  0  0  0  0  0  0  0
   67.5338   45.8357   53.4631 C   0  0  0  0  0  0  0  0  0  0  0  0
   67.9564   46.7751   54.3681 C   0  0  0  0  0  0  0  0  0  0  0  0
   68.8537   47.7253   53.9360 C   0  0  0  0  0  0  0  0  0  0  0  0
  7  8  2  0
  8  1  1  0
  8  9  1  0
  1  2  2  0
  1  6  1  0
  2  3  1  0
  3  4  2  0
  4  5  1  0
  5 14  1  0
  5  6  2  0
 14 15  1  0
 15 16  2  0
 15 25  1  0
 16 17  1  0
 17 18  1  0
 18 19  2  0
 18 20  1  0
 20 21  1  0
 20 25  2  0
 21 22  2  0
 22 23  1  0
 23 24  2  0
 24 25  1  0
  9 10  1  0
  9 13  1  0
 10 11  1  0
 11 12  1  0
 12 13  1  0
M  CHG  1  12   1
M  END
>  <minimizedAffinity>  (404) 
-8.73308

$$$$
cs_full_output_folder/data/smiles/6467.pdb
     RDKit          3D

 24 26  0  0  0  0  0  0  0  0999 V2000
   71.2111   46.5723   58.5858 C   0  0  1  0  0  0  0  0  0  0  0  0
   71.2217   46.7678   59.9447 O   0  0  0  0  0  0  0  0  0  0  0  0
   71.3389   45.1452   58.2185 C   0  0  0  0  0  0  0  0  0  0  0  0
   72.5675   44.5100   58.2108 C   0  0  0  0  0  0  0  0  0  0  0  0
   72.7173   43.1825   57.8740 C   0  0  0  0  0  0  0  0  0  0  0  0
   71.6207   42.4477   57.5300 C   0  0  0  0  0  0  0  0  0  0  0  0
   70.3790   43.0379   57.5241 C   0  0  0  0  0  0  0  0  0  0  0  0
   70.2480   44.3674   57.8646 C   0  0  0  0  0  0  0  0  0  0  0  0
   69.2265   42.2566   57.1615 N   0  0  0  0  0  0  0  0  0  0  0  0
   68.2238   42.7079   56.3849 C   0  0  0  0  0  0  0  0  0  0  0  0
   67.2770   41.7257   56.2266 C   0  0  0  0  0  0  0  0  0  0  0  0
   67.7335   40.6464   56.9371 C   0  0  0  0  0  0  0  0  0  0  0  0
   68.9377   41.0016   57.5035 C   0  0  0  0  0  0  0  0  0  0  0  0
   70.0317   47.1809   58.0045 N   0  0  0  0  0  0  0  0  0  0  0  0
   67.7901   47.0608   56.6258 O   0  0  0  0  0  0  0  0  0  0  0  0
   68.8503   46.9749   55.9025 C   0  0  0  0  0  0  0  0  0  0  0  0
   70.0747   47.0329   56.5951 N   0  0  0  0  0  0  0  0  0  0  0  0
   68.6628   46.8286   54.4738 C   0  0  0  0  0  0  0  0  0  0  0  0
   67.8946   45.7773   54.0012 C   0  0  0  0  0  0  0  0  0  0  0  0
   67.7019   45.6085   52.6631 C   0  0  0  0  0  0  0  0  0  0  0  0
   68.2548   46.4625   51.7387 C   0  0  0  0  0  0  0  0  0  0  0  0
   69.0228   47.5149   52.1845 C   0  0  0  0  0  0  0  0  0  0  0  0
   69.2181   47.6863   53.5486 C   0  0  0  0  0  0  0  0  0  0  0  0
   69.9837   48.7499   53.9152 F   0  0  0  0  0  0  0  0  0  0  0  0
 15 16  2  0
 16 17  1  0
 16 18  1  0
 17 14  1  0
 14  1  1  0
  1  2  1  1
  1  3  1  0
  3  4  2  0
  3  8  1  0
  4  5  1  0
  5  6  2  0
  6  7  1  0
  7  9  1  0
  7  8  2  0
  9 10  1  0
  9 13  1  0
 10 11  2  0
 11 12  1  0
 12 13  2  0
 18 19  2  0
 18 23  1  0
 19 20  1  0
 20 21  2  0
 21 22  1  0
 22 23  2  0
 23 24  1  0
M  END
>  <minimizedAffinity>  (405) 
-8.73250

$$$$
cs_full_output_folder/data/smiles/4995.pdb
     RDKit          3D

 23 25  0  0  0  0  0  0  0  0999 V2000
   69.7226   46.4612   58.1315 N   0  0  0  0  0  0  0  0  0  0  0  0
   69.3890   45.9208   57.0280 C   0  0  0  0  0  0  0  0  0  0  0  0
   68.3814   46.5365   56.2392 N   0  0  0  0  0  0  0  0  0  0  0  0
   68.4952   46.6925   54.8457 C   0  0  0  0  0  0  0  0  0  0  0  0
   67.7920   45.8182   54.0331 C   0  0  0  0  0  0  0  0  0  0  0  0
   67.8731   45.9041   52.6579 C   0  0  0  0  0  0  0  0  0  0  0  0
   68.6723   46.8833   52.0792 C   0  0  0  0  0  0  0  0  0  0  0  0
   69.3741   47.7569   52.8721 C   0  0  0  0  0  0  0  0  0  0  0  0
   69.2699   47.6419   54.2374 C   0  0  0  0  0  0  0  0  0  0  0  0
   70.2327   48.8074   52.2879 C   0  0  0  0  0  0  0  0  0  0  0  0
   69.8584   49.4696   51.0936 N   0  0  0  0  0  0  0  0  0  0  0  0
   71.3133   49.1448   52.8239 O   0  0  0  0  0  0  0  0  0  0  0  0
   70.0384   44.7662   56.6853 O   0  0  0  0  0  0  0  0  0  0  0  0
   69.6508   43.4924   56.9978 C   0  0  0  0  0  0  0  0  0  0  0  0
   68.4212   43.0656   56.4846 C   0  0  0  0  0  0  0  0  0  0  0  0
   67.9373   41.8308   56.7260 N   0  0  0  0  0  0  0  0  0  0  0  0
   68.5857   40.9243   57.4676 C   0  0  0  0  0  0  0  0  0  0  0  0
   68.0979   39.6545   57.7232 C   0  0  0  0  0  0  0  0  0  0  0  0
   68.8174   38.7644   58.4991 C   0  0  0  0  0  0  0  0  0  0  0  0
   70.0489   39.1078   59.0469 C   0  0  0  0  0  0  0  0  0  0  0  0
   70.4972   40.3802   58.7682 C   0  0  0  0  0  0  0  0  0  0  0  0
   69.8065   41.2907   58.0012 C   0  0  0  0  0  0  0  0  0  0  0  0
   70.3215   42.5709   57.7578 C   0  0  0  0  0  0  0  0  0  0  0  0
  1  2  2  0
  2  3  1  0
  2 13  1  0
  3  4  1  0
  4  5  2  0
  4  9  1  0
  5  6  1  0
  6  7  2  0
  7  8  1  0
  8 10  1  0
  8  9  2  0
 10 11  1  0
 10 12  2  0
 13 14  1  0
 14 15  2  0
 14 23  1  0
 15 16  1  0
 16 17  2  0
 17 18  1  0
 17 22  1  0
 18 19  2  0
 19 20  1  0
 20 21  2  0
 21 22  1  0
 22 23  2  0
M  CHG  1   1   1
M  END
>  <minimizedAffinity>  (406) 
-8.73177

$$$$
cs_full_output_folder/data/smiles/9036.pdb
     RDKit          3D

 23 26  0  0  0  0  0  0  0  0999 V2000
   68.8124   47.8230   56.3450 C   0  0  0  0  0  0  0  0  0  0  0  0
   70.6316   48.8309   51.3018 O   0  0  0  0  0  0  0  0  0  0  0  0
   70.2031   48.5722   52.4641 C   0  0  0  0  0  0  0  0  0  0  0  0
   70.6782   49.2389   53.5407 N   0  0  0  0  0  0  0  0  0  0  0  0
   70.2098   48.9425   54.7178 N   0  0  0  0  0  0  0  0  0  0  0  0
   69.2670   48.0027   54.9633 C   0  0  0  0  0  0  0  0  0  0  0  0
   68.7659   47.3048   53.8800 C   0  0  0  0  0  0  0  0  0  0  0  0
   67.8178   46.3295   54.0591 C   0  0  0  0  0  0  0  0  0  0  0  0
   67.3293   45.6328   52.9806 C   0  0  0  0  0  0  0  0  0  0  0  0
   67.7775   45.8917   51.6874 C   0  0  0  0  0  0  0  0  0  0  0  0
   68.7321   46.8767   51.5330 C   0  0  0  0  0  0  0  0  0  0  0  0
   69.2324   47.5870   52.6155 C   0  0  0  0  0  0  0  0  0  0  0  0
   69.5751   46.7094   56.9815 C   0  0  0  0  0  0  0  0  0  0  0  0
   69.2843   45.4130   56.8200 N   0  0  0  0  0  0  0  0  0  0  0  0
   69.9635   44.4013   57.3864 C   0  0  0  0  0  0  0  0  0  0  0  0
   69.6382   43.0728   57.1988 C   0  0  0  0  0  0  0  0  0  0  0  0
   70.3584   42.0519   57.7958 C   0  0  0  0  0  0  0  0  0  0  0  0
   71.4392   42.3303   58.6073 C   0  0  0  0  0  0  0  0  0  0  0  0
   71.7637   43.6620   58.7932 C   0  0  0  0  0  0  0  0  0  0  0  0
   71.0446   44.6769   58.1985 C   0  0  0  0  0  0  0  0  0  0  0  0
   71.3501   46.0132   58.3688 C   0  0  0  0  0  0  0  0  0  0  0  0
   72.6375   46.3479   59.3370 S   0  0  0  0  0  0  0  0  0  0  0  0
   70.6402   46.9835   57.7817 N   0  0  0  0  0  0  0  0  0  0  0  0
  2  3  2  0
  3  4  1  0
  3 12  1  0
  4  5  1  0
  5  6  2  0
  6  1  1  0
  6  7  1  0
  1 13  1  0
 13 14  2  0
 13 23  1  0
 14 15  1  0
 15 16  2  0
 15 20  1  0
 16 17  1  0
 17 18  2  0
 18 19  1  0
 19 20  2  0
 20 21  1  0
 21 22  2  0
 21 23  1  0
  7  8  1  0
  7 12  2  0
  8  9  2  0
  9 10  1  0
 10 11  2  0
 11 12  1  0
M  END
>  <minimizedAffinity>  (407) 
-8.73151

$$$$
cs_full_output_folder/data/smiles/4781.pdb
     RDKit          3D

 24 26  0  0  0  0  0  0  0  0999 V2000
   71.1832   42.0100   58.2787 C   0  0  0  0  0  0  0  0  0  0  0  0
   69.8078   41.8022   57.7732 C   0  0  0  0  0  0  0  0  0  0  0  0
   68.9856   42.7280   57.1826 C   0  0  0  0  0  0  0  0  0  0  0  0
   67.8233   42.0470   56.8991 C   0  0  0  0  0  0  0  0  0  0  0  0
   67.9779   40.7797   57.3138 N   0  0  0  0  0  0  0  0  0  0  0  0
   69.1662   40.5971   57.8475 N   0  0  0  0  0  0  0  0  0  0  0  0
   69.6854   39.3893   58.3902 C   0  0  0  0  0  0  0  0  0  0  0  0
   70.9184   38.8852   58.0226 C   0  0  0  0  0  0  0  0  0  0  0  0
   71.4379   37.7150   58.5381 C   0  0  0  0  0  0  0  0  0  0  0  0
   70.6850   37.0244   59.4598 C   0  0  0  0  0  0  0  0  0  0  0  0
   71.3081   35.5252   60.1388 Cl  0  0  0  0  0  0  0  0  0  0  0  0
   69.4403   37.4786   59.8683 C   0  0  0  0  0  0  0  0  0  0  0  0
   68.9667   38.6572   59.3199 C   0  0  0  0  0  0  0  0  0  0  0  0
   69.2810   44.1544   56.9034 C   0  0  0  0  0  0  0  0  0  0  0  0
   70.2590   44.7108   57.4588 O   0  0  0  0  0  0  0  0  0  0  0  0
   68.4796   44.9052   56.0223 N   0  0  0  0  0  0  0  0  0  0  0  0
   68.7005   46.2945   55.7045 C   0  0  0  0  0  0  0  0  0  0  0  0
   68.6039   46.4824   54.2470 C   0  0  0  0  0  0  0  0  0  0  0  0
   69.3190   47.4793   53.6329 C   0  0  0  0  0  0  0  0  0  0  0  0
   69.1667   47.5951   52.2459 C   0  0  0  0  0  0  0  0  0  0  0  0
   68.3432   46.7501   51.5407 C   0  0  0  0  0  0  0  0  0  0  0  0
   67.6488   45.7636   52.2064 C   0  0  0  0  0  0  0  0  0  0  0  0
   66.8144   44.9034   51.5017 O   0  0  0  0  0  0  0  0  0  0  0  0
   67.7637   45.6111   53.5676 C   0  0  0  0  0  0  0  0  0  0  0  0
  1  2  1  0
  2  3  2  0
  2  6  1  0
  3 14  1  0
  3  4  1  0
 14 15  2  0
 14 16  1  0
 16 17  1  0
 17 18  1  0
 18 19  2  0
 18 24  1  0
 19 20  1  0
 20 21  2  0
 21 22  1  0
 22 23  1  0
 22 24  2  0
  4  5  2  0
  5  6  1  0
  6  7  1  0
  7  8  2  0
  7 13  1  0
  8  9  1  0
  9 10  2  0
 10 11  1  0
 10 12  1  0
 12 13  2  0
M  END
>  <minimizedAffinity>  (408) 
-8.72730

$$$$
cs_full_output_folder/data/smiles/4300.pdb
     RDKit          3D

 22 24  0  0  0  0  0  0  0  0999 V2000
   68.0553   48.6108   57.0618 C   0  0  0  0  0  0  0  0  0  0  0  0
   67.1164   47.9646   57.7400 N   0  0  0  0  0  0  0  0  0  0  0  0
   66.2737   48.7872   58.3399 N   0  0  0  0  0  0  0  0  0  0  0  0
   66.6906   50.0354   58.0328 C   0  0  0  0  0  0  0  0  0  0  0  0
   67.8082   49.9534   57.2308 C   0  0  0  0  0  0  0  0  0  0  0  0
   68.5758   51.0588   56.6730 C   0  0  0  0  0  0  0  0  0  0  0  0
   68.2164   51.6436   55.4668 C   0  0  0  0  0  0  0  0  0  0  0  0
   68.9327   52.6927   54.9238 C   0  0  0  0  0  0  0  0  0  0  0  0
   70.0286   53.1399   55.6332 C   0  0  0  0  0  0  0  0  0  0  0  0
   70.4027   52.5630   56.8483 C   0  0  0  0  0  0  0  0  0  0  0  0
   69.6733   51.5157   57.3733 C   0  0  0  0  0  0  0  0  0  0  0  0
   70.1686   50.8117   58.8995 Cl  0  0  0  0  0  0  0  0  0  0  0  0
   69.0716   47.9986   56.3348 O   0  0  0  0  0  0  0  0  0  0  0  0
   68.7331   46.8812   50.8749 O   0  0  0  0  0  0  0  0  0  0  0  0
   68.8260   47.1742   52.2322 C   0  0  0  0  0  0  0  0  0  0  0  0
   69.4305   48.3175   52.7003 C   0  0  0  0  0  0  0  0  0  0  0  0
   69.5052   48.5771   54.0524 C   0  0  0  0  0  0  0  0  0  0  0  0
   68.9777   47.7058   55.0026 C   0  0  0  0  0  0  0  0  0  0  0  0
   68.3734   46.5612   54.5216 C   0  0  0  0  0  0  0  0  0  0  0  0
   67.8309   45.6589   55.4316 O   0  0  0  0  0  0  0  0  0  0  0  0
   68.2993   46.3040   53.1700 C   0  0  0  0  0  0  0  0  0  0  0  0
   67.6797   45.1332   52.7074 O   0  0  0  0  0  0  0  0  0  0  0  0
 14 15  1  0
 15 16  2  0
 15 21  1  0
 16 17  1  0
 17 18  2  0
 18 13  1  0
 18 19  1  0
 13  1  1  0
  1  2  2  0
  1  5  1  0
  2  3  1  0
  3  4  1  0
  4  5  2  0
  5  6  1  0
  6  7  2  0
  6 11  1  0
  7  8  1  0
  8  9  2  0
  9 10  1  0
 10 11  2  0
 11 12  1  0
 19 20  1  0
 19 21  2  0
 21 22  1  0
M  END
>  <minimizedAffinity>  (409) 
-8.72635

$$$$
cs_full_output_folder/data/smiles/8606.pdb
     RDKit          3D

 23 25  0  0  0  0  0  0  0  0999 V2000
   69.9361   45.1194   57.0274 N   0  0  0  0  0  0  0  0  0  0  0  0
   70.2111   44.2280   58.1300 C   0  0  0  0  0  0  0  0  0  0  0  0
   69.7793   44.5304   59.2648 O   0  0  0  0  0  0  0  0  0  0  0  0
   67.9659   48.2892   56.9168 C   0  0  0  0  0  0  0  0  0  0  0  0
   68.6850   47.0555   56.3473 C   0  0  0  0  0  0  0  0  0  0  0  0
   69.2351   46.2715   57.1537 N   0  0  0  0  0  0  0  0  0  0  0  0
   68.6422   46.9776   54.8932 C   0  0  0  0  0  0  0  0  0  0  0  0
   69.2542   47.9406   54.1291 C   0  0  0  0  0  0  0  0  0  0  0  0
   69.2120   47.8229   52.7372 C   0  0  0  0  0  0  0  0  0  0  0  0
   68.5835   46.7849   52.0966 C   0  0  0  0  0  0  0  0  0  0  0  0
   67.9645   45.8133   52.8909 C   0  0  0  0  0  0  0  0  0  0  0  0
   67.9982   45.9146   54.2532 C   0  0  0  0  0  0  0  0  0  0  0  0
   70.9907   42.9880   57.8887 C   0  0  0  0  0  0  0  0  0  0  0  0
   70.0780   41.8731   57.8274 C   0  0  0  0  0  0  0  0  0  0  0  0
   68.7929   42.0223   57.3642 C   0  0  0  0  0  0  0  0  0  0  0  0
   67.9165   40.9422   57.3100 C   0  0  0  0  0  0  0  0  0  0  0  0
   68.3165   39.6938   57.7198 C   0  0  0  0  0  0  0  0  0  0  0  0
   69.5981   39.5250   58.1852 C   0  0  0  0  0  0  0  0  0  0  0  0
   70.0388   38.2866   58.6061 C   0  0  0  0  0  0  0  0  0  0  0  0
   71.3226   38.1541   59.0658 C   0  0  0  0  0  0  0  0  0  0  0  0
   72.1990   39.2407   59.1187 C   0  0  0  0  0  0  0  0  0  0  0  0
   71.7616   40.4849   58.6969 C   0  0  0  0  0  0  0  0  0  0  0  0
   70.4763   40.6127   58.2387 C   0  0  0  0  0  0  0  0  0  0  0  0
  4  5  1  0
  5  6  2  0
  5  7  1  0
  6  1  1  0
  1  2  1  0
  2  3  2  0
  2 13  1  0
 13 14  1  0
 14 15  2  0
 14 23  1  0
 15 16  1  0
 16 17  2  0
 17 18  1  0
 18 19  1  0
 18 23  2  0
 19 20  2  0
 20 21  1  0
 21 22  2  0
 22 23  1  0
  7  8  2  0
  7 12  1  0
  8  9  1  0
  9 10  2  0
 10 11  1  0
 11 12  2  0
M  END
>  <minimizedAffinity>  (410) 
-8.72578

$$$$
cs_full_output_folder/data/smiles/5935.pdb
     RDKit          3D

 24 26  0  0  0  0  0  0  0  0999 V2000
   69.2841   46.6878   56.7573 N   0  0  0  0  0  0  0  0  0  0  0  0
   68.8878   45.4537   56.6325 N   0  0  0  0  0  0  0  0  0  0  0  0
   69.4498   44.3632   57.1986 C   0  0  0  0  0  0  0  0  0  0  0  0
   70.5513   44.5765   57.9828 C   0  0  0  0  0  0  0  0  0  0  0  0
   71.0144   45.8900   58.1458 C   0  0  0  0  0  0  0  0  0  0  0  0
   70.3657   46.9282   57.5233 C   0  0  0  0  0  0  0  0  0  0  0  0
   70.7771   48.1316   57.6637 O   0  0  0  0  0  0  0  0  0  0  0  0
   68.9263   43.0287   56.9940 C   0  0  0  0  0  0  0  0  0  0  0  0
   67.8685   42.8539   56.1134 C   0  0  0  0  0  0  0  0  0  0  0  0
   67.3224   41.5973   55.8759 C   0  0  0  0  0  0  0  0  0  0  0  0
   66.2836   41.4254   55.0105 F   0  0  0  0  0  0  0  0  0  0  0  0
   67.8309   40.4943   56.5197 C   0  0  0  0  0  0  0  0  0  0  0  0
   68.8778   40.6478   57.3950 C   0  0  0  0  0  0  0  0  0  0  0  0
   69.3895   39.5737   58.0354 F   0  0  0  0  0  0  0  0  0  0  0  0
   69.4194   41.9267   57.6238 C   0  0  0  0  0  0  0  0  0  0  0  0
   68.5698   47.7853   56.0732 C   0  0  0  0  0  0  0  0  0  0  0  0
   68.1411   46.3096   52.6074 C   0  0  0  0  0  0  0  0  0  0  0  0
   69.0230   47.0697   51.8529 C   0  0  0  0  0  0  0  0  0  0  0  0
   69.7423   48.0586   52.5048 C   0  0  0  0  0  0  0  0  0  0  0  0
   69.5772   48.2633   53.8471 C   0  0  0  0  0  0  0  0  0  0  0  0
   68.7010   47.5149   54.6208 C   0  0  0  0  0  0  0  0  0  0  0  0
   67.9857   46.5321   53.9694 C   0  0  0  0  0  0  0  0  0  0  0  0
   66.6585   45.5123   50.9304 O   0  0  0  0  0  0  0  0  0  0  0  0
   67.3856   45.2709   51.9184 C   0  0  0  0  0  0  0  0  0  0  0  0
 23 24  2  0
 24 17  1  0
 17 18  2  0
 17 22  1  0
 18 19  1  0
 19 20  2  0
 20 21  1  0
 21 16  1  0
 21 22  2  0
 16  1  1  0
  1  2  1  0
  1  6  1  0
  2  3  2  0
  3  8  1  0
  3  4  1  0
  8  9  2  0
  8 15  1  0
  9 10  1  0
 10 11  1  0
 10 12  2  0
 12 13  1  0
 13 14  1  0
 13 15  2  0
  4  5  2  0
  5  6  1  0
  6  7  2  0
M  END
>  <minimizedAffinity>  (411) 
-8.72573

$$$$
cs_full_output_folder/data/smiles/2747.pdb
     RDKit          3D

 24 26  0  0  0  0  0  0  0  0999 V2000
   69.9712   50.9111   53.6469 C   0  0  0  0  0  0  0  0  0  0  0  0
   69.5645   49.5396   53.1735 C   0  0  0  0  0  0  0  0  0  0  0  0
   69.1409   48.6421   54.1180 C   0  0  0  0  0  0  0  0  0  0  0  0
   69.1668   48.9514   55.4951 O   0  0  0  0  0  0  0  0  0  0  0  0
   68.6811   47.4103   53.6924 C   0  0  0  0  0  0  0  0  0  0  0  0
   68.2243   46.4633   54.6016 C   0  0  0  0  0  0  0  0  0  0  0  0
   67.7614   45.2564   54.1383 C   0  0  0  0  0  0  0  0  0  0  0  0
   67.7577   45.0096   52.8239 N   0  0  0  0  0  0  0  0  0  0  0  0
   68.1929   45.9012   51.9102 C   0  0  0  0  0  0  0  0  0  0  0  0
   68.6686   47.1313   52.3253 C   0  0  0  0  0  0  0  0  0  0  0  0
   69.0948   48.0371   51.4429 N   0  0  0  0  0  0  0  0  0  0  0  0
   69.5411   49.2309   51.8336 C   0  0  0  0  0  0  0  0  0  0  0  0
   69.9413   50.0735   50.9644 O   0  0  0  0  0  0  0  0  0  0  0  0
   72.0848   49.8519   53.6296 O   0  0  0  0  0  0  0  0  0  0  0  0
   71.3457   50.6262   54.2364 C   0  0  0  0  0  0  0  0  0  0  0  0
   71.7989   51.4019   55.7381 S   0  0  0  0  0  0  0  0  0  0  0  0
   70.5904   52.6032   56.3389 C   0  0  0  0  0  0  0  0  0  0  0  0
   69.5186   51.7976   57.0108 C   0  0  0  0  0  0  0  0  0  0  0  0
   69.7520   50.8982   58.0112 C   0  0  0  0  0  0  0  0  0  0  0  0
   68.7035   50.1733   58.5505 C   0  0  0  0  0  0  0  0  0  0  0  0
   67.4170   50.3650   58.0721 C   0  0  0  0  0  0  0  0  0  0  0  0
   66.4074   49.6478   58.6112 F   0  0  0  0  0  0  0  0  0  0  0  0
   67.1759   51.2783   57.0590 C   0  0  0  0  0  0  0  0  0  0  0  0
   68.2263   51.9830   56.5380 C   0  0  0  0  0  0  0  0  0  0  0  0
 14 15  2  0
 15  1  1  0
 15 16  1  0
  1  2  1  0
  2  3  2  0
  2 12  1  0
  3  4  1  0
  3  5  1  0
  5  6  2  0
  5 10  1  0
  6  7  1  0
  7  8  2  0
  8  9  1  0
  9 10  2  0
 10 11  1  0
 11 12  1  0
 12 13  2  0
 16 17  1  0
 17 18  1  0
 18 19  2  0
 18 24  1  0
 19 20  1  0
 20 21  2  0
 21 22  1  0
 21 23  1  0
 23 24  2  0
M  END
>  <minimizedAffinity>  (412) 
-8.72146

$$$$
cs_full_output_folder/data/smiles/5071.pdb
     RDKit          3D

 22 24  0  0  0  0  0  0  0  0999 V2000
   68.0849   45.7552   55.7006 N   0  0  0  0  0  0  0  0  0  0  0  0
   69.1179   47.7260   52.7343 C   0  0  0  0  0  0  0  0  0  0  0  0
   68.5494   46.9816   51.7316 C   0  0  0  0  0  0  0  0  0  0  0  0
   67.8441   45.8415   52.0356 C   0  0  0  0  0  0  0  0  0  0  0  0
   67.7076   45.4451   53.3359 C   0  0  0  0  0  0  0  0  0  0  0  0
   68.2773   46.1854   54.3742 C   0  0  0  0  0  0  0  0  0  0  0  0
   68.9752   47.3153   54.0660 C   0  0  0  0  0  0  0  0  0  0  0  0
   69.2316   50.4947   53.2030 N   0  0  0  0  0  0  0  0  0  0  0  0
   70.0241   49.1910   52.4065 S   0  0  0  0  0  0  0  0  0  0  0  0
   70.0244   49.4619   50.9374 O   0  0  0  0  0  0  0  0  0  0  0  0
   71.4399   49.0319   52.8820 O   0  0  0  0  0  0  0  0  0  0  0  0
   69.0114   44.9518   56.4173 C   0  0  0  0  0  0  0  0  0  0  0  0
   68.6707   43.5276   56.5649 C   0  0  0  0  0  0  0  0  0  0  0  0
   67.5170   43.1073   55.9786 N   0  0  0  0  0  0  0  0  0  0  0  0
   67.1133   41.8430   56.0674 C   0  0  0  0  0  0  0  0  0  0  0  0
   67.8611   40.9333   56.7593 C   0  0  0  0  0  0  0  0  0  0  0  0
   69.0413   41.3381   57.3655 C   0  0  0  0  0  0  0  0  0  0  0  0
   69.3691   42.6111   57.2278 N   0  0  0  0  0  0  0  0  0  0  0  0
   69.8431   40.3557   58.1132 C   0  0  0  0  0  0  0  0  0  0  0  0
   70.9855   40.3688   58.7033 C   0  0  0  0  0  0  0  0  0  0  0  0
   70.9085   38.9954   59.1255 C   0  0  0  0  0  0  0  0  0  0  0  0
   69.6010   38.9631   58.4525 C   0  0  0  0  0  0  0  0  0  0  0  0
  8  9  1  0
  9 10  2  0
  9 11  2  0
  9  2  1  0
  2  3  2  0
  2  7  1  0
  3  4  1  0
  4  5  2  0
  5  6  1  0
  6  1  1  0
  6  7  2  0
  1 12  1  0
 12 13  1  0
 13 14  2  0
 13 18  1  0
 14 15  1  0
 15 16  2  0
 16 17  1  0
 17 19  1  0
 17 18  2  0
 19 20  2  0
 19 22  1  0
 20 21  1  0
 21 22  1  0
M  END
>  <minimizedAffinity>  (413) 
-8.72104

$$$$
cs_full_output_folder/data/smiles/2450.pdb
     RDKit          3D

 26 29  0  0  0  0  0  0  0  0999 V2000
   68.7207   46.4095   54.5606 C   0  0  0  0  0  0  0  0  0  0  0  0
   68.0009   45.5384   53.7483 C   0  0  0  0  0  0  0  0  0  0  0  0
   67.8362   45.8347   52.4041 C   0  0  0  0  0  0  0  0  0  0  0  0
   68.3838   46.9763   51.8942 C   0  0  0  0  0  0  0  0  0  0  0  0
   69.1005   47.8363   52.7145 C   0  0  0  0  0  0  0  0  0  0  0  0
   69.2214   47.4914   54.0060 N   0  0  0  0  0  0  0  0  0  0  0  0
   68.3608   45.0208   56.3690 O   0  0  0  0  0  0  0  0  0  0  0  0
   68.8689   46.1266   55.9694 C   0  0  0  0  0  0  0  0  0  0  0  0
   69.5348   46.9962   56.9190 C   0  0  0  0  0  0  0  0  0  0  0  0
   70.4757   46.4798   57.8019 C   0  0  0  0  0  0  0  0  0  0  0  0
   71.1445   47.2818   58.7156 C   0  0  0  0  0  0  0  0  0  0  0  0
   70.8881   48.6340   58.7710 C   0  0  0  0  0  0  0  0  0  0  0  0
   69.9618   49.1592   57.9046 C   0  0  0  0  0  0  0  0  0  0  0  0
   69.2940   48.3374   56.9872 C   0  0  0  0  0  0  0  0  0  0  0  0
   69.6732   49.0930   52.2384 C   0  0  0  0  0  0  0  0  0  0  0  0
   70.5206   49.8262   53.1906 C   0  0  0  0  0  0  0  0  0  0  0  0
   71.8519   49.6366   53.1599 N   0  0  0  0  0  0  0  0  0  0  0  0
   72.6968   50.2224   53.9695 N   0  0  0  0  0  0  0  0  0  0  0  0
   72.2371   51.0609   54.8888 C   0  0  0  0  0  0  0  0  0  0  0  0
   73.0711   51.6249   55.6729 O   0  0  0  0  0  0  0  0  0  0  0  0
   70.8866   51.3318   55.0119 C   0  0  0  0  0  0  0  0  0  0  0  0
   70.0197   50.6883   54.1309 C   0  0  0  0  0  0  0  0  0  0  0  0
   68.5811   50.9987   54.2581 C   0  0  0  0  0  0  0  0  0  0  0  0
   68.4897   52.4755   54.6704 C   0  0  0  0  0  0  0  0  0  0  0  0
   69.0050   52.5509   56.0885 C   0  0  0  0  0  0  0  0  0  0  0  0
   70.4800   52.2672   56.0578 C   0  0  0  0  0  0  0  0  0  0  0  0
  7  8  2  0
  8  9  1  0
  8  1  1  0
  9 10  2  0
  9 14  1  0
 10 11  1  0
 11 12  2  0
 12 13  1  0
 13 14  2  0
  1  2  2  0
  1  6  1  0
  2  3  1  0
  3  4  2  0
  4  5  1  0
  5 15  1  0
  5  6  2  0
 15 16  1  0
 16 17  2  0
 16 22  1  0
 17 18  1  0
 18 19  1  0
 19 20  2  0
 19 21  1  0
 21 22  2  0
 21 26  1  0
 22 23  1  0
 23 24  1  0
 24 25  1  0
 25 26  1  0
M  END
>  <minimizedAffinity>  (414) 
-8.72043

$$$$
cs_full_output_folder/data/smiles/4071.pdb
     RDKit          3D

 26 29  0  0  0  0  0  0  0  0999 V2000
   68.5410   47.2390   54.3421 C   0  0  0  0  0  0  0  0  0  0  0  0
   68.8196   46.6415   53.1211 C   0  0  0  0  0  0  0  0  0  0  0  0
   69.3730   47.3472   52.0666 C   0  0  0  0  0  0  0  0  0  0  0  0
   69.6317   46.6955   50.8628 O   0  0  0  0  0  0  0  0  0  0  0  0
   69.6585   48.6939   52.2385 C   0  0  0  0  0  0  0  0  0  0  0  0
   70.2175   49.3927   51.1605 O   0  0  0  0  0  0  0  0  0  0  0  0
   69.3932   49.3084   53.4416 C   0  0  0  0  0  0  0  0  0  0  0  0
   68.8303   48.5749   54.5013 C   0  0  0  0  0  0  0  0  0  0  0  0
   68.6025   49.2846   55.7518 C   0  0  0  0  0  0  0  0  0  0  0  0
   68.1080   48.6403   56.7124 O   0  0  0  0  0  0  0  0  0  0  0  0
   68.9300   50.7151   55.9373 C   0  0  0  0  0  0  0  0  0  0  0  0
   68.6934   51.3458   57.1416 C   0  0  0  0  0  0  0  0  0  0  0  0
   68.9823   52.6762   57.3565 C   0  0  0  0  0  0  0  0  0  0  0  0
   69.5318   53.3685   56.2900 C   0  0  0  0  0  0  0  0  0  0  0  0
   69.7712   52.7436   55.0820 C   0  0  0  0  0  0  0  0  0  0  0  0
   69.4697   51.3988   54.8938 C   0  0  0  0  0  0  0  0  0  0  0  0
   69.7132   50.7126   53.6267 C   0  0  0  0  0  0  0  0  0  0  0  0
   70.2181   51.4008   52.6897 O   0  0  0  0  0  0  0  0  0  0  0  0
   67.9854   46.4351   55.3454 N   0  0  0  0  0  0  0  0  0  0  0  0
   71.5401   45.4551   58.6521 C   0  0  0  0  0  0  0  0  0  0  0  0
   70.4708   45.0077   57.7288 C   0  0  0  0  0  0  0  0  0  0  0  0
   70.2129   43.6576   57.6441 C   0  0  0  0  0  0  0  0  0  0  0  0
   69.2091   43.2078   56.7816 C   0  0  0  0  0  0  0  0  0  0  0  0
   68.5137   44.1394   56.0452 C   0  0  0  0  0  0  0  0  0  0  0  0
   68.7409   45.4974   56.1013 C   0  0  0  0  0  0  0  0  0  0  0  0
   69.7541   45.9074   56.9767 C   0  0  0  0  0  0  0  0  0  0  0  0
 20 21  1  0
 21 22  2  0
 21 26  1  0
 22 23  1  0
 23 24  2  0
 24 25  1  0
 25 19  1  0
 25 26  2  0
 19  1  1  0
  1  2  2  0
  1  8  1  0
  2  3  1  0
  3  4  1  0
  3  5  2  0
  5  6  1  0
  5  7  1  0
  7  8  2  0
  7 17  1  0
  8  9  1  0
  9 10  2  0
  9 11  1  0
 11 12  2  0
 11 16  1  0
 12 13  1  0
 13 14  2  0
 14 15  1  0
 15 16  2  0
 16 17  1  0
 17 18  2  0
M  END
>  <minimizedAffinity>  (415) 
-8.72009

$$$$
cs_full_output_folder/data/smiles/2915.pdb
     RDKit          3D

 25 28  0  0  0  0  0  0  0  0999 V2000
   70.7698   49.1055   57.1803 C   0  0  0  0  0  0  0  0  0  0  0  0
   71.3887   45.5818   58.4222 C   0  0  0  0  0  0  0  0  0  0  0  0
   71.8640   45.8789   59.6985 C   0  0  0  0  0  0  0  0  0  0  0  0
   71.9845   47.1767   60.1527 C   0  0  0  0  0  0  0  0  0  0  0  0
   71.6296   48.2247   59.3320 C   0  0  0  0  0  0  0  0  0  0  0  0
   71.1577   47.9520   58.0685 C   0  0  0  0  0  0  0  0  0  0  0  0
   71.0434   46.6532   57.6296 C   0  0  0  0  0  0  0  0  0  0  0  0
   69.0496   44.2390   57.1133 O   0  0  0  0  0  0  0  0  0  0  0  0
   70.0487   43.6116   57.5799 C   0  0  0  0  0  0  0  0  0  0  0  0
   70.1563   42.1462   57.8033 C   0  0  0  0  0  0  0  0  0  0  0  0
   71.5789   41.9846   58.2917 C   0  0  0  0  0  0  0  0  0  0  0  0
   72.2902   43.2186   57.8310 C   0  0  0  0  0  0  0  0  0  0  0  0
   71.2744   44.2379   57.9802 N   0  0  0  0  0  0  0  0  0  0  0  0
   69.5047   48.8186   56.4453 C   0  0  0  0  0  0  0  0  0  0  0  0
   69.6424   48.7012   54.9804 C   0  0  0  0  0  0  0  0  0  0  0  0
   70.4492   49.5941   54.3885 N   0  0  0  0  0  0  0  0  0  0  0  0
   70.7130   49.6021   53.1213 N   0  0  0  0  0  0  0  0  0  0  0  0
   70.1901   48.6979   52.2811 C   0  0  0  0  0  0  0  0  0  0  0  0
   70.4653   48.7328   51.0689 O   0  0  0  0  0  0  0  0  0  0  0  0
   69.3533   47.7547   52.8352 C   0  0  0  0  0  0  0  0  0  0  0  0
   69.0595   47.7362   54.1975 C   0  0  0  0  0  0  0  0  0  0  0  0
   68.1339   46.7677   54.7909 C   0  0  0  0  0  0  0  0  0  0  0  0
   68.1406   45.5245   53.8897 C   0  0  0  0  0  0  0  0  0  0  0  0
   67.6549   46.0330   52.5361 C   0  0  0  0  0  0  0  0  0  0  0  0
   68.7864   46.7593   51.8767 C   0  0  0  0  0  0  0  0  0  0  0  0
  8  9  2  0
  9 10  1  0
  9 13  1  0
 10 11  1  0
 11 12  1  0
 12 13  1  0
 13  2  1  0
  2  3  2  0
  2  7  1  0
  3  4  1  0
  4  5  2  0
  5  6  1  0
  6  1  1  0
  6  7  2  0
  1 14  1  0
 14 15  1  0
 15 16  2  0
 15 21  1  0
 16 17  1  0
 17 18  1  0
 18 19  2  0
 18 20  1  0
 20 21  2  0
 20 25  1  0
 21 22  1  0
 22 23  1  0
 23 24  1  0
 24 25  1  0
M  END
>  <minimizedAffinity>  (416) 
-8.71833

$$$$
cs_full_output_folder/data/smiles/6526.pdb
     RDKit          3D

 25 27  0  0  0  0  0  0  0  0999 V2000
   72.0930   47.3409   58.5040 C   0  0  0  0  0  0  0  0  0  0  0  0
   71.8660   45.9878   58.6199 C   0  0  0  0  0  0  0  0  0  0  0  0
   70.7480   45.4311   58.0207 C   0  0  0  0  0  0  0  0  0  0  0  0
   69.8818   46.2376   57.3197 C   0  0  0  0  0  0  0  0  0  0  0  0
   70.0759   47.6208   57.1791 C   0  0  0  0  0  0  0  0  0  0  0  0
   71.1989   48.1175   57.7920 C   0  0  0  0  0  0  0  0  0  0  0  0
   72.2330   47.7546   61.2186 O   0  0  0  0  0  0  0  0  0  0  0  0
   73.2380   48.1072   60.5136 C   0  0  0  0  0  0  0  0  0  0  0  0
   73.2307   47.9237   59.1061 N   0  0  0  0  0  0  0  0  0  0  0  0
   74.3849   48.7048   61.2333 C   0  0  0  0  0  0  0  0  0  0  0  0
   75.5864   48.4200   60.5786 F   0  0  0  0  0  0  0  0  0  0  0  0
   74.4061   48.2206   62.5208 F   0  0  0  0  0  0  0  0  0  0  0  0
   74.2018   50.0798   61.3043 F   0  0  0  0  0  0  0  0  0  0  0  0
   69.1002   48.4253   56.3844 C   0  0  0  0  0  0  0  0  0  0  0  0
   69.4032   48.4720   54.9479 C   0  0  0  0  0  0  0  0  0  0  0  0
   70.2882   49.4070   54.5097 N   0  0  0  0  0  0  0  0  0  0  0  0
   70.6648   49.5067   53.2451 N   0  0  0  0  0  0  0  0  0  0  0  0
   70.1831   48.6711   52.3024 C   0  0  0  0  0  0  0  0  0  0  0  0
   70.5382   48.7599   51.0937 O   0  0  0  0  0  0  0  0  0  0  0  0
   69.2842   47.6983   52.6511 C   0  0  0  0  0  0  0  0  0  0  0  0
   68.7529   46.8245   51.7061 C   0  0  0  0  0  0  0  0  0  0  0  0
   67.8455   45.8741   52.0969 C   0  0  0  0  0  0  0  0  0  0  0  0
   67.4755   45.8045   53.4316 C   0  0  0  0  0  0  0  0  0  0  0  0
   68.0105   46.6768   54.3570 C   0  0  0  0  0  0  0  0  0  0  0  0
   68.9061   47.6164   53.9893 C   0  0  0  0  0  0  0  0  0  0  0  0
  7  8  2  0
  8  9  1  0
  8 10  1  0
  9  1  1  0
  1  2  2  0
  1  6  1  0
  2  3  1  0
  3  4  2  0
  4  5  1  0
  5 14  1  0
  5  6  2  0
 14 15  1  0
 15 16  2  0
 15 25  1  0
 16 17  1  0
 17 18  1  0
 18 19  2  0
 18 20  1  0
 20 21  1  0
 20 25  2  0
 21 22  2  0
 22 23  1  0
 23 24  2  0
 24 25  1  0
 10 11  1  0
 10 12  1  0
 10 13  1  0
M  END
>  <minimizedAffinity>  (417) 
-8.71751

$$$$
cs_full_output_folder/data/smiles/715.pdb
     RDKit          3D

 24 26  0  0  0  0  0  0  0  0999 V2000
   70.7668   46.2336   58.2544 C   0  0  0  0  0  0  0  0  0  0  0  0
   69.8681   46.9270   57.4287 C   0  0  0  0  0  0  0  0  0  0  0  0
   70.0032   48.2719   57.1246 C   0  0  0  0  0  0  0  0  0  0  0  0
   71.0688   48.9386   57.6611 C   0  0  0  0  0  0  0  0  0  0  0  0
   71.9850   48.3161   58.4773 C   0  0  0  0  0  0  0  0  0  0  0  0
   71.8041   46.9582   58.7545 C   0  0  0  0  0  0  0  0  0  0  0  0
   72.7606   46.4288   59.5529 F   0  0  0  0  0  0  0  0  0  0  0  0
   71.3013   43.8075   57.9385 N   0  0  0  0  0  0  0  0  0  0  0  0
   70.5513   44.8326   58.5418 C   0  0  0  0  0  0  0  0  0  0  0  0
   69.6628   44.4562   59.3665 O   0  0  0  0  0  0  0  0  0  0  0  0
   72.2795   41.6401   58.2404 C   0  0  0  0  0  0  0  0  0  0  0  0
   70.9915   42.4235   58.3035 C   0  0  0  0  0  0  0  0  0  0  0  0
   68.9724   48.8367   56.2237 C   0  0  0  0  0  0  0  0  0  0  0  0
   69.3234   48.7600   54.7939 C   0  0  0  0  0  0  0  0  0  0  0  0
   70.1858   49.6893   54.2657 N   0  0  0  0  0  0  0  0  0  0  0  0
   70.5767   49.6635   53.0075 N   0  0  0  0  0  0  0  0  0  0  0  0
   70.1730   48.7419   52.1412 C   0  0  0  0  0  0  0  0  0  0  0  0
   70.5296   48.6926   50.9374 O   0  0  0  0  0  0  0  0  0  0  0  0
   69.2997   47.7605   52.5818 C   0  0  0  0  0  0  0  0  0  0  0  0
   68.8487   46.7889   51.6999 C   0  0  0  0  0  0  0  0  0  0  0  0
   67.9724   45.8180   52.1165 C   0  0  0  0  0  0  0  0  0  0  0  0
   67.5787   45.8724   53.4444 C   0  0  0  0  0  0  0  0  0  0  0  0
   68.0234   46.8373   54.3308 C   0  0  0  0  0  0  0  0  0  0  0  0
   68.8968   47.7999   53.9071 C   0  0  0  0  0  0  0  0  0  0  0  0
 11 12  1  0
 12  8  1  0
  8  9  1  0
  9 10  2  0
  9  1  1  0
  1  2  2  0
  1  6  1  0
  2  3  1  0
  3 13  1  0
  3  4  2  0
 13 14  1  0
 14 15  2  0
 14 24  1  0
 15 16  1  0
 16 17  1  0
 17 18  2  0
 17 19  1  0
 19 20  1  0
 19 24  2  0
 20 21  2  0
 21 22  1  0
 22 23  2  0
 23 24  1  0
  4  5  1  0
  5  6  2  0
  6  7  1  0
M  END
>  <minimizedAffinity>  (418) 
-8.71605

$$$$
cs_full_output_folder/data/smiles/6533.pdb
     RDKit          3D

 24 26  0  0  0  0  0  0  0  0999 V2000
   68.3151   44.5073   56.0122 N   0  0  0  0  0  0  0  0  0  0  0  0
   69.1648   43.7083   56.8023 C   0  0  0  0  0  0  0  0  0  0  0  0
   70.1733   44.2498   57.3183 O   0  0  0  0  0  0  0  0  0  0  0  0
   68.9412   42.2867   57.0572 C   0  0  0  0  0  0  0  0  0  0  0  0
   67.9177   41.4968   56.5685 C   0  0  0  0  0  0  0  0  0  0  0  0
   68.0899   40.2481   57.0503 N   0  0  0  0  0  0  0  0  0  0  0  0
   69.1581   40.1759   57.8188 N   0  0  0  0  0  0  0  0  0  0  0  0
   69.6855   41.4148   57.8293 C   0  0  0  0  0  0  0  0  0  0  0  0
   70.8053   41.7383   58.5211 F   0  0  0  0  0  0  0  0  0  0  0  0
   69.6348   39.0033   58.4915 C   0  0  0  0  0  0  0  0  0  0  0  0
   70.8508   38.4164   58.2042 C   0  0  0  0  0  0  0  0  0  0  0  0
   71.2930   37.2821   58.8686 C   0  0  0  0  0  0  0  0  0  0  0  0
   70.5290   36.6987   59.8433 C   0  0  0  0  0  0  0  0  0  0  0  0
   69.3093   37.2671   60.1490 C   0  0  0  0  0  0  0  0  0  0  0  0
   68.8815   38.4009   59.4765 C   0  0  0  0  0  0  0  0  0  0  0  0
   68.5495   45.9268   55.7646 C   0  0  0  0  0  0  0  0  0  0  0  0
   69.2355   47.5813   52.4672 C   0  0  0  0  0  0  0  0  0  0  0  0
   68.4590   46.8251   51.6146 C   0  0  0  0  0  0  0  0  0  0  0  0
   67.7101   45.7770   52.1053 C   0  0  0  0  0  0  0  0  0  0  0  0
   67.7153   45.4567   53.4438 C   0  0  0  0  0  0  0  0  0  0  0  0
   68.4947   46.2132   54.3067 C   0  0  0  0  0  0  0  0  0  0  0  0
   69.2411   47.2618   53.8007 C   0  0  0  0  0  0  0  0  0  0  0  0
   71.1493   49.0560   52.7144 N   0  0  0  0  0  0  0  0  0  0  0  0
   70.0161   48.6911   51.8859 C   0  0  0  0  0  0  0  0  0  0  0  0
 23 24  1  0
 24 17  1  0
 17 18  2  0
 17 22  1  0
 18 19  1  0
 19 20  2  0
 20 21  1  0
 21 16  1  0
 21 22  2  0
 16  1  1  0
  1  2  1  0
  2  3  2  0
  2  4  1  0
  4  5  1  0
  4  8  2  0
  5  6  2  0
  6  7  1  0
  7 10  1  0
  7  8  1  0
 10 11  2  0
 10 15  1  0
 11 12  1  0
 12 13  2  0
 13 14  1  0
 14 15  2  0
  8  9  1  0
M  CHG  1  23   1
M  END
>  <minimizedAffinity>  (419) 
-8.71582

$$$$
cs_full_output_folder/data/smiles/664.pdb
     RDKit          3D

 20 21  0  0  0  0  0  0  0  0999 V2000
   68.5938   45.8615   55.6666 C   0  0  0  0  0  0  0  0  0  0  0  0
   68.9598   46.5066   56.6493 N   0  0  0  0  0  0  0  0  0  0  0  0
   69.3790   47.7335   52.4730 C   0  0  0  0  0  0  0  0  0  0  0  0
   68.5640   47.0819   51.5831 C   0  0  0  0  0  0  0  0  0  0  0  0
   67.7875   46.0528   52.0638 C   0  0  0  0  0  0  0  0  0  0  0  0
   67.8574   45.7284   53.3736 C   0  0  0  0  0  0  0  0  0  0  0  0
   68.6746   46.3637   54.3154 C   0  0  0  0  0  0  0  0  0  0  0  0
   69.4364   47.3781   53.8346 C   0  0  0  0  0  0  0  0  0  0  0  0
   71.2553   49.0626   52.6145 O   0  0  0  0  0  0  0  0  0  0  0  0
   70.1959   48.8004   52.0204 N   0  0  0  0  0  0  0  0  0  0  0  0
   69.8648   49.5726   50.9346 O   0  0  0  0  0  0  0  0  0  0  0  0
   68.0745   44.5342   55.9628 N   0  0  0  0  0  0  0  0  0  0  0  0
   69.1365   43.2649   56.9263 Br  0  0  0  0  0  0  0  0  0  0  0  0
   69.5007   47.7360   56.8805 C   0  0  0  0  0  0  0  0  0  0  0  0
   68.5051   48.8401   57.1187 C   0  0  0  0  0  0  0  0  0  0  0  0
   67.3371   48.6634   57.8161 C   0  0  0  0  0  0  0  0  0  0  0  0
   66.4281   49.6865   58.0305 C   0  0  0  0  0  0  0  0  0  0  0  0
   66.7260   50.9229   57.5151 C   0  0  0  0  0  0  0  0  0  0  0  0
   67.8755   51.1788   56.8047 C   0  0  0  0  0  0  0  0  0  0  0  0
   68.7421   50.1289   56.6213 C   0  0  0  0  0  0  0  0  0  0  0  0
  9 10  2  0
 10 11  1  0
 10  3  1  0
  3  4  2  0
  3  8  1  0
  4  5  1  0
  5  6  2  0
  6  7  1  0
  7  1  1  0
  7  8  2  0
  1  2  2  0
  1 12  1  0
  2 14  1  0
 14 15  1  0
 15 16  2  0
 15 20  1  0
 16 17  1  0
 17 18  2  0
 18 19  1  0
 19 20  2  0
 12 13  1  0
M  CHG  3   2   1  10   1  11  -1
M  END
>  <minimizedAffinity>  (420) 
-8.71536

$$$$
cs_full_output_folder/data/smiles/5954.pdb
     RDKit          3D

 23 25  0  0  0  0  0  0  0  0999 V2000
   67.2399   44.7105   53.9660 O   0  0  0  0  0  0  0  0  0  0  0  0
   68.0188   45.2656   54.7690 C   0  0  0  0  0  0  0  0  0  0  0  0
   68.3515   44.5399   55.9429 N   0  0  0  0  0  0  0  0  0  0  0  0
   67.8272   43.2498   56.1949 N   0  0  0  0  0  0  0  0  0  0  0  0
   68.4307   42.4020   56.9596 C   0  0  0  0  0  0  0  0  0  0  0  0
   67.7998   41.0893   57.1544 C   0  0  0  0  0  0  0  0  0  0  0  0
   68.5334   40.1758   58.0686 C   0  0  0  0  0  0  0  0  0  0  0  0
   69.9612   40.4629   58.2227 C   0  0  0  0  0  0  0  0  0  0  0  0
   70.7819   39.4043   58.6251 C   0  0  0  0  0  0  0  0  0  0  0  0
   72.1454   39.5704   58.8005 C   0  0  0  0  0  0  0  0  0  0  0  0
   72.7187   40.8035   58.5764 C   0  0  0  0  0  0  0  0  0  0  0  0
   71.9087   41.8433   58.1808 C   0  0  0  0  0  0  0  0  0  0  0  0
   70.5361   41.6775   58.0041 C   0  0  0  0  0  0  0  0  0  0  0  0
   69.7103   42.8159   57.5806 C   0  0  0  0  0  0  0  0  0  0  0  0
   68.5305   46.5961   54.4613 C   0  0  0  0  0  0  0  0  0  0  0  0
   68.6001   47.5615   55.4452 C   0  0  0  0  0  0  0  0  0  0  0  0
   69.0750   48.8365   55.2141 C   0  0  0  0  0  0  0  0  0  0  0  0
   69.4988   49.1764   53.9607 C   0  0  0  0  0  0  0  0  0  0  0  0
   69.4480   48.2486   52.9497 C   0  0  0  0  0  0  0  0  0  0  0  0
   68.9656   46.9721   53.2083 C   0  0  0  0  0  0  0  0  0  0  0  0
   69.8951   48.6276   51.6521 N   0  0  0  0  0  0  0  0  0  0  0  0
   70.4366   47.8174   50.8819 O   0  0  0  0  0  0  0  0  0  0  0  0
   69.7363   49.9193   51.2138 O   0  0  0  0  0  0  0  0  0  0  0  0
  1  2  2  0
  2  3  1  0
  2 15  1  0
  3  4  1  0
  4  5  2  0
  5  6  1  0
  5 14  1  0
  6  7  1  0
  7  8  1  0
  8  9  2  0
  8 13  1  0
  9 10  1  0
 10 11  2  0
 11 12  1  0
 12 13  2  0
 13 14  1  0
 15 16  2  0
 15 20  1  0
 16 17  1  0
 17 18  2  0
 18 19  1  0
 19 21  1  0
 19 20  2  0
 21 22  2  0
 21 23  1  0
M  CHG  2  21   1  23  -1
M  END
>  <minimizedAffinity>  (421) 
-8.71347

$$$$
cs_full_output_folder/data/smiles/942.pdb
     RDKit          3D

 23 26  0  0  0  0  0  0  0  0999 V2000
   68.8033   47.8251   56.3952 C   0  0  0  0  0  0  0  0  0  0  0  0
   72.4066   46.3007   59.1009 O   0  0  0  0  0  0  0  0  0  0  0  0
   71.4001   46.0383   58.3759 C   0  0  0  0  0  0  0  0  0  0  0  0
   70.6701   47.0056   57.8000 N   0  0  0  0  0  0  0  0  0  0  0  0
   69.5913   46.7039   57.0242 C   0  0  0  0  0  0  0  0  0  0  0  0
   69.3053   45.4089   56.8704 N   0  0  0  0  0  0  0  0  0  0  0  0
   70.0051   44.4060   57.4257 C   0  0  0  0  0  0  0  0  0  0  0  0
   69.6483   43.0663   57.2220 C   0  0  0  0  0  0  0  0  0  0  0  0
   70.3488   42.0191   57.7787 C   0  0  0  0  0  0  0  0  0  0  0  0
   71.4373   42.3305   58.5619 C   0  0  0  0  0  0  0  0  0  0  0  0
   71.8038   43.6661   58.7729 C   0  0  0  0  0  0  0  0  0  0  0  0
   71.0842   44.6902   58.2027 C   0  0  0  0  0  0  0  0  0  0  0  0
   69.2795   48.0215   55.0149 C   0  0  0  0  0  0  0  0  0  0  0  0
   70.2056   48.9484   54.7573 N   0  0  0  0  0  0  0  0  0  0  0  0
   70.6382   49.2060   53.5162 N   0  0  0  0  0  0  0  0  0  0  0  0
   70.1675   48.5448   52.4396 C   0  0  0  0  0  0  0  0  0  0  0  0
   70.6137   48.8294   51.2771 O   0  0  0  0  0  0  0  0  0  0  0  0
   69.2097   47.5752   52.6539 C   0  0  0  0  0  0  0  0  0  0  0  0
   68.7234   46.8776   51.5701 C   0  0  0  0  0  0  0  0  0  0  0  0
   67.7790   45.8932   51.7309 C   0  0  0  0  0  0  0  0  0  0  0  0
   67.3317   45.6259   53.0269 C   0  0  0  0  0  0  0  0  0  0  0  0
   67.8187   46.3255   54.1100 C   0  0  0  0  0  0  0  0  0  0  0  0
   68.7660   47.3154   53.9588 C   0  0  0  0  0  0  0  0  0  0  0  0
  2  3  2  0
  3  4  1  0
  3 12  1  0
  4  5  1  0
  5  1  1  0
  5  6  2  0
  1 13  1  0
 13 14  2  0
 13 23  1  0
 14 15  1  0
 15 16  1  0
 16 17  2  0
 16 18  1  0
 18 19  1  0
 18 23  2  0
 19 20  2  0
 20 21  1  0
 21 22  2  0
 22 23  1  0
  6  7  1  0
  7  8  1  0
  7 12  2  0
  8  9  2  0
  9 10  1  0
 10 11  2  0
 11 12  1  0
M  END
>  <minimizedAffinity>  (422) 
-8.71297

$$$$
cs_full_output_folder/data/smiles/8305.pdb
     RDKit          3D

 26 29  0  0  0  0  0  0  0  0999 V2000
   73.2585   35.5631   52.4386 O   0  0  0  0  0  0  0  0  0  0  0  0
   74.1722   35.1761   53.1684 C   0  0  0  0  0  0  0  0  0  0  0  0
   75.3380   34.6230   52.6200 N   0  0  0  0  0  0  0  0  0  0  0  0
   75.6270   34.4347   51.2412 C   0  0  0  0  0  0  0  0  0  0  0  0
   74.8332   33.7424   50.3755 C   0  0  0  0  0  0  0  0  0  0  0  0
   75.1924   33.6023   49.0217 C   0  0  0  0  0  0  0  0  0  0  0  0
   76.3551   34.1609   48.5443 C   0  0  0  0  0  0  0  0  0  0  0  0
   76.7308   34.0342   47.2062 C   0  0  0  0  0  0  0  0  0  0  0  0
   77.9014   34.5960   46.7252 C   0  0  0  0  0  0  0  0  0  0  0  0
   78.7197   35.3006   47.5848 C   0  0  0  0  0  0  0  0  0  0  0  0
   78.3356   35.4170   48.8985 C   0  0  0  0  0  0  0  0  0  0  0  0
   77.1743   34.8636   49.3978 C   0  0  0  0  0  0  0  0  0  0  0  0
   76.7996   34.9851   50.7086 C   0  0  0  0  0  0  0  0  0  0  0  0
   74.0303   35.3013   54.6321 C   0  0  0  0  0  0  0  0  0  0  0  0
   72.8635   35.6285   55.3246 C   0  0  0  0  0  0  0  0  0  0  0  0
   73.1253   35.6480   56.6670 C   0  0  0  0  0  0  0  0  0  0  0  0
   74.4329   35.3354   56.7735 N   0  0  0  0  0  0  0  0  0  0  0  0
   74.9533   35.1340   55.5761 N   0  0  0  0  0  0  0  0  0  0  0  0
   72.2486   35.9322   57.7916 C   0  0  0  0  0  0  0  0  0  0  0  0
   71.8110   37.2466   58.0157 C   0  0  0  0  0  0  0  0  0  0  0  0
   70.9826   37.5882   59.0569 C   0  0  0  0  0  0  0  0  0  0  0  0
   70.5333   36.6398   59.9502 C   0  0  0  0  0  0  0  0  0  0  0  0
   69.6948   37.0094   60.9975 O   0  0  0  0  0  0  0  0  0  0  0  0
   70.9498   35.3450   59.7499 C   0  0  0  0  0  0  0  0  0  0  0  0
   71.7954   34.9967   58.6862 C   0  0  0  0  0  0  0  0  0  0  0  0
   72.1911   33.6680   58.5242 O   0  0  0  0  0  0  0  0  0  0  0  0
  1  2  2  0
  2  3  1  0
  2 14  1  0
  3  4  1  0
  4  5  2  0
  4 13  1  0
  5  6  1  0
  6  7  2  0
  7  8  1  0
  7 12  1  0
  8  9  2  0
  9 10  1  0
 10 11  2  0
 11 12  1  0
 12 13  2  0
 14 15  2  0
 14 18  1  0
 15 16  1  0
 16 19  1  0
 16 17  2  0
 19 20  2  0
 19 25  1  0
 20 21  1  0
 21 22  2  0
 22 23  1  0
 22 24  1  0
 24 25  2  0
 25 26  1  0
 17 18  1  0
M  END
>  <minimizedAffinity>  (423) 
-8.71291

$$$$
cs_full_output_folder/data/smiles/991.pdb
     RDKit          3D

 21 23  0  0  0  0  0  0  0  0999 V2000
   70.5334   49.3027   54.0661 C   0  0  0  0  0  0  0  0  0  0  0  0
   71.7147   49.5647   53.4645 N   0  0  0  0  0  0  0  0  0  0  0  0
   72.3054   50.5943   54.0397 N   0  0  0  0  0  0  0  0  0  0  0  0
   71.5547   51.0727   55.0502 C   0  0  0  0  0  0  0  0  0  0  0  0
   70.4309   50.2436   55.0588 C   0  0  0  0  0  0  0  0  0  0  0  0
   66.9341   45.1222   52.6705 O   0  0  0  0  0  0  0  0  0  0  0  0
   67.8166   46.1498   52.9988 C   0  0  0  0  0  0  0  0  0  0  0  0
   68.1420   46.4138   54.3139 C   0  0  0  0  0  0  0  0  0  0  0  0
   69.0122   47.4261   54.6484 C   0  0  0  0  0  0  0  0  0  0  0  0
   69.6122   48.2425   53.6925 C   0  0  0  0  0  0  0  0  0  0  0  0
   69.2811   47.9730   52.3811 C   0  0  0  0  0  0  0  0  0  0  0  0
   69.8605   48.7671   51.3872 O   0  0  0  0  0  0  0  0  0  0  0  0
   68.3983   46.9447   52.0349 C   0  0  0  0  0  0  0  0  0  0  0  0
   68.1037   46.7204   50.6957 O   0  0  0  0  0  0  0  0  0  0  0  0
   69.3022   50.3351   55.9811 C   0  0  0  0  0  0  0  0  0  0  0  0
   69.3192   49.4563   57.0678 C   0  0  0  0  0  0  0  0  0  0  0  0
   68.2510   49.5386   57.9344 C   0  0  0  0  0  0  0  0  0  0  0  0
   67.2063   50.4306   57.7652 C   0  0  0  0  0  0  0  0  0  0  0  0
   67.2272   51.2790   56.6812 C   0  0  0  0  0  0  0  0  0  0  0  0
   68.2812   51.2392   55.7729 C   0  0  0  0  0  0  0  0  0  0  0  0
   68.3050   52.3181   54.3813 Cl  0  0  0  0  0  0  0  0  0  0  0  0
  6  7  1  0
  7  8  2  0
  7 13  1  0
  8  9  1  0
  9 10  2  0
 10  1  1  0
 10 11  1  0
  1  2  2  0
  1  5  1  0
  2  3  1  0
  3  4  1  0
  4  5  2  0
  5 15  1  0
 15 16  2  0
 15 20  1  0
 16 17  1  0
 17 18  2  0
 18 19  1  0
 19 20  2  0
 20 21  1  0
 11 12  1  0
 11 13  2  0
 13 14  1  0
M  END
>  <minimizedAffinity>  (424) 
-8.71289

$$$$
cs_full_output_folder/data/smiles/4596.pdb
     RDKit          3D

 23 25  0  0  0  0  0  0  0  0999 V2000
   68.7057   45.1539   56.1191 C   0  0  0  0  0  0  0  0  0  0  0  0
   69.5275   46.1281   56.6983 C   0  0  0  0  0  0  0  0  0  0  0  0
   70.4866   45.7561   57.6013 C   0  0  0  0  0  0  0  0  0  0  0  0
   70.6535   44.4424   57.9464 C   0  0  0  0  0  0  0  0  0  0  0  0
   69.8665   43.4582   57.4004 C   0  0  0  0  0  0  0  0  0  0  0  0
   68.8986   43.8466   56.4876 C   0  0  0  0  0  0  0  0  0  0  0  0
   70.0249   42.0516   57.7521 C   0  0  0  0  0  0  0  0  0  0  0  0
   71.2731   41.5648   58.0861 C   0  0  0  0  0  0  0  0  0  0  0  0
   71.4691   40.2394   58.4258 C   0  0  0  0  0  0  0  0  0  0  0  0
   70.3845   39.3807   58.4305 C   0  0  0  0  0  0  0  0  0  0  0  0
   69.1347   39.8319   58.1053 C   0  0  0  0  0  0  0  0  0  0  0  0
   68.9757   41.1543   57.7719 C   0  0  0  0  0  0  0  0  0  0  0  0
   67.7226   45.6117   55.2104 N   0  0  0  0  0  0  0  0  0  0  0  0
   69.1358   47.8464   52.5938 C   0  0  0  0  0  0  0  0  0  0  0  0
   68.8086   47.3585   53.8359 C   0  0  0  0  0  0  0  0  0  0  0  0
   68.0874   46.1989   53.9804 C   0  0  0  0  0  0  0  0  0  0  0  0
   67.7100   45.5506   52.8154 C   0  0  0  0  0  0  0  0  0  0  0  0
   68.0286   46.0256   51.5815 C   0  0  0  0  0  0  0  0  0  0  0  0
   68.7362   47.1659   51.5096 N   0  0  0  0  0  0  0  0  0  0  0  0
   69.4357   50.6064   53.3176 N   0  0  0  0  0  0  0  0  0  0  0  0
   70.0497   49.3151   52.3564 S   0  0  0  0  0  0  0  0  0  0  0  0
   71.4830   49.0039   52.7029 O   0  0  0  0  0  0  0  0  0  0  0  0
   69.9059   49.7147   50.9126 O   0  0  0  0  0  0  0  0  0  0  0  0
 20 21  1  0
 21 22  2  0
 21 23  2  0
 21 14  1  0
 14 15  2  0
 14 19  1  0
 15 16  1  0
 16 13  1  0
 16 17  2  0
 13  1  1  0
  1  2  2  0
  1  6  1  0
  2  3  1  0
  3  4  2  0
  4  5  1  0
  5  7  1  0
  5  6  2  0
  7  8  2  0
  7 12  1  0
  8  9  1  0
  9 10  2  0
 10 11  1  0
 11 12  2  0
 17 18  1  0
 18 19  2  0
M  END
>  <minimizedAffinity>  (425) 
-8.70974

$$$$
cs_full_output_folder/data/smiles/4857.pdb
     RDKit          3D

 25 28  0  0  0  0  0  0  0  0999 V2000
   74.5170   50.2779   56.2565 C   0  0  0  0  0  0  0  0  0  0  0  0
   74.1063   50.9666   55.1434 C   0  0  0  0  0  0  0  0  0  0  0  0
   72.7616   51.0272   54.7496 C   0  0  0  0  0  0  0  0  0  0  0  0
   71.7991   50.3900   55.4763 C   0  0  0  0  0  0  0  0  0  0  0  0
   72.2588   49.6969   56.6065 C   0  0  0  0  0  0  0  0  0  0  0  0
   73.5535   49.6560   56.9582 N   0  0  0  0  0  0  0  0  0  0  0  0
   76.5242   49.1878   54.6425 O   0  0  0  0  0  0  0  0  0  0  0  0
   76.8808   49.6900   55.7356 C   0  0  0  0  0  0  0  0  0  0  0  0
   75.8969   50.2597   56.5994 N   0  0  0  0  0  0  0  0  0  0  0  0
   78.2829   49.6870   56.1123 C   0  0  0  0  0  0  0  0  0  0  0  0
   79.0386   50.1657   57.0965 C   0  0  0  0  0  0  0  0  0  0  0  0
   80.2447   49.6102   56.5227 C   0  0  0  0  0  0  0  0  0  0  0  0
   79.4933   49.1329   55.5413 C   0  0  0  0  0  0  0  0  0  0  0  0
   70.3457   50.3861   55.1891 C   0  0  0  0  0  0  0  0  0  0  0  0
   70.0584   49.4735   54.0754 C   0  0  0  0  0  0  0  0  0  0  0  0
   70.6784   49.6324   52.8590 N   0  0  0  0  0  0  0  0  0  0  0  0
   70.4759   48.8063   51.8475 N   0  0  0  0  0  0  0  0  0  0  0  0
   69.6449   47.7421   51.9313 C   0  0  0  0  0  0  0  0  0  0  0  0
   69.4687   46.9684   50.9555 O   0  0  0  0  0  0  0  0  0  0  0  0
   68.9924   47.5271   53.1208 C   0  0  0  0  0  0  0  0  0  0  0  0
   69.2228   48.4194   54.1804 C   0  0  0  0  0  0  0  0  0  0  0  0
   68.4565   48.1427   55.3952 C   0  0  0  0  0  0  0  0  0  0  0  0
   68.7313   46.7137   55.8089 C   0  0  0  0  0  0  0  0  0  0  0  0
   68.4308   45.7392   54.6996 C   0  0  0  0  0  0  0  0  0  0  0  0
   68.0626   46.4077   53.3924 C   0  0  0  0  0  0  0  0  0  0  0  0
  7  8  2  0
  8  9  1  0
  8 10  1  0
  9  1  1  0
  1  2  2  0
  1  6  1  0
  2  3  1  0
  3  4  2  0
  4 14  1  0
  4  5  1  0
 14 15  1  0
 15 16  2  0
 15 21  1  0
 16 17  1  0
 17 18  1  0
 18 19  2  0
 18 20  1  0
 20 21  2  0
 20 25  1  0
 21 22  1  0
 22 23  1  0
 23 24  1  0
 24 25  1  0
  5  6  2  0
 10 11  2  0
 10 13  1  0
 11 12  1  0
 12 13  2  0
M  END
>  <minimizedAffinity>  (426) 
-8.70915

$$$$
cs_full_output_folder/data/smiles/7043.pdb
     RDKit          3D

 24 26  0  0  0  0  0  0  0  0999 V2000
   70.8618   47.4153   57.3877 O   0  0  0  0  0  0  0  0  0  0  0  0
   69.7202   47.1734   56.9349 C   0  0  0  0  0  0  0  0  0  0  0  0
   69.2062   45.8600   57.0531 N   0  0  0  0  0  0  0  0  0  0  0  0
   69.9411   44.8367   57.6583 N   0  0  0  0  0  0  0  0  0  0  0  0
   70.1082   43.7164   57.0831 C   0  0  0  0  0  0  0  0  0  0  0  0
   70.8725   42.6369   57.6989 C   0  0  0  0  0  0  0  0  0  0  0  0
   70.2180   41.5113   58.1705 C   0  0  0  0  0  0  0  0  0  0  0  0
   70.8777   40.4567   58.7614 C   0  0  0  0  0  0  0  0  0  0  0  0
   72.2570   40.5642   58.8698 C   0  0  0  0  0  0  0  0  0  0  0  0
   72.9503   41.6654   58.4152 C   0  0  0  0  0  0  0  0  0  0  0  0
   72.2340   42.6927   57.8308 C   0  0  0  0  0  0  0  0  0  0  0  0
   72.9185   43.7850   57.3796 F   0  0  0  0  0  0  0  0  0  0  0  0
   68.9101   48.2334   56.2856 C   0  0  0  0  0  0  0  0  0  0  0  0
   69.3317   48.3720   54.9066 C   0  0  0  0  0  0  0  0  0  0  0  0
   70.2166   49.3187   54.5593 N   0  0  0  0  0  0  0  0  0  0  0  0
   70.6321   49.4817   53.2963 N   0  0  0  0  0  0  0  0  0  0  0  0
   70.1755   48.6954   52.3038 C   0  0  0  0  0  0  0  0  0  0  0  0
   70.5409   48.8166   51.1072 O   0  0  0  0  0  0  0  0  0  0  0  0
   69.2611   47.6967   52.5807 C   0  0  0  0  0  0  0  0  0  0  0  0
   68.7597   46.8637   51.6078 C   0  0  0  0  0  0  0  0  0  0  0  0
   67.8496   45.8831   51.9264 C   0  0  0  0  0  0  0  0  0  0  0  0
   67.4226   45.7220   53.2516 C   0  0  0  0  0  0  0  0  0  0  0  0
   67.9471   46.5748   54.1933 C   0  0  0  0  0  0  0  0  0  0  0  0
   68.8558   47.5589   53.8948 C   0  0  0  0  0  0  0  0  0  0  0  0
  1  2  2  0
  2 13  1  0
  2  3  1  0
 13 14  1  0
 14 15  2  0
 14 24  1  0
 15 16  1  0
 16 17  1  0
 17 18  2  0
 17 19  1  0
 19 20  1  0
 19 24  2  0
 20 21  2  0
 21 22  1  0
 22 23  2  0
 23 24  1  0
  3  4  1  0
  4  5  2  0
  5  6  1  0
  6  7  2  0
  6 11  1  0
  7  8  1  0
  8  9  2  0
  9 10  1  0
 10 11  2  0
 11 12  1  0
M  END
>  <minimizedAffinity>  (427) 
-8.70898

$$$$
cs_full_output_folder/data/smiles/293.pdb
     RDKit          3D

 24 26  0  0  0  0  0  0  0  0999 V2000
   70.6608   43.6225   57.8802 C   0  0  0  0  0  0  0  0  0  0  0  0
   71.5015   44.5432   58.4661 C   0  0  0  0  0  0  0  0  0  0  0  0
   71.3029   45.9064   58.2988 C   0  0  0  0  0  0  0  0  0  0  0  0
   70.2546   46.3725   57.5385 C   0  0  0  0  0  0  0  0  0  0  0  0
   69.3890   45.4788   56.9337 C   0  0  0  0  0  0  0  0  0  0  0  0
   69.6187   44.1181   57.1244 C   0  0  0  0  0  0  0  0  0  0  0  0
   71.4804   37.9561   58.6208 C   0  0  0  0  0  0  0  0  0  0  0  0
   71.2978   39.4238   58.4326 C   0  0  0  0  0  0  0  0  0  0  0  0
   70.0377   39.9534   58.2434 C   0  0  0  0  0  0  0  0  0  0  0  0
   69.8304   41.3067   58.0655 C   0  0  0  0  0  0  0  0  0  0  0  0
   70.8876   42.1933   58.0699 C   0  0  0  0  0  0  0  0  0  0  0  0
   72.1464   41.6598   58.2584 C   0  0  0  0  0  0  0  0  0  0  0  0
   72.3581   40.3068   58.4369 C   0  0  0  0  0  0  0  0  0  0  0  0
   68.3132   45.9860   56.1793 N   0  0  0  0  0  0  0  0  0  0  0  0
   68.4462   46.3540   54.8213 C   0  0  0  0  0  0  0  0  0  0  0  0
   67.9419   45.6061   53.7683 C   0  0  0  0  0  0  0  0  0  0  0  0
   68.0979   46.0408   52.4708 C   0  0  0  0  0  0  0  0  0  0  0  0
   68.7313   47.1855   52.1705 N   0  0  0  0  0  0  0  0  0  0  0  0
   69.2347   47.9404   53.1501 C   0  0  0  0  0  0  0  0  0  0  0  0
   69.0945   47.5334   54.4494 C   0  0  0  0  0  0  0  0  0  0  0  0
   70.0509   49.4220   52.7015 S   0  0  0  0  0  0  0  0  0  0  0  0
   69.8185   49.6174   50.9851 N   0  0  0  0  0  0  0  0  0  0  0  0
   69.4982   50.6076   53.4467 O   0  0  0  0  0  0  0  0  0  0  0  0
   71.4823   49.2860   53.0589 O   0  0  0  0  0  0  0  0  0  0  0  0
  7  8  1  0
  8  9  2  0
  8 13  1  0
  9 10  1  0
 10 11  2  0
 11  1  1  0
 11 12  1  0
  1  2  2  0
  1  6  1  0
  2  3  1  0
  3  4  2  0
  4  5  1  0
  5 14  1  0
  5  6  2  0
 14 15  1  0
 15 16  2  0
 15 20  1  0
 16 17  1  0
 17 18  2  0
 18 19  1  0
 19 21  1  0
 19 20  2  0
 21 22  1  0
 21 23  2  0
 21 24  2  0
 12 13  2  0
M  END
>  <minimizedAffinity>  (428) 
-8.70880

$$$$
cs_full_output_folder/data/smiles/4001.pdb
     RDKit          3D

 24 27  0  0  0  0  0  0  0  0999 V2000
   70.7704   47.7402   58.5431 N   0  0  1  0  0  0  0  0  0  0  0  0
   71.4205   48.7134   57.6926 C   0  0  0  0  0  0  0  0  0  0  0  0
   70.3891   49.7390   57.3475 C   0  0  0  0  0  0  0  0  0  0  0  0
   69.0074   49.2589   57.1637 C   0  0  0  0  0  0  0  0  0  0  0  0
   68.6855   47.8359   57.3919 C   0  0  2  0  0  0  0  0  0  0  0  0
   69.8413   46.9573   57.8185 C   0  0  0  0  0  0  0  0  0  0  0  0
   71.6468   47.0923   59.4448 C   0  0  0  0  0  0  0  0  0  0  0  0
   73.8998   42.4706   57.0798 F   0  0  0  0  0  0  0  0  0  0  0  0
   73.3405   43.5772   57.6468 C   0  0  0  0  0  0  0  0  0  0  0  0
   72.0247   43.6109   58.0555 C   0  0  0  0  0  0  0  0  0  0  0  0
   71.4783   44.7415   58.6265 C   0  0  0  0  0  0  0  0  0  0  0  0
   72.2288   45.8898   58.8146 C   0  0  0  0  0  0  0  0  0  0  0  0
   73.5415   45.8435   58.4038 C   0  0  0  0  0  0  0  0  0  0  0  0
   74.0992   44.7130   57.8282 C   0  0  0  0  0  0  0  0  0  0  0  0
   67.9338   47.1898   56.3641 N   0  0  0  0  0  0  0  0  0  0  0  0
   68.3154   47.0458   55.0157 C   0  0  0  0  0  0  0  0  0  0  0  0
   67.9645   46.0041   54.1880 C   0  0  0  0  0  0  0  0  0  0  0  0
   68.3810   45.9228   52.8516 C   0  0  0  0  0  0  0  0  0  0  0  0
   69.1734   46.9025   52.3082 C   0  0  0  0  0  0  0  0  0  0  0  0
   69.7132   47.0861   51.0862 N   0  0  0  0  0  0  0  0  0  0  0  0
   70.4071   48.2116   51.0788 N   0  0  0  0  0  0  0  0  0  0  0  0
   70.3227   48.7678   52.3014 C   0  0  0  0  0  0  0  0  0  0  0  0
   69.5421   47.9589   53.1112 C   0  0  0  0  0  0  0  0  0  0  0  0
   69.1268   48.0247   54.4162 C   0  0  0  0  0  0  0  0  0  0  0  0
  8  9  1  0
  9 10  2  0
  9 14  1  0
 10 11  1  0
 11 12  2  0
 12  7  1  0
 12 13  1  0
  1  7  1  6
  1  2  1  0
  1  6  1  0
  2  3  1  0
  3  4  1  0
  4  5  1  0
  5 15  1  6
  5  6  1  0
 15 16  1  0
 16 17  2  0
 16 24  1  0
 17 18  1  0
 18 19  2  0
 19 20  1  0
 19 23  1  0
 20 21  1  0
 21 22  2  0
 22 23  1  0
 23 24  2  0
 13 14  2  0
M  CHG  1   1   1
M  END
>  <minimizedAffinity>  (429) 
-8.70775

$$$$
cs_full_output_folder/data/smiles/1802.pdb
     RDKit          3D

 26 28  0  0  0  0  0  0  0  0999 V2000
   70.7757   40.4596   58.4031 C   0  0  0  0  0  0  0  0  0  0  0  0
   69.5824   41.1316   58.2867 C   0  0  0  0  0  0  0  0  0  0  0  0
   69.5544   42.5138   58.0801 C   0  0  0  0  0  0  0  0  0  0  0  0
   70.7105   43.2536   57.9837 C   0  0  0  0  0  0  0  0  0  0  0  0
   71.8640   42.5697   58.1010 N   0  0  0  0  0  0  0  0  0  0  0  0
   71.9139   41.2366   58.3010 C   0  0  0  0  0  0  0  0  0  0  0  0
   71.9042   36.8689   58.1502 C   0  0  0  0  0  0  0  0  0  0  0  0
   71.1124   36.2550   59.0929 C   0  0  0  0  0  0  0  0  0  0  0  0
   70.2181   37.0108   59.7902 C   0  0  0  0  0  0  0  0  0  0  0  0
   70.0982   38.3876   59.5604 C   0  0  0  0  0  0  0  0  0  0  0  0
   70.8846   39.0187   58.6188 C   0  0  0  0  0  0  0  0  0  0  0  0
   71.7771   38.2206   57.9338 C   0  0  0  0  0  0  0  0  0  0  0  0
   73.6495   35.4674   56.8087 N   0  0  0  0  0  0  0  0  0  0  0  0
   72.8846   36.0842   57.4099 C   0  0  0  0  0  0  0  0  0  0  0  0
   70.6871   44.6914   57.7715 C   0  0  0  0  0  0  0  0  0  0  0  0
   71.6342   45.4028   58.1297 O   0  0  0  0  0  0  0  0  0  0  0  0
   69.5707   45.3479   57.1409 N   0  0  0  0  0  0  0  0  0  0  0  0
   69.5295   46.7499   56.9203 C   0  0  0  0  0  0  0  0  0  0  0  0
   68.4026   47.2224   56.0641 C   0  0  0  0  0  0  0  0  0  0  0  0
   68.5503   47.0563   54.6140 C   0  0  0  0  0  0  0  0  0  0  0  0
   69.0860   48.1167   53.8532 C   0  0  0  0  0  0  0  0  0  0  0  0
   69.2057   48.0705   52.4914 C   0  0  0  0  0  0  0  0  0  0  0  0
   68.7990   46.9587   51.7913 C   0  0  0  0  0  0  0  0  0  0  0  0
   68.2712   45.9020   52.5058 C   0  0  0  0  0  0  0  0  0  0  0  0
   68.1561   45.9639   53.8955 C   0  0  0  0  0  0  0  0  0  0  0  0
   67.6712   44.8330   54.4965 F   0  0  0  0  0  0  0  0  0  0  0  0
 13 14  3  0
 14  7  1  0
  7  8  2  0
  7 12  1  0
  8  9  1  0
  9 10  2  0
 10 11  1  0
 11  1  1  0
 11 12  2  0
  1  2  2  0
  1  6  1  0
  2  3  1  0
  3  4  2  0
  4 15  1  0
  4  5  1  0
 15 16  2  0
 15 17  1  0
 17 18  1  0
 18 19  1  0
 19 20  1  0
 20 21  2  0
 20 25  1  0
 21 22  1  0
 22 23  2  0
 23 24  1  0
 24 25  2  0
 25 26  1  0
  5  6  2  0
M  END
>  <minimizedAffinity>  (430) 
-8.70769

$$$$
cs_full_output_folder/data/smiles/1935.pdb
     RDKit          3D

 23 25  0  0  0  0  0  0  0  0999 V2000
   70.0352   50.2647   55.3754 N   0  0  0  0  0  0  0  0  0  0  0  0
   70.4151   51.5719   54.9607 C   0  0  0  0  0  0  0  0  0  0  0  0
   71.5612   51.8452   54.5420 O   0  0  0  0  0  0  0  0  0  0  0  0
   69.3676   52.6435   55.0439 C   0  0  0  0  0  0  0  0  0  0  0  0
   68.7106   52.6212   56.4002 C   0  0  0  0  0  0  0  0  0  0  0  0
   68.3071   51.2824   56.8024 C   0  0  0  0  0  0  0  0  0  0  0  0
   67.2597   51.0511   57.7052 C   0  0  0  0  0  0  0  0  0  0  0  0
   66.9180   49.7663   58.0678 C   0  0  0  0  0  0  0  0  0  0  0  0
   65.8950   49.5599   58.9483 F   0  0  0  0  0  0  0  0  0  0  0  0
   67.5737   48.6634   57.5725 C   0  0  0  0  0  0  0  0  0  0  0  0
   68.6050   48.8743   56.6847 C   0  0  0  0  0  0  0  0  0  0  0  0
   68.9595   50.1760   56.3104 C   0  0  0  0  0  0  0  0  0  0  0  0
   70.7090   49.1860   54.8646 O   0  0  0  0  0  0  0  0  0  0  0  0
   71.3589   49.1771   52.7123 O   0  0  0  0  0  0  0  0  0  0  0  0
   70.5739   48.7171   53.5801 C   0  0  0  0  0  0  0  0  0  0  0  0
   69.5811   47.7275   53.1780 C   0  0  0  0  0  0  0  0  0  0  0  0
   68.7481   47.1468   54.1099 C   0  0  0  0  0  0  0  0  0  0  0  0
   67.7978   46.2069   53.7642 C   0  0  0  0  0  0  0  0  0  0  0  0
   67.6529   45.8155   52.4426 C   0  0  0  0  0  0  0  0  0  0  0  0
   66.6931   44.8630   52.0761 O   0  0  0  0  0  0  0  0  0  0  0  0
   68.4723   46.3800   51.4927 C   0  0  0  0  0  0  0  0  0  0  0  0
   69.4207   47.3235   51.8699 C   0  0  0  0  0  0  0  0  0  0  0  0
   70.2459   47.8905   50.9056 O   0  0  0  0  0  0  0  0  0  0  0  0
 14 15  2  0
 15 13  1  0
 15 16  1  0
 13  1  1  0
  1  2  1  0
  1 12  1  0
  2  3  2  0
  2  4  1  0
  4  5  1  0
  5  6  1  0
  6  7  2  0
  6 12  1  0
  7  8  1  0
  8  9  1  0
  8 10  2  0
 10 11  1  0
 11 12  2  0
 16 17  2  0
 16 22  1  0
 17 18  1  0
 18 19  2  0
 19 20  1  0
 19 21  1  0
 21 22  2  0
 22 23  1  0
M  END
>  <minimizedAffinity>  (431) 
-8.70509

$$$$
cs_full_output_folder/data/smiles/6487.pdb
     RDKit          3D

 25 28  0  0  0  0  0  0  0  0999 V2000
   70.6060   46.2628   58.4213 C   0  0  0  0  0  0  0  0  0  0  0  0
   71.8341   46.7150   58.8341 C   0  0  0  0  0  0  0  0  0  0  0  0
   72.3364   47.9517   58.4080 C   0  0  0  0  0  0  0  0  0  0  0  0
   71.6234   48.7630   57.5611 C   0  0  0  0  0  0  0  0  0  0  0  0
   70.3891   48.3244   57.1372 C   0  0  0  0  0  0  0  0  0  0  0  0
   69.9177   47.1084   57.5680 C   0  0  0  0  0  0  0  0  0  0  0  0
   70.3246   43.7523   58.3482 C   0  0  0  0  0  0  0  0  0  0  0  0
   71.2658   43.6004   57.5447 O   0  0  0  0  0  0  0  0  0  0  0  0
   69.9932   45.0539   58.7841 N   0  0  0  0  0  0  0  0  0  0  0  0
   67.3108   41.4212   58.2813 C   0  0  0  0  0  0  0  0  0  0  0  0
   68.6663   41.8533   57.7954 C   0  0  2  0  0  0  0  0  0  0  0  0
   69.9142   41.2130   58.2368 C   0  0  0  0  0  0  0  0  0  0  0  0
   69.5898   42.5419   58.8124 C   0  0  1  0  0  0  0  0  0  0  0  0
   69.5988   49.2008   56.2308 C   0  0  0  0  0  0  0  0  0  0  0  0
   69.8423   48.8793   54.8065 C   0  0  0  0  0  0  0  0  0  0  0  0
   70.8677   49.4515   54.1148 N   0  0  0  0  0  0  0  0  0  0  0  0
   71.0938   49.1722   52.8430 N   0  0  0  0  0  0  0  0  0  0  0  0
   70.3261   48.3076   52.1555 C   0  0  0  0  0  0  0  0  0  0  0  0
   70.5083   48.0168   50.9487 O   0  0  0  0  0  0  0  0  0  0  0  0
   69.2793   47.7099   52.8217 C   0  0  0  0  0  0  0  0  0  0  0  0
   69.0455   48.0016   54.1450 C   0  0  0  0  0  0  0  0  0  0  0  0
   67.8867   47.3079   54.7830 C   0  0  0  0  0  0  0  0  0  0  0  0
   67.9810   45.8538   54.4710 C   0  0  0  0  0  0  0  0  0  0  0  0
   68.1458   45.5315   53.0193 C   0  0  0  0  0  0  0  0  0  0  0  0
   68.3648   46.7392   52.1591 C   0  0  0  0  0  0  0  0  0  0  0  0
 11 10  1  1
 11 12  1  0
 11 13  1  0
 12 13  1  0
 13  7  1  6
  7  8  2  0
  7  9  1  0
  9  1  1  0
  1  2  2  0
  1  6  1  0
  2  3  1  0
  3  4  2  0
  4  5  1  0
  5 14  1  0
  5  6  2  0
 14 15  1  0
 15 16  2  0
 15 21  1  0
 16 17  1  0
 17 18  1  0
 18 19  2  0
 18 20  1  0
 20 21  2  0
 20 25  1  0
 21 22  1  0
 22 23  1  0
 23 24  1  0
 24 25  1  0
M  END
>  <minimizedAffinity>  (432) 
-8.70448

$$$$
cs_full_output_folder/data/smiles/5431.pdb
     RDKit          3D

 23 24  0  0  0  0  0  0  0  0999 V2000
   70.9468   45.9536   58.3857 C   0  0  0  0  0  0  0  0  0  0  0  0
   70.9270   46.5255   59.4967 O   0  0  0  0  0  0  0  0  0  0  0  0
   70.2312   46.4946   57.3092 N   0  0  0  0  0  0  0  0  0  0  0  0
   70.9729   41.0643   58.3540 C   0  0  0  0  0  0  0  0  0  0  0  0
   71.7121   42.3420   58.2020 C   0  0  0  0  0  0  0  0  0  0  0  0
   73.0591   42.3578   57.9106 C   0  0  0  0  0  0  0  0  0  0  0  0
   73.7467   43.5484   57.7681 C   0  0  0  0  0  0  0  0  0  0  0  0
   73.0693   44.7416   57.9206 C   0  0  0  0  0  0  0  0  0  0  0  0
   71.7115   44.7311   58.2145 C   0  0  0  0  0  0  0  0  0  0  0  0
   71.0245   43.5256   58.3567 C   0  0  0  0  0  0  0  0  0  0  0  0
   69.6564   43.4806   58.6537 N   0  0  0  0  0  0  0  0  0  0  0  0
   68.8408   43.3315   57.6955 O   0  0  0  0  0  0  0  0  0  0  0  0
   69.1063   43.5834   59.8974 O   0  0  0  0  0  0  0  0  0  0  0  0
   69.4426   47.6979   57.3646 C   0  0  0  0  0  0  0  0  0  0  0  0
   68.2868   47.7325   56.4215 C   0  0  0  0  0  0  0  0  0  0  0  0
   68.6567   47.5713   55.0052 C   0  0  0  0  0  0  0  0  0  0  0  0
   68.1467   46.5086   54.2896 C   0  0  0  0  0  0  0  0  0  0  0  0
   68.4844   46.3360   52.9436 C   0  0  0  0  0  0  0  0  0  0  0  0
   69.3298   47.2174   52.3017 C   0  0  0  0  0  0  0  0  0  0  0  0
   69.6993   47.0967   50.9710 O   0  0  0  0  0  0  0  0  0  0  0  0
   69.8311   48.2759   53.0323 C   0  0  0  0  0  0  0  0  0  0  0  0
   70.6793   49.1816   52.4324 O   0  0  0  0  0  0  0  0  0  0  0  0
   69.5022   48.4443   54.3425 C   0  0  0  0  0  0  0  0  0  0  0  0
  4  5  1  0
  5  6  2  0
  5 10  1  0
  6  7  1  0
  7  8  2  0
  8  9  1  0
  9  1  1  0
  9 10  2  0
  1  2  2  0
  1  3  1  0
  3 14  1  0
 14 15  1  0
 15 16  1  0
 16 17  2  0
 16 23  1  0
 17 18  1  0
 18 19  2  0
 19 20  1  0
 19 21  1  0
 21 22  1  0
 21 23  2  0
 10 11  1  0
 11 12  2  0
 11 13  1  0
M  CHG  2  11   1  13  -1
M  END
>  <minimizedAffinity>  (433) 
-8.70368

$$$$
cs_full_output_folder/data/smiles/2748.pdb
     RDKit          3D

 22 23  0  0  0  0  0  0  0  0999 V2000
   69.9214   48.3248   55.1211 N   0  0  0  0  0  0  0  0  0  0  0  0
   69.1633   47.3608   54.4408 C   0  0  0  0  0  0  0  0  0  0  0  0
   68.6521   46.2304   55.0694 C   0  0  0  0  0  0  0  0  0  0  0  0
   68.8497   46.0953   56.3923 F   0  0  0  0  0  0  0  0  0  0  0  0
   67.9639   45.2813   54.3453 C   0  0  0  0  0  0  0  0  0  0  0  0
   67.4510   44.1609   54.9329 F   0  0  0  0  0  0  0  0  0  0  0  0
   67.7545   45.4077   52.9933 C   0  0  0  0  0  0  0  0  0  0  0  0
   68.2526   46.5165   52.3610 C   0  0  0  0  0  0  0  0  0  0  0  0
   68.0545   46.6603   51.0155 F   0  0  0  0  0  0  0  0  0  0  0  0
   68.9421   47.4710   53.0752 C   0  0  0  0  0  0  0  0  0  0  0  0
   69.5517   48.8517   52.1625 S   0  0  0  0  0  0  0  0  0  0  0  0
   70.5388   48.2471   50.9464 O   0  0  0  0  0  0  0  0  0  0  0  0
   69.9844   50.7974   55.4408 C   0  0  0  0  0  0  0  0  0  0  0  0
   69.4283   51.8907   56.0800 C   0  0  0  0  0  0  0  0  0  0  0  0
   68.3665   51.7426   56.9702 C   0  0  0  0  0  0  0  0  0  0  0  0
   67.8558   50.4944   57.2248 C   0  0  0  0  0  0  0  0  0  0  0  0
   68.4209   49.4296   56.5811 C   0  0  0  0  0  0  0  0  0  0  0  0
   69.4976   49.5502   55.6738 C   0  0  0  0  0  0  0  0  0  0  0  0
   73.3761   50.4718   53.8456 N   0  0  0  0  0  0  0  0  0  0  0  0
   72.2980   50.2449   54.7510 N   0  0  0  0  0  0  0  0  0  0  0  0
   71.1027   50.9933   54.5500 C   0  0  0  0  0  0  0  0  0  0  0  0
   71.1266   51.7894   53.5805 O   0  0  0  0  0  0  0  0  0  0  0  0
 19 20  1  0
 20 21  1  0
 21 22  2  0
 21 13  1  0
 13 14  2  0
 13 18  1  0
 14 15  1  0
 15 16  2  0
 16 17  1  0
 17 18  2  0
 18  1  1  0
  1  2  1  0
  2  3  2  0
  2 10  1  0
  3  4  1  0
  3  5  1  0
  5  6  1  0
  5  7  2  0
  7  8  1  0
  8  9  1  0
  8 10  2  0
 10 11  1  0
 11 12  1  0
M  CHG  1  11   1
M  END
>  <minimizedAffinity>  (434) 
-8.70283

$$$$
cs_full_output_folder/data/smiles/5235.pdb
     RDKit          3D

 23 25  0  0  0  0  0  0  0  0999 V2000
   68.2684   46.5426   53.9092 C   0  0  0  0  0  0  0  0  0  0  0  0
   68.5558   46.1328   52.6060 C   0  0  0  0  0  0  0  0  0  0  0  0
   69.2348   46.9622   51.7465 C   0  0  0  0  0  0  0  0  0  0  0  0
   69.6422   48.2248   52.1724 C   0  0  0  0  0  0  0  0  0  0  0  0
   70.3173   49.0431   51.3215 F   0  0  0  0  0  0  0  0  0  0  0  0
   69.3728   48.6481   53.4347 C   0  0  0  0  0  0  0  0  0  0  0  0
   68.6822   47.7858   54.2870 C   0  0  0  0  0  0  0  0  0  0  0  0
   69.7754   49.9429   53.9544 C   0  0  0  0  0  0  0  0  0  0  0  0
   68.8585   50.9749   54.0505 C   0  0  0  0  0  0  0  0  0  0  0  0
   69.2341   52.2147   54.5488 C   0  0  0  0  0  0  0  0  0  0  0  0
   70.5241   52.4354   54.9542 C   0  0  0  0  0  0  0  0  0  0  0  0
   71.4511   51.4238   54.8673 C   0  0  0  0  0  0  0  0  0  0  0  0
   71.0580   50.1775   54.3621 C   0  0  0  0  0  0  0  0  0  0  0  0
   67.5943   45.6706   54.7758 N   0  0  0  0  0  0  0  0  0  0  0  0
   68.3250   42.5390   56.5100 C   0  0  0  0  0  0  0  0  0  0  0  0
   69.4175   42.8781   57.3065 C   0  0  0  0  0  0  0  0  0  0  0  0
   69.8858   44.1656   57.2330 C   0  0  0  0  0  0  0  0  0  0  0  0
   69.2917   45.0977   56.3929 C   0  0  0  0  0  0  0  0  0  0  0  0
   68.2155   44.7344   55.6194 C   0  0  0  0  0  0  0  0  0  0  0  0
   67.7783   43.4563   55.7158 N   0  0  0  0  0  0  0  0  0  0  0  0
   67.5221   40.4617   55.4020 N   0  0  0  0  0  0  0  0  0  0  0  0
   67.8280   41.1751   56.5809 C   0  0  0  0  0  0  0  0  0  0  0  0
   67.6567   40.5971   57.6823 O   0  0  0  0  0  0  0  0  0  0  0  0
 21 22  1  0
 22 23  2  0
 22 15  1  0
 15 16  2  0
 15 20  1  0
 16 17  1  0
 17 18  2  0
 18 19  1  0
 19 14  1  0
 19 20  2  0
 14  1  1  0
  1  2  2  0
  1  7  1  0
  2  3  1  0
  3  4  2  0
  4  5  1  0
  4  6  1  0
  6  8  1  0
  6  7  2  0
  8  9  2  0
  8 13  1  0
  9 10  1  0
 10 11  2  0
 11 12  1  0
 12 13  2  0
M  END
>  <minimizedAffinity>  (435) 
-8.70130

$$$$
cs_full_output_folder/data/smiles/5044.pdb
     RDKit          3D

 26 28  0  0  0  0  0  0  0  0999 V2000
   73.8028   35.0191   55.6208 C   0  0  0  0  0  0  0  0  0  0  0  0
   75.1579   34.8810   55.7834 C   0  0  0  0  0  0  0  0  0  0  0  0
   76.0489   35.2068   54.7551 C   0  0  0  0  0  0  0  0  0  0  0  0
   75.5871   35.6774   53.5457 C   0  0  0  0  0  0  0  0  0  0  0  0
   74.2273   35.8167   53.3813 C   0  0  0  0  0  0  0  0  0  0  0  0
   73.3548   35.4874   54.4143 C   0  0  0  0  0  0  0  0  0  0  0  0
   73.1637   36.7432   57.5406 O   0  0  0  0  0  0  0  0  0  0  0  0
   72.5726   35.6074   57.6967 C   0  0  0  0  0  0  0  0  0  0  0  0
   72.9092   34.6834   56.6758 N   0  0  0  0  0  0  0  0  0  0  0  0
   71.7022   35.4260   58.8098 C   0  0  0  0  0  0  0  0  0  0  0  0
   70.9877   36.5413   59.2767 C   0  0  0  0  0  0  0  0  0  0  0  0
   70.1190   36.4827   60.3446 C   0  0  0  0  0  0  0  0  0  0  0  0
   69.8978   35.3091   61.0255 C   0  0  0  0  0  0  0  0  0  0  0  0
   70.5833   34.2002   60.5906 C   0  0  0  0  0  0  0  0  0  0  0  0
   71.4550   34.2781   59.5135 C   0  0  0  0  0  0  0  0  0  0  0  0
   72.1010   33.1350   59.1368 O   0  0  0  0  0  0  0  0  0  0  0  0
   76.5476   36.0240   52.4502 C   0  0  0  0  0  0  0  0  0  0  0  0
   77.1296   34.7695   51.8318 C   0  0  0  0  0  0  0  0  0  0  0  0
   77.1676   34.8298   50.3673 C   0  0  0  0  0  0  0  0  0  0  0  0
   78.0973   35.6177   49.6901 C   0  0  0  0  0  0  0  0  0  0  0  0
   78.1236   35.6674   48.3138 C   0  0  0  0  0  0  0  0  0  0  0  0
   77.2362   34.9437   47.5493 C   0  0  0  0  0  0  0  0  0  0  0  0
   77.2439   34.9774   46.1612 O   0  0  0  0  0  0  0  0  0  0  0  0
   76.3183   34.1654   48.2317 C   0  0  0  0  0  0  0  0  0  0  0  0
   75.4214   33.4338   47.4628 O   0  0  0  0  0  0  0  0  0  0  0  0
   76.2797   34.1060   49.6006 C   0  0  0  0  0  0  0  0  0  0  0  0
  7  8  2  0
  8  9  1  0
  8 10  1  0
  9  1  1  0
  1  2  2  0
  1  6  1  0
  2  3  1  0
  3  4  2  0
  4 17  1  0
  4  5  1  0
 17 18  1  0
 18 19  1  0
 19 20  2  0
 19 26  1  0
 20 21  1  0
 21 22  2  0
 22 23  1  0
 22 24  1  0
 24 25  1  0
 24 26  2  0
  5  6  2  0
 10 11  2  0
 10 15  1  0
 11 12  1  0
 12 13  2  0
 13 14  1  0
 14 15  2  0
 15 16  1  0
M  END
>  <minimizedAffinity>  (436) 
-8.70117

$$$$
cs_full_output_folder/data/smiles/5964.pdb
     RDKit          3D

 24 26  0  0  0  0  0  0  0  0999 V2000
   70.7695   46.1257   58.1297 C   0  0  0  0  0  0  0  0  0  0  0  0
   69.8411   46.8576   57.3868 C   0  0  0  0  0  0  0  0  0  0  0  0
   70.0192   48.1825   57.0709 C   0  0  0  0  0  0  0  0  0  0  0  0
   71.1438   48.8510   57.4845 C   0  0  0  0  0  0  0  0  0  0  0  0
   72.0801   48.1678   58.2170 C   0  0  0  0  0  0  0  0  0  0  0  0
   71.8764   46.8131   58.5277 C   0  0  0  0  0  0  0  0  0  0  0  0
   72.8465   46.1711   59.2579 F   0  0  0  0  0  0  0  0  0  0  0  0
   69.6849   44.4526   59.3940 O   0  0  0  0  0  0  0  0  0  0  0  0
   70.5040   44.7257   58.4300 C   0  0  0  0  0  0  0  0  0  0  0  0
   71.0411   43.6141   57.7877 N   0  0  0  0  0  0  0  0  0  0  0  0
   70.6750   42.2356   58.2000 C   0  0  0  0  0  0  0  0  0  0  0  0
   69.1455   41.8072   57.4136 Cl  0  0  0  0  0  0  0  0  0  0  0  0
   68.9254   48.8047   56.2503 C   0  0  0  0  0  0  0  0  0  0  0  0
   69.2678   48.7276   54.8092 C   0  0  0  0  0  0  0  0  0  0  0  0
   70.1263   49.6534   54.2830 N   0  0  0  0  0  0  0  0  0  0  0  0
   70.5353   49.6427   53.0344 N   0  0  0  0  0  0  0  0  0  0  0  0
   70.1530   48.7151   52.1309 C   0  0  0  0  0  0  0  0  0  0  0  0
   70.5539   48.7247   50.9552 O   0  0  0  0  0  0  0  0  0  0  0  0
   69.2749   47.7511   52.6267 C   0  0  0  0  0  0  0  0  0  0  0  0
   68.8444   46.7936   51.7381 C   0  0  0  0  0  0  0  0  0  0  0  0
   67.9600   45.8183   52.1577 C   0  0  0  0  0  0  0  0  0  0  0  0
   67.5435   45.8507   53.4706 C   0  0  0  0  0  0  0  0  0  0  0  0
   67.9673   46.8054   54.3742 C   0  0  0  0  0  0  0  0  0  0  0  0
   68.8433   47.7644   53.9448 C   0  0  0  0  0  0  0  0  0  0  0  0
  8  9  2  0
  9 10  1  0
  9  1  1  0
 10 11  1  0
 11 12  1  0
  1  2  2  0
  1  6  1  0
  2  3  1  0
  3 13  1  0
  3  4  2  0
 13 14  1  0
 14 15  2  0
 14 24  1  0
 15 16  1  0
 16 17  1  0
 17 18  2  0
 17 19  1  0
 19 20  1  0
 19 24  2  0
 20 21  2  0
 21 22  1  0
 22 23  2  0
 23 24  1  0
  4  5  1  0
  5  6  2  0
  6  7  1  0
M  END
>  <minimizedAffinity>  (437) 
-8.70082

$$$$
cs_full_output_folder/data/smiles/8585.pdb
     RDKit          3D

 24 26  0  0  0  0  0  0  0  0999 V2000
   71.7534   51.6319   54.4075 C   0  0  0  0  0  0  0  0  0  0  0  0
   71.3608   50.3162   54.5241 C   0  0  0  0  0  0  0  0  0  0  0  0
   70.4188   50.0002   53.5726 C   0  0  0  0  0  0  0  0  0  0  0  0
   70.2569   51.1686   52.8791 N   0  0  0  0  0  0  0  0  0  0  0  0
   71.0408   52.1094   53.3754 N   0  0  0  0  0  0  0  0  0  0  0  0
   69.7273   48.7454   53.3263 C   0  0  0  0  0  0  0  0  0  0  0  0
   69.0288   48.1309   54.3360 C   0  0  0  0  0  0  0  0  0  0  0  0
   68.3552   46.9199   54.1170 C   0  0  0  0  0  0  0  0  0  0  0  0
   67.6591   46.2968   55.0965 F   0  0  0  0  0  0  0  0  0  0  0  0
   68.3890   46.3336   52.8788 C   0  0  0  0  0  0  0  0  0  0  0  0
   69.0878   46.9405   51.8531 C   0  0  0  0  0  0  0  0  0  0  0  0
   69.7405   48.1301   52.0976 C   0  0  0  0  0  0  0  0  0  0  0  0
   70.4299   48.7061   51.0418 O   0  0  0  0  0  0  0  0  0  0  0  0
   73.8794   52.5704   54.7565 O   0  0  0  0  0  0  0  0  0  0  0  0
   72.7373   52.3566   55.2340 C   0  0  0  0  0  0  0  0  0  0  0  0
   72.3457   52.8031   56.5904 C   0  0  0  0  0  0  0  0  0  0  0  0
   70.9571   53.3745   56.6714 C   0  0  0  0  0  0  0  0  0  0  0  0
   69.8961   52.3922   56.9158 C   0  0  0  0  0  0  0  0  0  0  0  0
   68.6924   52.4081   56.2271 C   0  0  0  0  0  0  0  0  0  0  0  0
   67.7549   51.4481   56.5048 C   0  0  0  0  0  0  0  0  0  0  0  0
   67.9333   50.4524   57.4374 C   0  0  0  0  0  0  0  0  0  0  0  0
   67.0157   49.4979   57.7180 F   0  0  0  0  0  0  0  0  0  0  0  0
   69.1497   50.4572   58.1167 C   0  0  0  0  0  0  0  0  0  0  0  0
   70.1180   51.4016   57.8703 C   0  0  0  0  0  0  0  0  0  0  0  0
 14 15  2  0
 15 16  1  0
 15  1  1  0
 16 17  1  0
 17 18  1  0
 18 19  2  0
 18 24  1  0
 19 20  1  0
 20 21  2  0
 21 22  1  0
 21 23  1  0
 23 24  2  0
  1  2  2  0
  1  5  1  0
  2  3  1  0
  3  6  1  0
  3  4  2  0
  6  7  2  0
  6 12  1  0
  7  8  1  0
  8  9  1  0
  8 10  2  0
 10 11  1  0
 11 12  2  0
 12 13  1  0
  4  5  1  0
M  END
>  <minimizedAffinity>  (438) 
-8.69592

$$$$
cs_full_output_folder/data/smiles/3266.pdb
     RDKit          3D

 22 23  0  0  0  0  0  0  0  0999 V2000
   67.3131   47.5664   57.0228 O   0  0  0  0  0  0  0  0  0  0  0  0
   68.5269   47.4989   56.5266 C   0  0  0  0  0  0  0  0  0  0  0  0
   68.5872   47.3386   55.0855 C   0  0  0  0  0  0  0  0  0  0  0  0
   67.8564   46.3916   54.4196 C   0  0  0  0  0  0  0  0  0  0  0  0
   67.8495   46.1971   53.0556 C   0  0  0  0  0  0  0  0  0  0  0  0
   67.1304   45.2629   52.4010 O   0  0  0  0  0  0  0  0  0  0  0  0
   68.6644   47.0393   52.2362 C   0  0  0  0  0  0  0  0  0  0  0  0
   68.6526   46.8419   50.8993 O   0  0  0  0  0  0  0  0  0  0  0  0
   69.3932   47.9822   52.9187 C   0  0  0  0  0  0  0  0  0  0  0  0
   69.3601   48.1351   54.2844 C   0  0  0  0  0  0  0  0  0  0  0  0
   70.3658   48.7802   52.1967 N   0  0  0  0  0  0  0  0  0  0  0  0
   71.4217   49.0671   52.7951 O   0  0  0  0  0  0  0  0  0  0  0  0
   70.2254   49.2233   50.9494 O   0  0  0  0  0  0  0  0  0  0  0  0
   69.6264   47.5981   57.4645 C   0  0  0  0  0  0  0  0  0  0  0  0
   70.3683   46.4048   57.7946 C   0  0  0  0  0  0  0  0  0  0  0  0
   71.7354   46.6519   58.4323 C   0  0  0  0  0  0  0  0  0  0  0  0
   72.3676   45.4693   58.5917 C   0  0  0  0  0  0  0  0  0  0  0  0
   72.0856   44.2388   58.3514 C   0  0  0  0  0  0  0  0  0  0  0  0
   70.8230   44.0115   57.7661 C   0  0  0  0  0  0  0  0  0  0  0  0
   70.0727   45.1555   57.5356 C   0  0  0  0  0  0  0  0  0  0  0  0
   73.0812   42.9420   58.3422 C   0  0  0  0  0  0  0  0  0  0  0  0
   73.6995   42.1444   58.3549 S   0  0  0  0  0  0  0  0  0  0  0  0
  1  2  2  0
  2 14  1  0
  2  3  1  0
 14 15  1  0
 15 16  2  0
 15 20  1  0
 16 17  1  0
 17 18  2  0
 18 21  1  0
 18 19  1  0
 21 22  3  0
 19 20  2  0
  3  4  2  0
  3 10  1  0
  4  5  1  0
  5  6  1  0
  5  7  2  0
  7  8  1  0
  7  9  1  0
  9 11  1  0
  9 10  2  0
 11 12  2  0
 11 13  1  0
M  CHG  2  11   1  13  -1
M  END
>  <minimizedAffinity>  (439) 
-8.69519

$$$$
cs_full_output_folder/data/smiles/3381.pdb
     RDKit          3D

 26 29  0  0  0  0  0  0  0  0999 V2000
   71.1446   45.8207   58.3732 C   0  0  0  0  0  0  0  0  0  0  0  0
   71.8774   46.6198   59.2244 C   0  0  0  0  0  0  0  0  0  0  0  0
   71.6646   47.9888   59.2817 C   0  0  0  0  0  0  0  0  0  0  0  0
   70.7118   48.5702   58.4831 C   0  0  0  0  0  0  0  0  0  0  0  0
   69.9382   47.7985   57.5978 C   0  0  0  0  0  0  0  0  0  0  0  0
   70.1924   46.4582   57.5850 C   0  0  0  0  0  0  0  0  0  0  0  0
   69.5027   43.9169   59.5319 O   0  0  0  0  0  0  0  0  0  0  0  0
   70.4874   43.4567   58.8958 C   0  0  0  0  0  0  0  0  0  0  0  0
   71.3393   44.4108   58.2954 N   0  0  0  0  0  0  0  0  0  0  0  0
   70.6960   42.0179   58.8109 C   0  0  0  0  0  0  0  0  0  0  0  0
   71.7959   41.3401   58.3618 C   0  0  0  0  0  0  0  0  0  0  0  0
   71.5504   39.9668   58.4618 C   0  0  0  0  0  0  0  0  0  0  0  0
   70.2876   39.8547   58.9768 C   0  0  0  0  0  0  0  0  0  0  0  0
   69.7974   41.0897   59.1769 N   0  0  0  0  0  0  0  0  0  0  0  0
   68.9288   48.4962   56.7347 C   0  0  0  0  0  0  0  0  0  0  0  0
   68.5690   47.5625   55.6308 C   0  0  0  0  0  0  0  0  0  0  0  0
   68.0502   46.3357   55.9879 N   0  0  0  0  0  0  0  0  0  0  0  0
   67.7524   45.4406   55.0751 N   0  0  0  0  0  0  0  0  0  0  0  0
   67.9369   45.6686   53.7406 C   0  0  0  0  0  0  0  0  0  0  0  0
   67.6263   44.7576   52.9325 O   0  0  0  0  0  0  0  0  0  0  0  0
   68.4456   46.8641   53.3457 C   0  0  0  0  0  0  0  0  0  0  0  0
   68.7641   47.8282   54.3289 C   0  0  0  0  0  0  0  0  0  0  0  0
   69.2818   49.1397   53.8275 C   0  0  0  0  0  0  0  0  0  0  0  0
   70.3818   48.8172   52.8472 C   0  0  0  0  0  0  0  0  0  0  0  0
   69.9999   47.8766   51.7696 C   0  0  0  0  0  0  0  0  0  0  0  0
   68.6775   47.1728   51.9219 C   0  0  0  0  0  0  0  0  0  0  0  0
  7  8  2  0
  8  9  1  0
  8 10  1  0
  9  1  1  0
  1  2  2  0
  1  6  1  0
  2  3  1  0
  3  4  2  0
  4  5  1  0
  5 15  1  0
  5  6  2  0
 15 16  1  0
 16 17  2  0
 16 22  1  0
 17 18  1  0
 18 19  1  0
 19 20  2  0
 19 21  1  0
 21 22  2  0
 21 26  1  0
 22 23  1  0
 23 24  1  0
 24 25  1  0
 25 26  1  0
 10 11  2  0
 10 14  1  0
 11 12  1  0
 12 13  2  0
 13 14  1  0
M  END
>  <minimizedAffinity>  (440) 
-8.69431

$$$$
cs_full_output_folder/data/smiles/1204.pdb
     RDKit          3D

 23 25  0  0  0  0  0  0  0  0999 V2000
   68.4507   44.1769   56.0289 N   0  0  0  0  0  0  0  0  0  0  0  0
   68.1799   42.8457   56.4650 C   0  0  0  0  0  0  0  0  0  0  0  0
   67.2220   42.2372   55.9150 O   0  0  0  0  0  0  0  0  0  0  0  0
   67.6571   44.7475   55.0406 N   0  0  0  0  0  0  0  0  0  0  0  0
   69.3057   47.9241   52.7553 C   0  0  0  0  0  0  0  0  0  0  0  0
   68.7255   46.8411   52.1363 C   0  0  0  0  0  0  0  0  0  0  0  0
   68.1754   45.7870   52.8590 C   0  0  0  0  0  0  0  0  0  0  0  0
   68.1903   45.7884   54.2374 C   0  0  0  0  0  0  0  0  0  0  0  0
   68.7817   46.8951   54.8529 C   0  0  0  0  0  0  0  0  0  0  0  0
   69.3285   47.9401   54.1289 C   0  0  0  0  0  0  0  0  0  0  0  0
   69.7388   50.3231   52.4695 N   0  0  0  0  0  0  0  0  0  0  0  0
   69.8739   49.0113   52.0033 N   0  0  0  0  0  0  0  0  0  0  0  0
   70.4773   48.7472   50.9477 O   0  0  0  0  0  0  0  0  0  0  0  0
   69.0074   42.2132   57.5304 C   0  0  0  0  0  0  0  0  0  0  0  0
   68.3049   41.0029   57.9872 C   0  0  0  0  0  0  0  0  0  0  0  0
   68.4135   39.7372   57.4701 C   0  0  0  0  0  0  0  0  0  0  0  0
   67.6107   38.9140   58.1956 N   0  0  0  0  0  0  0  0  0  0  0  0
   67.0134   39.6383   59.1441 C   0  0  0  0  0  0  0  0  0  0  0  0
   66.1066   39.2581   60.1223 C   0  0  0  0  0  0  0  0  0  0  0  0
   65.6003   40.1999   61.0134 C   0  0  0  0  0  0  0  0  0  0  0  0
   66.0201   41.5167   60.9052 C   0  0  0  0  0  0  0  0  0  0  0  0
   66.9258   41.8723   59.9219 C   0  0  0  0  0  0  0  0  0  0  0  0
   67.4259   40.9494   59.0425 C   0  0  0  0  0  0  0  0  0  0  0  0
 11 12  1  0
 12 13  2  0
 12  5  1  0
  5  6  2  0
  5 10  1  0
  6  7  1  0
  7  8  2  0
  8  4  1  0
  8  9  1  0
  4  1  1  0
  1  2  1  0
  2  3  2  0
  2 14  1  0
 14 15  1  0
 15 16  2  0
 15 23  1  0
 16 17  1  0
 17 18  1  0
 18 19  1  0
 18 23  2  0
 19 20  2  0
 20 21  1  0
 21 22  2  0
 22 23  1  0
  9 10  2  0
M  CHG  1  12   1
M  END
>  <minimizedAffinity>  (441) 
-8.69391

$$$$
cs_full_output_folder/data/smiles/5228.pdb
     RDKit          3D

 23 24  0  0  0  0  0  0  0  0999 V2000
   68.6916   47.4434   56.6761 C   0  0  0  0  0  0  0  0  0  0  0  0
   69.0634   46.3968   57.3598 O   0  0  0  0  0  0  0  0  0  0  0  0
   68.6655   47.2705   55.2575 C   0  0  0  0  0  0  0  0  0  0  0  0
   67.8367   46.4134   54.5568 C   0  0  0  0  0  0  0  0  0  0  0  0
   67.8513   46.3594   53.1826 C   0  0  0  0  0  0  0  0  0  0  0  0
   67.0066   45.4894   52.4918 O   0  0  0  0  0  0  0  0  0  0  0  0
   68.6885   47.1524   52.4597 C   0  0  0  0  0  0  0  0  0  0  0  0
   68.7377   47.1308   51.0580 O   0  0  0  0  0  0  0  0  0  0  0  0
   69.5459   48.0334   53.0958 C   0  0  0  0  0  0  0  0  0  0  0  0
   69.5070   48.0640   54.4663 C   0  0  0  0  0  0  0  0  0  0  0  0
   70.4017   48.8625   52.3231 N   0  0  0  0  0  0  0  0  0  0  0  0
   71.5690   49.0354   52.6682 O   0  0  0  0  0  0  0  0  0  0  0  0
   69.9157   49.4679   51.2002 O   0  0  0  0  0  0  0  0  0  0  0  0
   68.3804   48.5914   57.5089 C   0  0  0  0  0  0  0  0  0  0  0  0
   70.5123   53.8356   56.4823 C   0  0  0  0  0  0  0  0  0  0  0  0
   69.9994   52.4653   56.7250 C   0  0  0  0  0  0  0  0  0  0  0  0
   70.8179   51.3813   56.9590 C   0  0  0  0  0  0  0  0  0  0  0  0
   70.2918   50.1042   57.1890 C   0  0  0  0  0  0  0  0  0  0  0  0
   71.2618   48.9730   57.4243 C   0  0  0  0  0  0  0  0  0  0  0  0
   68.9372   49.8965   57.1846 C   0  0  0  0  0  0  0  0  0  0  0  0
   68.0941   50.9932   56.9457 C   0  0  0  0  0  0  0  0  0  0  0  0
   66.6082   50.8106   56.9563 C   0  0  0  0  0  0  0  0  0  0  0  0
   68.6422   52.2274   56.7262 C   0  0  0  0  0  0  0  0  0  0  0  0
 15 16  1  0
 16 17  2  0
 16 23  1  0
 17 18  1  0
 18 19  1  0
 18 20  2  0
 20 14  1  0
 20 21  1  0
 14  1  1  0
  1  2  2  0
  1  3  1  0
  3  4  2  0
  3 10  1  0
  4  5  1  0
  5  6  1  0
  5  7  2  0
  7  8  1  0
  7  9  1  0
  9 11  1  0
  9 10  2  0
 11 12  2  0
 11 13  1  0
 21 22  1  0
 21 23  2  0
M  CHG  2  11   1  13  -1
M  END
>  <minimizedAffinity>  (442) 
-8.69324

$$$$
cs_full_output_folder/data/smiles/5185.pdb
     RDKit          3D

 25 28  0  0  0  0  0  0  0  0999 V2000
   70.1045   49.5352   56.0051 C   0  0  0  0  0  0  0  0  0  0  0  0
   69.4492   50.7504   56.2465 C   0  0  0  0  0  0  0  0  0  0  0  0
   69.3851   51.2587   57.5247 C   0  0  0  0  0  0  0  0  0  0  0  0
   69.9686   50.5633   58.5572 C   0  0  0  0  0  0  0  0  0  0  0  0
   70.6270   49.3458   58.3269 C   0  0  0  0  0  0  0  0  0  0  0  0
   70.6417   48.9330   57.0743 N   0  0  0  0  0  0  0  0  0  0  0  0
   70.2363   47.6222   50.9033 O   0  0  0  0  0  0  0  0  0  0  0  0
   70.1820   48.0437   52.0889 C   0  0  0  0  0  0  0  0  0  0  0  0
   71.0406   48.9900   52.4918 N   0  0  0  0  0  0  0  0  0  0  0  0
   71.0202   49.4693   53.7416 N   0  0  0  0  0  0  0  0  0  0  0  0
   70.1370   49.0246   54.6526 C   0  0  0  0  0  0  0  0  0  0  0  0
   69.2563   48.0582   54.2566 C   0  0  0  0  0  0  0  0  0  0  0  0
   69.2501   47.5416   52.9712 C   0  0  0  0  0  0  0  0  0  0  0  0
   68.2630   46.5071   52.6066 C   0  0  0  0  0  0  0  0  0  0  0  0
   68.0319   45.5154   53.7077 C   0  0  0  0  0  0  0  0  0  0  0  0
   68.3773   45.9876   55.0757 C   0  0  0  0  0  0  0  0  0  0  0  0
   68.2768   47.5172   55.2260 C   0  0  0  0  0  0  0  0  0  0  0  0
   71.2061   48.6902   59.4328 N   0  0  0  0  0  0  0  0  0  0  0  0
   72.3129   47.8030   59.2971 C   0  0  0  0  0  0  0  0  0  0  0  0
   71.9899   46.4464   58.8073 C   0  0  0  0  0  0  0  0  0  0  0  0
   73.0259   45.5635   58.5165 C   0  0  0  0  0  0  0  0  0  0  0  0
   72.7992   44.2977   58.0427 C   0  0  0  0  0  0  0  0  0  0  0  0
   71.5145   43.8469   57.8325 C   0  0  0  0  0  0  0  0  0  0  0  0
   70.4690   44.6959   58.1106 C   0  0  0  0  0  0  0  0  0  0  0  0
   70.7175   45.9823   58.5926 C   0  0  0  0  0  0  0  0  0  0  0  0
  7  8  2  0
  8  9  1  0
  8 13  1  0
  9 10  1  0
 10 11  2  0
 11  1  1  0
 11 12  1  0
  1  2  2  0
  1  6  1  0
  2  3  1  0
  3  4  2  0
  4  5  1  0
  5 18  1  0
  5  6  2  0
 18 19  1  0
 19 20  1  0
 20 21  2  0
 20 25  1  0
 21 22  1  0
 22 23  2  0
 23 24  1  0
 24 25  2  0
 12 13  2  0
 12 17  1  0
 13 14  1  0
 14 15  1  0
 15 16  1  0
 16 17  1  0
M  END
>  <minimizedAffinity>  (443) 
-8.69310

$$$$
cs_full_output_folder/data/smiles/5253.pdb
     RDKit          3D

 22 24  0  0  0  0  0  0  0  0999 V2000
   68.4978   51.3960   56.4740 C   0  0  0  0  0  0  0  0  0  0  0  0
   67.4594   51.2663   57.3795 C   0  0  0  0  0  0  0  0  0  0  0  0
   67.1066   50.0095   57.7736 C   0  0  0  0  0  0  0  0  0  0  0  0
   66.1003   49.8298   58.6556 F   0  0  0  0  0  0  0  0  0  0  0  0
   67.8057   48.9083   57.2456 C   0  0  0  0  0  0  0  0  0  0  0  0
   67.4354   47.7551   57.6393 O   0  0  0  0  0  0  0  0  0  0  0  0
   68.7974   49.0127   56.3838 N   0  0  0  0  0  0  0  0  0  0  0  0
   69.1314   50.2892   56.0049 C   0  0  0  0  0  0  0  0  0  0  0  0
   68.9371   52.7477   55.9935 C   0  0  0  0  0  0  0  0  0  0  0  0
   70.4483   52.8007   55.8978 C   0  0  0  0  0  0  0  0  0  0  0  0
   72.1437   52.9495   57.6237 C   0  0  0  0  0  0  0  0  0  0  0  0
   71.0514   53.5525   56.9397 N   0  0  0  0  0  0  0  0  0  0  0  0
   69.5365   47.9047   55.8699 C   0  0  0  0  0  0  0  0  0  0  0  0
   69.1056   47.3763   54.5679 C   0  0  0  0  0  0  0  0  0  0  0  0
   68.1703   46.3202   54.5778 C   0  0  0  0  0  0  0  0  0  0  0  0
   67.6494   45.7815   53.4256 C   0  0  0  0  0  0  0  0  0  0  0  0
   68.0255   46.2596   52.1925 C   0  0  0  0  0  0  0  0  0  0  0  0
   68.9359   47.2860   52.1629 C   0  0  0  0  0  0  0  0  0  0  0  0
   69.4784   47.9095   51.1056 N   0  0  0  0  0  0  0  0  0  0  0  0
   70.3203   48.8129   51.5621 N   0  0  0  0  0  0  0  0  0  0  0  0
   70.3357   48.7901   52.9215 C   0  0  0  0  0  0  0  0  0  0  0  0
   69.4643   47.8315   53.3328 C   0  0  0  0  0  0  0  0  0  0  0  0
 11 12  1  0
 12 10  1  0
 10  9  1  0
  9  1  1  0
  1  2  1  0
  1  8  2  0
  2  3  2  0
  3  4  1  0
  3  5  1  0
  5  6  2  0
  5  7  1  0
  7 13  1  0
  7  8  1  0
 13 14  1  0
 14 15  2  0
 14 22  1  0
 15 16  1  0
 16 17  2  0
 17 18  1  0
 18 19  1  0
 18 22  2  0
 19 20  1  0
 20 21  2  0
 21 22  1  0
M  CHG  1  12   1
M  END
>  <minimizedAffinity>  (444) 
-8.69270

$$$$
cs_full_output_folder/data/smiles/1357.pdb
     RDKit          3D

 23 25  0  0  0  0  0  0  0  0999 V2000
   69.3856   45.9217   56.9525 C   0  0  0  0  0  0  0  0  0  0  0  0
   69.8251   47.0768   57.6044 C   0  0  0  0  0  0  0  0  0  0  0  0
   70.9407   47.0673   58.4139 C   0  0  0  0  0  0  0  0  0  0  0  0
   71.6749   45.9195   58.6187 C   0  0  0  0  0  0  0  0  0  0  0  0
   71.2564   44.7689   57.9829 C   0  0  0  0  0  0  0  0  0  0  0  0
   70.1254   44.7820   57.1631 C   0  0  0  0  0  0  0  0  0  0  0  0
   72.0157   43.5346   58.1811 C   0  0  0  0  0  0  0  0  0  0  0  0
   73.3937   43.4927   58.1554 C   0  0  0  0  0  0  0  0  0  0  0  0
   74.1007   42.3230   58.3443 C   0  0  0  0  0  0  0  0  0  0  0  0
   73.4469   41.1292   58.5689 C   0  0  0  0  0  0  0  0  0  0  0  0
   72.0683   41.1541   58.5976 C   0  0  0  0  0  0  0  0  0  0  0  0
   71.3689   42.3288   58.4082 C   0  0  0  0  0  0  0  0  0  0  0  0
   68.2441   46.0088   56.1186 N   0  0  0  0  0  0  0  0  0  0  0  0
   69.2022   47.8131   52.9859 C   0  0  0  0  0  0  0  0  0  0  0  0
   68.6607   47.0156   52.0041 C   0  0  0  0  0  0  0  0  0  0  0  0
   67.9781   45.8917   52.4159 C   0  0  0  0  0  0  0  0  0  0  0  0
   67.8431   45.5788   53.7508 C   0  0  0  0  0  0  0  0  0  0  0  0
   68.3901   46.3826   54.7591 C   0  0  0  0  0  0  0  0  0  0  0  0
   69.0692   47.5000   54.3376 C   0  0  0  0  0  0  0  0  0  0  0  0
   69.3390   50.6762   53.1192 N   0  0  0  0  0  0  0  0  0  0  0  0
   70.0698   49.2415   52.4665 S   0  0  0  0  0  0  0  0  0  0  0  0
   71.5070   49.1318   52.8887 O   0  0  0  0  0  0  0  0  0  0  0  0
   70.0226   49.3768   50.9620 O   0  0  0  0  0  0  0  0  0  0  0  0
 20 21  1  0
 21 22  2  0
 21 23  2  0
 21 14  1  0
 14 15  2  0
 14 19  1  0
 15 16  1  0
 16 17  2  0
 17 18  1  0
 18 13  1  0
 18 19  2  0
 13  1  1  0
  1  2  2  0
  1  6  1  0
  2  3  1  0
  3  4  2  0
  4  5  1  0
  5  7  1  0
  5  6  2  0
  7  8  2  0
  7 12  1  0
  8  9  1  0
  9 10  2  0
 10 11  1  0
 11 12  2  0
M  END
>  <minimizedAffinity>  (445) 
-8.68934

$$$$
cs_full_output_folder/data/smiles/4075.pdb
     RDKit          3D

 23 24  0  0  0  0  0  0  0  0999 V2000
   68.9713   43.7790   56.7350 N   0  0  0  0  0  0  0  0  0  0  0  0
   68.2734   42.5385   56.6604 C   0  0  0  0  0  0  0  0  0  0  0  0
   67.2424   42.5925   55.9062 O   0  0  0  0  0  0  0  0  0  0  0  0
   68.6610   41.3327   57.3473 C   0  0  0  0  0  0  0  0  0  0  0  0
   67.8399   40.2440   57.3868 C   0  0  0  0  0  0  0  0  0  0  0  0
   68.2183   39.0692   58.0566 C   0  0  0  0  0  0  0  0  0  0  0  0
   69.4312   39.0189   58.6784 C   0  0  0  0  0  0  0  0  0  0  0  0
   70.2757   40.1081   58.6496 C   0  0  0  0  0  0  0  0  0  0  0  0
   69.8769   41.2719   57.9748 C   0  0  0  0  0  0  0  0  0  0  0  0
   69.8146   37.8253   59.3581 N   0  0  0  0  0  0  0  0  0  0  0  0
   69.2562   37.4660   60.3906 O   0  0  0  0  0  0  0  0  0  0  0  0
   70.8384   37.0471   58.8484 O   0  0  0  0  0  0  0  0  0  0  0  0
   69.8388   46.3685   57.2703 O   0  0  0  0  0  0  0  0  0  0  0  0
   69.0093   46.2318   56.3345 C   0  0  0  0  0  0  0  0  0  0  0  0
   68.5593   44.9313   56.0484 N   0  0  0  0  0  0  0  0  0  0  0  0
   68.5760   47.4502   55.6120 C   0  0  0  0  0  0  0  0  0  0  0  0
   68.6181   47.2779   54.1473 C   0  0  0  0  0  0  0  0  0  0  0  0
   67.8512   46.3534   53.4873 C   0  0  0  0  0  0  0  0  0  0  0  0
   67.9404   46.2456   52.1059 C   0  0  0  0  0  0  0  0  0  0  0  0
   68.7937   47.0581   51.3818 C   0  0  0  0  0  0  0  0  0  0  0  0
   69.5649   47.9856   52.0370 C   0  0  0  0  0  0  0  0  0  0  0  0
   70.4402   48.8275   51.3504 O   0  0  0  0  0  0  0  0  0  0  0  0
   69.4573   48.0741   53.4193 C   0  0  0  0  0  0  0  0  0  0  0  0
 13 14  2  0
 14 16  1  0
 14 15  1  0
 16 17  1  0
 17 18  2  0
 17 23  1  0
 18 19  1  0
 19 20  2  0
 20 21  1  0
 21 22  1  0
 21 23  2  0
 15  1  1  0
  1  2  1  0
  2  3  2  0
  2  4  1  0
  4  5  2  0
  4  9  1  0
  5  6  1  0
  6  7  2  0
  7 10  1  0
  7  8  1  0
 10 11  2  0
 10 12  1  0
  8  9  2  0
M  CHG  2  10   1  12  -1
M  END
>  <minimizedAffinity>  (446) 
-8.68916

$$$$
cs_full_output_folder/data/smiles/3109.pdb
     RDKit          3D

 24 26  0  0  0  0  0  0  0  0999 V2000
   69.0106   47.5776   56.6833 C   0  0  0  0  0  0  0  0  0  0  0  0
   67.7882   47.3463   56.9981 O   0  0  0  0  0  0  0  0  0  0  0  0
   69.2506   47.9336   55.3004 C   0  0  0  0  0  0  0  0  0  0  0  0
   70.0084   49.0840   55.0077 C   0  0  0  0  0  0  0  0  0  0  0  0
   70.2436   49.4332   53.7001 C   0  0  0  0  0  0  0  0  0  0  0  0
   70.9271   50.4713   53.4332 O   0  0  0  0  0  0  0  0  0  0  0  0
   69.7795   48.7216   52.6670 N   0  0  0  0  0  0  0  0  0  0  0  0
   69.0419   47.6040   52.8874 C   0  0  0  0  0  0  0  0  0  0  0  0
   68.5646   46.8703   51.8132 C   0  0  0  0  0  0  0  0  0  0  0  0
   67.8177   45.7372   51.9984 C   0  0  0  0  0  0  0  0  0  0  0  0
   67.5605   45.3538   53.2890 C   0  0  0  0  0  0  0  0  0  0  0  0
   68.0456   46.0969   54.3690 C   0  0  0  0  0  0  0  0  0  0  0  0
   68.7984   47.2403   54.2070 C   0  0  0  0  0  0  0  0  0  0  0  0
   69.8930   47.4535   57.6975 O   0  0  0  0  0  0  0  0  0  0  0  0
   70.7329   46.4148   58.0402 C   0  0  0  0  0  0  0  0  0  0  0  0
   69.7048   44.6260   59.2529 O   0  0  0  0  0  0  0  0  0  0  0  0
   70.1046   45.0805   58.1205 C   0  0  0  0  0  0  0  0  0  0  0  0
   69.8929   44.2136   57.0164 N   0  0  0  0  0  0  0  0  0  0  0  0
   69.2788   42.9470   57.1626 C   0  0  0  0  0  0  0  0  0  0  0  0
   69.7145   41.9766   57.9005 C   0  0  0  0  0  0  0  0  0  0  0  0
   68.9190   40.9326   57.8195 C   0  0  0  0  0  0  0  0  0  0  0  0
   67.9293   41.2256   57.0057 C   0  0  0  0  0  0  0  0  0  0  0  0
   68.0607   42.4507   56.5442 C   0  0  0  0  0  0  0  0  0  0  0  0
   67.2221   43.0576   55.6905 F   0  0  0  0  0  0  0  0  0  0  0  0
 16 17  2  0
 17 15  1  0
 17 18  1  0
 15 14  1  0
 14  1  1  0
  1  2  2  0
  1  3  1  0
  3  4  2  0
  3 13  1  0
  4  5  1  0
  5  6  2  0
  5  7  1  0
  7  8  1  0
  8  9  1  0
  8 13  2  0
  9 10  2  0
 10 11  1  0
 11 12  2  0
 12 13  1  0
 18 19  1  0
 19 20  2  0
 19 23  1  0
 20 21  2  0
 21 22  2  0
 22 23  2  0
 23 24  1  0
M  END
>  <minimizedAffinity>  (447) 
-8.68886

$$$$
cs_full_output_folder/data/smiles/1768.pdb
     RDKit          3D

 22 23  0  0  0  0  0  0  0  0999 V2000
   67.8055   43.8735   55.2872 N   0  0  0  0  0  0  0  0  0  0  0  0
   68.1771   45.2241   55.1194 C   0  0  0  0  0  0  0  0  0  0  0  0
   68.4113   45.8899   56.1546 O   0  0  0  0  0  0  0  0  0  0  0  0
   68.3054   45.8896   53.8228 C   0  0  0  0  0  0  0  0  0  0  0  0
   67.5537   45.4784   52.7333 C   0  0  0  0  0  0  0  0  0  0  0  0
   67.6606   46.0963   51.4962 C   0  0  0  0  0  0  0  0  0  0  0  0
   68.5276   47.1521   51.3019 C   0  0  0  0  0  0  0  0  0  0  0  0
   69.2845   47.5807   52.3636 C   0  0  0  0  0  0  0  0  0  0  0  0
   69.1631   46.9453   53.6025 C   0  0  0  0  0  0  0  0  0  0  0  0
   70.1760   48.6629   52.1690 N   0  0  0  0  0  0  0  0  0  0  0  0
   71.1144   48.9033   52.9602 O   0  0  0  0  0  0  0  0  0  0  0  0
   69.9928   49.4677   51.0740 O   0  0  0  0  0  0  0  0  0  0  0  0
   67.5048   41.2188   55.5045 O   0  0  0  0  0  0  0  0  0  0  0  0
   67.5290   41.8411   56.6087 C   0  0  0  0  0  0  0  0  0  0  0  0
   67.6871   43.2524   56.5369 N   0  0  0  0  0  0  0  0  0  0  0  0
   67.3998   41.1176   57.8611 C   0  0  0  0  0  0  0  0  0  0  0  0
   68.0171   39.9229   58.1360 C   0  0  0  0  0  0  0  0  0  0  0  0
   67.8676   39.2690   59.3385 C   0  0  0  0  0  0  0  0  0  0  0  0
   67.0682   39.8127   60.3339 C   0  0  0  0  0  0  0  0  0  0  0  0
   66.4441   41.0074   60.0742 C   0  0  0  0  0  0  0  0  0  0  0  0
   65.6568   41.5383   61.0593 F   0  0  0  0  0  0  0  0  0  0  0  0
   66.6106   41.6358   58.8678 C   0  0  0  0  0  0  0  0  0  0  0  0
 13 14  2  0
 14 15  1  0
 14 16  1  0
 15  1  1  0
  1  2  1  0
  2  3  2  0
  2  4  1  0
  4  5  2  0
  4  9  1  0
  5  6  1  0
  6  7  2  0
  7  8  1  0
  8 10  1  0
  8  9  2  0
 10 11  2  0
 10 12  1  0
 16 17  2  0
 16 22  1  0
 17 18  1  0
 18 19  2  0
 19 20  1  0
 20 21  1  0
 20 22  2  0
M  CHG  2  10   1  12  -1
M  END
>  <minimizedAffinity>  (448) 
-8.68868

$$$$
cs_full_output_folder/data/smiles/7096.pdb
     RDKit          3D

 25 28  0  0  0  0  0  0  0  0999 V2000
   72.3838   46.7449   58.7904 C   0  0  0  0  0  0  0  0  0  0  0  0
   72.3237   45.3631   58.9663 C   0  0  0  0  0  0  0  0  0  0  0  0
   71.2248   44.6865   58.4853 C   0  0  0  0  0  0  0  0  0  0  0  0
   70.2007   45.3443   57.8435 C   0  0  0  0  0  0  0  0  0  0  0  0
   70.2323   46.7351   57.6509 C   0  0  0  0  0  0  0  0  0  0  0  0
   71.3445   47.3720   58.1453 C   0  0  0  0  0  0  0  0  0  0  0  0
   73.5399   47.9633   60.5991 C   0  0  0  0  0  0  0  0  0  0  0  0
   72.5289   47.7303   61.3210 O   0  0  0  0  0  0  0  0  0  0  0  0
   73.5063   47.4688   59.2775 N   0  0  0  0  0  0  0  0  0  0  0  0
   75.2139   48.3199   62.5229 C   0  0  0  0  0  0  0  0  0  0  0  0
   74.6569   48.7233   61.1894 C   0  0  0  0  0  0  0  0  0  0  0  0
   75.6477   49.4025   60.2839 C   0  0  0  0  0  0  0  0  0  0  0  0
   74.6301   50.2491   60.9652 C   0  0  0  0  0  0  0  0  0  0  0  0
   69.1168   47.3765   56.9246 C   0  0  0  0  0  0  0  0  0  0  0  0
   68.7135   46.7941   55.6691 C   0  0  0  0  0  0  0  0  0  0  0  0
   68.0871   45.5773   55.7057 N   0  0  0  0  0  0  0  0  0  0  0  0
   67.6788   44.9489   54.6189 N   0  0  0  0  0  0  0  0  0  0  0  0
   67.8525   45.4679   53.3937 C   0  0  0  0  0  0  0  0  0  0  0  0
   67.4425   44.8282   52.3685 O   0  0  0  0  0  0  0  0  0  0  0  0
   68.4702   46.6774   53.2817 C   0  0  0  0  0  0  0  0  0  0  0  0
   68.9084   47.3564   54.4323 C   0  0  0  0  0  0  0  0  0  0  0  0
   69.5677   48.6586   54.3368 C   0  0  0  0  0  0  0  0  0  0  0  0
   69.8155   49.1373   52.9422 C   0  0  0  0  0  0  0  0  0  0  0  0
   70.0240   48.0097   51.9891 C   0  0  0  0  0  0  0  0  0  0  0  0
   68.6963   47.2430   51.9216 C   0  0  0  0  0  0  0  0  0  0  0  0
 10 11  1  0
 11  7  1  0
 11 12  1  0
 11 13  1  0
  7  8  2  0
  7  9  1  0
  9  1  1  0
  1  2  2  0
  1  6  1  0
  2  3  1  0
  3  4  2  0
  4  5  1  0
  5 14  1  0
  5  6  2  0
 14 15  1  0
 15 16  2  0
 15 21  1  0
 16 17  1  0
 17 18  1  0
 18 19  2  0
 18 20  1  0
 20 21  2  0
 20 25  1  0
 21 22  1  0
 22 23  1  0
 23 24  1  0
 24 25  1  0
 12 13  1  0
M  END
>  <minimizedAffinity>  (449) 
-8.68859

$$$$
cs_full_output_folder/data/smiles/956.pdb
     RDKit          3D

 21 22  0  0  0  0  0  0  0  0999 V2000
   67.8616   45.9628   52.3713 C   0  0  0  0  0  0  0  0  0  0  0  0
   67.7034   45.9121   53.7355 C   0  0  0  0  0  0  0  0  0  0  0  0
   68.3917   46.8093   54.5309 C   0  0  0  0  0  0  0  0  0  0  0  0
   69.2492   47.7783   54.0509 C   0  0  0  0  0  0  0  0  0  0  0  0
   69.3979   47.8111   52.6261 C   0  0  0  0  0  0  0  0  0  0  0  0
   68.7112   46.9205   51.8686 C   0  0  0  0  0  0  0  0  0  0  0  0
   70.2745   48.7960   52.1055 N   0  0  0  0  0  0  0  0  0  0  0  0
   69.9275   49.5210   51.1331 O   0  0  0  0  0  0  0  0  0  0  0  0
   71.5299   48.9558   52.6699 O   0  0  0  0  0  0  0  0  0  0  0  0
   66.4536   45.4903   50.5452 O   0  0  0  0  0  0  0  0  0  0  0  0
   67.1478   45.0339   51.5052 C   0  0  0  0  0  0  0  0  0  0  0  0
   69.9072   48.6327   54.7862 O   0  0  0  0  0  0  0  0  0  0  0  0
   70.0637   49.4566   55.8058 C   0  0  0  0  0  0  0  0  0  0  0  0
   68.8129   49.8015   56.5708 C   0  0  0  0  0  0  0  0  0  0  0  0
   68.1506   48.8847   57.3486 C   0  0  0  0  0  0  0  0  0  0  0  0
   68.6796   47.6661   57.5304 F   0  0  0  0  0  0  0  0  0  0  0  0
   66.9637   49.1972   57.9843 C   0  0  0  0  0  0  0  0  0  0  0  0
   66.4493   50.4694   57.8227 C   0  0  0  0  0  0  0  0  0  0  0  0
   67.1093   51.4026   57.0426 C   0  0  0  0  0  0  0  0  0  0  0  0
   68.2892   51.0725   56.4167 C   0  0  0  0  0  0  0  0  0  0  0  0
   69.0974   52.2682   55.4390 Cl  0  0  0  0  0  0  0  0  0  0  0  0
 10 11  2  0
 11  1  1  0
  1  2  2  0
  1  6  1  0
  2  3  1  0
  3  4  2  0
  4 12  1  0
  4  5  1  0
 12 13  1  0
 13 14  1  0
 14 15  2  0
 14 20  1  0
 15 16  1  0
 15 17  1  0
 17 18  2  0
 18 19  1  0
 19 20  2  0
 20 21  1  0
  5  7  1  0
  5  6  2  0
  7  8  2  0
  7  9  1  0
M  CHG  2   7   1   9  -1
M  END
>  <minimizedAffinity>  (450) 
-8.68778

$$$$
cs_full_output_folder/data/smiles/7593.pdb
     RDKit          3D

 23 25  0  0  0  0  0  0  0  0999 V2000
   69.9697   45.9132   58.8395 O   0  0  0  0  0  0  0  0  0  0  0  0
   70.1417   45.1033   57.8608 C   0  0  0  0  0  0  0  0  0  0  0  0
   69.3712   45.3259   56.7170 N   0  0  0  0  0  0  0  0  0  0  0  0
   71.0931   44.0147   57.9511 C   0  0  0  0  0  0  0  0  0  0  0  0
   72.4654   44.2436   57.8839 C   0  0  0  0  0  0  0  0  0  0  0  0
   73.3687   43.2099   57.9670 C   0  0  0  0  0  0  0  0  0  0  0  0
   72.9276   41.9090   58.1200 C   0  0  0  0  0  0  0  0  0  0  0  0
   71.5810   41.6363   58.1904 C   0  0  0  0  0  0  0  0  0  0  0  0
   70.7068   42.7096   58.1031 C   0  0  0  0  0  0  0  0  0  0  0  0
   71.1079   40.3050   58.3458 N   0  0  0  0  0  0  0  0  0  0  0  0
   71.8337   39.1731   58.4108 C   0  0  0  0  0  0  0  0  0  0  0  0
   71.0159   38.0761   58.5636 C   0  0  0  0  0  0  0  0  0  0  0  0
   69.7265   38.5555   58.5927 C   0  0  0  0  0  0  0  0  0  0  0  0
   69.8250   39.9213   58.4570 C   0  0  0  0  0  0  0  0  0  0  0  0
   68.4395   46.3917   56.6272 N   0  0  0  0  0  0  0  0  0  0  0  0
   68.9872   47.3801   55.7304 C   0  0  0  0  0  0  0  0  0  0  0  0
   68.7351   47.0669   54.2948 C   0  0  0  0  0  0  0  0  0  0  0  0
   67.8832   46.0659   53.8754 C   0  0  0  0  0  0  0  0  0  0  0  0
   67.6556   45.7751   52.5480 C   0  0  0  0  0  0  0  0  0  0  0  0
   68.2948   46.5015   51.5659 C   0  0  0  0  0  0  0  0  0  0  0  0
   69.1537   47.5095   51.9547 C   0  0  0  0  0  0  0  0  0  0  0  0
   69.3715   47.7890   53.2832 C   0  0  0  0  0  0  0  0  0  0  0  0
   70.2133   48.7754   53.6525 F   0  0  0  0  0  0  0  0  0  0  0  0
  1  2  2  0
  2  3  1  0
  2  4  1  0
  3 15  1  0
 15 16  1  0
 16 17  1  0
 17 18  2  0
 17 22  1  0
 18 19  1  0
 19 20  2  0
 20 21  1  0
 21 22  2  0
 22 23  1  0
  4  5  2  0
  4  9  1  0
  5  6  1  0
  6  7  2  0
  7  8  1  0
  8 10  1  0
  8  9  2  0
 10 11  1  0
 10 14  1  0
 11 12  2  0
 12 13  1  0
 13 14  2  0
M  END
>  <minimizedAffinity>  (451) 
-8.68611

$$$$
cs_full_output_folder/data/smiles/6255.pdb
     RDKit          3D

 22 24  0  0  0  0  0  0  0  0999 V2000
   70.4773   50.5958   53.2077 N   0  0  0  0  0  0  0  0  0  0  0  0
   69.8246   49.3683   52.9323 C   0  0  0  0  0  0  0  0  0  0  0  0
   69.3093   48.5454   53.9284 C   0  0  0  0  0  0  0  0  0  0  0  0
   68.7187   47.3665   53.5480 C   0  0  0  0  0  0  0  0  0  0  0  0
   68.1807   46.4869   54.4858 C   0  0  0  0  0  0  0  0  0  0  0  0
   67.6081   45.3304   54.0348 C   0  0  0  0  0  0  0  0  0  0  0  0
   67.5506   45.0164   52.6934 C   0  0  0  0  0  0  0  0  0  0  0  0
   68.0771   45.8724   51.7541 C   0  0  0  0  0  0  0  0  0  0  0  0
   68.6620   47.0531   52.2101 C   0  0  0  0  0  0  0  0  0  0  0  0
   69.1589   47.8569   51.3024 O   0  0  0  0  0  0  0  0  0  0  0  0
   69.7322   48.9915   51.6006 C   0  0  0  0  0  0  0  0  0  0  0  0
   70.1921   49.7235   50.6924 O   0  0  0  0  0  0  0  0  0  0  0  0
   69.4111   48.9858   55.2282 N   0  0  0  0  0  0  0  0  0  0  0  0
   68.5718   49.4294   56.2219 C   0  0  0  0  0  0  0  0  0  0  0  0
   67.8349   48.4545   56.9470 C   0  0  0  0  0  0  0  0  0  0  0  0
   66.9575   48.7867   57.9502 C   0  0  0  0  0  0  0  0  0  0  0  0
   66.7694   50.1111   58.2834 C   0  0  0  0  0  0  0  0  0  0  0  0
   67.4823   51.0524   57.5831 C   0  0  0  0  0  0  0  0  0  0  0  0
   68.3833   50.7266   56.5534 C   0  0  0  0  0  0  0  0  0  0  0  0
   69.0744   51.8083   55.8904 C   0  0  2  0  0  0  0  0  0  0  0  0
   68.9604   52.9228   56.7862 O   0  0  0  0  0  0  0  0  0  0  0  0
   68.1690   52.3815   54.4353 Cl  0  0  0  0  0  0  0  0  0  0  0  0
  1  2  1  0
  2  3  2  0
  2 11  1  0
  3 13  1  0
  3  4  1  0
 13 14  1  0
 14 15  2  0
 14 19  1  0
 15 16  1  0
 16 17  2  0
 17 18  1  0
 18 19  2  0
 19 20  1  0
 20 21  1  1
 20 22  1  0
  4  5  2  0
  4  9  1  0
  5  6  1  0
  6  7  2  0
  7  8  1  0
  8  9  2  0
  9 10  1  0
 10 11  1  0
 11 12  2  0
M  END
>  <minimizedAffinity>  (452) 
-8.68339

$$$$
cs_full_output_folder/data/smiles/3624.pdb
     RDKit          3D

 24 26  0  0  0  0  0  0  0  0999 V2000
   68.1177   44.8054   55.1158 N   0  0  0  0  0  0  0  0  0  0  0  0
   68.6534   44.1158   56.2275 C   0  0  0  0  0  0  0  0  0  0  0  0
   69.4799   44.7275   56.9458 O   0  0  0  0  0  0  0  0  0  0  0  0
   69.2415   47.7952   53.1837 C   0  0  0  0  0  0  0  0  0  0  0  0
   69.1215   48.7900   54.1308 C   0  0  0  0  0  0  0  0  0  0  0  0
   68.6661   48.4750   55.4166 C   0  0  0  0  0  0  0  0  0  0  0  0
   68.3460   47.1541   55.7014 C   0  0  0  0  0  0  0  0  0  0  0  0
   68.4589   46.1427   54.7703 C   0  0  0  0  0  0  0  0  0  0  0  0
   68.9110   46.5002   53.5186 C   0  0  0  0  0  0  0  0  0  0  0  0
   69.8980   49.5129   51.4932 N   0  0  0  0  0  0  0  0  0  0  0  0
   69.7185   48.1400   51.8446 C   0  0  0  0  0  0  0  0  0  0  0  0
   69.9802   47.2668   50.9822 O   0  0  0  0  0  0  0  0  0  0  0  0
   68.2958   42.7458   56.5719 C   0  0  0  0  0  0  0  0  0  0  0  0
   67.2198   42.0053   56.1372 C   0  0  0  0  0  0  0  0  0  0  0  0
   67.3029   40.7815   56.7281 N   0  0  0  0  0  0  0  0  0  0  0  0
   68.3668   40.7088   57.5062 N   0  0  0  0  0  0  0  0  0  0  0  0
   68.9807   41.9017   57.4199 C   0  0  0  0  0  0  0  0  0  0  0  0
   68.7814   39.5709   58.2924 C   0  0  0  0  0  0  0  0  0  0  0  0
   67.9252   38.9771   59.1641 C   0  0  0  0  0  0  0  0  0  0  0  0
   68.3902   37.8798   59.8931 C   0  0  0  0  0  0  0  0  0  0  0  0
   69.6820   37.4110   59.7345 C   0  0  0  0  0  0  0  0  0  0  0  0
   70.5455   38.0140   58.8517 C   0  0  0  0  0  0  0  0  0  0  0  0
   72.1799   37.4167   58.6546 Cl  0  0  0  0  0  0  0  0  0  0  0  0
   70.0710   39.1037   58.1332 C   0  0  0  0  0  0  0  0  0  0  0  0
 10 11  1  0
 11 12  2  0
 11  4  1  0
  4  5  2  0
  4  9  1  0
  5  6  1  0
  6  7  2  0
  7  8  1  0
  8  1  1  0
  8  9  2  0
  1  2  1  0
  2  3  2  0
  2 13  1  0
 13 14  1  0
 13 17  2  0
 14 15  2  0
 15 16  1  0
 16 18  1  0
 16 17  1  0
 18 19  2  0
 18 24  1  0
 19 20  1  0
 20 21  2  0
 21 22  1  0
 22 23  1  0
 22 24  2  0
M  END
>  <minimizedAffinity>  (453) 
-8.68217

$$$$
cs_full_output_folder/data/smiles/6109.pdb
     RDKit          3D

 24 26  0  0  0  0  0  0  0  0999 V2000
   69.7684   44.4871   57.4855 C   0  0  0  0  0  0  0  0  0  0  0  0
   70.0573   45.4452   58.2417 O   0  0  0  0  0  0  0  0  0  0  0  0
   69.0293   44.7578   56.3117 N   0  0  0  0  0  0  0  0  0  0  0  0
   72.7410   42.9732   57.5257 C   0  0  0  0  0  0  0  0  0  0  0  0
   71.3225   42.5076   57.8275 C   0  0  0  0  0  0  0  0  0  0  0  0
   70.1874   43.1028   57.8079 C   0  0  0  0  0  0  0  0  0  0  0  0
   69.4840   41.9077   58.2185 C   0  0  0  0  0  0  0  0  0  0  0  0
   70.7612   41.3093   58.2220 N   0  0  0  0  0  0  0  0  0  0  0  0
   71.2792   40.0051   58.5104 C   0  0  0  0  0  0  0  0  0  0  0  0
   70.7023   38.8333   58.2488 C   0  0  0  0  0  0  0  0  0  0  0  0
   71.5020   37.7194   58.6741 C   0  0  0  0  0  0  0  0  0  0  0  0
   71.1530   36.4013   58.5286 F   0  0  0  0  0  0  0  0  0  0  0  0
   72.6065   38.2052   59.2152 C   0  0  0  0  0  0  0  0  0  0  0  0
   72.5741   39.6884   59.1660 C   0  0  0  0  0  0  0  0  0  0  0  0
   68.5967   46.0836   55.9441 C   0  0  0  0  0  0  0  0  0  0  0  0
   68.5398   46.2977   54.4880 C   0  0  0  0  0  0  0  0  0  0  0  0
   67.7949   45.5913   53.5917 C   0  0  0  0  0  0  0  0  0  0  0  0
   67.7924   45.8701   52.2199 C   0  0  0  0  0  0  0  0  0  0  0  0
   68.5784   46.9032   51.7590 C   0  0  0  0  0  0  0  0  0  0  0  0
   69.3354   47.6241   52.6498 C   0  0  0  0  0  0  0  0  0  0  0  0
   69.3272   47.3395   53.9940 C   0  0  0  0  0  0  0  0  0  0  0  0
   70.1836   48.7331   52.1820 C   0  0  0  0  0  0  0  0  0  0  0  0
   71.2580   49.2137   52.9662 N   0  0  0  0  0  0  0  0  0  0  0  0
   69.9342   49.2557   51.0538 O   0  0  0  0  0  0  0  0  0  0  0  0
  4  5  1  0
  5  6  2  0
  5  8  1  0
  6  1  1  0
  6  7  1  0
  1  2  2  0
  1  3  1  0
  3 15  1  0
 15 16  1  0
 16 17  2  0
 16 21  1  0
 17 18  1  0
 18 19  2  0
 19 20  1  0
 20 22  1  0
 20 21  2  0
 22 23  1  0
 22 24  2  0
  7  8  1  0
  8  9  1  0
  9 10  2  0
  9 14  1  0
 10 11  1  0
 11 12  1  0
 11 13  2  0
 13 14  1  0
M  END
>  <minimizedAffinity>  (454) 
-8.68178

$$$$
cs_full_output_folder/data/smiles/3232.pdb
     RDKit          3D

 25 28  0  0  0  0  0  0  0  0999 V2000
   70.5334   44.8612   58.6104 C   0  0  0  0  0  0  0  0  0  0  0  0
   71.6554   45.4281   59.1550 C   0  0  0  0  0  0  0  0  0  0  0  0
   71.9505   46.7903   59.0263 C   0  0  0  0  0  0  0  0  0  0  0  0
   71.0609   47.5659   58.3186 C   0  0  0  0  0  0  0  0  0  0  0  0
   69.9290   47.0213   57.7633 C   0  0  0  0  0  0  0  0  0  0  0  0
   69.7211   45.7138   57.9325 N   0  0  0  0  0  0  0  0  0  0  0  0
   69.2888   43.1686   56.6433 O   0  0  0  0  0  0  0  0  0  0  0  0
   69.5811   42.6749   57.7501 C   0  0  0  0  0  0  0  0  0  0  0  0
   70.1846   43.4912   58.7060 N   0  0  0  0  0  0  0  0  0  0  0  0
   69.2774   41.2497   58.0007 C   0  0  0  0  0  0  0  0  0  0  0  0
   69.8638   40.2014   58.5335 C   0  0  0  0  0  0  0  0  0  0  0  0
   68.6913   39.3581   58.2546 C   0  0  0  0  0  0  0  0  0  0  0  0
   68.1186   40.4257   57.7232 C   0  0  0  0  0  0  0  0  0  0  0  0
   68.9276   47.8497   56.9941 C   0  0  0  0  0  0  0  0  0  0  0  0
   68.6679   47.1515   55.7143 C   0  0  0  0  0  0  0  0  0  0  0  0
   68.0509   45.9201   55.7471 N   0  0  0  0  0  0  0  0  0  0  0  0
   67.7912   45.3043   54.6190 N   0  0  0  0  0  0  0  0  0  0  0  0
   68.0855   45.7924   53.4152 C   0  0  0  0  0  0  0  0  0  0  0  0
   67.7889   45.1131   52.3949 O   0  0  0  0  0  0  0  0  0  0  0  0
   68.7046   47.0211   53.3285 C   0  0  0  0  0  0  0  0  0  0  0  0
   68.9939   47.6979   54.5102 C   0  0  0  0  0  0  0  0  0  0  0  0
   69.6795   49.0113   54.4603 C   0  0  0  0  0  0  0  0  0  0  0  0
   70.5640   48.9825   53.1988 C   0  0  0  0  0  0  0  0  0  0  0  0
   69.5693   48.9241   52.0396 C   0  0  0  0  0  0  0  0  0  0  0  0
   69.0065   47.5279   51.9718 C   0  0  0  0  0  0  0  0  0  0  0  0
  7  8  2  0
  8  9  1  0
  8 10  1  0
  9  1  1  0
  1  2  2  0
  1  6  1  0
  2  3  1  0
  3  4  2  0
  4  5  1  0
  5 14  1  0
  5  6  2  0
 14 15  1  0
 15 16  2  0
 15 21  1  0
 16 17  1  0
 17 18  1  0
 18 19  2  0
 18 20  1  0
 20 21  2  0
 20 25  1  0
 21 22  1  0
 22 23  1  0
 23 24  1  0
 24 25  1  0
 10 11  2  0
 10 13  1  0
 11 12  1  0
 12 13  2  0
M  END
>  <minimizedAffinity>  (455) 
-8.68173

$$$$
cs_full_output_folder/data/smiles/7819.pdb
     RDKit          3D

 24 26  0  0  0  0  0  0  0  0999 V2000
   68.4591   44.5453   56.1514 N   0  0  0  0  0  0  0  0  0  0  0  0
   68.2014   45.4180   55.0399 C   0  0  0  0  0  0  0  0  0  0  0  0
   67.7234   44.8553   54.0213 O   0  0  0  0  0  0  0  0  0  0  0  0
   68.5012   46.8280   55.1678 C   0  0  0  0  0  0  0  0  0  0  0  0
   68.3557   47.5379   56.3330 C   0  0  0  0  0  0  0  0  0  0  0  0
   68.6682   48.8746   56.4010 C   0  0  0  0  0  0  0  0  0  0  0  0
   69.1400   49.5575   55.3018 C   0  0  0  0  0  0  0  0  0  0  0  0
   69.2958   48.8634   54.1091 C   0  0  0  0  0  0  0  0  0  0  0  0
   69.7673   49.4917   52.9593 C   0  0  0  0  0  0  0  0  0  0  0  0
   69.9147   48.7713   51.7751 C   0  0  0  0  0  0  0  0  0  0  0  0
   69.5980   47.4234   51.7112 C   0  0  0  0  0  0  0  0  0  0  0  0
   69.1287   46.8282   52.8824 C   0  0  0  0  0  0  0  0  0  0  0  0
   68.9741   47.5121   54.0631 C   0  0  0  0  0  0  0  0  0  0  0  0
   68.7833   42.8015   58.1632 O   0  0  0  0  0  0  0  0  0  0  0  0
   68.3231   42.2757   57.1103 C   0  0  0  0  0  0  0  0  0  0  0  0
   68.1581   43.1914   56.0437 N   0  0  0  0  0  0  0  0  0  0  0  0
   68.0199   40.8647   57.0682 C   0  0  0  0  0  0  0  0  0  0  0  0
   67.8204   40.1087   58.3105 C   0  0  0  0  0  0  0  0  0  0  0  0
   68.8248   39.1329   58.7178 C   0  0  0  0  0  0  0  0  0  0  0  0
   68.5208   38.1902   59.6974 C   0  0  0  0  0  0  0  0  0  0  0  0
   69.4240   37.2285   60.1182 C   0  0  0  0  0  0  0  0  0  0  0  0
   70.6788   37.2260   59.5185 C   0  0  0  0  0  0  0  0  0  0  0  0
   71.0268   38.1472   58.5366 C   0  0  0  0  0  0  0  0  0  0  0  0
   70.1019   39.0966   58.1389 C   0  0  0  0  0  0  0  0  0  0  0  0
 14 15  2  0
 15 17  1  0
 15 16  1  0
 17 18  1  0
 18 19  1  0
 19 20  2  0
 19 24  1  0
 20 21  1  0
 21 22  2  0
 22 23  1  0
 23 24  2  0
 16  1  1  0
  1  2  1  0
  2  3  2  0
  2  4  1  0
  4  5  2  0
  4 13  1  0
  5  6  1  0
  6  7  2  0
  7  8  1  0
  8  9  1  0
  8 13  2  0
  9 10  2  0
 10 11  1  0
 11 12  2  0
 12 13  1  0
M  END
>  <minimizedAffinity>  (456) 
-8.68129

$$$$
cs_full_output_folder/data/smiles/9136.pdb
     RDKit          3D

 24 26  0  0  0  0  0  0  0  0999 V2000
   70.3246   39.7914   58.6713 C   0  0  0  0  0  0  0  0  0  0  0  0
   70.8426   41.0614   58.5353 C   0  0  0  0  0  0  0  0  0  0  0  0
   70.1843   42.0187   57.7670 C   0  0  0  0  0  0  0  0  0  0  0  0
   69.0009   41.7060   57.1309 C   0  0  0  0  0  0  0  0  0  0  0  0
   68.4591   40.4439   57.2535 C   0  0  0  0  0  0  0  0  0  0  0  0
   69.1414   39.5057   58.0289 C   0  0  0  0  0  0  0  0  0  0  0  0
   67.2649   40.4017   56.5001 N   0  0  0  0  0  0  0  0  0  0  0  0
   67.0189   41.6559   55.8721 C   0  0  0  0  0  0  0  0  0  0  0  0
   66.0581   41.9857   55.1278 O   0  0  0  0  0  0  0  0  0  0  0  0
   68.1266   42.5159   56.2637 C   0  0  0  0  0  0  0  0  0  0  0  0
   68.2664   43.7064   55.8826 N   0  0  0  0  0  0  0  0  0  0  0  0
   71.6157   37.9459   60.0873 C   0  0  0  0  0  0  0  0  0  0  0  0
   71.0362   38.7633   59.4466 C   0  0  0  0  0  0  0  0  0  0  0  0
   67.4310   44.4559   55.0669 N   0  0  0  0  0  0  0  0  0  0  0  0
   68.0839   45.6497   54.5581 C   0  0  0  0  0  0  0  0  0  0  0  0
   68.1575   45.8575   53.1876 C   0  0  0  0  0  0  0  0  0  0  0  0
   68.7425   46.9847   52.6489 C   0  0  0  0  0  0  0  0  0  0  0  0
   69.2787   47.9474   53.4608 C   0  0  0  0  0  0  0  0  0  0  0  0
   69.2084   47.7408   54.8211 C   0  0  0  0  0  0  0  0  0  0  0  0
   68.6175   46.6044   55.3826 C   0  0  0  0  0  0  0  0  0  0  0  0
   70.0317   49.4040   52.8163 S   0  0  0  0  0  0  0  0  0  0  0  0
   69.9346   49.4456   51.0832 N   0  0  0  0  0  0  0  0  0  0  0  0
   71.4830   49.4686   53.2572 O   0  0  0  0  0  0  0  0  0  0  0  0
   69.3695   50.6503   53.3257 O   0  0  0  0  0  0  0  0  0  0  0  0
 12 13  3  0
 13  1  1  0
  1  2  2  0
  1  6  1  0
  2  3  1  0
  3  4  2  0
  4  5  1  0
  4 10  1  0
  5  6  2  0
  5  7  1  0
  7  8  1  0
  8  9  2  0
  8 10  1  0
 10 11  2  0
 11 14  1  0
 14 15  1  0
 15 16  2  0
 15 20  1  0
 16 17  1  0
 17 18  2  0
 18 21  1  0
 18 19  1  0
 21 22  1  0
 21 23  2  0
 21 24  2  0
 19 20  2  0
M  END
>  <minimizedAffinity>  (457) 
-8.68087

$$$$
cs_full_output_folder/data/smiles/4852.pdb
     RDKit          3D

 24 26  0  0  0  0  0  0  0  0999 V2000
   70.9557   41.8361   58.1145 C   0  0  0  0  0  0  0  0  0  0  0  0
   69.6347   41.3459   57.6905 C   0  0  0  0  0  0  0  0  0  0  0  0
   68.6667   42.1220   57.0514 C   0  0  0  0  0  0  0  0  0  0  0  0
   67.6076   41.2879   56.8373 C   0  0  0  0  0  0  0  0  0  0  0  0
   67.9336   40.0408   57.3354 N   0  0  0  0  0  0  0  0  0  0  0  0
   69.1616   40.1015   57.8456 N   0  0  0  0  0  0  0  0  0  0  0  0
   69.8281   38.9744   58.4361 C   0  0  0  0  0  0  0  0  0  0  0  0
   69.2047   38.3186   59.4786 C   0  0  0  0  0  0  0  0  0  0  0  0
   69.8047   37.2159   60.0999 C   0  0  0  0  0  0  0  0  0  0  0  0
   71.0325   36.8220   59.6271 C   0  0  0  0  0  0  0  0  0  0  0  0
   71.8277   35.4486   60.3797 Cl  0  0  0  0  0  0  0  0  0  0  0  0
   71.6411   37.4886   58.5876 C   0  0  0  0  0  0  0  0  0  0  0  0
   71.0640   38.5604   57.9762 C   0  0  0  0  0  0  0  0  0  0  0  0
   68.8804   43.5149   56.7369 C   0  0  0  0  0  0  0  0  0  0  0  0
   69.6652   44.2551   57.3920 O   0  0  0  0  0  0  0  0  0  0  0  0
   68.2037   44.1793   55.6378 N   0  0  0  0  0  0  0  0  0  0  0  0
   68.4189   45.5955   55.4128 C   0  0  0  0  0  0  0  0  0  0  0  0
   68.3172   46.0132   54.0190 C   0  0  0  0  0  0  0  0  0  0  0  0
   69.1182   47.0922   53.6110 C   0  0  0  0  0  0  0  0  0  0  0  0
   69.1401   47.5741   52.3329 C   0  0  0  0  0  0  0  0  0  0  0  0
   68.3110   46.9332   51.4056 C   0  0  0  0  0  0  0  0  0  0  0  0
   67.5099   45.8664   51.7742 C   0  0  0  0  0  0  0  0  0  0  0  0
   66.6829   45.2265   50.8160 O   0  0  0  0  0  0  0  0  0  0  0  0
   67.5281   45.4228   53.0850 C   0  0  0  0  0  0  0  0  0  0  0  0
  1  2  1  0
  2  3  2  0
  2  6  1  0
  3 14  1  0
  3  4  1  0
 14 15  2  0
 14 16  1  0
 16 17  1  0
 17 18  1  0
 18 19  2  0
 18 24  1  0
 19 20  1  0
 20 21  2  0
 21 22  1  0
 22 23  1  0
 22 24  2  0
  4  5  2  0
  5  6  1  0
  6  7  1  0
  7  8  2  0
  7 13  1  0
  8  9  1  0
  9 10  2  0
 10 11  1  0
 10 12  1  0
 12 13  2  0
M  END
>  <minimizedAffinity>  (458) 
-8.68045

$$$$
cs_full_output_folder/data/smiles/9663.pdb
     RDKit          3D

 25 27  0  0  0  0  0  0  0  0999 V2000
   69.2760   41.3405   57.7609 C   0  0  0  0  0  0  0  0  0  0  0  0
   68.1341   40.6879   57.3685 C   0  0  0  0  0  0  0  0  0  0  0  0
   67.8585   39.3803   57.7479 C   0  0  0  0  0  0  0  0  0  0  0  0
   68.7874   38.7367   58.5516 C   0  0  0  0  0  0  0  0  0  0  0  0
   69.9454   39.3506   58.9688 C   0  0  0  0  0  0  0  0  0  0  0  0
   70.1567   40.6370   58.5606 C   0  0  0  0  0  0  0  0  0  0  0  0
   68.5446   43.5711   56.7997 N   0  0  0  0  0  0  0  0  0  0  0  0
   69.5238   42.7086   57.3392 C   0  0  0  0  0  0  0  0  0  0  0  0
   70.6926   43.2205   57.4420 O   0  0  0  0  0  0  0  0  0  0  0  0
   67.7886   44.6703   54.3865 O   0  0  0  0  0  0  0  0  0  0  0  0
   68.4197   45.4189   55.1613 C   0  0  0  0  0  0  0  0  0  0  0  0
   68.8203   44.8861   56.4042 N   0  0  0  0  0  0  0  0  0  0  0  0
   68.6987   46.7920   54.7281 C   0  0  0  0  0  0  0  0  0  0  0  0
   68.8261   47.8435   55.6098 C   0  0  0  0  0  0  0  0  0  0  0  0
   69.0907   49.1347   55.1698 C   0  0  0  0  0  0  0  0  0  0  0  0
   69.2375   49.4220   53.8306 C   0  0  0  0  0  0  0  0  0  0  0  0
   69.1116   48.3723   52.9406 C   0  0  0  0  0  0  0  0  0  0  0  0
   68.8484   47.0909   53.3798 C   0  0  0  0  0  0  0  0  0  0  0  0
   70.8917   38.6000   59.8275 C   0  0  0  0  0  0  0  0  0  0  0  0
   71.3997   37.4095   59.0887 C   0  0  0  0  0  0  0  0  0  0  0  0
   71.1439   36.1177   59.5283 C   0  0  0  0  0  0  0  0  0  0  0  0
   71.6094   35.0092   58.8525 C   0  0  0  0  0  0  0  0  0  0  0  0
   72.3566   35.1447   57.7011 C   0  0  0  0  0  0  0  0  0  0  0  0
   72.6217   36.4189   57.2491 C   0  0  0  0  0  0  0  0  0  0  0  0
   72.1487   37.5249   57.9360 C   0  0  0  0  0  0  0  0  0  0  0  0
 10 11  2  0
 11 12  1  0
 11 13  1  0
 12  7  1  0
  7  8  1  0
  8  9  2  0
  8  1  1  0
  1  2  2  0
  1  6  1  0
  2  3  1  0
  3  4  2  0
  4  5  1  0
  5 19  1  0
  5  6  2  0
 19 20  1  0
 20 21  2  0
 20 25  1  0
 21 22  1  0
 22 23  2  0
 23 24  1  0
 24 25  2  0
 13 14  2  0
 13 18  1  0
 14 15  1  0
 15 16  2  0
 16 17  1  0
 17 18  2  0
M  END
>  <minimizedAffinity>  (459) 
-8.67957

$$$$
cs_full_output_folder/data/smiles/6190.pdb
     RDKit          3D

 26 28  0  0  0  0  0  0  0  0999 V2000
   68.7475   41.6588   57.0747 C   0  0  0  0  0  0  0  0  0  0  0  0
   67.7345   41.9963   56.1726 C   0  0  0  0  0  0  0  0  0  0  0  0
   67.6299   43.2692   55.6652 C   0  0  0  0  0  0  0  0  0  0  0  0
   68.5026   44.2940   56.0034 C   0  0  0  0  0  0  0  0  0  0  0  0
   69.5018   43.9567   56.8926 C   0  0  0  0  0  0  0  0  0  0  0  0
   69.6124   42.6623   57.4112 C   0  0  0  0  0  0  0  0  0  0  0  0
   69.8002   39.8951   58.5274 N   0  0  0  0  0  0  0  0  0  0  0  0
   68.8060   40.2942   57.6071 C   0  0  0  0  0  0  0  0  0  0  0  0
   67.9678   39.4166   57.2676 O   0  0  0  0  0  0  0  0  0  0  0  0
   71.6359   38.1045   57.7222 O   0  0  0  0  0  0  0  0  0  0  0  0
   70.8775   37.6782   58.6558 C   0  0  0  0  0  0  0  0  0  0  0  0
   69.9093   38.6154   59.0851 N   0  0  0  0  0  0  0  0  0  0  0  0
   71.0728   36.3427   59.1593 C   0  0  0  0  0  0  0  0  0  0  0  0
   70.4824   35.8587   60.2956 C   0  0  0  0  0  0  0  0  0  0  0  0
   70.7303   34.5672   60.6911 C   0  0  0  0  0  0  0  0  0  0  0  0
   71.5683   33.7110   59.9800 C   0  0  0  0  0  0  0  0  0  0  0  0
   72.1647   34.2001   58.8336 C   0  0  0  0  0  0  0  0  0  0  0  0
   71.9071   35.4831   58.4567 C   0  0  0  0  0  0  0  0  0  0  0  0
   68.3311   45.6347   55.4821 C   0  0  0  0  0  0  0  0  0  0  0  0
   68.1651   46.5545   56.3631 O   0  0  0  0  0  0  0  0  0  0  0  0
   68.3272   46.0480   54.1089 C   0  0  0  0  0  0  0  0  0  0  0  0
   67.6267   45.3933   53.1267 C   0  0  0  0  0  0  0  0  0  0  0  0
   67.6384   45.7879   51.8025 C   0  0  0  0  0  0  0  0  0  0  0  0
   68.3827   46.8929   51.4136 C   0  0  0  0  0  0  0  0  0  0  0  0
   69.0951   47.5655   52.3868 C   0  0  0  0  0  0  0  0  0  0  0  0
   69.0744   47.1625   53.7065 C   0  0  0  0  0  0  0  0  0  0  0  0
 10 11  2  0
 11 12  1  0
 11 13  1  0
 12  7  1  0
  7  8  1  0
  8  9  2  0
  8  1  1  0
  1  2  2  0
  1  6  1  0
  2  3  1  0
  3  4  2  0
  4 19  1  0
  4  5  1  0
 19 20  2  0
 19 21  1  0
 21 22  2  0
 21 26  1  0
 22 23  1  0
 23 24  2  0
 24 25  1  0
 25 26  2  0
  5  6  2  0
 13 14  2  0
 13 18  1  0
 14 15  1  0
 15 16  2  0
 16 17  1  0
 17 18  2  0
M  END
>  <minimizedAffinity>  (460) 
-8.67949

$$$$
cs_full_output_folder/data/smiles/3218.pdb
     RDKit          3D

 23 25  0  0  0  0  0  0  0  0999 V2000
   68.9259   48.8634   56.1673 C   0  0  0  0  0  0  0  0  0  0  0  0
   69.3400   48.7119   54.7656 C   0  0  0  0  0  0  0  0  0  0  0  0
   70.2361   49.6235   54.2868 N   0  0  0  0  0  0  0  0  0  0  0  0
   70.6190   49.5779   53.0274 N   0  0  0  0  0  0  0  0  0  0  0  0
   70.1851   48.6754   52.1455 C   0  0  0  0  0  0  0  0  0  0  0  0
   70.5846   48.6727   50.9360 O   0  0  0  0  0  0  0  0  0  0  0  0
   69.2787   47.7251   52.5642 C   0  0  0  0  0  0  0  0  0  0  0  0
   68.8060   46.7643   51.6981 C   0  0  0  0  0  0  0  0  0  0  0  0
   67.9107   45.8180   52.1413 C   0  0  0  0  0  0  0  0  0  0  0  0
   67.5113   45.8630   53.4572 C   0  0  0  0  0  0  0  0  0  0  0  0
   67.9866   46.8288   54.3246 C   0  0  0  0  0  0  0  0  0  0  0  0
   68.8736   47.7777   53.9080 C   0  0  0  0  0  0  0  0  0  0  0  0
   70.6120   46.2016   58.3377 C   0  0  0  0  0  0  0  0  0  0  0  0
   69.7814   46.8040   57.3903 C   0  0  0  0  0  0  0  0  0  0  0  0
   69.7857   48.1426   57.1385 C   0  0  0  0  0  0  0  0  0  0  0  0
   70.6661   48.9598   57.8657 C   0  0  0  0  0  0  0  0  0  0  0  0
   71.5034   48.3868   58.8146 C   0  0  0  0  0  0  0  0  0  0  0  0
   71.4596   47.0287   59.0301 C   0  0  0  0  0  0  0  0  0  0  0  0
   72.2851   46.5041   59.9597 F   0  0  0  0  0  0  0  0  0  0  0  0
   70.5597   44.7543   58.5634 C   0  0  0  0  0  0  0  0  0  0  0  0
   69.7503   44.3092   59.3968 O   0  0  0  0  0  0  0  0  0  0  0  0
   71.1124   42.4739   57.7923 C   0  0  0  0  0  0  0  0  0  0  0  0
   71.3714   43.8687   57.8881 O   0  0  0  0  0  0  0  0  0  0  0  0
 22 23  1  0
 23 20  1  0
 20 21  2  0
 20 13  1  0
 13 14  2  0
 13 18  1  0
 14 15  1  0
 15  1  1  0
 15 16  2  0
  1  2  1  0
  2  3  2  0
  2 12  1  0
  3  4  1  0
  4  5  1  0
  5  6  2  0
  5  7  1  0
  7  8  1  0
  7 12  2  0
  8  9  2  0
  9 10  1  0
 10 11  2  0
 11 12  1  0
 16 17  1  0
 17 18  2  0
 18 19  1  0
M  END
>  <minimizedAffinity>  (461) 
-8.67900

$$$$
cs_full_output_folder/data/smiles/2672.pdb
     RDKit          3D

 24 27  0  0  0  0  0  0  0  0999 V2000
   69.1331   47.6047   52.7358 C   0  0  0  0  0  0  0  0  0  0  0  0
   68.5040   46.8866   51.7105 C   0  0  0  0  0  0  0  0  0  0  0  0
   67.7017   45.7898   51.9145 C   0  0  0  0  0  0  0  0  0  0  0  0
   67.4943   45.3572   53.2095 C   0  0  0  0  0  0  0  0  0  0  0  0
   68.1004   46.0446   54.2398 C   0  0  0  0  0  0  0  0  0  0  0  0
   68.9148   47.1626   54.0079 C   0  0  0  0  0  0  0  0  0  0  0  0
   70.4255   48.7319   51.1665 O   0  0  0  0  0  0  0  0  0  0  0  0
   70.0382   48.6788   52.3838 C   0  0  0  0  0  0  0  0  0  0  0  0
   70.5562   49.7039   53.2493 C   0  0  0  0  0  0  0  0  0  0  0  0
   71.8421   49.8131   53.6280 N   0  0  0  0  0  0  0  0  0  0  0  0
   71.9870   50.8113   54.4668 N   0  0  0  0  0  0  0  0  0  0  0  0
   70.8011   51.4190   54.6917 C   0  0  0  0  0  0  0  0  0  0  0  0
   70.3900   52.4710   55.4718 C   0  0  0  0  0  0  0  0  0  0  0  0
   69.0875   52.8663   55.5258 C   0  0  0  0  0  0  0  0  0  0  0  0
   68.1669   52.1873   54.7761 C   0  0  0  0  0  0  0  0  0  0  0  0
   68.5848   51.1379   53.9972 C   0  0  0  0  0  0  0  0  0  0  0  0
   69.8851   50.7004   53.9051 C   0  0  0  0  0  0  0  0  0  0  0  0
   69.4407   47.7940   55.1529 N   0  0  0  0  0  0  0  0  0  0  0  0
   68.6305   47.9698   56.3616 C   0  0  0  0  0  0  0  0  0  0  0  0
   69.1261   49.0830   57.2106 C   0  0  0  0  0  0  0  0  0  0  0  0
   70.4542   49.2754   57.5544 C   0  0  0  0  0  0  0  0  0  0  0  0
   70.4986   50.3610   58.3129 N   0  0  0  0  0  0  0  0  0  0  0  0
   69.2919   50.8686   58.4732 N   0  0  0  0  0  0  0  0  0  0  0  0
   68.4277   50.0987   57.8037 C   0  0  0  0  0  0  0  0  0  0  0  0
  7  8  2  0
  8  1  1  0
  8  9  1  0
  1  2  2  0
  1  6  1  0
  2  3  1  0
  3  4  2  0
  4  5  1  0
  5  6  2  0
  6 18  1  0
 18 19  1  0
 19 20  1  0
 20 21  1  0
 20 24  2  0
 21 22  2  0
 22 23  1  0
 23 24  1  0
  9 10  2  0
  9 17  1  0
 10 11  1  0
 11 12  1  0
 12 13  1  0
 12 17  2  0
 13 14  2  0
 14 15  1  0
 15 16  2  0
 16 17  1  0
M  END
>  <minimizedAffinity>  (462) 
-8.67854

$$$$
cs_full_output_folder/data/smiles/1090.pdb
     RDKit          3D

 26 29  0  0  0  0  0  0  0  0999 V2000
   71.4808   47.0513   58.9064 C   0  0  0  0  0  0  0  0  0  0  0  0
   71.6210   45.7072   58.7013 C   0  0  0  0  0  0  0  0  0  0  0  0
   70.7995   45.0406   57.8147 C   0  0  0  0  0  0  0  0  0  0  0  0
   69.8129   45.7450   57.1182 C   0  0  0  0  0  0  0  0  0  0  0  0
   69.6468   47.0909   57.2975 C   0  0  0  0  0  0  0  0  0  0  0  0
   70.4962   47.7077   58.1973 C   0  0  0  0  0  0  0  0  0  0  0  0
   72.0698   47.6911   61.0837 O   0  0  0  0  0  0  0  0  0  0  0  0
   72.3393   47.7414   59.8588 C   0  0  0  0  0  0  0  0  0  0  0  0
   73.4822   48.4768   59.4598 N   0  0  0  0  0  0  0  0  0  0  0  0
   74.2841   49.1584   60.4482 C   0  0  0  0  0  0  0  0  0  0  0  0
   74.9209   50.3514   59.7283 C   0  0  0  0  0  0  0  0  0  0  0  0
   75.9172   49.9249   58.6853 C   0  0  0  0  0  0  0  0  0  0  0  0
   75.4231   48.6781   57.9906 C   0  0  0  0  0  0  0  0  0  0  0  0
   73.9120   48.5933   58.0806 C   0  0  0  0  0  0  0  0  0  0  0  0
   68.6040   47.9051   56.5760 C   0  0  0  0  0  0  0  0  0  0  0  0
   69.0850   48.1962   55.2349 N   0  0  0  0  0  0  0  0  0  0  0  0
   69.9702   49.2398   55.1815 C   0  0  0  0  0  0  0  0  0  0  0  0
   70.5177   49.5251   53.9576 C   0  0  0  0  0  0  0  0  0  0  0  0
   70.1862   48.7917   52.8445 C   0  0  0  0  0  0  0  0  0  0  0  0
   70.7007   49.0624   51.7077 O   0  0  0  0  0  0  0  0  0  0  0  0
   69.2915   47.7354   52.8915 C   0  0  0  0  0  0  0  0  0  0  0  0
   68.9722   47.0228   51.7605 C   0  0  0  0  0  0  0  0  0  0  0  0
   68.0585   45.9857   51.8891 C   0  0  0  0  0  0  0  0  0  0  0  0
   67.5089   45.7053   53.1258 C   0  0  0  0  0  0  0  0  0  0  0  0
   67.8508   46.4388   54.2429 C   0  0  0  0  0  0  0  0  0  0  0  0
   68.7544   47.4736   54.1512 C   0  0  0  0  0  0  0  0  0  0  0  0
  7  8  2  0
  8  1  1  0
  8  9  1  0
  1  2  2  0
  1  6  1  0
  2  3  1  0
  3  4  2  0
  4  5  1  0
  5 15  1  0
  5  6  2  0
 15 16  1  0
 16 17  1  0
 16 26  1  0
 17 18  2  0
 18 19  1  0
 19 20  2  0
 19 21  1  0
 21 22  1  0
 21 26  2  0
 22 23  2  0
 23 24  1  0
 24 25  2  0
 25 26  1  0
  9 10  1  0
  9 14  1  0
 10 11  1  0
 11 12  1  0
 12 13  1  0
 13 14  1  0
M  END
>  <minimizedAffinity>  (463) 
-8.67673

$$$$
cs_full_output_folder/data/smiles/3909.pdb
     RDKit          3D

 23 24  0  0  0  0  0  0  0  0999 V2000
   69.8248   46.4123   58.1533 O   0  0  0  0  0  0  0  0  0  0  0  0
   71.7667   45.2047   58.1461 O   0  0  0  0  0  0  0  0  0  0  0  0
   70.5271   45.2372   57.9688 C   0  0  0  0  0  0  0  0  0  0  0  0
   69.8706   43.9924   57.5634 C   0  0  0  0  0  0  0  0  0  0  0  0
   68.8745   43.9801   56.5992 C   0  0  0  0  0  0  0  0  0  0  0  0
   68.2545   42.8085   56.2151 C   0  0  0  0  0  0  0  0  0  0  0  0
   68.5940   41.5930   56.7704 C   0  0  0  0  0  0  0  0  0  0  0  0
   69.5836   41.5987   57.7289 C   0  0  0  0  0  0  0  0  0  0  0  0
   70.2093   42.7776   58.1178 C   0  0  0  0  0  0  0  0  0  0  0  0
   67.9346   40.4040   56.3529 N   0  0  0  0  0  0  0  0  0  0  0  0
   67.4281   40.3081   55.2190 O   0  0  0  0  0  0  0  0  0  0  0  0
   67.8221   39.3099   57.1748 O   0  0  0  0  0  0  0  0  0  0  0  0
   69.9183   47.5102   57.2622 C   0  0  0  0  0  0  0  0  0  0  0  0
   68.5577   47.8085   56.6388 C   0  0  0  0  0  0  0  0  0  0  0  0
   68.6071   47.4953   55.1846 C   0  0  0  0  0  0  0  0  0  0  0  0
   69.3152   48.2934   54.2960 C   0  0  0  0  0  0  0  0  0  0  0  0
   69.3583   47.9994   52.9448 C   0  0  0  0  0  0  0  0  0  0  0  0
   70.0533   48.7853   52.0804 F   0  0  0  0  0  0  0  0  0  0  0  0
   68.6808   46.8808   52.4538 C   0  0  0  0  0  0  0  0  0  0  0  0
   68.7530   46.6346   51.1233 F   0  0  0  0  0  0  0  0  0  0  0  0
   67.9772   46.0828   53.3214 C   0  0  0  0  0  0  0  0  0  0  0  0
   67.3318   45.0061   52.8113 F   0  0  0  0  0  0  0  0  0  0  0  0
   67.9596   46.4089   54.6516 C   0  0  0  0  0  0  0  0  0  0  0  0
  2  3  2  0
  3  1  1  0
  3  4  1  0
  1 13  1  0
 13 14  1  0
 14 15  1  0
 15 16  2  0
 15 23  1  0
 16 17  1  0
 17 18  1  0
 17 19  2  0
 19 20  1  0
 19 21  1  0
 21 22  1  0
 21 23  2  0
  4  5  2  0
  4  9  1  0
  5  6  1  0
  6  7  2  0
  7 10  1  0
  7  8  1  0
 10 11  2  0
 10 12  1  0
  8  9  2  0
M  CHG  2  10   1  12  -1
M  END
>  <minimizedAffinity>  (464) 
-8.67613

$$$$
cs_full_output_folder/data/smiles/1340.pdb
     RDKit          3D

 26 29  0  0  0  0  0  0  0  0999 V2000
   71.3969   46.1988   58.7396 C   0  0  0  0  0  0  0  0  0  0  0  0
   71.9750   47.4302   58.4760 C   0  0  0  0  0  0  0  0  0  0  0  0
   71.3372   48.3229   57.6571 C   0  0  0  0  0  0  0  0  0  0  0  0
   70.0976   48.0170   57.0732 C   0  0  0  0  0  0  0  0  0  0  0  0
   69.5826   46.7979   57.3687 C   0  0  0  0  0  0  0  0  0  0  0  0
   70.2166   45.9065   58.1841 N   0  0  0  0  0  0  0  0  0  0  0  0
   71.7671   45.1945   60.8027 O   0  0  0  0  0  0  0  0  0  0  0  0
   72.0391   45.2198   59.5826 C   0  0  0  0  0  0  0  0  0  0  0  0
   72.9874   44.2693   59.0551 C   0  0  0  0  0  0  0  0  0  0  0  0
   74.1865   44.0672   59.7230 C   0  0  0  0  0  0  0  0  0  0  0  0
   75.0928   43.1756   59.2694 C   0  0  0  0  0  0  0  0  0  0  0  0
   74.8865   42.4254   58.1369 C   0  0  0  0  0  0  0  0  0  0  0  0
   73.6994   42.6158   57.4629 C   0  0  0  0  0  0  0  0  0  0  0  0
   72.7742   43.5213   57.9202 C   0  0  0  0  0  0  0  0  0  0  0  0
   69.4137   49.0034   56.2109 C   0  0  0  0  0  0  0  0  0  0  0  0
   69.6878   48.8201   54.8112 C   0  0  0  0  0  0  0  0  0  0  0  0
   70.7517   49.4793   54.2502 N   0  0  0  0  0  0  0  0  0  0  0  0
   71.0668   49.3031   52.9747 N   0  0  0  0  0  0  0  0  0  0  0  0
   70.3898   48.4883   52.1465 C   0  0  0  0  0  0  0  0  0  0  0  0
   70.7028   48.3302   50.9296 O   0  0  0  0  0  0  0  0  0  0  0  0
   69.3097   47.8000   52.6543 C   0  0  0  0  0  0  0  0  0  0  0  0
   68.9851   47.9971   54.0135 C   0  0  0  0  0  0  0  0  0  0  0  0
   67.8115   47.2791   54.4738 C   0  0  0  0  0  0  0  0  0  0  0  0
   67.8963   45.8166   54.0939 C   0  0  0  0  0  0  0  0  0  0  0  0
   68.0922   45.6099   52.6220 C   0  0  0  0  0  0  0  0  0  0  0  0
   68.4685   46.8612   51.8740 C   0  0  0  0  0  0  0  0  0  0  0  0
  7  8  2  0
  8  9  1  0
  8  1  1  0
  9 10  2  0
  9 14  1  0
 10 11  1  0
 11 12  2  0
 12 13  1  0
 13 14  2  0
  1  2  2  0
  1  6  1  0
  2  3  1  0
  3  4  2  0
  4 15  1  0
  4  5  1  0
 15 16  1  0
 16 17  2  0
 16 22  1  0
 17 18  1  0
 18 19  1  0
 19 20  2  0
 19 21  1  0
 21 22  2  0
 21 26  1  0
 22 23  1  0
 23 24  1  0
 24 25  1  0
 25 26  1  0
  5  6  2  0
M  END
>  <minimizedAffinity>  (465) 
-8.67425

$$$$
cs_full_output_folder/data/smiles/2780.pdb
     RDKit          3D

 23 25  0  0  0  0  0  0  0  0999 V2000
   68.3219   46.0684   56.2452 N   0  0  0  0  0  0  0  0  0  0  0  0
   69.1394   47.8893   53.0938 C   0  0  0  0  0  0  0  0  0  0  0  0
   68.5992   47.0278   52.1658 C   0  0  0  0  0  0  0  0  0  0  0  0
   67.9587   45.8691   52.5536 C   0  0  0  0  0  0  0  0  0  0  0  0
   67.8666   45.5816   53.9154 C   0  0  0  0  0  0  0  0  0  0  0  0
   68.3985   46.4228   54.8679 C   0  0  0  0  0  0  0  0  0  0  0  0
   69.0342   47.5778   54.4520 C   0  0  0  0  0  0  0  0  0  0  0  0
   69.9618   49.3293   52.5751 S   0  0  2  0  0  0  0  0  0  0  0  0
   69.8807   49.5481   51.0413 N   0  0  0  0  0  0  0  0  0  0  0  0
   71.4414   49.1776   52.9141 O   0  0  0  0  0  0  0  0  0  0  0  0
   70.3680   51.2092   54.3666 C   0  0  0  0  0  0  0  0  0  0  0  0
   69.3942   50.7479   53.3925 N   0  0  0  0  0  0  0  0  0  0  0  0
   69.4580   45.7919   57.0349 C   0  0  0  0  0  0  0  0  0  0  0  0
   70.1191   46.8148   57.6251 N   0  0  0  0  0  0  0  0  0  0  0  0
   71.1944   46.5900   58.4178 C   0  0  0  0  0  0  0  0  0  0  0  0
   71.5986   45.2841   58.6072 C   0  0  0  0  0  0  0  0  0  0  0  0
   70.9177   44.2258   57.9989 C   0  0  0  0  0  0  0  0  0  0  0  0
   69.8691   44.5401   57.2341 N   0  0  0  0  0  0  0  0  0  0  0  0
   71.3761   42.8636   58.2561 C   0  0  0  0  0  0  0  0  0  0  0  0
   70.6808   41.7585   58.1355 C   0  0  0  0  0  0  0  0  0  0  0  0
   71.5279   40.6022   58.4968 C   0  0  0  0  0  0  0  0  0  0  0  0
   72.8238   41.1867   58.8519 C   0  0  0  0  0  0  0  0  0  0  0  0
   72.7213   42.4859   58.7083 C   0  0  0  0  0  0  0  0  0  0  0  0
 11 12  1  0
  8 12  1  1
  8  9  2  0
  8 10  2  0
  8  2  1  0
  2  3  2  0
  2  7  1  0
  3  4  1  0
  4  5  2  0
  5  6  1  0
  6  1  1  0
  6  7  2  0
  1 13  1  0
 13 14  2  0
 13 18  1  0
 14 15  1  0
 15 16  2  0
 16 17  1  0
 17 19  1  0
 17 18  2  0
 19 20  2  0
 19 23  1  0
 20 21  1  0
 21 22  1  0
 22 23  2  0
M  END
>  <minimizedAffinity>  (466) 
-8.67362

$$$$
cs_full_output_folder/data/smiles/8591.pdb
     RDKit          3D

 24 25  0  0  0  0  0  0  0  0999 V2000
   68.8917   43.8501   56.6733 N   0  0  0  0  0  0  0  0  0  0  0  0
   68.3467   42.5522   56.6915 C   0  0  0  0  0  0  0  0  0  0  0  0
   67.2442   42.4197   56.0597 O   0  0  0  0  0  0  0  0  0  0  0  0
   68.9395   41.3993   57.3537 C   0  0  0  0  0  0  0  0  0  0  0  0
   68.3222   40.1851   57.5161 C   0  0  0  0  0  0  0  0  0  0  0  0
   68.9048   39.1196   58.1710 C   0  0  0  0  0  0  0  0  0  0  0  0
   70.1805   39.2301   58.7151 C   0  0  0  0  0  0  0  0  0  0  0  0
   70.8071   40.4458   58.5560 C   0  0  0  0  0  0  0  0  0  0  0  0
   70.2170   41.5085   57.8980 C   0  0  0  0  0  0  0  0  0  0  0  0
   70.7985   38.0617   59.4170 C   0  0  0  0  0  0  0  0  0  0  0  0
   71.7442   38.5973   60.4671 C   0  0  0  0  0  0  0  0  0  0  0  0
   69.7691   37.2077   60.0889 C   0  0  0  0  0  0  0  0  0  0  0  0
   71.5803   37.2954   58.3757 C   0  0  0  0  0  0  0  0  0  0  0  0
   68.9400   46.2121   56.2224 C   0  0  0  0  0  0  0  0  0  0  0  0
   69.9975   46.3080   56.9417 O   0  0  0  0  0  0  0  0  0  0  0  0
   68.3139   44.9659   56.0377 N   0  0  0  0  0  0  0  0  0  0  0  0
   68.3728   47.4231   55.5750 C   0  0  0  0  0  0  0  0  0  0  0  0
   70.1825   49.5877   54.8780 C   0  0  0  0  0  0  0  0  0  0  0  0
   69.7071   48.5989   53.8871 C   0  0  0  0  0  0  0  0  0  0  0  0
   70.1621   48.7859   52.5735 C   0  0  0  0  0  0  0  0  0  0  0  0
   69.8120   47.9256   51.5833 C   0  0  0  0  0  0  0  0  0  0  0  0
   68.9916   46.8392   51.8654 C   0  0  0  0  0  0  0  0  0  0  0  0
   68.5545   46.6709   53.1593 C   0  0  0  0  0  0  0  0  0  0  0  0
   68.8989   47.5409   54.1881 C   0  0  0  0  0  0  0  0  0  0  0  0
 18 19  1  0
 19 20  2  0
 19 24  1  0
 20 21  1  0
 21 22  2  0
 22 23  1  0
 23 24  2  0
 24 17  1  0
 17 14  1  0
 14 15  2  0
 14 16  1  0
 16  1  1  0
  1  2  1  0
  2  3  2  0
  2  4  1  0
  4  5  2  0
  4  9  1  0
  5  6  1  0
  6  7  2  0
  7 10  1  0
  7  8  1  0
 10 11  1  0
 10 12  1  0
 10 13  1  0
  8  9  2  0
M  END
>  <minimizedAffinity>  (467) 
-8.67351

$$$$
cs_full_output_folder/data/smiles/6605.pdb
     RDKit          3D

 25 26  0  0  0  0  0  0  0  0999 V2000
   68.6133   42.8135   56.8592 C   0  0  0  0  0  0  0  0  0  0  0  0
   69.7836   43.2075   57.0581 O   0  0  0  0  0  0  0  0  0  0  0  0
   67.7861   43.7370   56.1337 N   0  0  0  0  0  0  0  0  0  0  0  0
   68.2730   44.9690   55.6960 N   0  0  0  0  0  0  0  0  0  0  0  0
   68.0798   45.4536   54.3748 C   0  0  0  0  0  0  0  0  0  0  0  0
   67.4305   44.6917   53.6035 O   0  0  0  0  0  0  0  0  0  0  0  0
   68.5918   46.7426   53.9279 C   0  0  0  0  0  0  0  0  0  0  0  0
   68.9328   46.9050   52.5941 C   0  0  0  0  0  0  0  0  0  0  0  0
   69.4229   48.1005   52.1107 C   0  0  0  0  0  0  0  0  0  0  0  0
   69.5813   49.1643   52.9689 C   0  0  0  0  0  0  0  0  0  0  0  0
   70.0595   50.3719   52.5589 F   0  0  0  0  0  0  0  0  0  0  0  0
   69.2545   49.0521   54.3161 C   0  0  0  0  0  0  0  0  0  0  0  0
   68.7686   47.8336   54.7418 C   0  0  0  0  0  0  0  0  0  0  0  0
   68.1554   41.5263   57.3332 C   0  0  0  0  0  0  0  0  0  0  0  0
   68.5781   41.0628   58.6676 C   0  0  0  0  0  0  0  0  0  0  0  0
   71.3767   37.7804   58.6446 C   0  0  0  0  0  0  0  0  0  0  0  0
   70.0371   37.6198   58.9169 C   0  0  0  0  0  0  0  0  0  0  0  0
   69.1483   38.6629   58.9336 C   0  0  0  0  0  0  0  0  0  0  0  0
   69.5812   39.9714   58.6668 C   0  0  0  0  0  0  0  0  0  0  0  0
   70.9193   40.1439   58.3915 C   0  0  0  0  0  0  0  0  0  0  0  0
   71.8040   39.0594   58.3827 C   0  0  0  0  0  0  0  0  0  0  0  0
   72.6434   36.2201   57.2561 C   0  0  0  0  0  0  0  0  0  0  0  0
   72.2592   36.6077   58.6481 C   0  0  0  0  0  0  0  0  0  0  0  0
   71.6693   35.4334   59.3839 C   0  0  0  0  0  0  0  0  0  0  0  0
   73.5427   37.0128   59.3811 C   0  0  0  0  0  0  0  0  0  0  0  0
 22 23  1  0
 23 24  1  0
 23 25  1  0
 23 16  1  0
 16 17  2  0
 16 21  1  0
 17 18  1  0
 18 19  2  0
 19 15  1  0
 19 20  1  0
 15 14  1  0
 14  1  1  0
  1  2  2  0
  1  3  1  0
  3  4  1  0
  4  5  1  0
  5  6  2  0
  5  7  1  0
  7  8  2  0
  7 13  1  0
  8  9  1  0
  9 10  2  0
 10 11  1  0
 10 12  1  0
 12 13  2  0
 20 21  2  0
M  END
>  <minimizedAffinity>  (468) 
-8.67273

$$$$
cs_full_output_folder/data/smiles/2253.pdb
     RDKit          3D

 24 27  0  0  0  0  0  0  0  0999 V2000
   69.1744   48.5366   53.8063 C   0  0  0  0  0  0  0  0  0  0  0  0
   68.6935   47.5490   54.6397 C   0  0  0  0  0  0  0  0  0  0  0  0
   68.3294   46.2941   54.2032 C   0  0  0  0  0  0  0  0  0  0  0  0
   68.4693   46.0496   52.8473 C   0  0  0  0  0  0  0  0  0  0  0  0
   68.9484   47.0259   51.9996 C   0  0  0  0  0  0  0  0  0  0  0  0
   69.3087   48.2806   52.4534 C   0  0  0  0  0  0  0  0  0  0  0  0
   69.7787   49.2243   51.5932 F   0  0  0  0  0  0  0  0  0  0  0  0
   71.9059   49.7921   53.8765 O   0  0  0  0  0  0  0  0  0  0  0  0
   70.8406   50.4229   54.1116 C   0  0  0  0  0  0  0  0  0  0  0  0
   70.7511   51.8949   54.2743 C   0  0  0  0  0  0  0  0  0  0  0  0
   69.3160   52.1610   54.5916 C   0  0  0  0  0  0  0  0  0  0  0  0
   68.7598   50.8105   54.9444 C   0  0  0  0  0  0  0  0  0  0  0  0
   69.5543   49.8309   54.2578 N   0  0  0  0  0  0  0  0  0  0  0  0
   67.8329   45.2869   55.0949 N   0  0  0  0  0  0  0  0  0  0  0  0
   68.6575   44.7084   56.0948 C   0  0  0  0  0  0  0  0  0  0  0  0
   69.5935   45.4169   56.7478 N   0  0  0  0  0  0  0  0  0  0  0  0
   70.3899   44.9033   57.6913 C   0  0  0  0  0  0  0  0  0  0  0  0
   70.2530   43.6104   58.0082 N   0  0  0  0  0  0  0  0  0  0  0  0
   69.3478   42.8130   57.4143 C   0  0  0  0  0  0  0  0  0  0  0  0
   69.2093   41.4803   57.7379 C   0  0  0  0  0  0  0  0  0  0  0  0
   68.2798   40.6677   57.1208 C   0  0  0  0  0  0  0  0  0  0  0  0
   67.4586   41.2130   56.1430 C   0  0  0  0  0  0  0  0  0  0  0  0
   67.6072   42.5471   55.8288 C   0  0  0  0  0  0  0  0  0  0  0  0
   68.5294   43.3760   56.4319 C   0  0  0  0  0  0  0  0  0  0  0  0
  8  9  2  0
  9 10  1  0
  9 13  1  0
 10 11  1  0
 11 12  1  0
 12 13  1  0
 13  1  1  0
  1  2  2  0
  1  6  1  0
  2  3  1  0
  3 14  1  0
  3  4  2  0
 14 15  1  0
 15 16  2  0
 15 24  1  0
 16 17  1  0
 17 18  2  0
 18 19  1  0
 19 20  1  0
 19 24  2  0
 20 21  2  0
 21 22  1  0
 22 23  2  0
 23 24  1  0
  4  5  1  0
  5  6  2  0
  6  7  1  0
M  END
>  <minimizedAffinity>  (469) 
-8.67072

$$$$
cs_full_output_folder/data/smiles/8823.pdb
     RDKit          3D

 24 26  0  0  0  0  0  0  0  0999 V2000
   69.7618   45.2095   57.4453 N   0  0  0  0  0  0  0  0  0  0  0  0
   70.0338   44.4972   58.3691 C   0  0  0  0  0  0  0  0  0  0  0  0
   70.3705   43.0915   58.4106 C   0  0  0  0  0  0  0  0  0  0  0  0
   71.7343   42.7656   58.2755 C   0  0  0  0  0  0  0  0  0  0  0  0
   72.1266   41.4628   58.3057 C   0  0  0  0  0  0  0  0  0  0  0  0
   71.2298   40.4458   58.4651 C   0  0  0  0  0  0  0  0  0  0  0  0
   71.6898   39.1357   58.4877 C   0  0  0  0  0  0  0  0  0  0  0  0
   70.7614   38.1341   58.6501 C   0  0  0  0  0  0  0  0  0  0  0  0
   69.4258   38.4266   58.7834 C   0  0  0  0  0  0  0  0  0  0  0  0
   69.0068   39.7396   58.7559 C   0  0  0  0  0  0  0  0  0  0  0  0
   69.9037   40.7753   58.5959 C   0  0  0  0  0  0  0  0  0  0  0  0
   69.4539   42.0776   58.5727 C   0  0  0  0  0  0  0  0  0  0  0  0
   68.1216   42.3674   58.7061 O   0  0  0  0  0  0  0  0  0  0  0  0
   68.6123   46.1831   55.5772 C   0  0  0  0  0  0  0  0  0  0  0  0
   67.9557   46.8598   56.4228 O   0  0  0  0  0  0  0  0  0  0  0  0
   69.5957   45.2838   56.1353 N   0  0  0  0  0  0  0  0  0  0  0  0
   68.9126   47.5172   52.1220 C   0  0  0  0  0  0  0  0  0  0  0  0
   68.1244   46.6749   51.3748 C   0  0  0  0  0  0  0  0  0  0  0  0
   67.4871   45.6546   52.0203 C   0  0  0  0  0  0  0  0  0  0  0  0
   67.6297   45.4714   53.3955 C   0  0  0  0  0  0  0  0  0  0  0  0
   68.4046   46.2915   54.1595 C   0  0  0  0  0  0  0  0  0  0  0  0
   69.0507   47.3325   53.4813 C   0  0  0  0  0  0  0  0  0  0  0  0
   70.6665   48.4500   50.8689 O   0  0  0  0  0  0  0  0  0  0  0  0
   69.5732   48.5786   51.4404 N   0  0  0  0  0  0  0  0  0  0  0  0
 23 24  2  0
 24 17  1  0
 17 18  2  0
 17 22  1  0
 18 19  1  0
 19 20  2  0
 20 21  1  0
 21 14  1  0
 21 22  2  0
 14 15  2  0
 14 16  1  0
 16  1  1  0
  1  2  2  0
  2  3  1  0
  3  4  2  0
  3 12  1  0
  4  5  1  0
  5  6  2  0
  6  7  1  0
  6 11  1  0
  7  8  2  0
  8  9  1  0
  9 10  2  0
 10 11  1  0
 11 12  2  0
 12 13  1  0
M  END
>  <minimizedAffinity>  (470) 
-8.67039

$$$$
cs_full_output_folder/data/smiles/6125.pdb
     RDKit          3D

 24 26  0  0  0  0  0  0  0  0999 V2000
   69.0535   47.8600   52.9560 C   0  0  0  0  0  0  0  0  0  0  0  0
   69.2967   46.9829   51.8806 C   0  0  0  0  0  0  0  0  0  0  0  0
   70.1356   47.6255   51.0849 N   0  0  0  0  0  0  0  0  0  0  0  0
   70.4139   48.7944   51.5779 N   0  0  0  0  0  0  0  0  0  0  0  0
   69.7536   49.0058   52.7683 C   0  0  0  0  0  0  0  0  0  0  0  0
   69.9016   50.2163   53.5578 C   0  0  0  0  0  0  0  0  0  0  0  0
   68.7452   50.9471   53.8766 C   0  0  0  0  0  0  0  0  0  0  0  0
   68.7587   52.0680   54.6695 C   0  0  0  0  0  0  0  0  0  0  0  0
   69.9344   52.5405   55.2032 C   0  0  0  0  0  0  0  0  0  0  0  0
   69.9725   53.6824   56.0124 O   0  0  0  0  0  0  0  0  0  0  0  0
   71.0806   51.8442   54.9086 C   0  0  0  0  0  0  0  0  0  0  0  0
   71.0656   50.6947   54.0965 C   0  0  0  0  0  0  0  0  0  0  0  0
   72.2551   50.0381   53.8509 O   0  0  0  0  0  0  0  0  0  0  0  0
   68.2219   47.5169   53.9962 O   0  0  0  0  0  0  0  0  0  0  0  0
   69.7321   46.1222   57.6493 C   0  0  0  0  0  0  0  0  0  0  0  0
   69.6617   47.4674   57.3831 C   0  0  0  0  0  0  0  0  0  0  0  0
   69.1629   47.9666   56.1747 C   0  0  0  0  0  0  0  0  0  0  0  0
   68.7299   47.0835   55.2224 C   0  0  0  0  0  0  0  0  0  0  0  0
   68.7861   45.7310   55.4563 C   0  0  0  0  0  0  0  0  0  0  0  0
   69.2888   45.2506   56.6724 C   0  0  0  0  0  0  0  0  0  0  0  0
   72.0990   44.7240   60.3695 C   0  0  0  0  0  0  0  0  0  0  0  0
   71.5751   45.2288   59.0831 C   0  0  0  0  0  0  0  0  0  0  0  0
   72.3407   45.3117   58.0925 O   0  0  0  0  0  0  0  0  0  0  0  0
   70.2369   45.6402   58.8709 N   0  0  0  0  0  0  0  0  0  0  0  0
 21 22  1  0
 22 23  2  0
 22 24  1  0
 24 15  1  0
 15 16  2  0
 15 20  1  0
 16 17  1  0
 17 18  2  0
 18 14  1  0
 18 19  1  0
 14  1  1  0
  1  2  1  0
  1  5  2  0
  2  3  2  0
  3  4  1  0
  4  5  1  0
  5  6  1  0
  6  7  2  0
  6 12  1  0
  7  8  1  0
  8  9  2  0
  9 10  1  0
  9 11  1  0
 11 12  2  0
 12 13  1  0
 19 20  2  0
M  END
>  <minimizedAffinity>  (471) 
-8.66710

$$$$
cs_full_output_folder/data/smiles/7962.pdb
     RDKit          3D

 20 22  0  0  0  0  0  0  0  0999 V2000
   70.5615   48.3120   50.7637 O   0  0  0  0  0  0  0  0  0  0  0  0
   70.3181   48.3028   52.0009 C   0  0  0  0  0  0  0  0  0  0  0  0
   70.9882   49.1010   52.8524 N   0  0  0  0  0  0  0  0  0  0  0  0
   70.7025   49.0579   54.1318 N   0  0  0  0  0  0  0  0  0  0  0  0
   69.7555   48.2401   54.6521 C   0  0  0  0  0  0  0  0  0  0  0  0
   69.0481   47.4097   53.8106 C   0  0  0  0  0  0  0  0  0  0  0  0
   68.0745   46.5904   54.2799 C   0  0  0  0  0  0  0  0  0  0  0  0
   67.3188   45.7498   53.4496 C   0  0  0  0  0  0  0  0  0  0  0  0
   67.6199   45.7953   52.1081 C   0  0  0  0  0  0  0  0  0  0  0  0
   68.6161   46.6329   51.6205 C   0  0  0  0  0  0  0  0  0  0  0  0
   69.3501   47.4594   52.4723 C   0  0  0  0  0  0  0  0  0  0  0  0
   69.5603   48.2096   56.0946 C   0  0  0  0  0  0  0  0  0  0  0  0
   68.8959   49.4524   56.5729 C   0  0  0  0  0  0  0  0  0  0  0  0
   69.3499   50.7041   56.3802 C   0  0  0  0  0  0  0  0  0  0  0  0
   68.6532   51.7954   56.8629 C   0  0  0  0  0  0  0  0  0  0  0  0
   69.3471   53.5583   56.5438 Br  0  0  0  0  0  0  0  0  0  0  0  0
   67.4686   51.6386   57.5613 C   0  0  0  0  0  0  0  0  0  0  0  0
   66.9802   50.3494   57.7719 C   0  0  0  0  0  0  0  0  0  0  0  0
   67.6923   49.2863   57.2804 C   0  0  0  0  0  0  0  0  0  0  0  0
   67.2196   48.0257   57.4860 F   0  0  0  0  0  0  0  0  0  0  0  0
  1  2  2  0
  2  3  1  0
  2 11  1  0
  3  4  1  0
  4  5  2  0
  5 12  1  0
  5  6  1  0
 12 13  1  0
 13 14  2  0
 13 19  1  0
 14 15  1  0
 15 16  1  0
 15 17  2  0
 17 18  1  0
 18 19  2  0
 19 20  1  0
  6  7  1  0
  6 11  2  0
  7  8  2  0
  8  9  1  0
  9 10  2  0
 10 11  1  0
M  END
>  <minimizedAffinity>  (472) 
-8.66572

$$$$
cs_full_output_folder/data/smiles/3423.pdb
     RDKit          3D

 26 29  0  0  0  0  0  0  0  0999 V2000
   71.5485   37.7194   58.6052 C   0  0  0  0  0  0  0  0  0  0  0  0
   70.9185   37.0237   59.6415 C   0  0  0  0  0  0  0  0  0  0  0  0
   71.0400   35.6579   59.6658 C   0  0  0  0  0  0  0  0  0  0  0  0
   71.7663   35.0025   58.6880 C   0  0  0  0  0  0  0  0  0  0  0  0
   72.0614   33.7123   58.4423 N   0  0  0  0  0  0  0  0  0  0  0  0
   72.8060   33.5916   57.3583 N   0  0  0  0  0  0  0  0  0  0  0  0
   73.0438   34.8155   56.8246 C   0  0  0  0  0  0  0  0  0  0  0  0
   72.3892   35.6913   57.6634 C   0  0  0  0  0  0  0  0  0  0  0  0
   72.2714   37.0886   57.6285 C   0  0  0  0  0  0  0  0  0  0  0  0
   73.8279   35.0675   55.6227 C   0  0  0  0  0  0  0  0  0  0  0  0
   73.2054   35.4239   54.4304 C   0  0  0  0  0  0  0  0  0  0  0  0
   73.9037   35.6694   53.2678 C   0  0  0  0  0  0  0  0  0  0  0  0
   75.2826   35.5662   53.2551 C   0  0  0  0  0  0  0  0  0  0  0  0
   75.9182   35.2162   54.4196 C   0  0  0  0  0  0  0  0  0  0  0  0
   75.2026   34.9693   55.5928 C   0  0  0  0  0  0  0  0  0  0  0  0
   70.1527   39.7803   58.5768 N   0  0  0  0  0  0  0  0  0  0  0  0
   71.4137   39.1583   58.5897 C   0  0  0  0  0  0  0  0  0  0  0  0
   72.4458   39.8726   58.5881 O   0  0  0  0  0  0  0  0  0  0  0  0
   70.0945   41.2307   58.5614 C   0  0  0  0  0  0  0  0  0  0  0  0
   70.1175   43.9867   57.7476 C   0  0  0  0  0  0  0  0  0  0  0  0
   69.1247   43.0460   57.1842 C   0  0  0  0  0  0  0  0  0  0  0  0
   68.2432   43.5247   56.2974 N   0  0  0  0  0  0  0  0  0  0  0  0
   67.3044   42.7497   55.7310 C   0  0  0  0  0  0  0  0  0  0  0  0
   67.2607   41.4187   56.0854 C   0  0  0  0  0  0  0  0  0  0  0  0
   68.1803   40.9092   57.0155 C   0  0  0  0  0  0  0  0  0  0  0  0
   69.1291   41.7267   57.5766 C   0  0  0  0  0  0  0  0  0  0  0  0
 20 21  1  0
 21 22  2  0
 21 26  1  0
 22 23  1  0
 23 24  2  0
 24 25  1  0
 25 26  2  0
 26 19  1  0
 19 16  1  0
 16 17  1  0
 17 18  2  0
 17  1  1  0
  1  2  2  0
  1  9  1  0
  2  3  1  0
  3  4  2  0
  4  5  1  0
  4  8  1  0
  5  6  1  0
  6  7  2  0
  7 10  1  0
  7  8  1  0
 10 11  2  0
 10 15  1  0
 11 12  1  0
 12 13  2  0
 13 14  1  0
 14 15  2  0
  8  9  2  0
M  END
>  <minimizedAffinity>  (473) 
-8.66327

$$$$
cs_full_output_folder/data/smiles/9032.pdb
     RDKit          3D

 21 22  0  0  0  0  0  0  0  0999 V2000
   68.2087   45.3234   55.3412 C   0  0  0  0  0  0  0  0  0  0  0  0
   68.3532   46.0431   56.3826 O   0  0  0  0  0  0  0  0  0  0  0  0
   67.9860   43.9433   55.5400 N   0  0  0  0  0  0  0  0  0  0  0  0
   69.0927   47.7204   52.5448 C   0  0  0  0  0  0  0  0  0  0  0  0
   68.4832   47.1375   51.4525 C   0  0  0  0  0  0  0  0  0  0  0  0
   67.7776   45.9601   51.6435 C   0  0  0  0  0  0  0  0  0  0  0  0
   67.6722   45.3579   52.8977 C   0  0  0  0  0  0  0  0  0  0  0  0
   68.2829   45.9406   54.0080 C   0  0  0  0  0  0  0  0  0  0  0  0
   68.9688   47.1037   53.7703 C   0  0  0  0  0  0  0  0  0  0  0  0
   69.3395   50.3876   53.5560 C   0  0  0  0  0  0  0  0  0  0  0  0
   70.0311   49.2172   52.4210 S   0  0  0  0  0  0  0  0  0  0  0  0
   69.8212   49.7470   51.0096 O   0  0  0  0  0  0  0  0  0  0  0  0
   71.4796   48.9580   52.6777 O   0  0  0  0  0  0  0  0  0  0  0  0
   67.9092   43.3267   56.8077 N   0  0  0  0  0  0  0  0  0  0  0  0
   69.0043   42.5801   57.2792 C   0  0  0  0  0  0  0  0  0  0  0  0
   68.7870   41.3073   57.7656 C   0  0  0  0  0  0  0  0  0  0  0  0
   69.8360   40.5407   58.2447 C   0  0  0  0  0  0  0  0  0  0  0  0
   71.1184   41.0307   58.2449 C   0  0  0  0  0  0  0  0  0  0  0  0
   71.3496   42.3052   57.7599 C   0  0  0  0  0  0  0  0  0  0  0  0
   72.6264   42.7574   57.7673 F   0  0  0  0  0  0  0  0  0  0  0  0
   70.2836   43.0631   57.2818 C   0  0  0  0  0  0  0  0  0  0  0  0
 10 11  1  0
 11 12  2  0
 11 13  2  0
 11  4  1  0
  4  5  2  0
  4  9  1  0
  5  6  1  0
  6  7  2  0
  7  8  1  0
  8  1  1  0
  8  9  2  0
  1  2  2  0
  1  3  1  0
  3 14  1  0
 14 15  1  0
 15 16  2  0
 15 21  1  0
 16 17  1  0
 17 18  2  0
 18 19  1  0
 19 20  1  0
 19 21  2  0
M  END
>  <minimizedAffinity>  (474) 
-8.66305

$$$$
cs_full_output_folder/data/smiles/5794.pdb
     RDKit          3D

 24 26  0  0  0  0  0  0  0  0999 V2000
   71.1754   50.2793   54.1042 C   0  0  0  0  0  0  0  0  0  0  0  0
   71.9790   49.8207   55.0286 O   0  0  0  0  0  0  0  0  0  0  0  0
   70.4233   49.2922   53.3958 C   0  0  0  0  0  0  0  0  0  0  0  0
   70.5437   49.1988   52.0293 N   0  0  0  0  0  0  0  0  0  0  0  0
   69.8884   48.3104   51.3220 N   0  0  0  0  0  0  0  0  0  0  0  0
   69.0531   47.4224   51.8460 C   0  0  0  0  0  0  0  0  0  0  0  0
   68.4115   46.5598   51.1847 O   0  0  0  0  0  0  0  0  0  0  0  0
   68.8765   47.4465   53.2097 C   0  0  0  0  0  0  0  0  0  0  0  0
   68.0435   46.5462   53.8118 C   0  0  0  0  0  0  0  0  0  0  0  0
   67.8747   46.5534   55.1873 C   0  0  0  0  0  0  0  0  0  0  0  0
   68.5371   47.4560   55.9684 C   0  0  0  0  0  0  0  0  0  0  0  0
   69.3838   48.3673   55.3283 C   0  0  0  0  0  0  0  0  0  0  0  0
   69.5760   48.3943   53.9676 C   0  0  0  0  0  0  0  0  0  0  0  0
   71.2196   51.6353   54.0006 O   0  0  0  0  0  0  0  0  0  0  0  0
   71.6362   52.4069   55.1016 C   0  0  0  0  0  0  0  0  0  0  0  0
   70.5409   54.1095   56.3070 O   0  0  0  0  0  0  0  0  0  0  0  0
   70.5701   52.8480   56.0015 C   0  0  0  0  0  0  0  0  0  0  0  0
   69.5200   52.0601   56.6143 C   0  0  0  0  0  0  0  0  0  0  0  0
   68.2161   51.9937   56.1763 C   0  0  0  0  0  0  0  0  0  0  0  0
   67.2433   51.1879   56.7690 C   0  0  0  0  0  0  0  0  0  0  0  0
   67.5467   50.3990   57.8515 C   0  0  0  0  0  0  0  0  0  0  0  0
   66.6091   49.6135   58.4327 F   0  0  0  0  0  0  0  0  0  0  0  0
   68.8460   50.4567   58.3004 C   0  0  0  0  0  0  0  0  0  0  0  0
   69.8040   51.2484   57.7176 C   0  0  0  0  0  0  0  0  0  0  0  0
 16 17  2  0
 17 15  1  0
 17 18  1  0
 15 14  1  0
 14  1  1  0
  1  2  2  0
  1  3  1  0
  3  4  2  0
  3 13  1  0
  4  5  1  0
  5  6  1  0
  6  7  2  0
  6  8  1  0
  8  9  1  0
  8 13  2  0
  9 10  2  0
 10 11  1  0
 11 12  2  0
 12 13  1  0
 18 19  2  0
 18 24  1  0
 19 20  1  0
 20 21  2  0
 21 22  1  0
 21 23  1  0
 23 24  2  0
M  END
>  <minimizedAffinity>  (475) 
-8.66005

$$$$
cs_full_output_folder/data/smiles/4621.pdb
     RDKit          3D

 23 24  0  0  0  0  0  0  0  0999 V2000
   68.6464   47.3117   56.6274 O   0  0  0  0  0  0  0  0  0  0  0  0
   68.4880   46.3080   55.7166 C   0  0  0  0  0  0  0  0  0  0  0  0
   68.3078   45.1351   56.1309 O   0  0  0  0  0  0  0  0  0  0  0  0
   68.5149   46.5108   54.2699 C   0  0  0  0  0  0  0  0  0  0  0  0
   67.7410   45.7595   53.4098 C   0  0  0  0  0  0  0  0  0  0  0  0
   67.8216   46.0116   52.0375 C   0  0  0  0  0  0  0  0  0  0  0  0
   68.6564   46.9944   51.5282 C   0  0  0  0  0  0  0  0  0  0  0  0
   69.4368   47.7513   52.3941 C   0  0  0  0  0  0  0  0  0  0  0  0
   69.3377   47.4812   53.7404 C   0  0  0  0  0  0  0  0  0  0  0  0
   70.3069   48.7651   51.9383 N   0  0  0  0  0  0  0  0  0  0  0  0
   70.0344   49.4246   50.9319 O   0  0  0  0  0  0  0  0  0  0  0  0
   71.4607   49.0178   52.6172 O   0  0  0  0  0  0  0  0  0  0  0  0
   69.6653   47.3544   57.6082 C   0  0  0  0  0  0  0  0  0  0  0  0
   71.7475   47.8749   59.4145 C   0  0  0  0  0  0  0  0  0  0  0  0
   71.2105   48.9700   58.5737 C   0  0  0  0  0  0  0  0  0  0  0  0
   70.2372   48.7343   57.7274 C   0  0  0  0  0  0  0  0  0  0  0  0
   69.6428   49.7680   56.8477 C   0  0  0  0  0  0  0  0  0  0  0  0
   70.2150   50.0691   55.6334 C   0  0  0  0  0  0  0  0  0  0  0  0
   69.6961   51.0321   54.7941 C   0  0  0  0  0  0  0  0  0  0  0  0
   68.5654   51.7034   55.2052 C   0  0  0  0  0  0  0  0  0  0  0  0
   68.0484   52.6446   54.3978 F   0  0  0  0  0  0  0  0  0  0  0  0
   67.9785   51.4103   56.4251 C   0  0  0  0  0  0  0  0  0  0  0  0
   68.5114   50.4476   57.2462 C   0  0  0  0  0  0  0  0  0  0  0  0
 14 15  1  0
 15 16  2  0
 16 13  1  0
 16 17  1  0
 13  1  1  0
  1  2  1  0
  2  3  2  0
  2  4  1  0
  4  5  2  0
  4  9  1  0
  5  6  1  0
  6  7  2  0
  7  8  1  0
  8 10  1  0
  8  9  2  0
 10 11  2  0
 10 12  1  0
 17 18  2  0
 17 23  1  0
 18 19  1  0
 19 20  2  0
 20 21  1  0
 20 22  1  0
 22 23  2  0
M  CHG  2  10   1  12  -1
M  END
>  <minimizedAffinity>  (476) 
-8.65849

$$$$
cs_full_output_folder/data/smiles/2293.pdb
     RDKit          3D

 22 23  0  0  0  0  0  0  0  0999 V2000
   70.0220   51.5233   53.6645 C   0  0  0  0  0  0  0  0  0  0  0  0
   72.8592   52.0945   54.8082 C   0  0  0  0  0  0  0  0  0  0  0  0
   71.6538   51.6466   55.5146 C   0  0  0  0  0  0  0  0  0  0  0  0
   70.4569   51.4040   55.0633 C   0  0  0  0  0  0  0  0  0  0  0  0
   69.3843   50.9519   56.0169 C   0  0  0  0  0  0  0  0  0  0  0  0
   69.4986   49.8135   56.7508 C   0  0  0  0  0  0  0  0  0  0  0  0
   68.4851   49.4160   57.6473 C   0  0  0  0  0  0  0  0  0  0  0  0
   67.3515   50.1683   57.8048 C   0  0  0  0  0  0  0  0  0  0  0  0
   66.3751   49.7724   58.6776 F   0  0  0  0  0  0  0  0  0  0  0  0
   67.2388   51.3164   57.0610 C   0  0  0  0  0  0  0  0  0  0  0  0
   68.2365   51.7001   56.1844 C   0  0  0  0  0  0  0  0  0  0  0  0
   69.7506   50.4422   52.8947 O   0  0  0  0  0  0  0  0  0  0  0  0
   70.3489   49.1889   52.9611 C   0  0  0  0  0  0  0  0  0  0  0  0
   71.5783   49.0993   52.8824 O   0  0  0  0  0  0  0  0  0  0  0  0
   69.4942   48.0266   53.1203 C   0  0  0  0  0  0  0  0  0  0  0  0
   68.9448   47.3557   52.0604 C   0  0  0  0  0  0  0  0  0  0  0  0
   68.1337   46.2531   52.1954 C   0  0  0  0  0  0  0  0  0  0  0  0
   67.8529   45.7921   53.4628 C   0  0  0  0  0  0  0  0  0  0  0  0
   68.3910   46.4463   54.5543 C   0  0  0  0  0  0  0  0  0  0  0  0
   69.2020   47.5497   54.3965 C   0  0  0  0  0  0  0  0  0  0  0  0
   68.0903   45.9573   55.8558 N   0  0  0  0  0  0  0  0  0  0  0  0
   68.2091   44.6220   55.9521 O   0  0  0  0  0  0  0  0  0  0  0  0
  2  3  1  0
  3  4  2  0
  4  1  1  0
  4  5  1  0
  1 12  1  0
 12 13  1  0
 13 14  2  0
 13 15  1  0
 15 16  2  0
 15 20  1  0
 16 17  1  0
 17 18  2  0
 18 19  1  0
 19 21  1  0
 19 20  2  0
 21 22  1  0
  5  6  2  0
  5 11  1  0
  6  7  1  0
  7  8  2  0
  8  9  1  0
  8 10  1  0
 10 11  2  0
M  CHG  2  21   1  22  -1
M  END
>  <minimizedAffinity>  (477) 
-8.65781

$$$$
cs_full_output_folder/data/smiles/1972.pdb
     RDKit          3D

 22 23  0  0  0  0  0  0  0  0999 V2000
   70.1500   49.0308   53.4367 N   0  0  0  0  0  0  0  0  0  0  0  0
   69.3313   47.8876   53.5066 C   0  0  0  0  0  0  0  0  0  0  0  0
   68.7847   47.4102   52.3246 C   0  0  0  0  0  0  0  0  0  0  0  0
   69.0005   48.0829   51.1488 F   0  0  0  0  0  0  0  0  0  0  0  0
   68.0285   46.2683   52.3200 C   0  0  0  0  0  0  0  0  0  0  0  0
   67.5047   45.8181   51.1591 F   0  0  0  0  0  0  0  0  0  0  0  0
   67.7815   45.5526   53.4829 C   0  0  0  0  0  0  0  0  0  0  0  0
   68.3244   46.0275   54.6577 C   0  0  0  0  0  0  0  0  0  0  0  0
   69.0817   47.1736   54.6531 C   0  0  0  0  0  0  0  0  0  0  0  0
   69.5955   47.5873   55.8421 F   0  0  0  0  0  0  0  0  0  0  0  0
   68.0896   45.3204   55.8536 O   0  0  0  0  0  0  0  0  0  0  0  0
   68.1747   44.0007   55.9236 F   0  0  0  0  0  0  0  0  0  0  0  0
   70.9210   50.9344   54.7981 C   0  0  0  0  0  0  0  0  0  0  0  0
   70.5405   52.1600   55.3728 C   0  0  0  0  0  0  0  0  0  0  0  0
   69.2956   52.7058   55.2481 C   0  0  0  0  0  0  0  0  0  0  0  0
   68.3623   52.0254   54.5241 C   0  0  0  0  0  0  0  0  0  0  0  0
   68.6971   50.8328   53.9525 C   0  0  0  0  0  0  0  0  0  0  0  0
   69.9899   50.2617   54.0811 C   0  0  0  0  0  0  0  0  0  0  0  0
   74.6182   50.1142   54.1815 N   0  0  0  0  0  0  0  0  0  0  0  0
   73.3043   50.6150   53.9540 N   0  0  0  0  0  0  0  0  0  0  0  0
   72.2896   50.4578   54.9409 C   0  0  0  0  0  0  0  0  0  0  0  0
   72.6559   49.8639   55.9815 O   0  0  0  0  0  0  0  0  0  0  0  0
 19 20  1  0
 20 21  1  0
 21 22  2  0
 21 13  1  0
 13 14  2  0
 13 18  1  0
 14 15  1  0
 15 16  2  0
 16 17  1  0
 17 18  2  0
 18  1  1  0
  1  2  1  0
  2  3  2  0
  2  9  1  0
  3  4  1  0
  3  5  1  0
  5  6  1  0
  5  7  2  0
  7  8  1  0
  8 11  1  0
  8  9  2  0
 11 12  1  0
  9 10  1  0
M  END
>  <minimizedAffinity>  (478) 
-8.65635

$$$$
cs_full_output_folder/data/smiles/8678.pdb
     RDKit          3D

 23 25  0  0  0  0  0  0  0  0999 V2000
   68.9974   51.2190   56.7915 C   0  0  0  0  0  0  0  0  0  0  0  0
   67.8201   51.2004   57.5050 C   0  0  0  0  0  0  0  0  0  0  0  0
   67.1118   50.0505   57.7484 C   0  0  0  0  0  0  0  0  0  0  0  0
   65.9461   50.0484   58.4603 F   0  0  0  0  0  0  0  0  0  0  0  0
   67.6343   48.8727   57.2356 C   0  0  0  0  0  0  0  0  0  0  0  0
   67.0119   47.8137   57.4426 O   0  0  0  0  0  0  0  0  0  0  0  0
   68.7956   48.8407   56.5222 N   0  0  0  0  0  0  0  0  0  0  0  0
   69.4444   49.9800   56.3152 C   0  0  0  0  0  0  0  0  0  0  0  0
   69.0781   53.5414   56.6839 O   0  0  0  0  0  0  0  0  0  0  0  0
   69.7105   52.4623   56.5617 C   0  0  0  0  0  0  0  0  0  0  0  0
   71.0767   52.5622   56.2096 N   0  0  0  0  0  0  0  0  0  0  0  0
   71.7470   53.8288   55.9915 C   0  0  0  0  0  0  0  0  0  0  0  0
   72.2521   54.3545   57.1778 F   0  0  0  0  0  0  0  0  0  0  0  0
   69.2781   47.5745   56.0403 C   0  0  0  0  0  0  0  0  0  0  0  0
   68.9655   47.2426   54.6540 C   0  0  0  0  0  0  0  0  0  0  0  0
   68.0648   46.1952   54.4376 C   0  0  0  0  0  0  0  0  0  0  0  0
   67.7106   45.8573   53.1590 C   0  0  0  0  0  0  0  0  0  0  0  0
   68.1926   46.4930   52.0471 C   0  0  0  0  0  0  0  0  0  0  0  0
   69.0950   47.5403   52.2577 C   0  0  0  0  0  0  0  0  0  0  0  0
   69.7373   48.3272   51.3806 N   0  0  0  0  0  0  0  0  0  0  0  0
   70.4852   49.1483   52.0788 N   0  0  0  0  0  0  0  0  0  0  0  0
   70.3532   48.9218   53.4015 C   0  0  0  0  0  0  0  0  0  0  0  0
   69.4569   47.8868   53.5406 C   0  0  0  0  0  0  0  0  0  0  0  0
  9 10  2  0
 10 11  1  0
 10  1  1  0
 11 12  1  0
 12 13  1  0
  1  2  1  0
  1  8  2  0
  2  3  2  0
  3  4  1  0
  3  5  1  0
  5  6  2  0
  5  7  1  0
  7 14  1  0
  7  8  1  0
 14 15  1  0
 15 16  2  0
 15 23  1  0
 16 17  1  0
 17 18  2  0
 18 19  1  0
 19 20  1  0
 19 23  2  0
 20 21  1  0
 21 22  2  0
 22 23  1  0
M  END
>  <minimizedAffinity>  (479) 
-8.65591

$$$$
cs_full_output_folder/data/smiles/9131.pdb
     RDKit          3D

 19 21  0  0  0  0  0  0  0  0999 V2000
   70.6485   48.5593   50.8550 O   0  0  0  0  0  0  0  0  0  0  0  0
   70.3364   48.4198   52.0849 C   0  0  0  0  0  0  0  0  0  0  0  0
   70.9490   49.1172   53.0512 N   0  0  0  0  0  0  0  0  0  0  0  0
   70.6188   48.9632   54.3117 N   0  0  0  0  0  0  0  0  0  0  0  0
   69.6439   48.0939   54.7111 C   0  0  0  0  0  0  0  0  0  0  0  0
   69.0074   47.3770   53.7438 C   0  0  0  0  0  0  0  0  0  0  0  0
   68.0131   46.5170   54.0723 C   0  0  0  0  0  0  0  0  0  0  0  0
   67.3519   45.8029   53.1071 C   0  0  0  0  0  0  0  0  0  0  0  0
   67.6859   45.9465   51.7758 C   0  0  0  0  0  0  0  0  0  0  0  0
   68.6878   46.8098   51.3847 C   0  0  0  0  0  0  0  0  0  0  0  0
   69.3329   47.5134   52.3835 C   0  0  0  0  0  0  0  0  0  0  0  0
   69.4249   47.9526   56.1412 C   0  0  0  0  0  0  0  0  0  0  0  0
   68.7234   49.1523   56.6313 C   0  0  0  0  0  0  0  0  0  0  0  0
   67.5630   48.9746   57.3700 C   0  0  0  0  0  0  0  0  0  0  0  0
   66.8802   50.0459   57.8650 C   0  0  0  0  0  0  0  0  0  0  0  0
   67.3119   51.3343   57.6532 C   0  0  0  0  0  0  0  0  0  0  0  0
   68.4584   51.5317   56.9251 C   0  0  0  0  0  0  0  0  0  0  0  0
   69.1251   53.2839   56.5802 Br  0  0  0  0  0  0  0  0  0  0  0  0
   69.1560   50.4222   56.4192 C   0  0  0  0  0  0  0  0  0  0  0  0
  1  2  2  0
  2  3  1  0
  2 11  1  0
  3  4  1  0
  4  5  2  0
  5 12  1  0
  5  6  1  0
 12 13  1  0
 13 14  2  0
 13 19  1  0
 14 15  1  0
 15 16  2  0
 16 17  1  0
 17 18  1  0
 17 19  2  0
  6  7  1  0
  6 11  2  0
  7  8  2  0
  8  9  1  0
  9 10  2  0
 10 11  1  0
M  END
>  <minimizedAffinity>  (480) 
-8.65435

$$$$
cs_full_output_folder/data/smiles/1622.pdb
     RDKit          3D

 25 28  0  0  0  0  0  0  0  0999 V2000
   74.3966   50.5390   56.0783 C   0  0  0  0  0  0  0  0  0  0  0  0
   73.4043   49.8999   56.7904 C   0  0  0  0  0  0  0  0  0  0  0  0
   72.0664   49.9310   56.4037 C   0  0  0  0  0  0  0  0  0  0  0  0
   71.6708   50.6056   55.2807 C   0  0  0  0  0  0  0  0  0  0  0  0
   72.7063   51.2446   54.5805 C   0  0  0  0  0  0  0  0  0  0  0  0
   73.9822   51.1951   54.9799 N   0  0  0  0  0  0  0  0  0  0  0  0
   76.4046   49.3294   54.6234 O   0  0  0  0  0  0  0  0  0  0  0  0
   76.7710   49.8723   55.6958 C   0  0  0  0  0  0  0  0  0  0  0  0
   75.7718   50.5065   56.4749 N   0  0  0  0  0  0  0  0  0  0  0  0
   78.1783   49.8254   56.0795 C   0  0  0  0  0  0  0  0  0  0  0  0
   78.9738   50.4934   56.9048 C   0  0  0  0  0  0  0  0  0  0  0  0
   80.1175   49.6747   56.5339 C   0  0  0  0  0  0  0  0  0  0  0  0
   79.3280   48.9997   55.7050 C   0  0  0  0  0  0  0  0  0  0  0  0
   70.2802   50.7023   54.7554 C   0  0  0  0  0  0  0  0  0  0  0  0
   69.9040   49.6185   53.8308 C   0  0  0  0  0  0  0  0  0  0  0  0
   70.4402   49.7023   52.5718 N   0  0  0  0  0  0  0  0  0  0  0  0
   70.2476   48.8008   51.6357 N   0  0  0  0  0  0  0  0  0  0  0  0
   69.4889   47.7227   51.8864 C   0  0  0  0  0  0  0  0  0  0  0  0
   69.2890   46.8334   50.9910 O   0  0  0  0  0  0  0  0  0  0  0  0
   68.9264   47.5824   53.1210 C   0  0  0  0  0  0  0  0  0  0  0  0
   69.1338   48.5347   54.1005 C   0  0  0  0  0  0  0  0  0  0  0  0
   68.4811   48.3857   55.4319 C   0  0  0  0  0  0  0  0  0  0  0  0
   68.5681   46.9838   55.9482 C   0  0  0  0  0  0  0  0  0  0  0  0
   68.5830   45.9438   54.8617 C   0  0  0  0  0  0  0  0  0  0  0  0
   68.0672   46.4311   53.5317 C   0  0  0  0  0  0  0  0  0  0  0  0
  7  8  2  0
  8  9  1  0
  8 10  1  0
  9  1  1  0
  1  2  2  0
  1  6  1  0
  2  3  1  0
  3  4  2  0
  4 14  1  0
  4  5  1  0
 14 15  1  0
 15 16  2  0
 15 21  1  0
 16 17  1  0
 17 18  1  0
 18 19  2  0
 18 20  1  0
 20 21  2  0
 20 25  1  0
 21 22  1  0
 22 23  1  0
 23 24  1  0
 24 25  1  0
  5  6  2  0
 10 11  2  0
 10 13  1  0
 11 12  1  0
 12 13  2  0
M  END
>  <minimizedAffinity>  (481) 
-8.65418

$$$$
cs_full_output_folder/data/smiles/6916.pdb
     RDKit          3D

 23 25  0  0  0  0  0  0  0  0999 V2000
   69.3467   50.5292   53.4005 N   0  0  0  0  0  0  0  0  0  0  0  0
   70.1255   49.3335   53.0664 C   0  0  0  0  0  0  0  0  0  0  0  0
   71.3499   49.4572   53.1304 O   0  0  0  0  0  0  0  0  0  0  0  0
   69.3337   48.1816   52.7089 C   0  0  0  0  0  0  0  0  0  0  0  0
   68.9259   47.9799   51.4213 N   0  0  0  0  0  0  0  0  0  0  0  0
   68.2068   46.9466   51.0570 N   0  0  0  0  0  0  0  0  0  0  0  0
   67.8110   46.0040   51.9181 C   0  0  0  0  0  0  0  0  0  0  0  0
   67.1105   45.0081   51.5354 O   0  0  0  0  0  0  0  0  0  0  0  0
   68.1764   46.1259   53.2385 C   0  0  0  0  0  0  0  0  0  0  0  0
   67.7678   45.1505   54.1254 C   0  0  0  0  0  0  0  0  0  0  0  0
   68.1339   45.2754   55.4431 C   0  0  0  0  0  0  0  0  0  0  0  0
   68.8897   46.3551   55.8381 C   0  0  0  0  0  0  0  0  0  0  0  0
   69.2977   47.3315   54.9418 C   0  0  0  0  0  0  0  0  0  0  0  0
   68.9510   47.2368   53.6280 C   0  0  0  0  0  0  0  0  0  0  0  0
   70.0280   51.7294   53.7717 C   0  0  0  0  0  0  0  0  0  0  0  0
   69.3388   52.5301   54.8565 C   0  0  0  0  0  0  0  0  0  0  0  0
   70.6833   49.0245   58.2269 C   0  0  0  0  0  0  0  0  0  0  0  0
   69.6694   49.9070   57.5974 C   0  0  0  0  0  0  0  0  0  0  0  0
   68.3672   49.8687   58.0645 C   0  0  0  0  0  0  0  0  0  0  0  0
   67.4213   50.6822   57.4879 C   0  0  0  0  0  0  0  0  0  0  0  0
   67.7706   51.5245   56.4590 C   0  0  0  0  0  0  0  0  0  0  0  0
   69.0574   51.5889   55.9697 C   0  0  0  0  0  0  0  0  0  0  0  0
   69.9942   50.7740   56.5510 C   0  0  0  0  0  0  0  0  0  0  0  0
 17 18  1  0
 18 19  2  0
 18 23  1  0
 19 20  1  0
 20 21  2  0
 21 22  1  0
 22 16  1  0
 22 23  2  0
 16 15  1  0
 15  1  1  0
  1  2  1  0
  2  3  2  0
  2  4  1  0
  4  5  2  0
  4 14  1  0
  5  6  1  0
  6  7  1  0
  7  8  2  0
  7  9  1  0
  9 10  1  0
  9 14  2  0
 10 11  2  0
 11 12  1  0
 12 13  2  0
 13 14  1  0
M  END
>  <minimizedAffinity>  (482) 
-8.65259

$$$$
cs_full_output_folder/data/smiles/7777.pdb
     RDKit          3D

 25 27  0  0  0  0  0  0  0  0999 V2000
   71.6935   46.0624   58.2330 O   0  0  0  0  0  0  0  0  0  0  0  0
   70.5687   45.5528   58.2205 C   0  0  0  0  0  0  0  0  0  0  0  0
   69.4539   46.3092   57.7785 N   0  0  0  0  0  0  0  0  0  0  0  0
   70.3706   44.1663   58.6583 C   0  0  0  0  0  0  0  0  0  0  0  0
   71.0995   43.0501   58.2272 C   0  0  0  0  0  0  0  0  0  0  0  0
   70.6354   41.9241   58.8525 C   0  0  0  0  0  0  0  0  0  0  0  0
   69.6355   42.3565   59.6542 N   0  0  0  0  0  0  0  0  0  0  0  0
   69.4898   43.6649   59.5339 N   0  0  0  0  0  0  0  0  0  0  0  0
   71.0513   40.5323   58.7488 C   0  0  0  0  0  0  0  0  0  0  0  0
   72.3679   40.1588   59.0263 C   0  0  0  0  0  0  0  0  0  0  0  0
   72.8175   38.8603   58.9444 C   0  0  0  0  0  0  0  0  0  0  0  0
   71.9539   37.8515   58.5735 C   0  0  0  0  0  0  0  0  0  0  0  0
   70.6541   38.1954   58.2950 C   0  0  0  0  0  0  0  0  0  0  0  0
   70.2060   39.5140   58.3800 C   0  0  0  0  0  0  0  0  0  0  0  0
   68.8714   39.7921   58.0845 O   0  0  0  0  0  0  0  0  0  0  0  0
   69.4188   47.6486   57.3424 C   0  0  0  0  0  0  0  0  0  0  0  0
   68.4319   48.0265   56.3220 C   0  0  0  0  0  0  0  0  0  0  0  0
   68.7400   47.7701   54.9188 C   0  0  0  0  0  0  0  0  0  0  0  0
   68.1939   46.6681   54.2522 C   0  0  0  0  0  0  0  0  0  0  0  0
   68.4855   46.4109   52.9330 C   0  0  0  0  0  0  0  0  0  0  0  0
   69.3248   47.2431   52.2441 C   0  0  0  0  0  0  0  0  0  0  0  0
   69.5965   46.9465   50.9021 O   0  0  0  0  0  0  0  0  0  0  0  0
   69.8767   48.3305   52.8640 C   0  0  0  0  0  0  0  0  0  0  0  0
   70.7240   49.1373   52.1036 O   0  0  0  0  0  0  0  0  0  0  0  0
   69.5874   48.5845   54.1707 C   0  0  0  0  0  0  0  0  0  0  0  0
  1  2  2  0
  2  3  1  0
  2  4  1  0
  3 16  1  0
 16 17  1  0
 17 18  1  0
 18 19  2  0
 18 25  1  0
 19 20  1  0
 20 21  2  0
 21 22  1  0
 21 23  1  0
 23 24  1  0
 23 25  2  0
  4  5  2  0
  4  8  1  0
  5  6  1  0
  6  9  1  0
  6  7  2  0
  9 10  2  0
  9 14  1  0
 10 11  1  0
 11 12  2  0
 12 13  1  0
 13 14  2  0
 14 15  1  0
  7  8  1  0
M  END
>  <minimizedAffinity>  (483) 
-8.65244

$$$$
cs_full_output_folder/data/smiles/8328.pdb
     RDKit          3D

 24 26  0  0  0  0  0  0  0  0999 V2000
   69.8314   44.6247   57.3232 C   0  0  0  0  0  0  0  0  0  0  0  0
   70.7348   45.4647   57.6777 O   0  0  0  0  0  0  0  0  0  0  0  0
   68.8176   45.1655   56.5220 N   0  0  0  0  0  0  0  0  0  0  0  0
   68.0779   41.8336   56.6506 C   0  0  0  0  0  0  0  0  0  0  0  0
   69.2689   42.1679   57.5088 C   0  0  0  0  0  0  0  0  0  0  0  0
   69.9385   43.2398   57.7683 C   0  0  0  0  0  0  0  0  0  0  0  0
   70.7988   42.5674   58.7114 C   0  0  0  0  0  0  0  0  0  0  0  0
   70.1092   41.3994   58.2919 N   0  0  0  0  0  0  0  0  0  0  0  0
   70.2488   40.0165   58.5949 C   0  0  0  0  0  0  0  0  0  0  0  0
   69.3024   39.2915   59.2670 C   0  0  0  0  0  0  0  0  0  0  0  0
   69.4510   37.9557   59.5722 C   0  0  0  0  0  0  0  0  0  0  0  0
   70.5873   37.3015   59.1957 C   0  0  0  0  0  0  0  0  0  0  0  0
   71.5837   37.9840   58.5093 C   0  0  0  0  0  0  0  0  0  0  0  0
   71.4037   39.3175   58.2215 C   0  0  0  0  0  0  0  0  0  0  0  0
   68.7570   46.5490   56.1139 C   0  0  0  0  0  0  0  0  0  0  0  0
   68.6888   46.6790   54.6283 C   0  0  0  0  0  0  0  0  0  0  0  0
   67.9505   45.7711   53.8741 C   0  0  0  0  0  0  0  0  0  0  0  0
   67.8728   45.8399   52.5046 C   0  0  0  0  0  0  0  0  0  0  0  0
   68.5410   46.8384   51.8194 C   0  0  0  0  0  0  0  0  0  0  0  0
   69.2785   47.7507   52.5318 C   0  0  0  0  0  0  0  0  0  0  0  0
   69.3404   47.6579   53.9162 C   0  0  0  0  0  0  0  0  0  0  0  0
   69.9799   48.7945   51.8077 C   0  0  0  0  0  0  0  0  0  0  0  0
   69.8409   50.1407   52.2207 N   0  0  0  0  0  0  0  0  0  0  0  0
   70.7046   48.5262   50.8242 O   0  0  0  0  0  0  0  0  0  0  0  0
  4  5  1  0
  5  6  2  0
  5  8  1  0
  6  1  1  0
  6  7  1  0
  1  2  2  0
  1  3  1  0
  3 15  1  0
 15 16  1  0
 16 17  2  0
 16 21  1  0
 17 18  1  0
 18 19  2  0
 19 20  1  0
 20 22  1  0
 20 21  2  0
 22 23  1  0
 22 24  2  0
  7  8  1  0
  8  9  1  0
  9 10  2  0
  9 14  1  0
 10 11  1  0
 11 12  2  0
 12 13  1  0
 13 14  2  0
M  END
>  <minimizedAffinity>  (484) 
-8.65080

$$$$
cs_full_output_folder/data/smiles/2339.pdb
     RDKit          3D

 23 25  0  0  0  0  0  0  0  0999 V2000
   69.0507   46.4491   56.8022 N   0  0  0  0  0  0  0  0  0  0  0  0
   68.6332   47.2694   55.9800 C   0  0  0  0  0  0  0  0  0  0  0  0
   68.5615   47.0150   54.5530 C   0  0  0  0  0  0  0  0  0  0  0  0
   69.2691   47.8510   53.6936 C   0  0  0  0  0  0  0  0  0  0  0  0
   69.2791   47.7117   52.3198 C   0  0  0  0  0  0  0  0  0  0  0  0
   68.5570   46.6961   51.7593 C   0  0  0  0  0  0  0  0  0  0  0  0
   67.8523   45.8605   52.5890 C   0  0  0  0  0  0  0  0  0  0  0  0
   67.8509   46.0112   53.9551 C   0  0  0  0  0  0  0  0  0  0  0  0
   68.1866   48.5806   56.5255 C   0  0  0  0  0  0  0  0  0  0  0  0
   67.1493   48.5954   57.4815 C   0  0  0  0  0  0  0  0  0  0  0  0
   66.6864   49.7567   58.0271 C   0  0  0  0  0  0  0  0  0  0  0  0
   67.2292   50.9636   57.6523 C   0  0  0  0  0  0  0  0  0  0  0  0
   68.2407   50.9285   56.7171 C   0  0  0  0  0  0  0  0  0  0  0  0
   68.6631   49.7585   56.2083 N   0  0  0  0  0  0  0  0  0  0  0  0
   70.4954   45.7073   58.9961 O   0  0  0  0  0  0  0  0  0  0  0  0
   70.3118   44.8446   58.1073 C   0  0  0  0  0  0  0  0  0  0  0  0
   69.5426   45.2276   56.9325 N   0  0  0  0  0  0  0  0  0  0  0  0
   70.8352   43.4744   58.2009 C   0  0  0  0  0  0  0  0  0  0  0  0
   72.1789   43.2469   58.0132 C   0  0  0  0  0  0  0  0  0  0  0  0
   72.6894   41.9787   58.0945 C   0  0  0  0  0  0  0  0  0  0  0  0
   71.8576   40.9204   58.3670 C   0  0  0  0  0  0  0  0  0  0  0  0
   70.5208   41.2079   58.5476 C   0  0  0  0  0  0  0  0  0  0  0  0
   70.0330   42.4544   58.4640 N   0  0  0  0  0  0  0  0  0  0  0  0
 15 16  2  0
 16 17  1  0
 16 18  1  0
 17  1  1  0
  1  2  2  0
  2  3  1  0
  2  9  1  0
  3  4  2  0
  3  8  1  0
  4  5  1  0
  5  6  2  0
  6  7  1  0
  7  8  2  0
  9 10  2  0
  9 14  1  0
 10 11  1  0
 11 12  2  0
 12 13  1  0
 13 14  2  0
 18 19  2  0
 18 23  1  0
 19 20  1  0
 20 21  2  0
 21 22  1  0
 22 23  2  0
M  END
>  <minimizedAffinity>  (485) 
-8.64911

$$$$
cs_full_output_folder/data/smiles/7308.pdb
     RDKit          3D

 25 28  0  0  0  0  0  0  0  0999 V2000
   70.2002   48.1357   57.1173 C   0  0  0  0  0  0  0  0  0  0  0  0
   71.2843   48.9819   57.3952 C   0  0  0  0  0  0  0  0  0  0  0  0
   72.3606   48.5935   58.1373 C   0  0  0  0  0  0  0  0  0  0  0  0
   72.4069   47.3215   58.6464 C   0  0  0  0  0  0  0  0  0  0  0  0
   73.4962   46.9874   59.3768 F   0  0  0  0  0  0  0  0  0  0  0  0
   71.3696   46.4454   58.4055 C   0  0  0  0  0  0  0  0  0  0  0  0
   70.2944   46.8789   57.6474 C   0  0  0  0  0  0  0  0  0  0  0  0
   69.0788   48.6790   56.3237 C   0  0  0  0  0  0  0  0  0  0  0  0
   70.4718   48.7649   51.0196 O   0  0  0  0  0  0  0  0  0  0  0  0
   70.1144   48.7106   52.2413 C   0  0  0  0  0  0  0  0  0  0  0  0
   70.5459   49.6317   53.1185 N   0  0  0  0  0  0  0  0  0  0  0  0
   70.1985   49.6092   54.3884 N   0  0  0  0  0  0  0  0  0  0  0  0
   69.3713   48.6391   54.8979 C   0  0  0  0  0  0  0  0  0  0  0  0
   68.9250   47.6951   54.0099 C   0  0  0  0  0  0  0  0  0  0  0  0
   68.0870   46.7131   54.4439 C   0  0  0  0  0  0  0  0  0  0  0  0
   67.6060   45.7506   53.5795 C   0  0  0  0  0  0  0  0  0  0  0  0
   67.9791   45.7862   52.2589 C   0  0  0  0  0  0  0  0  0  0  0  0
   68.8236   46.7563   51.7561 C   0  0  0  0  0  0  0  0  0  0  0  0
   69.2783   47.6964   52.6594 C   0  0  0  0  0  0  0  0  0  0  0  0
   71.4353   45.0670   58.9642 C   0  0  0  0  0  0  0  0  0  0  0  0
   70.3200   44.2071   58.3789 C   0  0  1  0  0  0  0  0  0  0  0  0
   70.8197   42.9614   57.7335 C   0  0  0  0  0  0  0  0  0  0  0  0
   69.9268   41.8465   58.2226 C   0  0  0  0  0  0  0  0  0  0  0  0
   69.1600   42.4332   59.3672 C   0  0  0  0  0  0  0  0  0  0  0  0
   69.4853   43.8160   59.4928 N   0  0  0  0  0  0  0  0  0  0  0  0
  9 10  2  0
 10 11  1  0
 10 19  1  0
 11 12  1  0
 12 13  2  0
 13  8  1  0
 13 14  1  0
  8  1  1  0
  1  2  2  0
  1  7  1  0
  2  3  1  0
  3  4  2  0
  4  5  1  0
  4  6  1  0
  6 20  1  0
  6  7  2  0
 21 20  1  1
 21 22  1  0
 21 25  1  0
 22 23  1  0
 23 24  1  0
 24 25  1  0
 14 15  1  0
 14 19  2  0
 15 16  2  0
 16 17  1  0
 17 18  2  0
 18 19  1  0
M  CHG  1  25   1
M  END
>  <minimizedAffinity>  (486) 
-8.64829

$$$$
cs_full_output_folder/data/smiles/874.pdb
     RDKit          3D

 24 26  0  0  0  0  0  0  0  0999 V2000
   68.0415   44.7202   55.0762 N   0  0  0  0  0  0  0  0  0  0  0  0
   68.6097   44.0145   56.1709 C   0  0  0  0  0  0  0  0  0  0  0  0
   69.4576   44.6343   56.8638 O   0  0  0  0  0  0  0  0  0  0  0  0
   69.1793   47.7116   53.1772 C   0  0  0  0  0  0  0  0  0  0  0  0
   69.0562   48.7037   54.1195 C   0  0  0  0  0  0  0  0  0  0  0  0
   68.5935   48.3815   55.3909 C   0  0  0  0  0  0  0  0  0  0  0  0
   68.2639   47.0573   55.6832 C   0  0  0  0  0  0  0  0  0  0  0  0
   68.3843   46.0558   54.7471 C   0  0  0  0  0  0  0  0  0  0  0  0
   68.8450   46.4096   53.4987 C   0  0  0  0  0  0  0  0  0  0  0  0
   69.8633   49.4145   51.5363 N   0  0  0  0  0  0  0  0  0  0  0  0
   69.6604   48.0531   51.8613 C   0  0  0  0  0  0  0  0  0  0  0  0
   69.8942   47.1590   51.0211 O   0  0  0  0  0  0  0  0  0  0  0  0
   68.2479   42.6381   56.5004 C   0  0  0  0  0  0  0  0  0  0  0  0
   67.2604   41.8819   55.9029 C   0  0  0  0  0  0  0  0  0  0  0  0
   67.2429   40.6660   56.4916 N   0  0  0  0  0  0  0  0  0  0  0  0
   68.1796   40.6108   57.4431 N   0  0  0  0  0  0  0  0  0  0  0  0
   68.7962   41.8085   57.4546 C   0  0  0  0  0  0  0  0  0  0  0  0
   68.4961   39.5182   58.3007 C   0  0  0  0  0  0  0  0  0  0  0  0
   67.4932   38.9194   59.0600 C   0  0  0  0  0  0  0  0  0  0  0  0
   67.7437   37.8684   59.8988 C   0  0  0  0  0  0  0  0  0  0  0  0
   69.0210   37.3915   59.9924 C   0  0  0  0  0  0  0  0  0  0  0  0
   69.3913   36.0337   61.0631 Cl  0  0  0  0  0  0  0  0  0  0  0  0
   70.0242   37.9767   59.2440 C   0  0  0  0  0  0  0  0  0  0  0  0
   69.7769   39.0325   58.4002 C   0  0  0  0  0  0  0  0  0  0  0  0
 10 11  1  0
 11 12  2  0
 11  4  1  0
  4  5  2  0
  4  9  1  0
  5  6  1  0
  6  7  2  0
  7  8  1  0
  8  1  1  0
  8  9  2  0
  1  2  1  0
  2  3  2  0
  2 13  1  0
 13 14  1  0
 13 17  2  0
 14 15  2  0
 15 16  1  0
 16 18  1  0
 16 17  1  0
 18 19  2  0
 18 24  1  0
 19 20  1  0
 20 21  2  0
 21 22  1  0
 21 23  1  0
 23 24  2  0
M  END
>  <minimizedAffinity>  (487) 
-8.64625

$$$$
cs_full_output_folder/data/smiles/1670.pdb
     RDKit          3D

 26 29  0  0  0  0  0  0  0  0999 V2000
   71.4378   47.2436   58.8451 C   0  0  0  0  0  0  0  0  0  0  0  0
   71.5799   45.8701   58.6926 C   0  0  0  0  0  0  0  0  0  0  0  0
   70.7499   45.2025   57.8184 C   0  0  0  0  0  0  0  0  0  0  0  0
   69.7810   45.8657   57.0932 C   0  0  0  0  0  0  0  0  0  0  0  0
   69.6141   47.2350   57.2234 C   0  0  0  0  0  0  0  0  0  0  0  0
   70.4601   47.8665   58.1045 C   0  0  0  0  0  0  0  0  0  0  0  0
   72.1204   47.9313   60.9920 O   0  0  0  0  0  0  0  0  0  0  0  0
   72.2845   48.0033   59.7429 C   0  0  0  0  0  0  0  0  0  0  0  0
   73.2996   48.8351   59.2282 N   0  0  0  0  0  0  0  0  0  0  0  0
   74.1403   49.5906   60.1484 C   0  0  0  0  0  0  0  0  0  0  0  0
   75.3744   50.0172   59.4068 C   0  0  0  0  0  0  0  0  0  0  0  0
   75.8392   48.7902   58.6215 C   0  0  0  0  0  0  0  0  0  0  0  0
   74.9426   48.5347   57.4546 C   0  0  0  0  0  0  0  0  0  0  0  0
   73.5371   48.9831   57.8158 C   0  0  0  0  0  0  0  0  0  0  0  0
   68.6049   48.0118   56.4165 C   0  0  0  0  0  0  0  0  0  0  0  0
   69.0604   48.1788   55.0621 N   0  0  0  0  0  0  0  0  0  0  0  0
   69.9821   49.1488   54.7837 C   0  0  0  0  0  0  0  0  0  0  0  0
   70.4683   49.3745   53.5404 C   0  0  0  0  0  0  0  0  0  0  0  0
   70.0472   48.6231   52.4822 C   0  0  0  0  0  0  0  0  0  0  0  0
   70.5071   48.8360   51.3144 O   0  0  0  0  0  0  0  0  0  0  0  0
   69.1246   47.6441   52.7295 C   0  0  0  0  0  0  0  0  0  0  0  0
   68.6734   46.8536   51.6912 C   0  0  0  0  0  0  0  0  0  0  0  0
   67.7490   45.8623   51.9417 C   0  0  0  0  0  0  0  0  0  0  0  0
   67.3107   45.6965   53.2019 N   0  0  0  0  0  0  0  0  0  0  0  0
   67.7406   46.4590   54.2224 C   0  0  0  0  0  0  0  0  0  0  0  0
   68.6587   47.4541   54.0148 C   0  0  0  0  0  0  0  0  0  0  0  0
  7  8  2  0
  8  1  1  0
  8  9  1  0
  1  2  2  0
  1  6  1  0
  2  3  1  0
  3  4  2  0
  4  5  1  0
  5 15  1  0
  5  6  2  0
 15 16  1  0
 16 17  1  0
 16 26  1  0
 17 18  2  0
 18 19  1  0
 19 20  2  0
 19 21  1  0
 21 22  1  0
 21 26  2  0
 22 23  2  0
 23 24  1  0
 24 25  2  0
 25 26  1  0
  9 10  1  0
  9 14  1  0
 10 11  1  0
 11 12  1  0
 12 13  1  0
 13 14  1  0
M  END
>  <minimizedAffinity>  (488) 
-8.64525

$$$$
cs_full_output_folder/data/smiles/964.pdb
     RDKit          3D

 23 25  0  0  0  0  0  0  0  0999 V2000
   71.5130   49.3965   53.2443 O   0  0  0  0  0  0  0  0  0  0  0  0
   70.3046   49.3651   53.5096 C   0  0  0  0  0  0  0  0  0  0  0  0
   69.5249   48.3236   54.1315 C   0  0  0  0  0  0  0  0  0  0  0  0
   69.4452   48.2607   55.5289 C   0  0  0  0  0  0  0  0  0  0  0  0
   68.7133   47.2828   56.1567 C   0  0  0  0  0  0  0  0  0  0  0  0
   68.6526   47.2406   57.4080 O   0  0  0  0  0  0  0  0  0  0  0  0
   68.0486   46.3545   55.4568 N   0  0  0  0  0  0  0  0  0  0  0  0
   68.1036   46.3860   54.1148 C   0  0  0  0  0  0  0  0  0  0  0  0
   67.4056   45.4040   53.4537 C   0  0  0  0  0  0  0  0  0  0  0  0
   67.4412   45.4015   52.0722 C   0  0  0  0  0  0  0  0  0  0  0  0
   68.1554   46.3513   51.3744 C   0  0  0  0  0  0  0  0  0  0  0  0
   68.8450   47.3234   52.0773 C   0  0  0  0  0  0  0  0  0  0  0  0
   68.8436   47.3727   53.4334 C   0  0  0  0  0  0  0  0  0  0  0  0
   69.6497   50.5613   53.1217 O   0  0  0  0  0  0  0  0  0  0  0  0
   70.3220   51.7367   53.3269 N   0  0  0  0  0  0  0  0  0  0  0  0
   69.5345   52.4612   54.2193 N   0  0  0  0  0  0  0  0  0  0  0  0
   69.2486   51.9498   55.5056 C   0  0  0  0  0  0  0  0  0  0  0  0
   67.9450   51.6429   55.8990 C   0  0  0  0  0  0  0  0  0  0  0  0
   67.7037   51.1514   57.1599 C   0  0  0  0  0  0  0  0  0  0  0  0
   68.7192   50.9511   58.0474 C   0  0  0  0  0  0  0  0  0  0  0  0
   70.0170   51.2471   57.6792 C   0  0  0  0  0  0  0  0  0  0  0  0
   70.2592   51.7382   56.4223 C   0  0  0  0  0  0  0  0  0  0  0  0
   71.5204   52.0283   56.0638 F   0  0  0  0  0  0  0  0  0  0  0  0
  1  2  2  0
  2 14  1  0
  2  3  1  0
 14 15  1  0
 15 16  1  0
 16 17  1  0
 17 18  2  0
 17 22  1  0
 18 19  1  0
 19 20  2  0
 20 21  1  0
 21 22  2  0
 22 23  1  0
  3  4  2  0
  3 13  1  0
  4  5  1  0
  5  6  2  0
  5  7  1  0
  7  8  1  0
  8  9  1  0
  8 13  2  0
  9 10  2  0
 10 11  1  0
 11 12  2  0
 12 13  1  0
M  END
>  <minimizedAffinity>  (489) 
-8.64490

$$$$
cs_full_output_folder/data/smiles/9202.pdb
     RDKit          3D

 24 26  0  0  0  0  0  0  0  0999 V2000
   69.4208   42.1077   59.2753 C   0  0  0  0  0  0  0  0  0  0  0  0
   70.6448   42.3953   58.5139 C   0  0  0  0  0  0  0  0  0  0  0  0
   71.6512   41.5239   58.2211 C   0  0  0  0  0  0  0  0  0  0  0  0
   72.5498   42.2305   57.5132 N   0  0  0  0  0  0  0  0  0  0  0  0
   72.1570   43.4946   57.3503 N   0  0  0  0  0  0  0  0  0  0  0  0
   70.9744   43.6148   57.9662 C   0  0  0  0  0  0  0  0  0  0  0  0
   71.7723   40.1007   58.5818 C   0  0  0  0  0  0  0  0  0  0  0  0
   72.8914   39.6540   59.2266 C   0  0  0  0  0  0  0  0  0  0  0  0
   72.9577   38.3133   59.5428 C   0  0  0  0  0  0  0  0  0  0  0  0
   71.9292   37.4358   59.2215 C   0  0  0  0  0  0  0  0  0  0  0  0
   70.8049   37.8762   58.5763 C   0  0  0  0  0  0  0  0  0  0  0  0
   70.7382   39.2298   58.2575 C   0  0  0  0  0  0  0  0  0  0  0  0
   70.2000   44.8425   58.0234 C   0  0  0  0  0  0  0  0  0  0  0  0
   70.0069   45.3939   59.1292 O   0  0  0  0  0  0  0  0  0  0  0  0
   69.6384   45.4600   56.8436 N   0  0  0  0  0  0  0  0  0  0  0  0
   68.9104   46.6088   56.8731 N   0  0  0  0  0  0  0  0  0  0  0  0
   68.4229   47.2519   55.9244 C   0  0  0  0  0  0  0  0  0  0  0  0
   68.4602   47.0087   54.5002 C   0  0  0  0  0  0  0  0  0  0  0  0
   67.7397   45.9490   53.9320 C   0  0  0  0  0  0  0  0  0  0  0  0
   67.7638   45.7047   52.5828 C   0  0  0  0  0  0  0  0  0  0  0  0
   68.5035   46.5010   51.7523 C   0  0  0  0  0  0  0  0  0  0  0  0
   69.2287   47.5515   52.2492 C   0  0  0  0  0  0  0  0  0  0  0  0
   69.9824   48.3715   51.4419 O   0  0  0  0  0  0  0  0  0  0  0  0
   69.1761   47.7666   53.6327 C   0  0  0  0  0  0  0  0  0  0  0  0
  1  2  1  0
  2  3  1  0
  2  6  2  0
  3  7  1  0
  3  4  2  0
  7  8  2  0
  7 12  1  0
  8  9  1  0
  9 10  2  0
 10 11  1  0
 11 12  2  0
  4  5  1  0
  5  6  1  0
  6 13  1  0
 13 14  2  0
 13 15  1  0
 15 16  1  0
 16 17  2  0
 17 18  1  0
 18 19  2  0
 18 24  1  0
 19 20  1  0
 20 21  2  0
 21 22  1  0
 22 23  1  0
 22 24  2  0
M  END
>  <minimizedAffinity>  (490) 
-8.64176

$$$$
cs_full_output_folder/data/smiles/6810.pdb
     RDKit          3D

 23 25  0  0  0  0  0  0  0  0999 V2000
   68.9645   43.2879   56.7951 C   0  0  0  0  0  0  0  0  0  0  0  0
   70.1596   43.6289   57.4159 N   0  0  0  0  0  0  0  0  0  0  0  0
   70.9038   42.6897   58.0004 C   0  0  0  0  0  0  0  0  0  0  0  0
   72.1091   43.0346   58.6265 C   0  0  0  0  0  0  0  0  0  0  0  0
   72.8768   42.0738   59.2266 C   0  0  0  0  0  0  0  0  0  0  0  0
   72.5319   40.7402   59.2587 C   0  0  0  0  0  0  0  0  0  0  0  0
   71.3542   40.3918   58.6485 C   0  0  0  0  0  0  0  0  0  0  0  0
   70.5570   41.3598   58.0304 C   0  0  0  0  0  0  0  0  0  0  0  0
   69.4090   41.0247   57.4355 N   0  0  0  0  0  0  0  0  0  0  0  0
   68.6198   41.9678   56.8252 C   0  0  0  0  0  0  0  0  0  0  0  0
   67.3404   41.5131   56.2033 C   0  0  0  0  0  0  0  0  0  0  0  0
   67.4770   40.4332   55.3656 O   0  0  0  0  0  0  0  0  0  0  0  0
   68.2552   44.2787   56.2192 O   0  0  0  0  0  0  0  0  0  0  0  0
   68.7519   47.5372   53.6766 C   0  0  0  0  0  0  0  0  0  0  0  0
   68.1657   46.3942   53.2210 C   0  0  0  0  0  0  0  0  0  0  0  0
   67.9965   45.3112   54.0468 C   0  0  0  0  0  0  0  0  0  0  0  0
   68.4018   45.2991   55.3883 C   0  0  0  0  0  0  0  0  0  0  0  0
   68.9999   46.4955   55.8180 C   0  0  0  0  0  0  0  0  0  0  0  0
   69.1690   47.5769   54.9906 C   0  0  0  0  0  0  0  0  0  0  0  0
   70.2085   47.4703   51.3876 O   0  0  0  0  0  0  0  0  0  0  0  0
   69.7195   48.5899   51.6830 C   0  0  0  0  0  0  0  0  0  0  0  0
   69.9537   49.6793   50.8376 O   0  0  0  0  0  0  0  0  0  0  0  0
   68.9517   48.6900   52.8604 N   0  0  0  0  0  0  0  0  0  0  0  0
 20 21  2  0
 21 22  1  0
 21 23  1  0
 23 14  1  0
 14 15  2  0
 14 19  1  0
 15 16  1  0
 16 17  2  0
 17 13  1  0
 17 18  1  0
 13  1  1  0
  1  2  2  0
  1 10  1  0
  2  3  1  0
  3  4  2  0
  3  8  1  0
  4  5  1  0
  5  6  2  0
  6  7  1  0
  7  8  2  0
  8  9  1  0
  9 10  2  0
 10 11  1  0
 11 12  1  0
 18 19  2  0
M  END
>  <minimizedAffinity>  (491) 
-8.64072

$$$$
cs_full_output_folder/data/smiles/7726.pdb
     RDKit          3D

 24 26  0  0  0  0  0  0  0  0999 V2000
   70.6327   49.6124   58.0307 C   0  0  0  0  0  0  0  0  0  0  0  0
   69.6715   50.5346   58.3279 C   0  0  0  0  0  0  0  0  0  0  0  0
   68.7340   50.9743   57.4005 C   0  0  0  0  0  0  0  0  0  0  0  0
   68.7714   50.4543   56.1017 C   0  0  0  0  0  0  0  0  0  0  0  0
   69.7275   49.5322   55.7910 C   0  0  0  0  0  0  0  0  0  0  0  0
   70.6485   49.1159   56.7440 C   0  0  0  0  0  0  0  0  0  0  0  0
   69.8105   48.9928   54.4487 C   0  0  0  0  0  0  0  0  0  0  0  0
   70.5835   49.6526   53.5266 N   0  0  0  0  0  0  0  0  0  0  0  0
   70.6956   49.2230   52.2881 N   0  0  0  0  0  0  0  0  0  0  0  0
   70.0751   48.1279   51.8386 C   0  0  0  0  0  0  0  0  0  0  0  0
   70.1759   47.7078   50.6581 O   0  0  0  0  0  0  0  0  0  0  0  0
   69.2779   47.4074   52.7036 C   0  0  0  0  0  0  0  0  0  0  0  0
   68.6026   46.2759   52.2806 C   0  0  0  0  0  0  0  0  0  0  0  0
   67.7956   45.5730   53.1469 C   0  0  0  0  0  0  0  0  0  0  0  0
   67.6635   46.0067   54.4422 C   0  0  0  0  0  0  0  0  0  0  0  0
   68.3498   47.1508   54.8598 C   0  0  0  0  0  0  0  0  0  0  0  0
   69.1643   47.8699   54.0133 C   0  0  0  0  0  0  0  0  0  0  0  0
   71.6017   49.1696   59.0471 C   0  0  0  0  0  0  0  0  0  0  0  0
   72.1153   46.9670   60.1997 C   0  0  0  0  0  0  0  0  0  0  0  0
   72.1950   47.5389   61.3084 O   0  0  0  0  0  0  0  0  0  0  0  0
   71.8258   47.7446   59.0592 N   0  0  0  0  0  0  0  0  0  0  0  0
   71.7772   45.0296   58.7895 C   0  0  0  0  0  0  0  0  0  0  0  0
   72.3318   45.4928   60.1404 C   0  0  2  0  0  0  0  0  0  0  0  0
   71.6259   44.7937   61.1654 N   0  0  0  0  0  0  0  0  0  0  0  0
 23 22  1  6
 23 24  1  0
 23 19  1  0
 19 20  2  0
 19 21  1  0
 21 18  1  0
 18  1  1  0
  1  2  2  0
  1  6  1  0
  2  3  1  0
  3  4  2  0
  4  5  1  0
  5  7  1  0
  5  6  2  0
  7  8  2  0
  7 17  1  0
  8  9  1  0
  9 10  1  0
 10 11  2  0
 10 12  1  0
 12 13  1  0
 12 17  2  0
 13 14  2  0
 14 15  1  0
 15 16  2  0
 16 17  1  0
M  CHG  1  24   1
M  END
>  <minimizedAffinity>  (492) 
-8.63999

$$$$
cs_full_output_folder/data/smiles/6992.pdb
     RDKit          3D

 25 28  0  0  0  0  0  0  0  0999 V2000
   70.7002   45.9861   58.0549 C   0  0  0  0  0  0  0  0  0  0  0  0
   69.7575   46.7221   57.3257 C   0  0  0  0  0  0  0  0  0  0  0  0
   69.8649   48.0258   57.0437 C   0  0  0  0  0  0  0  0  0  0  0  0
   70.9876   48.7095   57.5026 C   0  0  0  0  0  0  0  0  0  0  0  0
   71.9436   48.0480   58.2210 C   0  0  0  0  0  0  0  0  0  0  0  0
   71.7969   46.6780   58.4969 C   0  0  0  0  0  0  0  0  0  0  0  0
   72.8019   46.1174   59.2066 F   0  0  0  0  0  0  0  0  0  0  0  0
   69.7126   44.2882   59.2956 O   0  0  0  0  0  0  0  0  0  0  0  0
   70.5054   44.5835   58.3305 C   0  0  0  0  0  0  0  0  0  0  0  0
   71.0796   43.4902   57.6723 N   0  0  0  0  0  0  0  0  0  0  0  0
   70.8313   42.1143   58.0146 C   0  0  0  0  0  0  0  0  0  0  0  0
   71.4529   40.9690   58.4828 C   0  0  0  0  0  0  0  0  0  0  0  0
   70.1465   41.0039   58.1860 O   0  0  0  0  0  0  0  0  0  0  0  0
   68.8683   48.7821   56.2660 C   0  0  0  0  0  0  0  0  0  0  0  0
   69.2506   48.7113   54.8415 C   0  0  0  0  0  0  0  0  0  0  0  0
   70.1326   49.6475   54.3723 N   0  0  0  0  0  0  0  0  0  0  0  0
   70.5856   49.6580   53.1326 N   0  0  0  0  0  0  0  0  0  0  0  0
   70.1910   48.7258   52.2528 C   0  0  0  0  0  0  0  0  0  0  0  0
   70.5996   48.6996   51.0585 O   0  0  0  0  0  0  0  0  0  0  0  0
   69.3056   47.7423   52.6262 C   0  0  0  0  0  0  0  0  0  0  0  0
   68.8908   46.7928   51.7058 C   0  0  0  0  0  0  0  0  0  0  0  0
   67.9933   45.8457   52.1315 C   0  0  0  0  0  0  0  0  0  0  0  0
   67.5139   45.8385   53.4378 C   0  0  0  0  0  0  0  0  0  0  0  0
   67.9474   46.7987   54.3306 C   0  0  0  0  0  0  0  0  0  0  0  0
   68.8437   47.7614   53.9505 C   0  0  0  0  0  0  0  0  0  0  0  0
  8  9  2  0
  9 10  1  0
  9  1  1  0
 10 11  1  0
 11 12  2  0
 11 13  1  0
 12 13  1  0
  1  2  2  0
  1  6  1  0
  2  3  1  0
  3 14  1  0
  3  4  2  0
 14 15  1  0
 15 16  2  0
 15 25  1  0
 16 17  1  0
 17 18  1  0
 18 19  2  0
 18 20  1  0
 20 21  1  0
 20 25  2  0
 21 22  2  0
 22 23  1  0
 23 24  2  0
 24 25  1  0
  4  5  1  0
  5  6  2  0
  6  7  1  0
M  END
>  <minimizedAffinity>  (493) 
-8.63951

$$$$
cs_full_output_folder/data/smiles/2470.pdb
     RDKit          3D

 25 27  0  0  0  0  0  0  0  0999 V2000
   69.0410   45.9159   56.7930 N   0  0  0  0  0  0  0  0  0  0  0  0
   70.1749   45.7925   57.6301 C   0  0  0  0  0  0  0  0  0  0  0  0
   70.8043   46.8548   57.8871 O   0  0  0  0  0  0  0  0  0  0  0  0
   70.6284   44.5223   58.1885 C   0  0  0  0  0  0  0  0  0  0  0  0
   71.5280   44.3737   59.2279 C   0  0  0  0  0  0  0  0  0  0  0  0
   71.6877   43.0522   59.4494 N   0  0  0  0  0  0  0  0  0  0  0  0
   70.9493   42.3304   58.6231 N   0  0  0  0  0  0  0  0  0  0  0  0
   70.3030   43.2262   57.8532 C   0  0  0  0  0  0  0  0  0  0  0  0
   69.4360   42.8806   56.8666 F   0  0  0  0  0  0  0  0  0  0  0  0
   70.8581   40.8958   58.5596 C   0  0  0  0  0  0  0  0  0  0  0  0
   71.9826   40.0979   58.5949 C   0  0  0  0  0  0  0  0  0  0  0  0
   71.9549   38.7310   58.5377 C   0  0  0  0  0  0  0  0  0  0  0  0
   70.7177   38.1110   58.4381 C   0  0  0  0  0  0  0  0  0  0  0  0
   69.5703   38.8625   58.3987 C   0  0  0  0  0  0  0  0  0  0  0  0
   69.6381   40.2605   58.4602 C   0  0  0  0  0  0  0  0  0  0  0  0
   68.5835   47.1696   56.2341 C   0  0  0  0  0  0  0  0  0  0  0  0
   69.3251   47.8775   52.5874 C   0  0  0  0  0  0  0  0  0  0  0  0
   68.6677   46.8523   51.9344 C   0  0  0  0  0  0  0  0  0  0  0  0
   67.9839   45.9346   52.7025 C   0  0  0  0  0  0  0  0  0  0  0  0
   67.9606   46.0405   54.0766 C   0  0  0  0  0  0  0  0  0  0  0  0
   68.6183   47.0695   54.7516 C   0  0  0  0  0  0  0  0  0  0  0  0
   69.2965   47.9778   53.9648 C   0  0  0  0  0  0  0  0  0  0  0  0
   70.7301   48.5190   50.7984 O   0  0  0  0  0  0  0  0  0  0  0  0
   70.0502   48.8520   51.7817 C   0  0  0  0  0  0  0  0  0  0  0  0
   69.9721   50.1812   52.1293 O   0  0  0  0  0  0  0  0  0  0  0  0
 23 24  2  0
 24 25  1  0
 24 17  1  0
 17 18  2  0
 17 22  1  0
 18 19  1  0
 19 20  2  0
 20 21  1  0
 21 16  1  0
 21 22  2  0
 16  1  1  0
  1  2  1  0
  2  3  2  0
  2  4  1  0
  4  5  1  0
  4  8  2  0
  5  6  2  0
  6  7  1  0
  7 10  1  0
  7  8  1  0
 10 11  2  0
 10 15  1  0
 11 12  1  0
 12 13  2  0
 13 14  1  0
 14 15  2  0
  8  9  1  0
M  END
>  <minimizedAffinity>  (494) 
-8.63905

$$$$
cs_full_output_folder/data/smiles/960.pdb
     RDKit          3D

 23 25  0  0  0  0  0  0  0  0999 V2000
   69.1063   46.5080   56.8256 N   0  0  0  0  0  0  0  0  0  0  0  0
   68.6697   47.3213   55.9921 C   0  0  0  0  0  0  0  0  0  0  0  0
   68.2245   48.6165   56.5201 C   0  0  0  0  0  0  0  0  0  0  0  0
   67.1806   48.6365   57.4668 C   0  0  0  0  0  0  0  0  0  0  0  0
   66.6915   49.7894   58.0203 C   0  0  0  0  0  0  0  0  0  0  0  0
   67.2070   51.0021   57.6725 C   0  0  0  0  0  0  0  0  0  0  0  0
   68.2217   51.0384   56.7576 C   0  0  0  0  0  0  0  0  0  0  0  0
   68.7159   49.8434   56.1953 C   0  0  0  0  0  0  0  0  0  0  0  0
   68.5975   47.0236   54.5787 C   0  0  0  0  0  0  0  0  0  0  0  0
   67.7963   46.0139   54.0685 C   0  0  0  0  0  0  0  0  0  0  0  0
   67.7788   45.7889   52.7157 C   0  0  0  0  0  0  0  0  0  0  0  0
   68.5336   46.5384   51.8547 C   0  0  0  0  0  0  0  0  0  0  0  0
   69.3233   47.5393   52.4003 C   0  0  0  0  0  0  0  0  0  0  0  0
   69.3153   47.7264   53.6947 N   0  0  0  0  0  0  0  0  0  0  0  0
   69.9883   45.3318   59.1523 O   0  0  0  0  0  0  0  0  0  0  0  0
   70.0748   44.6433   58.1095 C   0  0  0  0  0  0  0  0  0  0  0  0
   69.6083   45.2776   56.9067 N   0  0  0  0  0  0  0  0  0  0  0  0
   70.6179   43.3011   58.1703 C   0  0  0  0  0  0  0  0  0  0  0  0
   71.9934   43.1264   58.0641 C   0  0  0  0  0  0  0  0  0  0  0  0
   72.5924   41.8856   58.1117 C   0  0  0  0  0  0  0  0  0  0  0  0
   71.8404   40.7409   58.2712 C   0  0  0  0  0  0  0  0  0  0  0  0
   70.4755   40.8928   58.3791 C   0  0  0  0  0  0  0  0  0  0  0  0
   69.8739   42.1579   58.3290 C   0  0  0  0  0  0  0  0  0  0  0  0
 15 16  2  0
 16 17  1  0
 16 18  1  0
 17  1  1  0
  1  2  2  0
  2  3  1  0
  2  9  1  0
  3  4  2  0
  3  8  1  0
  4  5  1  0
  5  6  2  0
  6  7  1  0
  7  8  2  0
  9 10  2  0
  9 14  1  0
 10 11  1  0
 11 12  2  0
 12 13  1  0
 13 14  2  0
 18 19  2  0
 18 23  1  0
 19 20  1  0
 20 21  2  0
 21 22  1  0
 22 23  2  0
M  END
>  <minimizedAffinity>  (495) 
-8.63767

$$$$
cs_full_output_folder/data/smiles/6075.pdb
     RDKit          3D

 22 23  0  0  0  0  0  0  0  0999 V2000
   69.4881   46.8515   56.8817 C   0  0  0  0  0  0  0  0  0  0  0  0
   68.3515   47.2118   55.9920 C   0  0  0  0  0  0  0  0  0  0  0  0
   67.8242   45.6884   53.5077 C   0  0  0  0  0  0  0  0  0  0  0  0
   68.6363   46.9288   53.5097 C   0  0  0  0  0  0  0  0  0  0  0  0
   69.1544   47.3628   52.2820 C   0  0  0  0  0  0  0  0  0  0  0  0
   69.8790   48.5202   52.1792 C   0  0  0  0  0  0  0  0  0  0  0  0
   70.3968   48.9524   50.9459 O   0  0  0  0  0  0  0  0  0  0  0  0
   70.0815   49.2466   53.3322 C   0  0  0  0  0  0  0  0  0  0  0  0
   70.8142   50.4197   53.2361 O   0  0  0  0  0  0  0  0  0  0  0  0
   69.5773   48.8261   54.5372 C   0  0  0  0  0  0  0  0  0  0  0  0
   68.8292   47.6362   54.6623 C   0  0  0  0  0  0  0  0  0  0  0  0
   69.5434   45.4616   57.1615 N   0  0  0  0  0  0  0  0  0  0  0  0
   70.5233   45.0989   58.5535 S   0  0  0  0  0  0  0  0  0  0  0  0
   69.6395   44.3595   59.5192 O   0  0  0  0  0  0  0  0  0  0  0  0
   70.8335   46.4232   59.1779 O   0  0  0  0  0  0  0  0  0  0  0  0
   71.8915   44.1438   58.1910 C   0  0  0  0  0  0  0  0  0  0  0  0
   73.1954   44.5808   58.1004 C   0  0  0  0  0  0  0  0  0  0  0  0
   73.7649   45.9277   58.2794 C   0  0  0  0  0  0  0  0  0  0  0  0
   73.9622   43.5139   57.7952 N   0  0  0  0  0  0  0  0  0  0  0  0
   73.1895   42.4620   57.6984 N   0  0  0  0  0  0  0  0  0  0  0  0
   71.9228   42.7951   57.9309 C   0  0  0  0  0  0  0  0  0  0  0  0
   70.8109   41.8059   57.8909 C   0  0  0  0  0  0  0  0  0  0  0  0
  3  4  1  0
  4  5  2  0
  4 11  1  0
  5  6  1  0
  6  7  1  0
  6  8  2  0
  8  9  1  0
  8 10  1  0
 10 11  2  0
 11  2  1  0
  2  1  1  0
  1 12  1  0
 12 13  1  0
 13 14  2  0
 13 15  2  0
 13 16  1  0
 16 17  1  0
 16 21  2  0
 17 18  1  0
 17 19  2  0
 19 20  1  0
 20 21  1  0
 21 22  1  0
M  END
>  <minimizedAffinity>  (496) 
-8.63735

$$$$
cs_full_output_folder/data/smiles/7424.pdb
     RDKit          3D

 23 25  0  0  0  0  0  0  0  0999 V2000
   69.4395   49.1786   52.6374 C   0  0  0  0  0  0  0  0  0  0  0  0
   70.3879   49.9880   53.4184 C   0  0  0  0  0  0  0  0  0  0  0  0
   71.7126   49.6572   53.4256 N   0  0  0  0  0  0  0  0  0  0  0  0
   72.6167   50.3165   54.1260 N   0  0  0  0  0  0  0  0  0  0  0  0
   72.2917   51.3717   54.8889 C   0  0  0  0  0  0  0  0  0  0  0  0
   73.1797   51.9910   55.5541 O   0  0  0  0  0  0  0  0  0  0  0  0
   70.9711   51.7580   54.9249 C   0  0  0  0  0  0  0  0  0  0  0  0
   70.0089   51.0519   54.1747 C   0  0  0  0  0  0  0  0  0  0  0  0
   68.6516   51.5962   54.2938 C   0  0  0  0  0  0  0  0  0  0  0  0
   68.4113   51.7480   55.8029 C   0  0  0  0  0  0  0  0  0  0  0  0
   69.1989   52.9478   56.2506 C   0  0  0  0  0  0  0  0  0  0  0  0
   70.6010   52.9158   55.7576 C   0  0  0  0  0  0  0  0  0  0  0  0
   68.8150   46.5104   55.2548 C   0  0  0  0  0  0  0  0  0  0  0  0
   69.1919   47.6727   54.6262 C   0  0  0  0  0  0  0  0  0  0  0  0
   68.9937   47.9314   53.2851 C   0  0  0  0  0  0  0  0  0  0  0  0
   68.3797   46.9523   52.5496 C   0  0  0  0  0  0  0  0  0  0  0  0
   67.9724   45.7513   53.1295 C   0  0  0  0  0  0  0  0  0  0  0  0
   68.1998   45.5567   54.4702 C   0  0  0  0  0  0  0  0  0  0  0  0
   67.7838   44.3623   54.9990 F   0  0  0  0  0  0  0  0  0  0  0  0
   69.0423   46.2702   56.6754 C   0  0  0  0  0  0  0  0  0  0  0  0
   68.7065   47.1530   57.4956 O   0  0  0  0  0  0  0  0  0  0  0  0
   70.6731   45.0532   58.0677 C   0  0  0  0  0  0  0  0  0  0  0  0
   69.6108   45.1157   57.1623 O   0  0  0  0  0  0  0  0  0  0  0  0
 22 23  1  0
 23 20  1  0
 20 21  2  0
 20 13  1  0
 13 14  2  0
 13 18  1  0
 14 15  1  0
 15  1  1  0
 15 16  2  0
  1  2  1  0
  2  3  2  0
  2  8  1  0
  3  4  1  0
  4  5  1  0
  5  6  2  0
  5  7  1  0
  7  8  2  0
  7 12  1  0
  8  9  1  0
  9 10  1  0
 10 11  1  0
 11 12  1  0
 16 17  1  0
 17 18  2  0
 18 19  1  0
M  END
>  <minimizedAffinity>  (497) 
-8.63709

$$$$
cs_full_output_folder/data/smiles/939.pdb
     RDKit          3D

 21 23  0  0  0  0  0  0  0  0999 V2000
   70.0318   51.2685   53.8981 C   0  0  0  0  0  0  0  0  0  0  0  0
   70.4373   49.9946   54.7660 S   0  0  2  0  0  0  0  0  0  0  0  0
   71.9234   49.9383   54.5338 O   0  0  0  0  0  0  0  0  0  0  0  0
   69.6225   48.5773   54.1829 C   0  0  0  0  0  0  0  0  0  0  0  0
   68.7829   47.8059   54.9542 C   0  0  0  0  0  0  0  0  0  0  0  0
   68.1677   46.6915   54.4262 C   0  0  0  0  0  0  0  0  0  0  0  0
   68.3853   46.3336   53.1200 C   0  0  0  0  0  0  0  0  0  0  0  0
   69.2285   47.1014   52.3358 C   0  0  0  0  0  0  0  0  0  0  0  0
   69.6290   47.0086   51.0550 N   0  0  0  0  0  0  0  0  0  0  0  0
   70.4253   47.9881   50.8166 O   0  0  0  0  0  0  0  0  0  0  0  0
   70.5806   48.7387   51.8802 N   0  0  0  0  0  0  0  0  0  0  0  0
   69.8364   48.2104   52.8700 C   0  0  0  0  0  0  0  0  0  0  0  0
   70.1061   50.2366   56.4393 N   0  0  0  0  0  0  0  0  0  0  0  0
   68.7586   50.3221   56.9282 C   0  0  0  0  0  0  0  0  0  0  0  0
   68.1803   49.1764   57.4621 C   0  0  0  0  0  0  0  0  0  0  0  0
   66.8780   49.2489   57.9377 C   0  0  0  0  0  0  0  0  0  0  0  0
   66.3037   48.1536   58.4563 F   0  0  0  0  0  0  0  0  0  0  0  0
   66.1650   50.4309   57.8854 C   0  0  0  0  0  0  0  0  0  0  0  0
   66.7449   51.5562   57.3571 C   0  0  0  0  0  0  0  0  0  0  0  0
   68.0536   51.4955   56.8757 C   0  0  0  0  0  0  0  0  0  0  0  0
   68.6201   52.6065   56.3553 F   0  0  0  0  0  0  0  0  0  0  0  0
  1  2  2  0
  2  3  2  0
  2 13  1  1
  2  4  1  0
 13 14  1  0
 14 15  2  0
 14 20  1  0
 15 16  1  0
 16 17  1  0
 16 18  2  0
 18 19  1  0
 19 20  2  0
 20 21  1  0
  4  5  2  0
  4 12  1  0
  5  6  1  0
  6  7  2  0
  7  8  1  0
  8  9  2  0
  8 12  1  0
  9 10  1  0
 10 11  1  0
 11 12  2  0
M  END
>  <minimizedAffinity>  (498) 
-8.63403

$$$$
cs_full_output_folder/data/smiles/4101.pdb
     RDKit          3D

 26 28  0  0  0  0  0  0  0  0999 V2000
   72.4589   51.3625   55.1029 C   0  0  0  0  0  0  0  0  0  0  0  0
   72.2654   50.8258   53.9279 N   0  0  0  0  0  0  0  0  0  0  0  0
   72.6756   49.7656   56.9680 C   0  0  0  0  0  0  0  0  0  0  0  0
   72.1037   49.1375   58.0760 C   0  0  0  0  0  0  0  0  0  0  0  0
   70.8130   49.4378   58.4468 C   0  0  0  0  0  0  0  0  0  0  0  0
   70.0344   50.3521   57.7607 C   0  0  0  0  0  0  0  0  0  0  0  0
   68.7417   50.6417   58.1416 C   0  0  0  0  0  0  0  0  0  0  0  0
   67.9988   51.5603   57.4272 C   0  0  0  0  0  0  0  0  0  0  0  0
   68.5590   52.1774   56.3389 C   0  0  0  0  0  0  0  0  0  0  0  0
   69.8449   51.8761   55.9750 C   0  0  0  0  0  0  0  0  0  0  0  0
   70.6250   50.9622   56.6638 C   0  0  0  0  0  0  0  0  0  0  0  0
   71.9148   50.6800   56.2709 C   0  0  0  0  0  0  0  0  0  0  0  0
   74.9827   48.9814   57.3429 C   0  0  0  0  0  0  0  0  0  0  0  0
   73.9533   49.5060   56.5546 O   0  0  0  0  0  0  0  0  0  0  0  0
   71.5505   49.6258   53.8099 N   0  0  0  0  0  0  0  0  0  0  0  0
   70.2913   49.5479   53.1808 C   0  0  0  0  0  0  0  0  0  0  0  0
   69.8326   50.6335   52.7191 O   0  0  0  0  0  0  0  0  0  0  0  0
   69.5404   48.3104   53.0543 C   0  0  0  0  0  0  0  0  0  0  0  0
   69.1588   47.8151   51.8196 C   0  0  0  0  0  0  0  0  0  0  0  0
   68.4517   46.6589   51.6628 C   0  0  0  0  0  0  0  0  0  0  0  0
   68.0982   45.9457   52.7890 C   0  0  0  0  0  0  0  0  0  0  0  0
   68.4515   46.3915   54.0292 C   0  0  0  0  0  0  0  0  0  0  0  0
   69.1747   47.5795   54.1581 C   0  0  0  0  0  0  0  0  0  0  0  0
   68.0826   45.6499   55.1962 N   0  0  0  0  0  0  0  0  0  0  0  0
   68.0842   46.2186   56.3021 O   0  0  0  0  0  0  0  0  0  0  0  0
   67.7315   44.3380   55.1051 O   0  0  0  0  0  0  0  0  0  0  0  0
 13 14  1  0
 14  3  1  0
  3  4  2  0
  3 12  1  0
  4  5  1  0
  5  6  2  0
  6  7  1  0
  6 11  1  0
  7  8  2  0
  8  9  1  0
  9 10  2  0
 10 11  1  0
 11 12  2  0
 12  1  1  0
  1  2  2  0
  2 15  1  0
 15 16  1  0
 16 17  2  0
 16 18  1  0
 18 19  2  0
 18 23  1  0
 19 20  1  0
 20 21  2  0
 21 22  1  0
 22 24  1  0
 22 23  2  0
 24 25  2  0
 24 26  1  0
M  CHG  2  24   1  26  -1
M  END
>  <minimizedAffinity>  (499) 
-8.63275

$$$$
cs_full_output_folder/data/smiles/4634.pdb
     RDKit          3D

 25 27  0  0  0  0  0  0  0  0999 V2000
   69.8879   44.6532   59.1928 O   0  0  0  0  0  0  0  0  0  0  0  0
   70.7899   45.1015   58.4404 C   0  0  0  0  0  0  0  0  0  0  0  0
   70.4622   46.2781   57.7119 N   0  0  0  0  0  0  0  0  0  0  0  0
   72.0729   44.4140   58.3615 C   0  0  0  0  0  0  0  0  0  0  0  0
   73.2801   44.9770   58.7079 C   0  0  0  0  0  0  0  0  0  0  0  0
   74.4769   44.2620   58.6080 C   0  0  0  0  0  0  0  0  0  0  0  0
   75.6840   44.8320   58.9568 C   0  0  0  0  0  0  0  0  0  0  0  0
   76.8679   44.1218   58.8572 C   0  0  0  0  0  0  0  0  0  0  0  0
   76.8890   42.8188   58.4068 C   0  0  0  0  0  0  0  0  0  0  0  0
   75.6798   42.2496   58.0573 C   0  0  0  0  0  0  0  0  0  0  0  0
   74.4968   42.9597   58.1567 C   0  0  0  0  0  0  0  0  0  0  0  0
   73.2860   42.3921   57.8081 C   0  0  0  0  0  0  0  0  0  0  0  0
   72.1101   43.1030   57.9091 C   0  0  0  0  0  0  0  0  0  0  0  0
   70.8962   42.4977   57.5469 O   0  0  0  0  0  0  0  0  0  0  0  0
   69.2689   46.9352   57.7725 N   0  0  0  0  0  0  0  0  0  0  0  0
   68.6074   47.5710   56.9117 C   0  0  0  0  0  0  0  0  0  0  0  0
   68.9190   47.8199   55.5237 C   0  0  0  0  0  0  0  0  0  0  0  0
   68.5488   46.9959   54.4907 C   0  0  0  0  0  0  0  0  0  0  0  0
   68.8576   47.2525   53.1599 C   0  0  0  0  0  0  0  0  0  0  0  0
   69.5655   48.3797   52.8605 C   0  0  0  0  0  0  0  0  0  0  0  0
   69.9564   49.2327   53.8551 C   0  0  0  0  0  0  0  0  0  0  0  0
   69.6367   48.9521   55.1594 C   0  0  0  0  0  0  0  0  0  0  0  0
   69.8932   48.6627   51.4945 N   0  0  0  0  0  0  0  0  0  0  0  0
   70.2940   47.7448   50.7690 O   0  0  0  0  0  0  0  0  0  0  0  0
   69.7645   49.9275   50.9929 O   0  0  0  0  0  0  0  0  0  0  0  0
  1  2  2  0
  2  3  1  0
  2  4  1  0
  3 15  1  0
 15 16  2  0
 16 17  1  0
 17 18  2  0
 17 22  1  0
 18 19  1  0
 19 20  2  0
 20 23  1  0
 20 21  1  0
 23 24  2  0
 23 25  1  0
 21 22  2  0
  4  5  2  0
  4 13  1  0
  5  6  1  0
  6  7  2  0
  6 11  1  0
  7  8  1  0
  8  9  2  0
  9 10  1  0
 10 11  2  0
 11 12  1  0
 12 13  2  0
 13 14  1  0
M  CHG  2  23   1  25  -1
M  END
>  <minimizedAffinity>  (500) 
-8.63263

$$$$
cs_full_output_folder/data/smiles/4897.pdb
     RDKit          3D

 24 26  0  0  0  0  0  0  0  0999 V2000
   68.9151   47.8437   56.7035 C   0  0  0  0  0  0  0  0  0  0  0  0
   67.9934   48.5403   57.2399 O   0  0  0  0  0  0  0  0  0  0  0  0
   69.4991   48.2825   55.4530 C   0  0  0  0  0  0  0  0  0  0  0  0
   70.4570   49.2429   55.2601 C   0  0  0  0  0  0  0  0  0  0  0  0
   70.7342   49.3539   53.9252 N   0  0  0  0  0  0  0  0  0  0  0  0
   69.9572   48.4699   53.2793 C   0  0  0  0  0  0  0  0  0  0  0  0
   69.8432   48.1783   51.9388 C   0  0  0  0  0  0  0  0  0  0  0  0
   68.9511   47.2047   51.5174 C   0  0  0  0  0  0  0  0  0  0  0  0
   68.1631   46.5102   52.4112 C   0  0  0  0  0  0  0  0  0  0  0  0
   68.2919   46.8169   53.7483 C   0  0  0  0  0  0  0  0  0  0  0  0
   69.1794   47.7899   54.2073 C   0  0  0  0  0  0  0  0  0  0  0  0
   67.2502   45.5134   51.9759 N   0  0  0  0  0  0  0  0  0  0  0  0
   66.9280   44.5824   52.7308 O   0  0  0  0  0  0  0  0  0  0  0  0
   66.7104   45.5648   50.7148 O   0  0  0  0  0  0  0  0  0  0  0  0
   69.6869   46.6273   58.5966 O   0  0  0  0  0  0  0  0  0  0  0  0
   69.3216   46.6314   57.4040 C   0  0  0  0  0  0  0  0  0  0  0  0
   69.3179   45.3787   56.7369 N   0  0  0  0  0  0  0  0  0  0  0  0
   69.7025   44.2162   57.3969 N   0  0  0  0  0  0  0  0  0  0  0  0
   69.0287   43.0123   57.1294 C   0  0  0  0  0  0  0  0  0  0  0  0
   68.0014   42.9745   56.2229 C   0  0  0  0  0  0  0  0  0  0  0  0
   67.3172   41.7920   55.9349 C   0  0  0  0  0  0  0  0  0  0  0  0
   67.7238   40.6638   56.6087 C   0  0  0  0  0  0  0  0  0  0  0  0
   68.7450   40.6649   57.5193 C   0  0  0  0  0  0  0  0  0  0  0  0
   69.4017   41.8653   57.7772 C   0  0  0  0  0  0  0  0  0  0  0  0
 15 16  2  0
 16 17  1  0
 16  1  1  0
 17 18  1  0
 18 19  1  0
 19 20  2  0
 19 24  1  0
 20 21  1  0
 21 22  2  0
 22 23  1  0
 23 24  2  0
  1  2  2  0
  1  3  1  0
  3  4  2  0
  3 11  1  0
  4  5  1  0
  5  6  1  0
  6  7  1  0
  6 11  2  0
  7  8  2  0
  8  9  1  0
  9 12  1  0
  9 10  2  0
 12 13  2  0
 12 14  1  0
 10 11  1  0
M  CHG  2  12   1  14  -1
M  END
>  <minimizedAffinity>  (501) 
-8.63161

$$$$
cs_full_output_folder/data/smiles/4873.pdb
     RDKit          3D

 24 26  0  0  0  0  0  0  0  0999 V2000
   70.5197   45.3132   57.8840 C   0  0  0  0  0  0  0  0  0  0  0  0
   71.4526   45.9670   58.6593 C   0  0  0  0  0  0  0  0  0  0  0  0
   71.5616   47.3466   58.6162 C   0  0  0  0  0  0  0  0  0  0  0  0
   70.7246   48.0910   57.7853 C   0  0  0  0  0  0  0  0  0  0  0  0
   69.7886   47.4454   57.0063 C   0  0  0  0  0  0  0  0  0  0  0  0
   69.7050   46.0932   57.0692 C   0  0  0  0  0  0  0  0  0  0  0  0
   69.7385   43.1838   58.9597 C   0  0  0  0  0  0  0  0  0  0  0  0
   69.1913   43.8773   59.8651 O   0  0  0  0  0  0  0  0  0  0  0  0
   70.4213   43.8957   57.9392 N   0  0  0  0  0  0  0  0  0  0  0  0
   69.6496   41.7059   58.9962 C   0  0  0  0  0  0  0  0  0  0  0  0
   67.6423   41.7061   57.5046 C   0  0  0  0  0  0  0  0  0  0  0  0
   69.0167   41.1281   57.7782 C   0  0  0  0  0  0  0  0  0  0  0  0
   68.9508   48.2515   56.1654 N   0  0  0  0  0  0  0  0  0  0  0  0
   69.3645   48.4197   54.8253 C   0  0  0  0  0  0  0  0  0  0  0  0
   70.2273   49.3669   54.4398 N   0  0  0  0  0  0  0  0  0  0  0  0
   70.6084   49.5193   53.1856 N   0  0  0  0  0  0  0  0  0  0  0  0
   70.1445   48.7219   52.2151 C   0  0  0  0  0  0  0  0  0  0  0  0
   70.4762   48.8306   51.0191 O   0  0  0  0  0  0  0  0  0  0  0  0
   69.2447   47.7137   52.5258 C   0  0  0  0  0  0  0  0  0  0  0  0
   68.7585   46.8896   51.5494 C   0  0  0  0  0  0  0  0  0  0  0  0
   67.8718   45.9015   51.8767 C   0  0  0  0  0  0  0  0  0  0  0  0
   67.4534   45.7194   53.1948 C   0  0  0  0  0  0  0  0  0  0  0  0
   67.9604   46.5646   54.1552 C   0  0  0  0  0  0  0  0  0  0  0  0
   68.8593   47.5753   53.8645 C   0  0  0  0  0  0  0  0  0  0  0  0
 11 12  1  0
 12 10  1  0
 10  7  1  0
  7  8  2  0
  7  9  1  0
  9  1  1  0
  1  2  2  0
  1  6  1  0
  2  3  1  0
  3  4  2  0
  4  5  1  0
  5 13  1  0
  5  6  2  0
 13 14  1  0
 14 15  2  0
 14 24  1  0
 15 16  1  0
 16 17  1  0
 17 18  2  0
 17 19  1  0
 19 20  1  0
 19 24  2  0
 20 21  2  0
 21 22  1  0
 22 23  2  0
 23 24  1  0
M  END
>  <minimizedAffinity>  (502) 
-8.63107

$$$$
cs_full_output_folder/data/smiles/9041.pdb
     RDKit          3D

 26 29  0  0  0  0  0  0  0  0999 V2000
   71.7188   48.0339   59.3318 C   0  0  0  0  0  0  0  0  0  0  0  0
   71.2264   46.9135   58.7022 C   0  0  0  0  0  0  0  0  0  0  0  0
   70.1950   46.9991   57.7523 C   0  0  0  0  0  0  0  0  0  0  0  0
   69.6511   48.2126   57.4262 C   0  0  0  0  0  0  0  0  0  0  0  0
   70.1852   49.3253   58.0940 C   0  0  0  0  0  0  0  0  0  0  0  0
   71.1726   49.2128   58.9992 N   0  0  0  0  0  0  0  0  0  0  0  0
   72.5651   47.8518   61.5476 O   0  0  0  0  0  0  0  0  0  0  0  0
   72.8018   47.9293   60.3247 C   0  0  0  0  0  0  0  0  0  0  0  0
   74.1884   47.9155   59.8848 C   0  0  0  0  0  0  0  0  0  0  0  0
   74.8889   48.9878   59.5918 C   0  0  0  0  0  0  0  0  0  0  0  0
   76.2834   48.9913   59.1493 C   0  0  0  0  0  0  0  0  0  0  0  0
   76.6357   50.2532   58.9552 C   0  0  0  0  0  0  0  0  0  0  0  0
   75.5366   51.1001   59.2497 N   0  0  0  0  0  0  0  0  0  0  0  0
   74.5167   50.3959   59.6190 C   0  0  0  0  0  0  0  0  0  0  0  0
   68.5749   48.3566   56.4304 C   0  0  0  0  0  0  0  0  0  0  0  0
   68.9794   48.5357   55.0563 C   0  0  0  0  0  0  0  0  0  0  0  0
   69.5182   49.7169   54.6880 N   0  0  0  0  0  0  0  0  0  0  0  0
   69.9332   49.9504   53.4545 N   0  0  0  0  0  0  0  0  0  0  0  0
   69.8412   49.0154   52.4839 C   0  0  0  0  0  0  0  0  0  0  0  0
   70.2566   49.2871   51.3037 O   0  0  0  0  0  0  0  0  0  0  0  0
   69.3013   47.8002   52.8006 C   0  0  0  0  0  0  0  0  0  0  0  0
   68.8676   47.5595   54.0975 C   0  0  0  0  0  0  0  0  0  0  0  0
   68.2817   46.2698   54.4364 C   0  0  0  0  0  0  0  0  0  0  0  0
   67.6979   45.4576   53.3324 C   0  0  0  0  0  0  0  0  0  0  0  0
   67.7551   46.1717   52.0178 C   0  0  0  0  0  0  0  0  0  0  0  0
   69.1662   46.7377   51.7813 C   0  0  0  0  0  0  0  0  0  0  0  0
  7  8  2  0
  8  9  1  0
  8  1  1  0
  9 10  2  0
 10 11  1  0
 10 14  1  0
 11 12  2  0
 12 13  1  0
 13 14  2  0
  1  2  2  0
  1  6  1  0
  2  3  1  0
  3  4  2  0
  4 15  1  0
  4  5  1  0
 15 16  1  0
 16 17  2  0
 16 22  1  0
 17 18  1  0
 18 19  1  0
 19 20  2  0
 19 21  1  0
 21 22  2  0
 21 26  1  0
 22 23  1  0
 23 24  1  0
 24 25  1  0
 25 26  1  0
  5  6  2  0
M  END
>  <minimizedAffinity>  (503) 
-8.63045

$$$$
cs_full_output_folder/data/smiles/7978.pdb
     RDKit          3D

 24 25  0  0  0  0  0  0  0  0999 V2000
   69.1933   46.0648   56.8732 N   0  0  0  0  0  0  0  0  0  0  0  0
   70.1457   46.3674   57.6460 C   0  0  0  0  0  0  0  0  0  0  0  0
   67.4250   47.5204   56.6051 O   0  0  0  0  0  0  0  0  0  0  0  0
   68.3396   46.8386   56.1023 C   0  0  0  0  0  0  0  0  0  0  0  0
   68.4918   46.8721   54.6258 C   0  0  0  0  0  0  0  0  0  0  0  0
   67.7669   45.9737   53.8825 C   0  0  0  0  0  0  0  0  0  0  0  0
   67.9159   46.0083   52.5010 C   0  0  0  0  0  0  0  0  0  0  0  0
   68.7661   46.9195   51.8981 C   0  0  0  0  0  0  0  0  0  0  0  0
   69.4865   47.8168   52.6545 C   0  0  0  0  0  0  0  0  0  0  0  0
   69.3183   47.7598   54.0217 C   0  0  0  0  0  0  0  0  0  0  0  0
   70.3614   48.7836   52.0563 N   0  0  0  0  0  0  0  0  0  0  0  0
   70.1316   49.2929   50.9566 O   0  0  0  0  0  0  0  0  0  0  0  0
   71.4931   49.1277   52.7429 O   0  0  0  0  0  0  0  0  0  0  0  0
   70.9620   45.4487   58.3960 C   0  0  0  0  0  0  0  0  0  0  0  0
   72.0322   46.1049   59.5061 S   0  0  0  0  0  0  0  0  0  0  0  0
   70.9900   44.0521   58.3189 N   0  0  0  0  0  0  0  0  0  0  0  0
   70.1486   43.0994   58.8945 C   0  0  0  0  0  0  0  0  0  0  0  0
   69.1849   43.4936   59.6078 O   0  0  0  0  0  0  0  0  0  0  0  0
   70.2845   41.6612   58.7423 C   0  0  0  0  0  0  0  0  0  0  0  0
   69.1562   40.8418   58.6174 C   0  0  0  0  0  0  0  0  0  0  0  0
   69.2426   39.4895   58.4663 C   0  0  0  0  0  0  0  0  0  0  0  0
   70.4619   38.8700   58.4319 C   0  0  0  0  0  0  0  0  0  0  0  0
   71.6330   39.6311   58.5501 C   0  0  0  0  0  0  0  0  0  0  0  0
   71.4989   40.9868   58.6990 C   0  0  0  0  0  0  0  0  0  0  0  0
  3  4  2  0
  4  1  1  0
  4  5  1  0
  1  2  2  0
  2 14  1  0
 14 15  2  0
 14 16  1  0
 16 17  1  0
 17 18  2  0
 17 19  1  0
 19 20  2  0
 19 24  1  0
 20 21  1  0
 21 22  2  0
 22 23  1  0
 23 24  2  0
  5  6  2  0
  5 10  1  0
  6  7  1  0
  7  8  2  0
  8  9  1  0
  9 11  1  0
  9 10  2  0
 11 12  2  0
 11 13  1  0
M  CHG  2  11   1  13  -1
M  END
>  <minimizedAffinity>  (504) 
-8.62973

$$$$
cs_full_output_folder/data/smiles/8619.pdb
     RDKit          3D

 23 25  0  0  0  0  0  0  0  0999 V2000
   68.9134   48.7129   56.1801 C   0  0  0  0  0  0  0  0  0  0  0  0
   69.2776   48.6965   54.7641 C   0  0  0  0  0  0  0  0  0  0  0  0
   70.1576   49.6368   54.2887 N   0  0  0  0  0  0  0  0  0  0  0  0
   70.5996   49.6353   53.0435 N   0  0  0  0  0  0  0  0  0  0  0  0
   70.1901   48.6875   52.1789 C   0  0  0  0  0  0  0  0  0  0  0  0
   70.6109   48.6739   50.9758 O   0  0  0  0  0  0  0  0  0  0  0  0
   69.2990   47.7054   52.5934 C   0  0  0  0  0  0  0  0  0  0  0  0
   68.8449   46.7441   51.7308 C   0  0  0  0  0  0  0  0  0  0  0  0
   67.9309   45.7976   52.1812 C   0  0  0  0  0  0  0  0  0  0  0  0
   67.4922   45.8317   53.4768 C   0  0  0  0  0  0  0  0  0  0  0  0
   67.9429   46.7893   54.3461 C   0  0  0  0  0  0  0  0  0  0  0  0
   68.8397   47.7218   53.9163 C   0  0  0  0  0  0  0  0  0  0  0  0
   70.6727   45.9591   58.2021 C   0  0  0  0  0  0  0  0  0  0  0  0
   69.7498   46.6501   57.4239 C   0  0  0  0  0  0  0  0  0  0  0  0
   69.8663   47.9368   57.0121 C   0  0  0  0  0  0  0  0  0  0  0  0
   71.0441   48.6001   57.4306 C   0  0  0  0  0  0  0  0  0  0  0  0
   71.9820   47.9619   58.1987 C   0  0  0  0  0  0  0  0  0  0  0  0
   71.8046   46.6502   58.5850 C   0  0  0  0  0  0  0  0  0  0  0  0
   72.7308   46.0049   59.3530 F   0  0  0  0  0  0  0  0  0  0  0  0
   70.4476   44.5615   58.5723 C   0  0  0  0  0  0  0  0  0  0  0  0
   69.6945   44.3421   59.5568 O   0  0  0  0  0  0  0  0  0  0  0  0
   69.9662   42.4843   57.4102 C   0  0  0  0  0  0  0  0  0  0  0  0
   71.0754   43.4451   57.8253 C   0  0  0  0  0  0  0  0  0  0  0  0
 22 23  1  0
 23 20  1  0
 20 21  2  0
 20 13  1  0
 13 14  2  0
 13 18  1  0
 14 15  1  0
 15  1  1  0
 15 16  2  0
  1  2  1  0
  2  3  2  0
  2 12  1  0
  3  4  1  0
  4  5  1  0
  5  6  2  0
  5  7  1  0
  7  8  1  0
  7 12  2  0
  8  9  2  0
  9 10  1  0
 10 11  2  0
 11 12  1  0
 16 17  1  0
 17 18  2  0
 18 19  1  0
M  END
>  <minimizedAffinity>  (505) 
-8.62970

$$$$
cs_full_output_folder/data/smiles/8508.pdb
     RDKit          3D

 25 27  0  0  0  0  0  0  0  0999 V2000
   69.9002   44.6044   57.7723 C   0  0  0  0  0  0  0  0  0  0  0  0
   69.9690   45.5016   58.6829 O   0  0  0  0  0  0  0  0  0  0  0  0
   69.3485   44.9746   56.5435 N   0  0  0  0  0  0  0  0  0  0  0  0
   71.1133   41.4953   58.4383 N   0  0  0  0  0  0  0  0  0  0  0  0
   69.8151   42.0571   58.6103 C   0  0  0  0  0  0  0  0  0  0  0  0
   70.4039   43.2453   58.0682 C   0  0  0  0  0  0  0  0  0  0  0  0
   71.5578   42.6924   57.9319 C   0  0  0  0  0  0  0  0  0  0  0  0
   72.9170   43.1519   57.4132 C   0  0  0  0  0  0  0  0  0  0  0  0
   71.5477   36.6239   58.7457 C   0  0  0  0  0  0  0  0  0  0  0  0
   71.8049   37.9069   58.8397 C   0  0  0  0  0  0  0  0  0  0  0  0
   73.0144   38.4789   59.3959 C   0  0  0  0  0  0  0  0  0  0  0  0
   72.9005   39.7845   59.3150 C   0  0  0  0  0  0  0  0  0  0  0  0
   71.6415   40.2016   58.7143 C   0  0  0  0  0  0  0  0  0  0  0  0
   71.0008   39.0472   58.4376 C   0  0  0  0  0  0  0  0  0  0  0  0
   69.7824   38.9243   57.8685 F   0  0  0  0  0  0  0  0  0  0  0  0
   68.8792   46.3076   56.2882 C   0  0  0  0  0  0  0  0  0  0  0  0
   68.7735   46.5476   54.8254 C   0  0  0  0  0  0  0  0  0  0  0  0
   67.9940   45.6864   54.0383 C   0  0  0  0  0  0  0  0  0  0  0  0
   67.8914   45.9159   52.6960 C   0  0  0  0  0  0  0  0  0  0  0  0
   68.5338   46.9767   52.0841 C   0  0  0  0  0  0  0  0  0  0  0  0
   69.3007   47.8319   52.8324 C   0  0  0  0  0  0  0  0  0  0  0  0
   69.3909   47.5789   54.2006 C   0  0  0  0  0  0  0  0  0  0  0  0
   69.9852   48.9383   52.2034 C   0  0  0  0  0  0  0  0  0  0  0  0
   70.2622   50.1487   52.8861 N   0  0  0  0  0  0  0  0  0  0  0  0
   70.3467   48.8195   51.0086 O   0  0  0  0  0  0  0  0  0  0  0  0
  9 10  2  0
 10 11  1  0
 10 14  1  0
 11 12  2  0
 12 13  1  0
 13  4  1  0
 13 14  2  0
  4  5  1  0
  4  7  1  0
  5  6  1  0
  6  1  1  0
  6  7  2  0
  1  2  2  0
  1  3  1  0
  3 16  1  0
 16 17  1  0
 17 18  2  0
 17 22  1  0
 18 19  1  0
 19 20  2  0
 20 21  1  0
 21 23  1  0
 21 22  2  0
 23 24  1  0
 23 25  2  0
  7  8  1  0
 14 15  1  0
M  END
>  <minimizedAffinity>  (506) 
-8.62956

$$$$
cs_full_output_folder/data/smiles/781.pdb
     RDKit          3D

 23 24  0  0  0  0  0  0  0  0999 V2000
   68.5778   42.4972   56.9453 C   0  0  0  0  0  0  0  0  0  0  0  0
   67.4409   42.4101   56.3764 O   0  0  0  0  0  0  0  0  0  0  0  0
   69.1767   43.7716   56.9211 N   0  0  0  0  0  0  0  0  0  0  0  0
   70.3137   39.0606   58.7440 C   0  0  0  0  0  0  0  0  0  0  0  0
   71.0227   40.2354   58.6208 C   0  0  0  0  0  0  0  0  0  0  0  0
   70.4512   41.3502   58.0337 C   0  0  0  0  0  0  0  0  0  0  0  0
   69.1600   41.3153   57.5588 C   0  0  0  0  0  0  0  0  0  0  0  0
   68.4374   40.1504   57.6739 C   0  0  0  0  0  0  0  0  0  0  0  0
   69.0116   39.0334   58.2617 C   0  0  0  0  0  0  0  0  0  0  0  0
   70.0060   37.0063   60.0927 C   0  0  0  0  0  0  0  0  0  0  0  0
   70.9606   37.9036   59.3734 C   0  0  0  0  0  0  0  0  0  0  0  0
   71.9889   38.3893   60.4032 C   0  0  0  0  0  0  0  0  0  0  0  0
   71.7426   37.1385   58.3242 C   0  0  0  0  0  0  0  0  0  0  0  0
   68.5830   44.8915   56.3178 N   0  0  0  0  0  0  0  0  0  0  0  0
   69.0932   46.1978   56.4148 C   0  0  0  0  0  0  0  0  0  0  0  0
   70.1502   46.3560   57.0888 O   0  0  0  0  0  0  0  0  0  0  0  0
   68.4210   47.3712   55.7504 C   0  0  0  0  0  0  0  0  0  0  0  0
   68.5622   47.2463   54.2809 C   0  0  0  0  0  0  0  0  0  0  0  0
   67.8373   46.2773   53.5864 C   0  0  0  0  0  0  0  0  0  0  0  0
   67.9520   46.1408   52.2204 C   0  0  0  0  0  0  0  0  0  0  0  0
   68.7838   46.9544   51.4854 C   0  0  0  0  0  0  0  0  0  0  0  0
   69.5022   47.9159   52.1765 C   0  0  0  0  0  0  0  0  0  0  0  0
   69.3996   48.0650   53.5438 C   0  0  0  0  0  0  0  0  0  0  0  0
 10 11  1  0
 11 12  1  0
 11 13  1  0
 11  4  1  0
  4  5  2  0
  4  9  1  0
  5  6  1  0
  6  7  2  0
  7  1  1  0
  7  8  1  0
  1  2  2  0
  1  3  1  0
  3 14  1  0
 14 15  1  0
 15 16  2  0
 15 17  1  0
 17 18  1  0
 18 19  2  0
 18 23  1  0
 19 20  1  0
 20 21  2  0
 21 22  1  0
 22 23  2  0
  8  9  2  0
M  END
>  <minimizedAffinity>  (507) 
-8.62765

$$$$
cs_full_output_folder/data/smiles/574.pdb
     RDKit          3D

 23 25  0  0  0  0  0  0  0  0999 V2000
   70.3738   50.5086   53.9539 C   0  0  0  0  0  0  0  0  0  0  0  0
   68.9970   50.7762   53.9678 C   0  0  0  0  0  0  0  0  0  0  0  0
   68.5143   51.8974   54.5948 C   0  0  0  0  0  0  0  0  0  0  0  0
   69.3918   52.7623   55.2100 C   0  0  0  0  0  0  0  0  0  0  0  0
   70.7445   52.4996   55.1969 C   0  0  0  0  0  0  0  0  0  0  0  0
   71.2598   51.3509   54.5582 C   0  0  0  0  0  0  0  0  0  0  0  0
   72.6771   51.1120   54.5745 C   0  0  0  0  0  0  0  0  0  0  0  0
   73.4363   51.5899   53.7114 O   0  0  0  0  0  0  0  0  0  0  0  0
   73.3504   50.3160   55.5616 N   0  0  0  0  0  0  0  0  0  0  0  0
   74.7615   50.1140   55.5249 C   0  0  0  0  0  0  0  0  0  0  0  0
   75.4871   49.4396   54.6177 N   0  0  0  0  0  0  0  0  0  0  0  0
   76.7638   49.4953   54.9566 N   0  0  0  0  0  0  0  0  0  0  0  0
   76.8966   50.2119   56.0976 C   0  0  0  0  0  0  0  0  0  0  0  0
   75.6471   50.5791   56.4220 N   0  0  0  0  0  0  0  0  0  0  0  0
   70.7898   49.3331   53.3133 N   0  0  0  0  0  0  0  0  0  0  0  0
   69.2743   47.6262   54.2514 C   0  0  0  0  0  0  0  0  0  0  0  0
   68.3731   46.5826   54.0857 C   0  0  0  0  0  0  0  0  0  0  0  0
   68.0013   46.1512   52.8316 C   0  0  0  0  0  0  0  0  0  0  0  0
   68.5505   46.7869   51.7416 C   0  0  0  0  0  0  0  0  0  0  0  0
   69.4504   47.8284   51.9059 C   0  0  0  0  0  0  0  0  0  0  0  0
   69.8222   48.2598   53.1600 C   0  0  0  0  0  0  0  0  0  0  0  0
   68.9983   47.6433   56.6958 C   0  0  0  0  0  0  0  0  0  0  0  0
   69.6389   48.0438   55.5225 O   0  0  0  0  0  0  0  0  0  0  0  0
 22 23  1  0
 23 16  1  0
 16 17  2  0
 16 21  1  0
 17 18  1  0
 18 19  2  0
 19 20  1  0
 20 21  2  0
 21 15  1  0
 15  1  1  0
  1  2  2  0
  1  6  1  0
  2  3  1  0
  3  4  2  0
  4  5  1  0
  5  6  2  0
  6  7  1  0
  7  8  2  0
  7  9  1  0
  9 10  1  0
 10 11  2  0
 10 14  1  0
 11 12  1  0
 12 13  2  0
 13 14  1  0
M  END
>  <minimizedAffinity>  (508) 
-8.62671

$$$$
cs_full_output_folder/data/smiles/6570.pdb
     RDKit          3D

 25 27  0  0  0  0  0  0  0  0999 V2000
   68.8596   47.4914   56.9039 C   0  0  0  0  0  0  0  0  0  0  0  0
   71.1825   50.9181   54.2667 C   0  0  0  0  0  0  0  0  0  0  0  0
   70.3926   49.6985   54.3596 N   0  0  0  0  0  0  0  0  0  0  0  0
   70.0216   49.1938   55.5258 N   0  0  0  0  0  0  0  0  0  0  0  0
   69.2908   48.0644   55.6238 C   0  0  0  0  0  0  0  0  0  0  0  0
   68.9307   47.4332   54.4554 C   0  0  0  0  0  0  0  0  0  0  0  0
   68.1739   46.2574   54.5401 C   0  0  0  0  0  0  0  0  0  0  0  0
   67.8218   45.6334   53.3701 C   0  0  0  0  0  0  0  0  0  0  0  0
   68.2026   46.1517   52.1492 C   0  0  0  0  0  0  0  0  0  0  0  0
   68.9410   47.2984   52.0555 C   0  0  0  0  0  0  0  0  0  0  0  0
   69.3093   47.9475   53.2422 C   0  0  0  0  0  0  0  0  0  0  0  0
   70.0607   49.1113   53.1907 C   0  0  0  0  0  0  0  0  0  0  0  0
   70.3959   49.5638   52.0754 O   0  0  0  0  0  0  0  0  0  0  0  0
   69.9462   46.6712   57.5520 C   0  0  0  0  0  0  0  0  0  0  0  0
   71.0361   47.1948   57.8166 O   0  0  0  0  0  0  0  0  0  0  0  0
   69.7384   45.3007   57.8639 N   0  0  0  0  0  0  0  0  0  0  0  0
   70.6884   44.4338   58.4639 C   0  0  0  0  0  0  0  0  0  0  0  0
   71.1266   43.2511   57.6814 C   0  0  0  0  0  0  0  0  0  0  0  0
   70.2481   42.0804   57.7328 C   0  0  0  0  0  0  0  0  0  0  0  0
   69.0011   42.1119   57.1387 C   0  0  0  0  0  0  0  0  0  0  0  0
   68.1405   41.0372   57.1512 C   0  0  0  0  0  0  0  0  0  0  0  0
   68.5065   39.8696   57.7722 C   0  0  0  0  0  0  0  0  0  0  0  0
   67.6807   38.7773   57.8085 F   0  0  0  0  0  0  0  0  0  0  0  0
   69.7566   39.8330   58.3703 C   0  0  0  0  0  0  0  0  0  0  0  0
   70.6266   40.9084   58.3618 C   0  0  0  0  0  0  0  0  0  0  0  0
  2  3  1  0
  3  4  1  0
  3 12  1  0
  4  5  2  0
  5  1  1  0
  5  6  1  0
  1 14  1  0
 14 15  2  0
 14 16  1  0
 16 17  1  0
 17 18  1  0
 18 19  1  0
 19 20  2  0
 19 25  1  0
 20 21  1  0
 21 22  2  0
 22 23  1  0
 22 24  1  0
 24 25  2  0
  6  7  1  0
  6 11  2  0
  7  8  2  0
  8  9  1  0
  9 10  2  0
 10 11  1  0
 11 12  1  0
 12 13  2  0
M  END
>  <minimizedAffinity>  (509) 
-8.62660

$$$$
cs_full_output_folder/data/smiles/1162.pdb
     RDKit          3D

 24 26  0  0  0  0  0  0  0  0999 V2000
   69.6368   50.4099   53.0888 O   0  0  0  0  0  0  0  0  0  0  0  0
   70.3222   49.5413   53.7474 C   0  0  0  0  0  0  0  0  0  0  0  0
   69.5626   48.4424   54.3072 C   0  0  0  0  0  0  0  0  0  0  0  0
   69.4592   48.2974   55.7036 C   0  0  0  0  0  0  0  0  0  0  0  0
   68.7458   47.2663   56.2505 C   0  0  0  0  0  0  0  0  0  0  0  0
   68.6813   47.1774   57.4986 O   0  0  0  0  0  0  0  0  0  0  0  0
   68.1179   46.3555   55.4983 N   0  0  0  0  0  0  0  0  0  0  0  0
   68.1727   46.4316   54.1576 C   0  0  0  0  0  0  0  0  0  0  0  0
   67.5240   45.4887   53.3915 C   0  0  0  0  0  0  0  0  0  0  0  0
   67.5709   45.5529   52.0217 C   0  0  0  0  0  0  0  0  0  0  0  0
   68.2723   46.5654   51.4330 C   0  0  0  0  0  0  0  0  0  0  0  0
   68.9207   47.5073   52.2124 C   0  0  0  0  0  0  0  0  0  0  0  0
   68.8980   47.4792   53.5882 C   0  0  0  0  0  0  0  0  0  0  0  0
   71.6423   49.8238   53.7933 O   0  0  0  0  0  0  0  0  0  0  0  0
   72.4284   50.7593   55.0294 S   0  0  0  0  0  0  0  0  0  0  0  0
   71.6607   52.4264   55.0015 C   0  0  0  0  0  0  0  0  0  0  0  0
   71.0564   52.7679   56.2576 N   0  0  0  0  0  0  0  0  0  0  0  0
   69.9283   52.0594   56.7214 C   0  0  0  0  0  0  0  0  0  0  0  0
   69.9497   51.2776   57.8603 C   0  0  0  0  0  0  0  0  0  0  0  0
   68.8051   50.6034   58.2695 C   0  0  0  0  0  0  0  0  0  0  0  0
   67.6180   50.6824   57.5715 C   0  0  0  0  0  0  0  0  0  0  0  0
   67.5976   51.4622   56.4347 C   0  0  0  0  0  0  0  0  0  0  0  0
   68.7278   52.1256   56.0342 C   0  0  0  0  0  0  0  0  0  0  0  0
   68.6540   52.8836   54.9049 F   0  0  0  0  0  0  0  0  0  0  0  0
  1  2  2  0
  2 14  1  0
  2  3  1  0
 14 15  1  0
 15 16  1  0
 16 17  1  0
 17 18  1  0
 18 19  2  0
 18 23  1  0
 19 20  1  0
 20 21  2  0
 21 22  1  0
 22 23  2  0
 23 24  1  0
  3  4  2  0
  3 13  1  0
  4  5  1  0
  5  6  2  0
  5  7  1  0
  7  8  1  0
  8  9  1  0
  8 13  2  0
  9 10  2  0
 10 11  1  0
 11 12  2  0
 12 13  1  0
M  END
>  <minimizedAffinity>  (510) 
-8.62648

$$$$
cs_full_output_folder/data/smiles/5021.pdb
     RDKit          3D

 24 26  0  0  0  0  0  0  0  0999 V2000
   69.9388   47.9215   57.4889 N   0  0  0  0  0  0  0  0  0  0  0  0
   70.5616   47.4145   58.4116 C   0  0  0  0  0  0  0  0  0  0  0  0
   71.5244   46.3226   58.4173 C   0  0  0  0  0  0  0  0  0  0  0  0
   72.8930   46.6162   58.4894 C   0  0  0  0  0  0  0  0  0  0  0  0
   73.8347   45.6387   58.4984 C   0  0  0  0  0  0  0  0  0  0  0  0
   73.5238   44.3117   58.4393 C   0  0  0  0  0  0  0  0  0  0  0  0
   74.5004   43.3492   58.4502 C   0  0  0  0  0  0  0  0  0  0  0  0
   74.1339   42.0170   58.3870 C   0  0  0  0  0  0  0  0  0  0  0  0
   72.7958   41.6579   58.3151 C   0  0  0  0  0  0  0  0  0  0  0  0
   71.8457   42.6584   58.3058 C   0  0  0  0  0  0  0  0  0  0  0  0
   72.1855   43.9885   58.3678 C   0  0  0  0  0  0  0  0  0  0  0  0
   71.2065   44.9872   58.3574 C   0  0  0  0  0  0  0  0  0  0  0  0
   69.9029   44.5734   58.2845 O   0  0  0  0  0  0  0  0  0  0  0  0
   68.3162   46.0717   56.2598 O   0  0  0  0  0  0  0  0  0  0  0  0
   68.8860   46.8998   55.5143 C   0  0  0  0  0  0  0  0  0  0  0  0
   69.7365   47.8675   56.1692 N   0  0  0  0  0  0  0  0  0  0  0  0
   68.6821   46.8585   54.0878 C   0  0  0  0  0  0  0  0  0  0  0  0
   67.8163   46.0318   53.4379 C   0  0  0  0  0  0  0  0  0  0  0  0
   67.7260   46.1025   52.0568 C   0  0  0  0  0  0  0  0  0  0  0  0
   68.4805   46.9789   51.3048 C   0  0  0  0  0  0  0  0  0  0  0  0
   69.3638   47.8238   51.9438 C   0  0  0  0  0  0  0  0  0  0  0  0
   69.4422   47.7427   53.3116 C   0  0  0  0  0  0  0  0  0  0  0  0
   70.1682   48.7489   51.2178 N   0  0  0  0  0  0  0  0  0  0  0  0
   69.7303   49.9730   50.8978 O   0  0  0  0  0  0  0  0  0  0  0  0
 14 15  2  0
 15 16  1  0
 15 17  1  0
 16  1  1  0
  1  2  2  0
  2  3  1  0
  3  4  2  0
  3 12  1  0
  4  5  1  0
  5  6  2  0
  6  7  1  0
  6 11  1  0
  7  8  2  0
  8  9  1  0
  9 10  2  0
 10 11  1  0
 11 12  2  0
 12 13  1  0
 17 18  2  0
 17 22  1  0
 18 19  1  0
 19 20  2  0
 20 21  1  0
 21 23  1  0
 21 22  2  0
 23 24  1  0
M  END
>  <minimizedAffinity>  (511) 
-8.62606

$$$$
cs_full_output_folder/data/smiles/2557.pdb
     RDKit          3D

 22 24  0  0  0  0  0  0  0  0999 V2000
   71.7057   49.7526   53.7371 O   0  0  0  0  0  0  0  0  0  0  0  0
   70.4259   49.9081   53.9031 C   0  0  0  0  0  0  0  0  0  0  0  0
   69.9788   51.1261   54.3883 N   0  0  0  0  0  0  0  0  0  0  0  0
   70.9430   52.1061   54.8616 C   0  0  0  0  0  0  0  0  0  0  0  0
   72.1566   52.2313   54.2318 C   0  0  0  0  0  0  0  0  0  0  0  0
   73.0502   53.1619   54.7389 C   0  0  0  0  0  0  0  0  0  0  0  0
   72.7286   53.9341   55.8370 C   0  0  0  0  0  0  0  0  0  0  0  0
   73.6486   54.8459   56.3063 F   0  0  0  0  0  0  0  0  0  0  0  0
   71.5038   53.8040   56.4648 C   0  0  0  0  0  0  0  0  0  0  0  0
   70.6053   52.8873   55.9786 C   0  0  0  0  0  0  0  0  0  0  0  0
   69.3007   52.7268   56.6215 C   0  0  0  0  0  0  0  0  0  0  0  0
   68.3898   51.6967   56.0268 C   0  0  0  0  0  0  0  0  0  0  0  0
   68.6086   51.6215   54.5076 C   0  0  1  0  0  0  0  0  0  0  0  0
   68.5458   53.0084   54.1430 O   0  0  0  0  0  0  0  0  0  0  0  0
   69.6744   48.7260   53.5306 C   0  0  0  0  0  0  0  0  0  0  0  0
   69.0137   47.9397   54.4190 C   0  0  0  0  0  0  0  0  0  0  0  0
   68.3416   46.7664   54.0507 C   0  0  0  0  0  0  0  0  0  0  0  0
   68.3424   46.3810   52.7491 C   0  0  0  0  0  0  0  0  0  0  0  0
   67.6739   45.2163   52.3924 O   0  0  0  0  0  0  0  0  0  0  0  0
   68.9920   47.1337   51.8242 C   0  0  0  0  0  0  0  0  0  0  0  0
   69.6403   48.2735   52.2032 C   0  0  0  0  0  0  0  0  0  0  0  0
   70.2867   49.0152   51.2524 O   0  0  0  0  0  0  0  0  0  0  0  0
  1  2  2  0
  2 15  1  0
  2  3  1  0
 15 16  2  0
 15 21  1  0
 16 17  1  0
 17 18  2  0
 18 19  1  0
 18 20  1  0
 20 21  2  0
 21 22  1  0
  3  4  1  0
  3 13  1  0
  4  5  2  0
  4 10  1  0
  5  6  1  0
  6  7  2  0
  7  8  1  0
  7  9  1  0
  9 10  2  0
 10 11  1  0
 11 12  1  0
 12 13  1  0
 13 14  1  1
M  END
>  <minimizedAffinity>  (512) 
-8.62555

$$$$
cs_full_output_folder/data/smiles/4936.pdb
     RDKit          3D

 26 29  0  0  0  0  0  0  0  0999 V2000
   70.9077   49.4996   58.4029 C   0  0  0  0  0  0  0  0  0  0  0  0
   70.1153   50.5980   58.6748 C   0  0  0  0  0  0  0  0  0  0  0  0
   68.8969   50.7974   58.0675 C   0  0  0  0  0  0  0  0  0  0  0  0
   68.4729   49.8344   57.1453 C   0  0  0  0  0  0  0  0  0  0  0  0
   69.2559   48.7416   56.8730 C   0  0  0  0  0  0  0  0  0  0  0  0
   70.4528   48.6136   57.5164 N   0  0  0  0  0  0  0  0  0  0  0  0
   68.8798   47.6857   55.9565 C   0  0  0  0  0  0  0  0  0  0  0  0
   68.4423   46.4856   56.4660 N   0  0  0  0  0  0  0  0  0  0  0  0
   68.0796   45.4962   55.6743 N   0  0  0  0  0  0  0  0  0  0  0  0
   68.1093   45.5882   54.3340 C   0  0  0  0  0  0  0  0  0  0  0  0
   67.7398   44.5774   53.6613 O   0  0  0  0  0  0  0  0  0  0  0  0
   68.5314   46.7500   53.7472 C   0  0  0  0  0  0  0  0  0  0  0  0
   68.9151   47.7965   54.6063 C   0  0  0  0  0  0  0  0  0  0  0  0
   69.3062   49.0534   53.9388 C   0  0  0  0  0  0  0  0  0  0  0  0
   70.2937   48.6111   52.8442 C   0  0  0  0  0  0  0  0  0  0  0  0
   69.5540   47.8679   51.7657 C   0  0  0  0  0  0  0  0  0  0  0  0
   68.5799   46.8671   52.2748 C   0  0  0  0  0  0  0  0  0  0  0  0
   71.3552   47.6503   60.3420 O   0  0  0  0  0  0  0  0  0  0  0  0
   72.3584   48.3893   60.0806 C   0  0  0  0  0  0  0  0  0  0  0  0
   72.1672   49.3634   59.0780 N   0  0  0  0  0  0  0  0  0  0  0  0
   73.6077   48.1959   60.8062 C   0  0  0  0  0  0  0  0  0  0  0  0
   73.6401   47.7799   62.1190 C   0  0  0  0  0  0  0  0  0  0  0  0
   74.7988   47.5889   62.8321 C   0  0  0  0  0  0  0  0  0  0  0  0
   76.0059   47.8258   62.2046 C   0  0  0  0  0  0  0  0  0  0  0  0
   76.0269   48.2445   60.8923 C   0  0  0  0  0  0  0  0  0  0  0  0
   74.8274   48.4234   60.2123 C   0  0  0  0  0  0  0  0  0  0  0  0
 18 19  2  0
 19 20  1  0
 19 21  1  0
 20  1  1  0
  1  2  2  0
  1  6  1  0
  2  3  1  0
  3  4  2  0
  4  5  1  0
  5  7  1  0
  5  6  2  0
  7  8  2  0
  7 13  1  0
  8  9  1  0
  9 10  1  0
 10 11  2  0
 10 12  1  0
 12 13  2  0
 12 17  1  0
 13 14  1  0
 14 15  1  0
 15 16  1  0
 16 17  1  0
 21 22  2  0
 21 26  1  0
 22 23  1  0
 23 24  2  0
 24 25  1  0
 25 26  2  0
M  END
>  <minimizedAffinity>  (513) 
-8.62466

$$$$
cs_full_output_folder/data/smiles/6798.pdb
     RDKit          3D

 23 25  0  0  0  0  0  0  0  0999 V2000
   67.6576   44.8807   53.9707 O   0  0  0  0  0  0  0  0  0  0  0  0
   68.2722   45.5257   54.8561 C   0  0  0  0  0  0  0  0  0  0  0  0
   68.4883   44.8977   56.1056 N   0  0  0  0  0  0  0  0  0  0  0  0
   68.0540   43.6021   56.3968 N   0  0  0  0  0  0  0  0  0  0  0  0
   68.7231   42.7797   57.1337 C   0  0  0  0  0  0  0  0  0  0  0  0
   68.1951   41.4455   57.3857 C   0  0  0  0  0  0  0  0  0  0  0  0
   69.1898   40.4246   57.8046 C   0  0  0  0  0  0  0  0  0  0  0  0
   70.4240   40.9877   58.4531 C   0  0  1  0  0  0  0  0  0  0  0  0
   71.4792   39.9369   58.5949 C   0  0  0  0  0  0  0  0  0  0  0  0
   72.5822   40.5026   59.4547 C   0  0  0  0  0  0  0  0  0  0  0  0
   72.9036   41.9242   59.1690 C   0  0  0  0  0  0  0  0  0  0  0  0
   72.3865   42.4394   57.8655 C   0  0  0  0  0  0  0  0  0  0  0  0
   70.9735   42.0753   57.5621 C   0  0  2  0  0  0  0  0  0  0  0  0
   70.0175   43.2478   57.6920 C   0  0  0  0  0  0  0  0  0  0  0  0
   68.7192   46.8820   54.5292 C   0  0  0  0  0  0  0  0  0  0  0  0
   68.7599   47.8817   55.4764 C   0  0  0  0  0  0  0  0  0  0  0  0
   69.1784   49.1649   55.1841 C   0  0  0  0  0  0  0  0  0  0  0  0
   69.5649   49.4364   53.8960 C   0  0  0  0  0  0  0  0  0  0  0  0
   69.5420   48.4659   52.9079 C   0  0  0  0  0  0  0  0  0  0  0  0
   69.1176   47.2076   53.2525 C   0  0  0  0  0  0  0  0  0  0  0  0
   69.9533   48.7919   51.5804 N   0  0  0  0  0  0  0  0  0  0  0  0
   70.5196   47.9470   50.8873 O   0  0  0  0  0  0  0  0  0  0  0  0
   69.7146   50.0304   51.1003 O   0  0  0  0  0  0  0  0  0  0  0  0
  1  2  2  0
  2  3  1  0
  2 15  1  0
  3  4  1  0
  4  5  2  0
  5  6  1  0
  5 14  1  0
  6  7  1  0
  8  7  1  6
  8  9  1  0
  8 13  1  0
  9 10  1  0
 10 11  1  0
 11 12  1  0
 13 12  1  1
 13 14  1  0
 15 16  2  0
 15 20  1  0
 16 17  1  0
 17 18  2  0
 18 19  1  0
 19 21  1  0
 19 20  2  0
 21 22  2  0
 21 23  1  0
M  CHG  2  21   1  23  -1
M  END
>  <minimizedAffinity>  (514) 
-8.62363

$$$$
cs_full_output_folder/data/smiles/3799.pdb
     RDKit          3D

 24 26  0  0  0  0  0  0  0  0999 V2000
   69.7181   45.8630   57.6427 N   0  0  0  0  0  0  0  0  0  0  0  0
   70.4416   45.6043   58.5808 C   0  0  0  0  0  0  0  0  0  0  0  0
   71.8556   45.2750   58.6238 C   0  0  0  0  0  0  0  0  0  0  0  0
   72.7825   46.2187   59.0994 C   0  0  0  0  0  0  0  0  0  0  0  0
   74.1307   45.9594   59.1609 C   0  0  0  0  0  0  0  0  0  0  0  0
   74.6626   44.7581   58.7607 C   0  0  0  0  0  0  0  0  0  0  0  0
   76.0145   44.4902   58.8191 C   0  0  0  0  0  0  0  0  0  0  0  0
   76.5404   43.2809   58.4147 C   0  0  0  0  0  0  0  0  0  0  0  0
   75.6638   42.3298   57.9413 C   0  0  0  0  0  0  0  0  0  0  0  0
   74.2995   42.6069   57.8847 C   0  0  0  0  0  0  0  0  0  0  0  0
   73.7838   43.8162   58.2903 C   0  0  0  0  0  0  0  0  0  0  0  0
   72.4151   44.0866   58.2317 C   0  0  0  0  0  0  0  0  0  0  0  0
   71.6316   43.0797   57.7474 O   0  0  0  0  0  0  0  0  0  0  0  0
   68.6565   46.6512   55.5869 C   0  0  0  0  0  0  0  0  0  0  0  0
   67.7159   47.1015   56.3259 O   0  0  0  0  0  0  0  0  0  0  0  0
   69.7079   45.9970   56.3214 N   0  0  0  0  0  0  0  0  0  0  0  0
   69.3760   47.8342   52.0973 C   0  0  0  0  0  0  0  0  0  0  0  0
   68.5467   47.0193   51.3590 C   0  0  0  0  0  0  0  0  0  0  0  0
   67.7551   46.0853   51.9912 C   0  0  0  0  0  0  0  0  0  0  0  0
   67.8209   45.9995   53.3581 C   0  0  0  0  0  0  0  0  0  0  0  0
   68.6411   46.7990   54.1553 C   0  0  0  0  0  0  0  0  0  0  0  0
   69.4177   47.7177   53.5001 C   0  0  0  0  0  0  0  0  0  0  0  0
   69.7214   49.7777   50.8238 O   0  0  0  0  0  0  0  0  0  0  0  0
   70.1884   48.7935   51.4315 N   0  0  0  0  0  0  0  0  0  0  0  0
 23 24  2  0
 24 17  1  0
 17 18  2  0
 17 22  1  0
 18 19  1  0
 19 20  2  0
 20 21  1  0
 21 14  1  0
 21 22  2  0
 14 15  2  0
 14 16  1  0
 16  1  1  0
  1  2  2  0
  2  3  1  0
  3  4  2  0
  3 12  1  0
  4  5  1  0
  5  6  2  0
  6  7  1  0
  6 11  1  0
  7  8  2  0
  8  9  1  0
  9 10  2  0
 10 11  1  0
 11 12  2  0
 12 13  1  0
M  END
>  <minimizedAffinity>  (515) 
-8.62308

$$$$
cs_full_output_folder/data/smiles/2585.pdb
     RDKit          3D

 24 27  0  0  0  0  0  0  0  0999 V2000
   71.1488   46.0581   58.2667 C   0  0  0  0  0  0  0  0  0  0  0  0
   72.0859   46.8774   58.8775 C   0  0  0  0  0  0  0  0  0  0  0  0
   72.0168   48.2449   58.7096 C   0  0  0  0  0  0  0  0  0  0  0  0
   71.0016   48.8144   57.9257 C   0  0  0  0  0  0  0  0  0  0  0  0
   70.0605   48.0290   57.3089 C   0  0  0  0  0  0  0  0  0  0  0  0
   70.1797   46.6511   57.5132 C   0  0  0  0  0  0  0  0  0  0  0  0
   69.3602   44.0278   59.7060 O   0  0  0  0  0  0  0  0  0  0  0  0
   70.3292   43.7140   58.9515 C   0  0  0  0  0  0  0  0  0  0  0  0
   70.6626   42.3390   58.4534 C   0  0  0  0  0  0  0  0  0  0  0  0
   71.9342   42.5483   57.6675 C   0  0  0  0  0  0  0  0  0  0  0  0
   72.4671   43.8840   58.1624 C   0  0  0  0  0  0  0  0  0  0  0  0
   71.2544   44.6527   58.4649 N   0  0  0  0  0  0  0  0  0  0  0  0
   68.9663   48.5720   56.4567 C   0  0  0  0  0  0  0  0  0  0  0  0
   69.4048   48.5268   55.0597 C   0  0  0  0  0  0  0  0  0  0  0  0
   70.3598   49.4179   54.6551 N   0  0  0  0  0  0  0  0  0  0  0  0
   70.8018   49.4619   53.4134 N   0  0  0  0  0  0  0  0  0  0  0  0
   70.3133   48.6151   52.5047 C   0  0  0  0  0  0  0  0  0  0  0  0
   70.7483   48.6704   51.3179 O   0  0  0  0  0  0  0  0  0  0  0  0
   69.3344   47.6624   52.8067 C   0  0  0  0  0  0  0  0  0  0  0  0
   68.9041   47.6625   54.1401 C   0  0  0  0  0  0  0  0  0  0  0  0
   67.8770   46.6830   54.5772 C   0  0  0  0  0  0  0  0  0  0  0  0
   68.0348   45.4699   53.6406 C   0  0  0  0  0  0  0  0  0  0  0  0
   67.6335   46.0182   52.2697 C   0  0  0  0  0  0  0  0  0  0  0  0
   68.8392   46.7580   51.7524 C   0  0  0  0  0  0  0  0  0  0  0  0
  7  8  2  0
  8  9  1  0
  8 12  1  0
  9 10  1  0
 10 11  1  0
 11 12  1  0
 12  1  1  0
  1  2  2  0
  1  6  1  0
  2  3  1  0
  3  4  2  0
  4  5  1  0
  5 13  1  0
  5  6  2  0
 13 14  1  0
 14 15  2  0
 14 20  1  0
 15 16  1  0
 16 17  1  0
 17 18  2  0
 17 19  1  0
 19 20  2  0
 19 24  1  0
 20 21  1  0
 21 22  1  0
 22 23  1  0
 23 24  1  0
M  END
>  <minimizedAffinity>  (516) 
-8.62271

$$$$
cs_full_output_folder/data/smiles/1593.pdb
     RDKit          3D

 21 22  0  0  0  0  0  0  0  0999 V2000
   68.9227   46.8629   57.2643 N   0  0  0  0  0  0  0  0  0  0  0  0
   68.4506   47.5243   56.3221 C   0  0  0  0  0  0  0  0  0  0  0  0
   68.5676   47.3355   54.8906 C   0  0  0  0  0  0  0  0  0  0  0  0
   67.9606   46.2194   54.3125 C   0  0  0  0  0  0  0  0  0  0  0  0
   68.0576   46.0220   52.9660 C   0  0  0  0  0  0  0  0  0  0  0  0
   68.7363   46.8756   52.1111 C   0  0  0  0  0  0  0  0  0  0  0  0
   69.3326   47.9679   52.6620 C   0  0  0  0  0  0  0  0  0  0  0  0
   69.2384   48.1790   54.0399 C   0  0  0  0  0  0  0  0  0  0  0  0
   70.0480   48.8858   51.8313 N   0  0  0  0  0  0  0  0  0  0  0  0
   70.6962   48.4975   50.8318 O   0  0  0  0  0  0  0  0  0  0  0  0
   70.0527   50.2180   52.0962 O   0  0  0  0  0  0  0  0  0  0  0  0
   70.7558   46.2173   59.1543 O   0  0  0  0  0  0  0  0  0  0  0  0
   70.6773   45.3986   58.2020 C   0  0  0  0  0  0  0  0  0  0  0  0
   69.7001   45.7490   57.2007 N   0  0  0  0  0  0  0  0  0  0  0  0
   71.5049   44.2041   58.1237 C   0  0  0  0  0  0  0  0  0  0  0  0
   72.8545   44.1932   57.8789 C   0  0  0  0  0  0  0  0  0  0  0  0
   73.6030   43.0357   57.8126 C   0  0  0  0  0  0  0  0  0  0  0  0
   72.9225   41.8430   58.0082 C   0  0  0  0  0  0  0  0  0  0  0  0
   71.5848   41.7877   58.2542 C   0  0  0  0  0  0  0  0  0  0  0  0
   70.7039   40.1183   58.5148 Br  0  0  0  0  0  0  0  0  0  0  0  0
   70.8851   42.9918   58.3091 C   0  0  0  0  0  0  0  0  0  0  0  0
 12 13  2  0
 13 14  1  0
 13 15  1  0
 14  1  1  0
  1  2  2  0
  2  3  1  0
  3  4  2  0
  3  8  1  0
  4  5  1  0
  5  6  2  0
  6  7  1  0
  7  9  1  0
  7  8  2  0
  9 10  2  0
  9 11  1  0
 15 16  2  0
 15 21  1  0
 16 17  1  0
 17 18  2  0
 18 19  1  0
 19 20  1  0
 19 21  2  0
M  CHG  2   9   1  11  -1
M  END
>  <minimizedAffinity>  (517) 
-8.62243

$$$$
cs_full_output_folder/data/smiles/3343.pdb
     RDKit          3D

 24 26  0  0  0  0  0  0  0  0999 V2000
   69.4255   48.6025   56.6018 C   0  0  0  0  0  0  0  0  0  0  0  0
   68.4557   49.3871   57.0101 O   0  0  0  0  0  0  0  0  0  0  0  0
   69.7906   48.8020   55.2350 C   0  0  0  0  0  0  0  0  0  0  0  0
   70.7595   49.7582   54.8497 C   0  0  0  0  0  0  0  0  0  0  0  0
   70.9679   49.6468   53.5347 N   0  0  0  0  0  0  0  0  0  0  0  0
   70.1879   48.6746   53.0500 C   0  0  0  0  0  0  0  0  0  0  0  0
   70.0235   48.1956   51.7706 C   0  0  0  0  0  0  0  0  0  0  0  0
   69.1227   47.1773   51.4801 C   0  0  0  0  0  0  0  0  0  0  0  0
   68.3740   46.6312   52.4969 C   0  0  0  0  0  0  0  0  0  0  0  0
   68.5584   47.1291   53.7724 C   0  0  0  0  0  0  0  0  0  0  0  0
   69.4404   48.1322   54.0979 C   0  0  0  0  0  0  0  0  0  0  0  0
   67.4318   45.5814   52.2477 N   0  0  0  0  0  0  0  0  0  0  0  0
   67.2474   44.6984   53.0933 O   0  0  0  0  0  0  0  0  0  0  0  0
   66.7297   45.5406   51.0809 O   0  0  0  0  0  0  0  0  0  0  0  0
   70.7735   47.9919   58.4724 O   0  0  0  0  0  0  0  0  0  0  0  0
   69.9251   47.7123   57.6086 C   0  0  0  0  0  0  0  0  0  0  0  0
   69.4163   46.3399   57.6540 N   0  0  0  0  0  0  0  0  0  0  0  0
   69.8841   45.4652   58.6153 N   0  0  0  0  0  0  0  0  0  0  0  0
   70.7763   44.4270   58.2932 C   0  0  0  0  0  0  0  0  0  0  0  0
   72.1295   44.7545   58.2280 C   0  0  0  0  0  0  0  0  0  0  0  0
   73.0437   43.7761   57.9178 C   0  0  0  0  0  0  0  0  0  0  0  0
   72.6396   42.4933   57.6737 C   0  0  0  0  0  0  0  0  0  0  0  0
   71.3151   42.1576   57.7343 C   0  0  0  0  0  0  0  0  0  0  0  0
   70.3692   43.1393   58.0485 C   0  0  0  0  0  0  0  0  0  0  0  0
 15 16  2  0
 16 17  1  0
 16  1  1  0
 17 18  1  0
 18 19  1  0
 19 20  2  0
 19 24  1  0
 20 21  1  0
 21 22  2  0
 22 23  1  0
 23 24  2  0
  1  2  2  0
  1  3  1  0
  3  4  2  0
  3 11  1  0
  4  5  1  0
  5  6  1  0
  6  7  1  0
  6 11  2  0
  7  8  2  0
  8  9  1  0
  9 12  1  0
  9 10  2  0
 12 13  2  0
 12 14  1  0
 10 11  1  0
M  CHG  2  12   1  14  -1
M  END
>  <minimizedAffinity>  (518) 
-8.62220

$$$$
cs_full_output_folder/data/smiles/2691.pdb
     RDKit          3D

 25 27  0  0  0  0  0  0  0  0999 V2000
   70.0111   44.9430   57.7688 C   0  0  0  0  0  0  0  0  0  0  0  0
   69.7554   45.7138   58.7434 O   0  0  0  0  0  0  0  0  0  0  0  0
   69.5359   45.3048   56.4933 N   0  0  0  0  0  0  0  0  0  0  0  0
   68.7904   42.1165   58.0587 C   0  0  0  0  0  0  0  0  0  0  0  0
   70.2452   42.4299   58.1204 C   0  0  0  0  0  0  0  0  0  0  0  0
   70.7882   43.7033   58.0012 C   0  0  0  0  0  0  0  0  0  0  0  0
   72.1439   43.5413   58.1265 C   0  0  0  0  0  0  0  0  0  0  0  0
   72.3896   42.2491   58.3082 N   0  0  0  0  0  0  0  0  0  0  0  0
   71.2522   41.5675   58.3062 N   0  0  0  0  0  0  0  0  0  0  0  0
   71.1725   40.1514   58.4712 C   0  0  0  0  0  0  0  0  0  0  0  0
   72.3010   39.3479   58.5056 C   0  0  0  0  0  0  0  0  0  0  0  0
   72.2422   37.9793   58.6661 C   0  0  0  0  0  0  0  0  0  0  0  0
   71.0013   37.3950   58.7968 C   0  0  0  0  0  0  0  0  0  0  0  0
   69.8815   38.1967   58.7620 C   0  0  0  0  0  0  0  0  0  0  0  0
   69.9937   39.5218   58.6038 N   0  0  0  0  0  0  0  0  0  0  0  0
   68.7661   46.4846   56.1922 C   0  0  0  0  0  0  0  0  0  0  0  0
   68.6708   46.6421   54.7240 C   0  0  0  0  0  0  0  0  0  0  0  0
   67.9683   45.7621   53.9456 C   0  0  0  0  0  0  0  0  0  0  0  0
   67.8972   45.8970   52.5564 C   0  0  0  0  0  0  0  0  0  0  0  0
   68.5398   46.9316   51.9333 C   0  0  0  0  0  0  0  0  0  0  0  0
   69.2546   47.8338   52.6993 C   0  0  0  0  0  0  0  0  0  0  0  0
   69.3081   47.6753   54.0723 C   0  0  0  0  0  0  0  0  0  0  0  0
   69.9327   48.9187   52.0096 C   0  0  0  0  0  0  0  0  0  0  0  0
   69.9306   50.2398   52.5054 N   0  0  0  0  0  0  0  0  0  0  0  0
   70.5559   48.7017   50.9201 O   0  0  0  0  0  0  0  0  0  0  0  0
  4  5  1  0
  5  6  2  0
  5  9  1  0
  6  1  1  0
  6  7  1  0
  1  2  2  0
  1  3  1  0
  3 16  1  0
 16 17  1  0
 17 18  2  0
 17 22  1  0
 18 19  1  0
 19 20  2  0
 20 21  1  0
 21 23  1  0
 21 22  2  0
 23 24  1  0
 23 25  2  0
  7  8  2  0
  8  9  1  0
  9 10  1  0
 10 11  2  0
 10 15  1  0
 11 12  1  0
 12 13  2  0
 13 14  1  0
 14 15  2  0
M  END
>  <minimizedAffinity>  (519) 
-8.61897

$$$$
cs_full_output_folder/data/smiles/3039.pdb
     RDKit          3D

 24 26  0  0  0  0  0  0  0  0999 V2000
   68.3874   46.0061   56.0488 O   0  0  0  0  0  0  0  0  0  0  0  0
   68.1523   45.3854   54.9999 C   0  0  0  0  0  0  0  0  0  0  0  0
   67.7907   43.9837   55.2515 N   0  0  0  0  0  0  0  0  0  0  0  0
   68.1983   45.8721   53.6555 C   0  0  0  0  0  0  0  0  0  0  0  0
   67.5125   45.1365   52.8190 O   0  0  0  0  0  0  0  0  0  0  0  0
   68.8382   47.0040   53.0339 C   0  0  0  0  0  0  0  0  0  0  0  0
   69.3452   46.9719   51.7068 C   0  0  0  0  0  0  0  0  0  0  0  0
   69.8038   48.1693   51.4139 N   0  0  0  0  0  0  0  0  0  0  0  0
   69.6514   49.0179   52.4370 C   0  0  0  0  0  0  0  0  0  0  0  0
   70.0020   50.3698   52.5749 C   0  0  0  0  0  0  0  0  0  0  0  0
   69.7545   51.0324   53.7504 C   0  0  0  0  0  0  0  0  0  0  0  0
   69.1610   50.3126   54.7511 C   0  0  0  0  0  0  0  0  0  0  0  0
   68.8117   48.9686   54.6170 C   0  0  0  0  0  0  0  0  0  0  0  0
   69.0514   48.2973   53.4483 C   0  0  0  0  0  0  0  0  0  0  0  0
   67.7611   43.5569   56.5765 N   0  0  0  0  0  0  0  0  0  0  0  0
   68.2655   42.3184   57.0402 C   0  0  0  0  0  0  0  0  0  0  0  0
   67.7175   41.1240   56.6727 C   0  0  0  0  0  0  0  0  0  0  0  0
   68.2489   39.9397   57.1564 C   0  0  0  0  0  0  0  0  0  0  0  0
   69.3333   39.9165   58.0139 C   0  0  0  0  0  0  0  0  0  0  0  0
   69.8810   41.1188   58.3824 C   0  0  0  0  0  0  0  0  0  0  0  0
   69.3461   42.3137   57.8944 C   0  0  0  0  0  0  0  0  0  0  0  0
   69.9300   43.5490   58.2918 N   0  0  0  0  0  0  0  0  0  0  0  0
   70.7948   44.1318   57.6397 O   0  0  0  0  0  0  0  0  0  0  0  0
   69.5191   44.1391   59.4681 O   0  0  0  0  0  0  0  0  0  0  0  0
  1  2  2  0
  2  3  1  0
  2  4  1  0
  3 15  1  0
 15 16  1  0
 16 17  2  0
 16 21  1  0
 17 18  1  0
 18 19  2  0
 19 20  1  0
 20 21  2  0
 21 22  1  0
 22 23  2  0
 22 24  1  0
  4  5  2  0
  4  6  1  0
  6  7  2  0
  6 14  1  0
  7  8  1  0
  8  9  1  0
  9 10  1  0
  9 14  2  0
 10 11  2  0
 11 12  1  0
 12 13  2  0
 13 14  1  0
M  CHG  2  22   1  24  -1
M  END
>  <minimizedAffinity>  (520) 
-8.61795

$$$$
cs_full_output_folder/data/smiles/8177.pdb
     RDKit          3D

 26 28  0  0  0  0  0  0  0  0999 V2000
   69.3287   49.2553   56.8786 C   0  0  0  0  0  0  0  0  0  0  0  0
   68.8227   50.0902   57.8783 C   0  0  0  0  0  0  0  0  0  0  0  0
   68.2334   51.2832   57.6336 C   0  0  0  0  0  0  0  0  0  0  0  0
   68.1139   51.7231   56.3412 C   0  0  0  0  0  0  0  0  0  0  0  0
   68.5953   50.9410   55.3217 C   0  0  0  0  0  0  0  0  0  0  0  0
   69.2050   49.7064   55.5893 C   0  0  0  0  0  0  0  0  0  0  0  0
   69.1890   46.7605   57.4564 N   0  0  0  0  0  0  0  0  0  0  0  0
   69.8717   47.9930   57.3019 C   0  0  0  0  0  0  0  0  0  0  0  0
   71.1158   47.9497   57.5755 O   0  0  0  0  0  0  0  0  0  0  0  0
   68.7757   44.2952   56.3609 O   0  0  0  0  0  0  0  0  0  0  0  0
   69.6430   44.3361   57.2894 C   0  0  0  0  0  0  0  0  0  0  0  0
   69.8949   45.5947   57.8892 N   0  0  0  0  0  0  0  0  0  0  0  0
   70.3079   43.0943   57.6685 C   0  0  0  0  0  0  0  0  0  0  0  0
   69.5684   41.9513   57.9104 C   0  0  0  0  0  0  0  0  0  0  0  0
   70.0936   40.7545   58.2771 C   0  0  0  0  0  0  0  0  0  0  0  0
   71.4554   40.6648   58.4184 C   0  0  0  0  0  0  0  0  0  0  0  0
   72.2370   41.7694   58.1886 C   0  0  0  0  0  0  0  0  0  0  0  0
   71.6554   42.9689   57.8171 C   0  0  0  0  0  0  0  0  0  0  0  0
   69.7529   48.9675   54.5209 C   0  0  0  0  0  0  0  0  0  0  0  0
   70.9712   49.1769   54.1895 O   0  0  0  0  0  0  0  0  0  0  0  0
   69.0798   47.9572   53.7176 C   0  0  0  0  0  0  0  0  0  0  0  0
   69.3186   47.9034   52.3263 C   0  0  0  0  0  0  0  0  0  0  0  0
   68.7516   46.8881   51.5826 C   0  0  0  0  0  0  0  0  0  0  0  0
   67.9583   45.9074   52.0948 C   0  0  0  0  0  0  0  0  0  0  0  0
   67.7170   45.9553   53.4698 C   0  0  0  0  0  0  0  0  0  0  0  0
   68.2830   46.9746   54.2364 C   0  0  0  0  0  0  0  0  0  0  0  0
 10 11  2  0
 11 12  1  0
 11 13  1  0
 12  7  1  0
  7  8  1  0
  8  9  2  0
  8  1  1  0
  1  2  2  0
  1  6  1  0
  2  3  1  0
  3  4  2  0
  4  5  1  0
  5  6  2  0
  6 19  1  0
 19 20  2  0
 19 21  1  0
 21 22  2  0
 21 26  1  0
 22 23  1  0
 23 24  2  0
 24 25  1  0
 25 26  2  0
 13 14  2  0
 13 18  1  0
 14 15  1  0
 15 16  2  0
 16 17  1  0
 17 18  2  0
M  END
>  <minimizedAffinity>  (521) 
-8.61762

$$$$
cs_full_output_folder/data/smiles/3186.pdb
     RDKit          3D

 22 23  0  0  0  0  0  0  0  0999 V2000
   70.6322   49.8008   53.0445 O   0  0  0  0  0  0  0  0  0  0  0  0
   70.0943   48.8702   52.1827 C   0  0  0  0  0  0  0  0  0  0  0  0
   70.3278   49.0265   50.9572 O   0  0  0  0  0  0  0  0  0  0  0  0
   69.2851   47.7378   52.6273 C   0  0  0  0  0  0  0  0  0  0  0  0
   68.6157   46.9613   51.7070 C   0  0  0  0  0  0  0  0  0  0  0  0
   67.8359   45.8748   52.1038 C   0  0  0  0  0  0  0  0  0  0  0  0
   67.7407   45.5811   53.4373 C   0  0  0  0  0  0  0  0  0  0  0  0
   68.3989   46.3361   54.4116 C   0  0  0  0  0  0  0  0  0  0  0  0
   69.1490   47.3910   53.9526 C   0  0  0  0  0  0  0  0  0  0  0  0
   68.2761   46.0028   55.7840 N   0  0  0  0  0  0  0  0  0  0  0  0
   68.4186   44.8342   56.1661 O   0  0  0  0  0  0  0  0  0  0  0  0
   67.9975   46.9629   56.7112 O   0  0  0  0  0  0  0  0  0  0  0  0
   69.9517   51.0257   53.3708 C   0  0  0  0  0  0  0  0  0  0  0  0
   72.1016   52.5780   56.1414 C   0  0  0  0  0  0  0  0  0  0  0  0
   71.4631   52.0644   54.9142 C   0  0  0  0  0  0  0  0  0  0  0  0
   70.3472   51.4275   54.7732 C   0  0  0  0  0  0  0  0  0  0  0  0
   69.4412   51.0657   55.8364 C   0  0  0  0  0  0  0  0  0  0  0  0
   69.5126   50.1960   56.8220 C   0  0  0  0  0  0  0  0  0  0  0  0
   68.3350   50.1784   57.6642 C   0  0  0  0  0  0  0  0  0  0  0  0
   67.5030   51.0731   57.1774 C   0  0  0  0  0  0  0  0  0  0  0  0
   66.2811   51.3284   57.7260 F   0  0  0  0  0  0  0  0  0  0  0  0
   68.0778   51.7195   56.0080 C   0  0  0  0  0  0  0  0  0  0  0  0
 14 15  1  0
 15 16  2  0
 16 13  1  0
 16 17  1  0
 13  1  1  0
  1  2  1  0
  2  3  2  0
  2  4  1  0
  4  5  2  0
  4  9  1  0
  5  6  1  0
  6  7  2  0
  7  8  1  0
  8 10  1  0
  8  9  2  0
 10 11  2  0
 10 12  1  0
 17 18  2  0
 17 22  1  0
 18 19  1  0
 19 20  2  0
 20 21  1  0
 20 22  1  0
M  CHG  2  10   1  12  -1
M  END
>  <minimizedAffinity>  (522) 
-8.61654

$$$$
cs_full_output_folder/data/smiles/164.pdb
     RDKit          3D

 20 22  0  0  0  0  0  0  0  0999 V2000
   70.0257   49.1967   52.5028 S   0  0  0  0  0  0  0  0  0  0  0  0
   70.1874   49.1701   50.9809 O   0  0  0  0  0  0  0  0  0  0  0  0
   71.4613   49.1602   53.0272 O   0  0  0  0  0  0  0  0  0  0  0  0
   69.1878   47.7650   53.0196 C   0  0  0  0  0  0  0  0  0  0  0  0
   68.6081   46.9517   52.0601 C   0  0  0  0  0  0  0  0  0  0  0  0
   67.8933   45.8178   52.3845 C   0  0  0  0  0  0  0  0  0  0  0  0
   67.7737   45.5144   53.7240 C   0  0  0  0  0  0  0  0  0  0  0  0
   68.3562   46.3310   54.6930 C   0  0  0  0  0  0  0  0  0  0  0  0
   68.2706   46.0377   56.0683 N   0  0  0  0  0  0  0  0  0  0  0  0
   69.1370   47.2663   56.8853 S   0  0  0  0  0  0  0  0  0  0  0  0
   69.5989   48.1481   55.4205 N   0  0  0  0  0  0  0  0  0  0  0  0
   69.0350   47.4095   54.3681 C   0  0  0  0  0  0  0  0  0  0  0  0
   69.3435   50.6680   52.9609 N   0  0  0  0  0  0  0  0  0  0  0  0
   71.4896   53.7801   56.1113 C   0  0  0  0  0  0  0  0  0  0  0  0
   70.3348   52.8761   55.7531 C   0  0  0  0  0  0  0  0  0  0  0  0
   69.2567   52.7528   56.6150 C   0  0  0  0  0  0  0  0  0  0  0  0
   68.2087   51.9257   56.2764 C   0  0  0  0  0  0  0  0  0  0  0  0
   68.2368   51.2269   55.0897 C   0  0  0  0  0  0  0  0  0  0  0  0
   69.2786   51.3185   54.2127 C   0  0  0  0  0  0  0  0  0  0  0  0
   70.3312   52.1719   54.5880 C   0  0  0  0  0  0  0  0  0  0  0  0
 14 15  1  0
 15 16  2  0
 15 20  1  0
 16 17  1  0
 17 18  2  0
 18 19  1  0
 19 13  1  0
 19 20  2  0
 13  1  1  0
  1  2  2  0
  1  3  2  0
  1  4  1  0
  4  5  2  0
  4 12  1  0
  5  6  1  0
  6  7  2  0
  7  8  1  0
  8  9  2  0
  8 12  1  0
  9 10  1  0
 10 11  1  0
 11 12  2  0
M  END
>  <minimizedAffinity>  (523) 
-8.61613

$$$$
cs_full_output_folder/data/smiles/8313.pdb
     RDKit          3D

 23 25  0  0  0  0  0  0  0  0999 V2000
   71.8293   49.7951   55.1566 O   0  0  0  0  0  0  0  0  0  0  0  0
   70.9079   50.1819   54.3520 C   0  0  0  0  0  0  0  0  0  0  0  0
   70.5900   51.5592   54.3851 N   0  0  0  0  0  0  0  0  0  0  0  0
   70.2824   49.1983   53.4806 C   0  0  0  0  0  0  0  0  0  0  0  0
   70.5496   49.2738   52.1401 N   0  0  0  0  0  0  0  0  0  0  0  0
   70.0395   48.4185   51.2909 N   0  0  0  0  0  0  0  0  0  0  0  0
   69.2319   47.4121   51.6198 C   0  0  0  0  0  0  0  0  0  0  0  0
   68.7389   46.5904   50.8121 O   0  0  0  0  0  0  0  0  0  0  0  0
   68.9208   47.2707   52.9550 C   0  0  0  0  0  0  0  0  0  0  0  0
   68.1155   46.2360   53.3844 C   0  0  0  0  0  0  0  0  0  0  0  0
   67.8278   46.0730   54.7263 C   0  0  0  0  0  0  0  0  0  0  0  0
   68.3643   46.9685   55.6397 C   0  0  0  0  0  0  0  0  0  0  0  0
   69.1644   47.9962   55.2046 C   0  0  0  0  0  0  0  0  0  0  0  0
   69.4596   48.1788   53.8821 C   0  0  0  0  0  0  0  0  0  0  0  0
   71.1717   52.5322   55.2670 C   0  0  0  0  0  0  0  0  0  0  0  0
   70.5922   52.6930   56.6051 C   0  0  0  0  0  0  0  0  0  0  0  0
   69.5070   51.8961   57.0936 C   0  0  0  0  0  0  0  0  0  0  0  0
   68.1680   52.0538   56.7810 C   0  0  0  0  0  0  0  0  0  0  0  0
   67.1703   51.2312   57.2385 C   0  0  0  0  0  0  0  0  0  0  0  0
   67.4799   50.1811   58.0553 C   0  0  0  0  0  0  0  0  0  0  0  0
   66.5136   49.3558   58.5191 F   0  0  0  0  0  0  0  0  0  0  0  0
   68.7954   49.9752   58.3998 C   0  0  0  0  0  0  0  0  0  0  0  0
   69.7855   50.8048   57.9354 C   0  0  0  0  0  0  0  0  0  0  0  0
  1  2  2  0
  2  3  1  0
  2  4  1  0
  3 15  1  0
 15 16  1  0
 16 17  1  0
 17 18  2  0
 17 23  1  0
 18 19  1  0
 19 20  2  0
 20 21  1  0
 20 22  1  0
 22 23  2  0
  4  5  2  0
  4 14  1  0
  5  6  1  0
  6  7  1  0
  7  8  2  0
  7  9  1  0
  9 10  1  0
  9 14  2  0
 10 11  2  0
 11 12  1  0
 12 13  2  0
 13 14  1  0
M  END
>  <minimizedAffinity>  (524) 
-8.61395

$$$$
cs_full_output_folder/data/smiles/7797.pdb
     RDKit          3D

 25 27  0  0  0  0  0  0  0  0999 V2000
   70.3826   45.7260   57.9257 C   0  0  0  0  0  0  0  0  0  0  0  0
   70.9736   46.7873   58.2658 O   0  0  0  0  0  0  0  0  0  0  0  0
   69.3154   45.8355   57.0022 N   0  0  0  0  0  0  0  0  0  0  0  0
   71.2697   42.3119   58.8877 N   0  0  0  0  0  0  0  0  0  0  0  0
   71.7791   43.0214   59.8600 N   0  0  0  0  0  0  0  0  0  0  0  0
   71.5524   44.3307   59.6837 C   0  0  0  0  0  0  0  0  0  0  0  0
   70.8424   44.4743   58.5080 C   0  0  0  0  0  0  0  0  0  0  0  0
   70.6862   43.1899   58.0401 C   0  0  0  0  0  0  0  0  0  0  0  0
   70.0491   42.8261   56.9066 F   0  0  0  0  0  0  0  0  0  0  0  0
   72.6450   36.8195   58.4307 C   0  0  0  0  0  0  0  0  0  0  0  0
   71.3815   37.5896   58.3699 C   0  0  0  0  0  0  0  0  0  0  0  0
   71.3990   38.9121   58.5223 C   0  0  0  0  0  0  0  0  0  0  0  0
   70.4304   39.9576   58.5279 C   0  0  0  0  0  0  0  0  0  0  0  0
   71.3142   40.8717   58.7318 C   0  0  0  0  0  0  0  0  0  0  0  0
   72.4060   39.9127   58.7532 C   0  0  0  0  0  0  0  0  0  0  0  0
   68.8369   47.0518   56.4056 C   0  0  0  0  0  0  0  0  0  0  0  0
   68.7941   47.0516   54.9421 C   0  0  0  0  0  0  0  0  0  0  0  0
   68.1362   46.0492   54.2774 C   0  0  0  0  0  0  0  0  0  0  0  0
   68.0667   46.0166   52.9034 C   0  0  0  0  0  0  0  0  0  0  0  0
   68.6727   47.0169   52.1665 C   0  0  0  0  0  0  0  0  0  0  0  0
   69.3348   48.0270   52.8404 C   0  0  0  0  0  0  0  0  0  0  0  0
   69.3895   48.0367   54.2163 C   0  0  0  0  0  0  0  0  0  0  0  0
   69.9679   49.0745   52.0342 C   0  0  0  0  0  0  0  0  0  0  0  0
   69.9716   50.3952   52.5339 N   0  0  0  0  0  0  0  0  0  0  0  0
   70.4928   48.7829   50.9185 O   0  0  0  0  0  0  0  0  0  0  0  0
 10 11  1  0
 11 12  2  0
 12 13  1  0
 12 15  1  0
 13 14  2  0
 14  4  1  0
 14 15  1  0
  4  5  1  0
  4  8  1  0
  5  6  2  0
  6  7  1  0
  7  1  1  0
  7  8  2  0
  1  2  2  0
  1  3  1  0
  3 16  1  0
 16 17  1  0
 17 18  2  0
 17 22  1  0
 18 19  1  0
 19 20  2  0
 20 21  1  0
 21 23  1  0
 21 22  2  0
 23 24  1  0
 23 25  2  0
  8  9  1  0
M  END
>  <minimizedAffinity>  (525) 
-8.61260

$$$$
cs_full_output_folder/data/smiles/3327.pdb
     RDKit          3D

 24 26  0  0  0  0  0  0  0  0999 V2000
   71.3532   49.1612   52.9273 O   0  0  0  0  0  0  0  0  0  0  0  0
   70.4078   49.4437   53.7661 C   0  0  0  0  0  0  0  0  0  0  0  0
   69.5965   48.3633   54.2869 C   0  0  0  0  0  0  0  0  0  0  0  0
   69.4899   48.2195   55.6896 C   0  0  0  0  0  0  0  0  0  0  0  0
   68.7378   47.2180   56.2356 C   0  0  0  0  0  0  0  0  0  0  0  0
   68.6399   47.0872   57.4790 O   0  0  0  0  0  0  0  0  0  0  0  0
   68.0966   46.3648   55.4463 N   0  0  0  0  0  0  0  0  0  0  0  0
   68.1545   46.4419   54.1123 C   0  0  0  0  0  0  0  0  0  0  0  0
   67.4632   45.5216   53.3164 C   0  0  0  0  0  0  0  0  0  0  0  0
   67.5102   45.5858   51.9436 C   0  0  0  0  0  0  0  0  0  0  0  0
   68.2610   46.5861   51.3895 C   0  0  0  0  0  0  0  0  0  0  0  0
   68.9624   47.5195   52.1597 C   0  0  0  0  0  0  0  0  0  0  0  0
   68.9149   47.4562   53.5288 C   0  0  0  0  0  0  0  0  0  0  0  0
   70.3311   50.7853   54.0329 O   0  0  0  0  0  0  0  0  0  0  0  0
   71.2773   51.5653   54.6926 C   0  0  0  0  0  0  0  0  0  0  0  0
   70.7607   52.8721   55.2168 C   0  0  0  0  0  0  0  0  0  0  0  0
   70.4897   52.7273   56.5982 O   0  0  0  0  0  0  0  0  0  0  0  0
   69.5105   51.8963   57.0961 C   0  0  0  0  0  0  0  0  0  0  0  0
   68.2467   51.9663   56.5482 C   0  0  0  0  0  0  0  0  0  0  0  0
   67.2192   51.1562   57.0050 C   0  0  0  0  0  0  0  0  0  0  0  0
   67.4548   50.2511   58.0358 C   0  0  0  0  0  0  0  0  0  0  0  0
   66.4002   49.4853   58.4370 F   0  0  0  0  0  0  0  0  0  0  0  0
   68.7035   50.1672   58.5918 C   0  0  0  0  0  0  0  0  0  0  0  0
   69.7118   50.9887   58.1155 C   0  0  0  0  0  0  0  0  0  0  0  0
  1  2  2  0
  2 14  1  0
  2  3  1  0
 14 15  1  0
 15 16  1  0
 16 17  1  0
 17 18  1  0
 18 19  2  0
 18 24  1  0
 19 20  1  0
 20 21  2  0
 21 22  1  0
 21 23  1  0
 23 24  2  0
  3  4  2  0
  3 13  1  0
  4  5  1  0
  5  6  2  0
  5  7  1  0
  7  8  1  0
  8  9  1  0
  8 13  2  0
  9 10  2  0
 10 11  1  0
 11 12  2  0
 12 13  1  0
M  END
>  <minimizedAffinity>  (526) 
-8.60951

$$$$
cs_full_output_folder/data/smiles/1019.pdb
     RDKit          3D

 22 24  0  0  0  0  0  0  0  0999 V2000
   67.8098   44.3390   55.6811 N   0  0  0  0  0  0  0  0  0  0  0  0
   68.6843   43.6388   56.5072 N   0  0  0  0  0  0  0  0  0  0  0  0
   68.4819   42.3609   56.7369 C   0  0  0  0  0  0  0  0  0  0  0  0
   67.3897   41.5919   56.1884 C   0  0  0  0  0  0  0  0  0  0  0  0
   66.4709   41.9861   55.4324 O   0  0  0  0  0  0  0  0  0  0  0  0
   67.5202   40.2335   56.6648 N   0  0  0  0  0  0  0  0  0  0  0  0
   68.6748   40.1717   57.4939 C   0  0  0  0  0  0  0  0  0  0  0  0
   69.2141   39.1031   58.1742 C   0  0  0  0  0  0  0  0  0  0  0  0
   70.3652   39.2891   58.9293 C   0  0  0  0  0  0  0  0  0  0  0  0
   70.9514   40.5313   58.9888 C   0  0  0  0  0  0  0  0  0  0  0  0
   70.3994   41.5855   58.3034 C   0  0  0  0  0  0  0  0  0  0  0  0
   69.2600   41.4398   57.5459 C   0  0  0  0  0  0  0  0  0  0  0  0
   69.1834   47.8102   53.6901 C   0  0  0  0  0  0  0  0  0  0  0  0
   68.6194   46.7636   52.9978 C   0  0  0  0  0  0  0  0  0  0  0  0
   68.1715   45.6292   53.6461 C   0  0  0  0  0  0  0  0  0  0  0  0
   68.2708   45.4967   55.0194 C   0  0  0  0  0  0  0  0  0  0  0  0
   68.8315   46.5374   55.7204 C   0  0  0  0  0  0  0  0  0  0  0  0
   69.2737   47.6622   55.0645 C   0  0  0  0  0  0  0  0  0  0  0  0
   71.4610   49.4397   53.2939 N   0  0  0  0  0  0  0  0  0  0  0  0
   69.7728   49.2556   52.8890 S   0  0  0  0  0  0  0  0  0  0  0  0
   68.9703   50.4574   53.2189 O   0  0  0  0  0  0  0  0  0  0  0  0
   69.7538   49.0210   51.3890 O   0  0  0  0  0  0  0  0  0  0  0  0
 19 20  1  0
 20 21  2  0
 20 22  2  0
 20 13  1  0
 13 14  2  0
 13 18  1  0
 14 15  1  0
 15 16  2  0
 16  1  1  0
 16 17  1  0
  1  2  1  0
  2  3  2  0
  3  4  1  0
  3 12  1  0
  4  5  2  0
  4  6  1  0
  6  7  1  0
  7  8  1  0
  7 12  2  0
  8  9  2  0
  9 10  1  0
 10 11  2  0
 11 12  1  0
 17 18  2  0
M  END
>  <minimizedAffinity>  (527) 
-8.60576

$$$$
cs_full_output_folder/data/smiles/2104.pdb
     RDKit          3D

 24 26  0  0  0  0  0  0  0  0999 V2000
   69.7489   42.9873   57.3852 C   0  0  0  0  0  0  0  0  0  0  0  0
   70.9762   42.5350   57.9114 C   0  0  0  0  0  0  0  0  0  0  0  0
   71.1744   41.2377   58.3014 C   0  0  0  0  0  0  0  0  0  0  0  0
   70.1910   40.2757   58.2093 C   0  0  0  0  0  0  0  0  0  0  0  0
   68.9873   40.6989   57.6969 C   0  0  0  0  0  0  0  0  0  0  0  0
   67.9757   39.8065   57.5778 F   0  0  0  0  0  0  0  0  0  0  0  0
   68.7767   42.0299   57.2949 C   0  0  0  0  0  0  0  0  0  0  0  0
   67.5594   42.3719   56.7869 F   0  0  0  0  0  0  0  0  0  0  0  0
   70.4352   38.9025   58.6292 C   0  0  0  0  0  0  0  0  0  0  0  0
   69.7275   38.2592   59.6147 C   0  0  0  0  0  0  0  0  0  0  0  0
   70.0313   36.9532   59.9521 C   0  0  0  0  0  0  0  0  0  0  0  0
   71.0505   36.2675   59.3092 C   0  0  0  0  0  0  0  0  0  0  0  0
   71.7725   36.8963   58.3180 C   0  0  0  0  0  0  0  0  0  0  0  0
   71.4532   38.1774   58.0068 C   0  0  0  0  0  0  0  0  0  0  0  0
   70.4123   45.2672   57.4961 O   0  0  0  0  0  0  0  0  0  0  0  0
   69.6186   44.3821   57.0085 C   0  0  0  0  0  0  0  0  0  0  0  0
   68.6622   44.8651   56.1235 N   0  0  0  0  0  0  0  0  0  0  0  0
   68.5757   46.3006   55.7647 C   0  0  0  0  0  0  0  0  0  0  0  0
   68.5502   46.4809   54.3158 C   0  0  0  0  0  0  0  0  0  0  0  0
   67.7660   45.6392   53.5479 C   0  0  0  0  0  0  0  0  0  0  0  0
   67.7087   45.7613   52.1758 C   0  0  0  0  0  0  0  0  0  0  0  0
   68.4608   46.7575   51.5533 C   0  0  0  0  0  0  0  0  0  0  0  0
   69.2301   47.5771   52.3423 C   0  0  0  0  0  0  0  0  0  0  0  0
   69.2609   47.4294   53.6771 N   0  0  0  0  0  0  0  0  0  0  0  0
 15 16  2  0
 16 17  1  0
 16  1  1  0
 17 18  1  0
 18 19  1  0
 19 20  2  0
 19 24  1  0
 20 21  1  0
 21 22  2  0
 22 23  1  0
 23 24  2  0
  1  2  2  0
  1  7  1  0
  2  3  1  0
  3  4  2  0
  4  9  1  0
  4  5  1  0
  9 10  2  0
  9 14  1  0
 10 11  1  0
 11 12  2  0
 12 13  1  0
 13 14  2  0
  5  6  1  0
  5  7  2  0
  7  8  1  0
M  END
>  <minimizedAffinity>  (528) 
-8.60543

$$$$
cs_full_output_folder/data/smiles/2698.pdb
     RDKit          3D

 26 28  0  0  0  0  0  0  0  0999 V2000
   73.3522   49.9578   56.4560 C   0  0  0  0  0  0  0  0  0  0  0  0
   72.7039   49.2652   57.4674 C   0  0  0  0  0  0  0  0  0  0  0  0
   71.2812   49.0072   57.1166 C   0  0  0  0  0  0  0  0  0  0  0  0
   70.7351   49.3637   56.0096 C   0  0  0  0  0  0  0  0  0  0  0  0
   71.4556   50.0829   54.9680 C   0  0  0  0  0  0  0  0  0  0  0  0
   72.7853   50.2774   55.3981 N   0  0  0  0  0  0  0  0  0  0  0  0
   75.5890   49.9802   55.5268 C   0  0  0  0  0  0  0  0  0  0  0  0
   75.4451   49.4207   54.5238 O   0  0  0  0  0  0  0  0  0  0  0  0
   74.7544   50.4518   56.5281 N   0  0  0  0  0  0  0  0  0  0  0  0
   77.7934   49.3086   55.4246 C   0  0  0  0  0  0  0  0  0  0  0  0
   77.0354   50.2171   56.0871 C   0  0  0  0  0  0  0  0  0  0  0  0
   79.3030   49.2287   55.7779 C   0  0  0  0  0  0  0  0  0  0  0  0
   78.6465   48.0769   58.5401 C   0  0  0  0  0  0  0  0  0  0  0  0
   78.9633   48.6273   57.2172 C   0  0  0  0  0  0  0  0  0  0  0  0
   69.2309   49.2480   55.6673 C   0  0  0  0  0  0  0  0  0  0  0  0
   69.1158   47.6974   55.4253 C   0  0  0  0  0  0  0  0  0  0  0  0
   68.9788   47.0108   56.5342 N   0  0  0  0  0  0  0  0  0  0  0  0
   68.4527   45.7231   56.3672 N   0  0  0  0  0  0  0  0  0  0  0  0
   68.1566   45.3286   55.1292 C   0  0  0  0  0  0  0  0  0  0  0  0
   67.6958   44.1729   54.9729 O   0  0  0  0  0  0  0  0  0  0  0  0
   68.3116   46.0545   53.9588 C   0  0  0  0  0  0  0  0  0  0  0  0
   68.8707   47.3885   54.1748 C   0  0  0  0  0  0  0  0  0  0  0  0
   69.1923   48.1889   52.9698 C   0  0  0  0  0  0  0  0  0  0  0  0
   69.4121   47.2053   51.7957 C   0  0  0  0  0  0  0  0  0  0  0  0
   67.9771   46.6182   51.6076 C   0  0  0  0  0  0  0  0  0  0  0  0
   67.9110   45.5540   52.6752 C   0  0  0  0  0  0  0  0  0  0  0  0
 13 14  3  0
 14 12  1  0
 12 10  1  0
 10 11  2  0
 11  7  1  0
  7  8  2  0
  7  9  1  0
  9  1  1  0
  1  2  2  0
  1  6  1  0
  2  3  1  0
  3  4  2  0
  4 15  1  0
  4  5  1  0
 15 16  1  0
 16 17  2  0
 16 22  1  0
 17 18  1  0
 18 19  1  0
 19 20  2  0
 19 21  1  0
 21 22  2  0
 21 26  1  0
 22 23  1  0
 23 24  1  0
 24 25  1  0
 25 26  1  0
  5  6  2  0
M  END
>  <minimizedAffinity>  (529) 
-8.60308

$$$$
cs_full_output_folder/data/smiles/196.pdb
     RDKit          3D

 25 28  0  0  0  0  0  0  0  0999 V2000
   70.4584   51.5974   55.9131 N   0  0  0  0  0  0  0  0  0  0  0  0
   69.3215   51.1589   56.6091 C   0  0  0  0  0  0  0  0  0  0  0  0
   68.0499   51.6141   56.2367 C   0  0  0  0  0  0  0  0  0  0  0  0
   66.8831   51.2106   56.8570 C   0  0  0  0  0  0  0  0  0  0  0  0
   66.9209   50.3299   57.8852 C   0  0  0  0  0  0  0  0  0  0  0  0
   68.1381   49.8521   58.2910 C   0  0  0  0  0  0  0  0  0  0  0  0
   69.3129   50.2648   57.6588 C   0  0  0  0  0  0  0  0  0  0  0  0
   71.3747   50.5302   55.4059 C   0  0  0  0  0  0  0  0  0  0  0  0
   70.1997   49.1249   51.0614 O   0  0  0  0  0  0  0  0  0  0  0  0
   70.1317   48.9869   52.3073 C   0  0  0  0  0  0  0  0  0  0  0  0
   70.7864   49.8249   53.1181 N   0  0  0  0  0  0  0  0  0  0  0  0
   70.6926   49.6512   54.4441 C   0  0  0  0  0  0  0  0  0  0  0  0
   69.9423   48.6373   54.9651 N   0  0  0  0  0  0  0  0  0  0  0  0
   69.2883   47.8004   54.1652 C   0  0  0  0  0  0  0  0  0  0  0  0
   68.5140   46.7575   54.6741 C   0  0  0  0  0  0  0  0  0  0  0  0
   67.8621   45.9252   53.8033 C   0  0  0  0  0  0  0  0  0  0  0  0
   67.9378   46.0777   52.4408 C   0  0  0  0  0  0  0  0  0  0  0  0
   68.6942   47.0977   51.9342 C   0  0  0  0  0  0  0  0  0  0  0  0
   69.3537   47.9388   52.8043 C   0  0  0  0  0  0  0  0  0  0  0  0
   70.8959   52.8853   55.5369 C   0  0  0  0  0  0  0  0  0  0  0  0
   72.0275   53.5509   56.0985 C   0  0  0  0  0  0  0  0  0  0  0  0
   72.3012   53.6499   57.4641 C   0  0  0  0  0  0  0  0  0  0  0  0
   73.4588   54.3473   57.6251 C   0  0  0  0  0  0  0  0  0  0  0  0
   73.8782   54.6674   56.3508 C   0  0  0  0  0  0  0  0  0  0  0  0
   73.0199   54.1857   55.5044 O   0  0  0  0  0  0  0  0  0  0  0  0
  9 10  2  0
 10 11  1  0
 10 19  1  0
 11 12  1  0
 12  8  1  0
 12 13  2  0
  8  1  1  0
  1 20  1  0
  1  2  1  0
 20 21  1  0
 21 22  2  0
 21 25  1  0
 22 23  1  0
 23 24  2  0
 24 25  1  0
  2  3  2  0
  2  7  1  0
  3  4  1  0
  4  5  2  0
  5  6  1  0
  6  7  2  0
 13 14  1  0
 14 15  1  0
 14 19  2  0
 15 16  2  0
 16 17  1  0
 17 18  2  0
 18 19  1  0
M  END
>  <minimizedAffinity>  (530) 
-8.60099

$$$$
cs_full_output_folder/data/smiles/3374.pdb
     RDKit          3D

 23 25  0  0  0  0  0  0  0  0999 V2000
   68.7219   48.5013   56.3043 C   0  0  0  0  0  0  0  0  0  0  0  0
   69.1845   48.4393   54.9179 C   0  0  0  0  0  0  0  0  0  0  0  0
   70.1013   49.3925   54.5441 N   0  0  0  0  0  0  0  0  0  0  0  0
   70.5619   49.4935   53.3190 N   0  0  0  0  0  0  0  0  0  0  0  0
   70.1800   48.6826   52.3410 C   0  0  0  0  0  0  0  0  0  0  0  0
   70.6057   48.7603   51.1574 O   0  0  0  0  0  0  0  0  0  0  0  0
   69.2669   47.7064   52.6457 C   0  0  0  0  0  0  0  0  0  0  0  0
   68.8661   46.8441   51.6642 C   0  0  0  0  0  0  0  0  0  0  0  0
   67.9574   45.8361   51.9532 C   0  0  0  0  0  0  0  0  0  0  0  0
   67.4905   45.7482   53.2439 C   0  0  0  0  0  0  0  0  0  0  0  0
   67.8878   46.6136   54.2424 C   0  0  0  0  0  0  0  0  0  0  0  0
   68.7832   47.5998   53.9323 C   0  0  0  0  0  0  0  0  0  0  0  0
   70.9203   45.8818   58.0357 C   0  0  0  0  0  0  0  0  0  0  0  0
   71.7258   46.6788   58.8154 C   0  0  0  0  0  0  0  0  0  0  0  0
   71.5440   48.0435   58.7721 C   0  0  0  0  0  0  0  0  0  0  0  0
   70.5797   48.5937   57.9680 C   0  0  0  0  0  0  0  0  0  0  0  0
   69.7357   47.8124   57.1558 C   0  0  0  0  0  0  0  0  0  0  0  0
   69.9481   46.4677   57.2272 C   0  0  0  0  0  0  0  0  0  0  0  0
   70.2931   43.6131   58.8698 C   0  0  0  0  0  0  0  0  0  0  0  0
   69.4722   44.1874   59.6301 O   0  0  0  0  0  0  0  0  0  0  0  0
   71.0508   44.4633   58.0381 N   0  0  0  0  0  0  0  0  0  0  0  0
   71.5625   41.7100   58.0609 C   0  0  0  0  0  0  0  0  0  0  0  0
   70.3940   42.1500   58.9119 C   0  0  0  0  0  0  0  0  0  0  0  0
 22 23  1  0
 23 19  1  0
 19 20  2  0
 19 21  1  0
 21 13  1  0
 13 14  2  0
 13 18  1  0
 14 15  1  0
 15 16  2  0
 16 17  1  0
 17  1  1  0
 17 18  2  0
  1  2  1  0
  2  3  2  0
  2 12  1  0
  3  4  1  0
  4  5  1  0
  5  6  2  0
  5  7  1  0
  7  8  1  0
  7 12  2  0
  8  9  2  0
  9 10  1  0
 10 11  2  0
 11 12  1  0
M  END
>  <minimizedAffinity>  (531) 
-8.59882

$$$$
cs_full_output_folder/data/smiles/8403.pdb
     RDKit          3D

 24 26  0  0  0  0  0  0  0  0999 V2000
   71.6736   51.5860   54.3641 C   0  0  0  0  0  0  0  0  0  0  0  0
   71.2661   50.2736   54.4821 C   0  0  0  0  0  0  0  0  0  0  0  0
   70.3273   49.9793   53.5155 C   0  0  0  0  0  0  0  0  0  0  0  0
   70.1804   51.1225   52.8249 N   0  0  0  0  0  0  0  0  0  0  0  0
   70.9548   52.0641   53.3046 N   0  0  0  0  0  0  0  0  0  0  0  0
   69.6581   48.7010   53.3118 C   0  0  0  0  0  0  0  0  0  0  0  0
   68.9575   48.0441   54.2885 C   0  0  0  0  0  0  0  0  0  0  0  0
   68.3445   46.8366   54.0404 C   0  0  0  0  0  0  0  0  0  0  0  0
   67.6448   46.1691   54.9982 F   0  0  0  0  0  0  0  0  0  0  0  0
   68.4067   46.2278   52.7877 C   0  0  0  0  0  0  0  0  0  0  0  0
   69.1123   46.8905   51.8066 C   0  0  0  0  0  0  0  0  0  0  0  0
   69.7224   48.1001   52.0684 C   0  0  0  0  0  0  0  0  0  0  0  0
   70.4284   48.7543   51.0681 O   0  0  0  0  0  0  0  0  0  0  0  0
   73.7592   52.6252   54.6779 O   0  0  0  0  0  0  0  0  0  0  0  0
   72.6408   52.3307   55.1582 C   0  0  0  0  0  0  0  0  0  0  0  0
   72.3298   52.7558   56.5393 C   0  0  0  0  0  0  0  0  0  0  0  0
   70.9732   53.4304   56.6271 C   0  0  0  0  0  0  0  0  0  0  0  0
   69.9149   52.4216   56.9142 C   0  0  0  0  0  0  0  0  0  0  0  0
   70.1541   51.4321   57.8731 C   0  0  0  0  0  0  0  0  0  0  0  0
   69.2332   50.4711   58.1955 C   0  0  0  0  0  0  0  0  0  0  0  0
   68.0171   50.4841   57.5416 C   0  0  0  0  0  0  0  0  0  0  0  0
   67.1143   49.4865   57.9018 O   0  0  0  0  0  0  0  0  0  0  0  0
   67.7566   51.4416   56.5974 C   0  0  0  0  0  0  0  0  0  0  0  0
   68.6960   52.3940   56.2928 C   0  0  0  0  0  0  0  0  0  0  0  0
 14 15  2  0
 15 16  1  0
 15  1  1  0
 16 17  1  0
 17 18  1  0
 18 19  2  0
 18 24  1  0
 19 20  1  0
 20 21  2  0
 21 22  1  0
 21 23  1  0
 23 24  2  0
  1  2  2  0
  1  5  1  0
  2  3  1  0
  3  6  1  0
  3  4  2  0
  6  7  2  0
  6 12  1  0
  7  8  1  0
  8  9  1  0
  8 10  2  0
 10 11  1  0
 11 12  2  0
 12 13  1  0
  4  5  1  0
M  END
>  <minimizedAffinity>  (532) 
-8.59881

$$$$
cs_full_output_folder/data/smiles/310.pdb
     RDKit          3D

 23 25  0  0  0  0  0  0  0  0999 V2000
   68.8422   43.4581   56.6187 C   0  0  0  0  0  0  0  0  0  0  0  0
   69.9874   43.9526   57.1206 N   0  0  0  0  0  0  0  0  0  0  0  0
   70.8967   43.1703   57.7499 C   0  0  0  0  0  0  0  0  0  0  0  0
   72.0718   43.6788   58.2642 C   0  0  0  0  0  0  0  0  0  0  0  0
   73.0143   42.9060   58.9096 C   0  0  0  0  0  0  0  0  0  0  0  0
   72.7888   41.5424   59.0606 C   0  0  0  0  0  0  0  0  0  0  0  0
   71.6118   41.0339   58.5449 C   0  0  0  0  0  0  0  0  0  0  0  0
   70.6755   41.8160   57.9017 C   0  0  0  0  0  0  0  0  0  0  0  0
   69.5309   41.3186   57.4003 N   0  0  0  0  0  0  0  0  0  0  0  0
   68.6258   42.1043   56.7722 C   0  0  0  0  0  0  0  0  0  0  0  0
   67.3822   41.5283   56.2360 C   0  0  0  0  0  0  0  0  0  0  0  0
   66.2744   41.9652   56.5845 O   0  0  0  0  0  0  0  0  0  0  0  0
   67.4190   40.4827   55.3254 O   0  0  0  0  0  0  0  0  0  0  0  0
   67.8916   44.2368   55.9679 O   0  0  0  0  0  0  0  0  0  0  0  0
   69.0300   47.7749   53.9825 C   0  0  0  0  0  0  0  0  0  0  0  0
   69.1763   47.6515   55.3471 C   0  0  0  0  0  0  0  0  0  0  0  0
   68.7974   46.4866   55.9787 C   0  0  0  0  0  0  0  0  0  0  0  0
   68.2663   45.4040   55.3064 C   0  0  0  0  0  0  0  0  0  0  0  0
   68.1222   45.5342   53.9348 C   0  0  0  0  0  0  0  0  0  0  0  0
   68.5000   46.7004   53.3001 C   0  0  0  0  0  0  0  0  0  0  0  0
   69.4209   49.0087   53.2481 C   0  0  0  0  0  0  0  0  0  0  0  0
   70.0346   49.3491   50.9840 O   0  0  0  0  0  0  0  0  0  0  0  0
   70.0721   48.6412   51.9669 C   0  0  0  0  0  0  0  0  0  0  0  0
 22 23  2  0
 23 21  1  0
 21 15  1  0
 15 16  2  0
 15 20  1  0
 16 17  1  0
 17 18  2  0
 18 14  1  0
 18 19  1  0
 14  1  1  0
  1  2  2  0
  1 10  1  0
  2  3  1  0
  3  4  2  0
  3  8  1  0
  4  5  1  0
  5  6  2  0
  6  7  1  0
  7  8  2  0
  8  9  1  0
  9 10  2  0
 10 11  1  0
 11 12  2  0
 11 13  1  0
 19 20  2  0
M  END
>  <minimizedAffinity>  (533) 
-8.59864

$$$$
cs_full_output_folder/data/smiles/8317.pdb
     RDKit          3D

 24 26  0  0  0  0  0  0  0  0999 V2000
   67.6913   44.6718   54.6907 O   0  0  0  0  0  0  0  0  0  0  0  0
   68.4876   45.3961   55.3604 C   0  0  0  0  0  0  0  0  0  0  0  0
   69.0655   44.7900   56.5028 N   0  0  0  0  0  0  0  0  0  0  0  0
   68.7808   43.4693   56.8798 N   0  0  0  0  0  0  0  0  0  0  0  0
   69.6748   42.8251   57.5340 C   0  0  0  0  0  0  0  0  0  0  0  0
   70.9363   43.5556   57.8286 C   0  0  0  0  0  0  0  0  0  0  0  0
   72.0702   42.6411   57.5411 C   0  0  0  0  0  0  0  0  0  0  0  0
   72.4647   41.6457   58.5348 C   0  0  0  0  0  0  0  0  0  0  0  0
   71.4569   41.0359   59.4215 C   0  0  0  0  0  0  0  0  0  0  0  0
   70.1891   40.6249   58.7772 C   0  0  0  0  0  0  0  0  0  0  0  0
   69.7861   39.3398   59.0533 C   0  0  0  0  0  0  0  0  0  0  0  0
   68.6160   38.8630   58.5039 C   0  0  0  0  0  0  0  0  0  0  0  0
   67.8503   39.6876   57.6728 C   0  0  0  0  0  0  0  0  0  0  0  0
   68.2446   40.9828   57.3870 C   0  0  0  0  0  0  0  0  0  0  0  0
   69.4301   41.4471   57.9519 C   0  0  0  0  0  0  0  0  0  0  0  0
   68.7522   46.7586   54.9317 C   0  0  0  0  0  0  0  0  0  0  0  0
   68.6624   47.8355   55.7788 C   0  0  0  0  0  0  0  0  0  0  0  0
   68.9233   49.1368   55.3366 C   0  0  0  0  0  0  0  0  0  0  0  0
   69.2801   49.3614   54.0259 C   0  0  0  0  0  0  0  0  0  0  0  0
   69.3762   48.2890   53.1545 C   0  0  0  0  0  0  0  0  0  0  0  0
   69.1114   47.0184   53.6264 C   0  0  0  0  0  0  0  0  0  0  0  0
   69.7398   48.4807   51.7945 N   0  0  0  0  0  0  0  0  0  0  0  0
   69.7818   49.6123   51.2896 O   0  0  0  0  0  0  0  0  0  0  0  0
   70.0558   47.4006   51.0120 O   0  0  0  0  0  0  0  0  0  0  0  0
  1  2  2  0
  2  3  1  0
  2 16  1  0
  3  4  1  0
  4  5  2  0
  5  6  1  0
  5 15  1  0
  6  7  1  0
  7  8  1  0
  8  9  1  0
  9 10  1  0
 10 11  1  0
 10 15  2  0
 11 12  2  0
 12 13  1  0
 13 14  2  0
 14 15  1  0
 16 17  2  0
 16 21  1  0
 17 18  1  0
 18 19  2  0
 19 20  1  0
 20 22  1  0
 20 21  2  0
 22 23  2  0
 22 24  1  0
M  CHG  2  22   1  24  -1
M  END
>  <minimizedAffinity>  (534) 
-8.59789

$$$$
cs_full_output_folder/data/smiles/7365.pdb
     RDKit          3D

 25 27  0  0  0  0  0  0  0  0999 V2000
   69.7332   44.3187   57.9454 C   0  0  0  0  0  0  0  0  0  0  0  0
   70.0241   45.1300   58.8916 O   0  0  0  0  0  0  0  0  0  0  0  0
   69.2413   44.8978   56.7638 N   0  0  0  0  0  0  0  0  0  0  0  0
   68.1446   41.4940   56.8427 C   0  0  0  0  0  0  0  0  0  0  0  0
   69.3381   41.7971   57.7361 C   0  0  0  0  0  0  0  0  0  0  0  0
   69.9227   42.8634   58.1392 C   0  0  0  0  0  0  0  0  0  0  0  0
   70.9227   42.1101   58.8563 C   0  0  0  0  0  0  0  0  0  0  0  0
   70.1736   40.9809   58.4521 N   0  0  0  0  0  0  0  0  0  0  0  0
   70.3247   39.5862   58.7257 C   0  0  0  0  0  0  0  0  0  0  0  0
   71.3710   38.8991   58.1232 C   0  0  0  0  0  0  0  0  0  0  0  0
   71.5801   37.5667   58.3536 C   0  0  0  0  0  0  0  0  0  0  0  0
   70.7699   36.8372   59.1898 C   0  0  0  0  0  0  0  0  0  0  0  0
   71.0096   35.5133   59.3935 F   0  0  0  0  0  0  0  0  0  0  0  0
   69.7305   37.5054   59.7927 C   0  0  0  0  0  0  0  0  0  0  0  0
   69.5202   38.8567   59.5574 C   0  0  0  0  0  0  0  0  0  0  0  0
   69.0373   46.3126   56.5263 C   0  0  0  0  0  0  0  0  0  0  0  0
   68.8426   46.5284   55.0792 C   0  0  0  0  0  0  0  0  0  0  0  0
   68.1057   45.6002   54.3354 C   0  0  0  0  0  0  0  0  0  0  0  0
   67.8981   45.7296   52.9903 C   0  0  0  0  0  0  0  0  0  0  0  0
   68.4199   46.8033   52.3112 C   0  0  0  0  0  0  0  0  0  0  0  0
   68.1985   46.9312   50.9141 N   0  0  0  0  0  0  0  0  0  0  0  0
   69.1533   47.7411   53.0123 C   0  0  0  0  0  0  0  0  0  0  0  0
   69.3465   47.5864   54.3590 C   0  0  0  0  0  0  0  0  0  0  0  0
   69.6982   48.8694   52.2853 C   0  0  0  0  0  0  0  0  0  0  0  0
   70.9065   48.9741   51.9945 O   0  0  0  0  0  0  0  0  0  0  0  0
  4  5  1  0
  5  6  2  0
  5  8  1  0
  6  1  1  0
  6  7  1  0
  1  2  2  0
  1  3  1  0
  3 16  1  0
 16 17  1  0
 17 18  2  0
 17 23  1  0
 18 19  1  0
 19 20  2  0
 20 21  1  0
 20 22  1  0
 22 24  1  0
 22 23  2  0
 24 25  2  0
  7  8  1  0
  8  9  1  0
  9 10  2  0
  9 15  1  0
 10 11  1  0
 11 12  2  0
 12 13  1  0
 12 14  1  0
 14 15  2  0
M  END
>  <minimizedAffinity>  (535) 
-8.59740

$$$$
cs_full_output_folder/data/smiles/8298.pdb
     RDKit          3D

 22 24  0  0  0  0  0  0  0  0999 V2000
   69.2292   46.6329   55.9142 C   0  0  0  0  0  0  0  0  0  0  0  0
   68.4634   45.5281   55.6761 C   0  0  0  0  0  0  0  0  0  0  0  0
   67.9388   45.2458   54.4151 C   0  0  0  0  0  0  0  0  0  0  0  0
   68.2167   46.1187   53.3769 C   0  0  0  0  0  0  0  0  0  0  0  0
   67.7255   45.9119   52.1071 C   0  0  0  0  0  0  0  0  0  0  0  0
   67.0134   44.8766   51.9283 O   0  0  0  0  0  0  0  0  0  0  0  0
   67.9961   46.7720   51.1204 N   0  0  0  0  0  0  0  0  0  0  0  0
   68.7518   47.8590   51.3450 N   0  0  0  0  0  0  0  0  0  0  0  0
   69.2664   48.1251   52.5581 C   0  0  0  0  0  0  0  0  0  0  0  0
   70.2472   49.5653   52.8761 Cl  0  0  0  0  0  0  0  0  0  0  0  0
   68.9910   47.2335   53.6018 C   0  0  0  0  0  0  0  0  0  0  0  0
   69.5015   47.5095   54.8294 C   0  0  0  0  0  0  0  0  0  0  0  0
   69.6318   47.0060   57.2267 C   0  0  0  0  0  0  0  0  0  0  0  0
   69.5708   46.0575   58.1325 O   0  0  0  0  0  0  0  0  0  0  0  0
   70.1146   48.2973   57.6956 C   0  0  0  0  0  0  0  0  0  0  0  0
   69.0563   52.8635   56.0562 C   0  0  0  0  0  0  0  0  0  0  0  0
   68.6122   51.6181   56.7389 C   0  0  0  0  0  0  0  0  0  0  0  0
   67.2876   51.4929   57.0951 C   0  0  0  0  0  0  0  0  0  0  0  0
   66.8906   50.3023   57.6813 C   0  0  0  0  0  0  0  0  0  0  0  0
   67.8002   49.2943   57.8905 C   0  0  0  0  0  0  0  0  0  0  0  0
   69.1184   49.4006   57.5454 C   0  0  0  0  0  0  0  0  0  0  0  0
   69.5054   50.5992   56.9594 C   0  0  0  0  0  0  0  0  0  0  0  0
 16 17  1  0
 17 18  2  0
 17 22  1  0
 18 19  1  0
 19 20  2  0
 20 21  1  0
 21 15  1  0
 21 22  2  0
 15 13  1  0
 13 14  2  0
 13  1  1  0
  1  2  2  0
  1 12  1  0
  2  3  1  0
  3  4  2  0
  4  5  1  0
  4 11  1  0
  5  6  2  0
  5  7  1  0
  7  8  1  0
  8  9  2  0
  9 10  1  0
  9 11  1  0
 11 12  2  0
M  END
>  <minimizedAffinity>  (536) 
-8.59693

$$$$
cs_full_output_folder/data/smiles/9303.pdb
     RDKit          3D

 24 26  0  0  0  0  0  0  0  0999 V2000
   71.0388   48.8634   58.4210 C   0  0  0  0  0  0  0  0  0  0  0  0
   70.2268   49.9646   58.7270 C   0  0  0  0  0  0  0  0  0  0  0  0
   69.0335   50.1863   58.0807 C   0  0  0  0  0  0  0  0  0  0  0  0
   68.6123   49.3108   57.1039 C   0  0  0  0  0  0  0  0  0  0  0  0
   69.3730   48.2051   56.7592 C   0  0  0  0  0  0  0  0  0  0  0  0
   70.5630   48.0374   57.4452 C   0  0  0  0  0  0  0  0  0  0  0  0
   68.8870   47.3588   55.6907 C   0  0  0  0  0  0  0  0  0  0  0  0
   68.1776   46.2195   55.9845 N   0  0  0  0  0  0  0  0  0  0  0  0
   67.7240   45.4236   55.0430 N   0  0  0  0  0  0  0  0  0  0  0  0
   67.9338   45.6874   53.7439 C   0  0  0  0  0  0  0  0  0  0  0  0
   67.4985   44.9254   52.8333 O   0  0  0  0  0  0  0  0  0  0  0  0
   68.6426   46.8162   53.3490 C   0  0  0  0  0  0  0  0  0  0  0  0
   68.8818   47.0947   52.0384 C   0  0  0  0  0  0  0  0  0  0  0  0
   69.6058   48.2195   51.7324 C   0  0  0  0  0  0  0  0  0  0  0  0
   70.0865   49.0554   52.7185 C   0  0  0  0  0  0  0  0  0  0  0  0
   69.8497   48.7853   54.0727 C   0  0  0  0  0  0  0  0  0  0  0  0
   69.1197   47.6539   54.3660 C   0  0  0  0  0  0  0  0  0  0  0  0
   72.4448   47.8680   60.2354 C   0  0  0  0  0  0  0  0  0  0  0  0
   71.5320   47.1372   60.6373 O   0  0  0  0  0  0  0  0  0  0  0  0
   72.2371   48.7343   59.1421 N   0  0  0  0  0  0  0  0  0  0  0  0
   73.7639   47.8287   60.9109 C   0  0  0  0  0  0  0  0  0  0  0  0
   74.2463   49.1898   61.2836 C   0  0  0  0  0  0  0  0  0  0  0  0
   74.9323   50.9891   59.6942 C   0  0  0  0  0  0  0  0  0  0  0  0
   75.3182   49.6988   60.3913 C   0  0  0  0  0  0  0  0  0  0  0  0
 23 24  1  0
 24 22  1  0
 22 21  1  0
 21 18  1  0
 18 19  2  0
 18 20  1  0
 20  1  1  0
  1  2  2  0
  1  6  1  0
  2  3  1  0
  3  4  2  0
  4  5  1  0
  5  7  1  0
  5  6  2  0
  7  8  2  0
  7 17  1  0
  8  9  1  0
  9 10  1  0
 10 11  2  0
 10 12  1  0
 12 13  1  0
 12 17  2  0
 13 14  2  0
 14 15  1  0
 15 16  2  0
 16 17  1  0
M  END
>  <minimizedAffinity>  (537) 
-8.59672

$$$$
cs_full_output_folder/data/smiles/1192.pdb
     RDKit          3D

 24 26  0  0  0  0  0  0  0  0999 V2000
   70.3126   49.3143   53.4794 C   0  0  0  0  0  0  0  0  0  0  0  0
   71.4404   49.2472   52.9732 O   0  0  0  0  0  0  0  0  0  0  0  0
   69.5206   48.2847   54.1062 C   0  0  0  0  0  0  0  0  0  0  0  0
   69.4414   48.2245   55.5071 C   0  0  0  0  0  0  0  0  0  0  0  0
   68.7011   47.2658   56.1504 C   0  0  0  0  0  0  0  0  0  0  0  0
   68.6442   47.2296   57.3993 O   0  0  0  0  0  0  0  0  0  0  0  0
   68.0250   46.3485   55.4514 N   0  0  0  0  0  0  0  0  0  0  0  0
   68.0660   46.3595   54.1125 C   0  0  0  0  0  0  0  0  0  0  0  0
   67.3417   45.3813   53.4652 C   0  0  0  0  0  0  0  0  0  0  0  0
   67.3834   45.3915   52.0889 C   0  0  0  0  0  0  0  0  0  0  0  0
   68.0956   46.3116   51.3754 C   0  0  0  0  0  0  0  0  0  0  0  0
   68.8155   47.2864   52.0646 C   0  0  0  0  0  0  0  0  0  0  0  0
   68.8144   47.3286   53.4228 C   0  0  0  0  0  0  0  0  0  0  0  0
   69.7781   50.6182   53.4006 O   0  0  0  0  0  0  0  0  0  0  0  0
   71.9002   51.2490   54.1825 N   0  0  0  0  0  0  0  0  0  0  0  0
   70.5492   51.7195   53.7469 C   0  0  2  0  0  0  0  0  0  0  0  0
   69.9515   52.4235   54.8390 N   0  0  0  0  0  0  0  0  0  0  0  0
   69.3930   51.8165   55.9803 C   0  0  0  0  0  0  0  0  0  0  0  0
   70.0882   51.4310   57.1021 C   0  0  0  0  0  0  0  0  0  0  0  0
   69.5271   50.8253   58.2086 C   0  0  0  0  0  0  0  0  0  0  0  0
   68.1943   50.5708   58.2333 C   0  0  0  0  0  0  0  0  0  0  0  0
   67.4448   50.9402   57.1255 C   0  0  0  0  0  0  0  0  0  0  0  0
   68.0181   51.5395   56.0379 C   0  0  0  0  0  0  0  0  0  0  0  0
   67.2397   51.8753   54.9919 F   0  0  0  0  0  0  0  0  0  0  0  0
 16 15  1  1
 16 17  1  0
 16 14  1  0
 17 18  1  0
 18 19  2  0
 18 23  1  0
 19 20  1  0
 20 21  2  0
 21 22  1  0
 22 23  2  0
 23 24  1  0
 14  1  1  0
  1  2  2  0
  1  3  1  0
  3  4  2  0
  3 13  1  0
  4  5  1  0
  5  6  2  0
  5  7  1  0
  7  8  1  0
  8  9  1  0
  8 13  2  0
  9 10  2  0
 10 11  1  0
 11 12  2  0
 12 13  1  0
M  CHG  1  15   1
M  END
>  <minimizedAffinity>  (538) 
-8.59600

$$$$
cs_full_output_folder/data/smiles/5911.pdb
     RDKit          3D

 23 26  0  0  0  0  0  0  0  0999 V2000
   70.8602   48.0989   57.2982 O   0  0  0  0  0  0  0  0  0  0  0  0
   69.6378   48.3410   56.9772 C   0  0  0  0  0  0  0  0  0  0  0  0
   68.9944   49.3925   57.6275 N   0  0  0  0  0  0  0  0  0  0  0  0
   67.6520   49.8639   57.4581 C   0  0  0  0  0  0  0  0  0  0  0  0
   67.6526   51.3277   57.1190 C   0  0  0  0  0  0  0  0  0  0  0  0
   69.0045   51.9402   57.1339 C   0  0  0  0  0  0  0  0  0  0  0  0
   69.2144   53.0951   56.3593 C   0  0  0  0  0  0  0  0  0  0  0  0
   70.4561   53.7046   56.3367 C   0  0  0  0  0  0  0  0  0  0  0  0
   71.4980   53.1711   57.0835 C   0  0  0  0  0  0  0  0  0  0  0  0
   71.2674   52.0192   57.8511 C   0  0  0  0  0  0  0  0  0  0  0  0
   70.0530   51.4150   57.8767 C   0  0  0  0  0  0  0  0  0  0  0  0
   69.7564   50.1804   58.6333 C   0  0  0  0  0  0  0  0  0  0  0  0
   69.1202   47.4578   55.9648 C   0  0  0  0  0  0  0  0  0  0  0  0
   68.4659   46.3322   56.2885 N   0  0  0  0  0  0  0  0  0  0  0  0
   67.9522   45.5101   55.3850 N   0  0  0  0  0  0  0  0  0  0  0  0
   68.0503   45.7494   54.0651 C   0  0  0  0  0  0  0  0  0  0  0  0
   67.5664   44.9813   53.1972 O   0  0  0  0  0  0  0  0  0  0  0  0
   68.7203   46.9033   53.6763 C   0  0  0  0  0  0  0  0  0  0  0  0
   68.8192   47.1476   52.3258 C   0  0  0  0  0  0  0  0  0  0  0  0
   69.4658   48.2695   51.8823 C   0  0  0  0  0  0  0  0  0  0  0  0
   70.0056   49.1283   52.8443 C   0  0  0  0  0  0  0  0  0  0  0  0
   69.9056   48.8824   54.1855 C   0  0  0  0  0  0  0  0  0  0  0  0
   69.2543   47.7552   54.6213 C   0  0  0  0  0  0  0  0  0  0  0  0
  1  2  2  0
  2 13  1  0
  2  3  1  0
 13 14  2  0
 13 23  1  0
 14 15  1  0
 15 16  1  0
 16 17  2  0
 16 18  1  0
 18 19  1  0
 18 23  2  0
 19 20  2  0
 20 21  1  0
 21 22  2  0
 22 23  1  0
  3  4  1  0
  3 12  1  0
  4  5  1  0
  5  6  1  0
  6  7  2  0
  6 11  1  0
  7  8  1  0
  8  9  2  0
  9 10  1  0
 10 11  2  0
 11 12  1  0
M  END
>  <minimizedAffinity>  (539) 
-8.59558

$$$$
cs_full_output_folder/data/smiles/1845.pdb
     RDKit          3D

 25 28  0  0  0  0  0  0  0  0999 V2000
   74.0462   50.1741   56.4878 C   0  0  0  0  0  0  0  0  0  0  0  0
   73.2771   49.3700   57.3147 C   0  0  0  0  0  0  0  0  0  0  0  0
   71.9159   49.2222   57.1870 C   0  0  0  0  0  0  0  0  0  0  0  0
   71.2441   49.9158   56.1661 C   0  0  0  0  0  0  0  0  0  0  0  0
   72.0492   50.6987   55.3736 C   0  0  0  0  0  0  0  0  0  0  0  0
   73.3802   50.8267   55.5194 N   0  0  0  0  0  0  0  0  0  0  0  0
   75.9998   49.3293   54.6535 O   0  0  0  0  0  0  0  0  0  0  0  0
   76.4075   49.8571   55.7121 C   0  0  0  0  0  0  0  0  0  0  0  0
   75.4562   50.2978   56.6680 N   0  0  0  0  0  0  0  0  0  0  0  0
   77.8677   50.0124   55.9520 C   0  0  0  0  0  0  0  0  0  0  0  0
   78.5455   50.9257   56.5361 C   0  0  0  0  0  0  0  0  0  0  0  0
   79.8122   50.2709   56.2988 C   0  0  0  0  0  0  0  0  0  0  0  0
   79.0279   49.2156   55.6370 C   0  0  0  0  0  0  0  0  0  0  0  0
   69.7783   49.7964   56.0312 C   0  0  0  0  0  0  0  0  0  0  0  0
   69.2586   48.4762   55.6866 C   0  0  0  0  0  0  0  0  0  0  0  0
   68.7863   47.6599   56.6911 N   0  0  0  0  0  0  0  0  0  0  0  0
   68.2994   46.4621   56.4554 N   0  0  0  0  0  0  0  0  0  0  0  0
   68.2193   45.9347   55.2258 C   0  0  0  0  0  0  0  0  0  0  0  0
   67.7539   44.7910   55.0063 O   0  0  0  0  0  0  0  0  0  0  0  0
   68.6671   46.6864   54.1738 C   0  0  0  0  0  0  0  0  0  0  0  0
   69.1913   47.9650   54.4165 C   0  0  0  0  0  0  0  0  0  0  0  0
   69.7414   48.7755   53.3023 C   0  0  0  0  0  0  0  0  0  0  0  0
   69.4066   48.2753   51.9292 C   0  0  0  0  0  0  0  0  0  0  0  0
   68.8713   46.9416   51.8131 C   0  0  0  0  0  0  0  0  0  0  0  0
   68.5212   46.1884   52.8137 C   0  0  0  0  0  0  0  0  0  0  0  0
  7  8  2  0
  8  9  1  0
  8 10  1  0
  9  1  1  0
  1  2  2  0
  1  6  1  0
  2  3  1  0
  3  4  2  0
  4 14  1  0
  4  5  1  0
 14 15  1  0
 15 16  2  0
 15 21  1  0
 16 17  1  0
 17 18  1  0
 18 19  2  0
 18 20  1  0
 20 21  2  0
 20 25  1  0
 21 22  1  0
 22 23  1  0
 23 24  1  0
 24 25  2  0
  5  6  2  0
 10 11  2  0
 10 13  1  0
 11 12  1  0
 12 13  1  0
M  END
>  <minimizedAffinity>  (540) 
-8.59541

$$$$
cs_full_output_folder/data/smiles/2882.pdb
     RDKit          3D

 22 23  0  0  0  0  0  0  0  0999 V2000
   69.9969   49.2403   52.5674 S   0  0  0  0  0  0  0  0  0  0  0  0
   71.4072   49.3062   53.1120 O   0  0  0  0  0  0  0  0  0  0  0  0
   70.1303   49.0296   51.0829 O   0  0  0  0  0  0  0  0  0  0  0  0
   69.2507   47.8256   53.2307 C   0  0  0  0  0  0  0  0  0  0  0  0
   69.2556   47.5849   54.5868 C   0  0  0  0  0  0  0  0  0  0  0  0
   69.8607   48.4876   55.3907 F   0  0  0  0  0  0  0  0  0  0  0  0
   68.6794   46.4808   55.1696 C   0  0  0  0  0  0  0  0  0  0  0  0
   68.0650   45.5698   54.3248 C   0  0  0  0  0  0  0  0  0  0  0  0
   67.4942   44.4738   54.9041 F   0  0  0  0  0  0  0  0  0  0  0  0
   68.0337   45.7646   52.9592 C   0  0  0  0  0  0  0  0  0  0  0  0
   67.4243   44.8508   52.1811 F   0  0  0  0  0  0  0  0  0  0  0  0
   68.6350   46.9046   52.4258 C   0  0  0  0  0  0  0  0  0  0  0  0
   68.5792   47.0526   51.0855 F   0  0  0  0  0  0  0  0  0  0  0  0
   69.1965   50.6900   52.9472 N   0  0  0  0  0  0  0  0  0  0  0  0
   70.5989   53.1523   56.1061 C   0  0  0  0  0  0  0  0  0  0  0  0
   71.4646   52.5467   55.2222 C   0  0  0  0  0  0  0  0  0  0  0  0
   70.9847   51.7513   54.2038 C   0  0  0  0  0  0  0  0  0  0  0  0
   69.6196   51.5181   54.0137 C   0  0  0  0  0  0  0  0  0  0  0  0
   68.7648   52.1305   54.9060 C   0  0  0  0  0  0  0  0  0  0  0  0
   69.2505   52.9263   55.9235 C   0  0  0  0  0  0  0  0  0  0  0  0
   72.3548   53.7654   57.7156 C   0  0  0  0  0  0  0  0  0  0  0  0
   71.0883   53.9552   57.1326 O   0  0  0  0  0  0  0  0  0  0  0  0
 21 22  1  0
 22 15  1  0
 15 16  2  0
 15 20  1  0
 16 17  1  0
 17 18  2  0
 18 14  1  0
 18 19  1  0
 14  1  1  0
  1  2  2  0
  1  3  2  0
  1  4  1  0
  4  5  2  0
  4 12  1  0
  5  6  1  0
  5  7  1  0
  7  8  2  0
  8  9  1  0
  8 10  1  0
 10 11  1  0
 10 12  2  0
 12 13  1  0
 19 20  2  0
M  END
>  <minimizedAffinity>  (541) 
-8.59448

$$$$
cs_full_output_folder/data/smiles/5693.pdb
     RDKit          3D

 26 29  0  0  0  0  0  0  0  0999 V2000
   70.7729   45.5667   58.0255 C   0  0  0  0  0  0  0  0  0  0  0  0
   71.5500   46.3674   58.8206 C   0  0  0  0  0  0  0  0  0  0  0  0
   71.3749   47.7594   58.8178 C   0  0  0  0  0  0  0  0  0  0  0  0
   70.4153   48.3044   58.0087 C   0  0  0  0  0  0  0  0  0  0  0  0
   69.6031   47.5232   57.1839 C   0  0  0  0  0  0  0  0  0  0  0  0
   69.8115   46.1865   57.2220 C   0  0  0  0  0  0  0  0  0  0  0  0
   69.3006   43.7333   59.5675 O   0  0  0  0  0  0  0  0  0  0  0  0
   70.1845   43.2484   58.8232 C   0  0  0  0  0  0  0  0  0  0  0  0
   70.9345   44.1592   58.0387 N   0  0  0  0  0  0  0  0  0  0  0  0
   70.4077   41.8034   58.7868 C   0  0  0  0  0  0  0  0  0  0  0  0
   69.5458   40.8277   58.9853 C   0  0  0  0  0  0  0  0  0  0  0  0
   70.2006   39.5331   58.8522 C   0  0  0  0  0  0  0  0  0  0  0  0
   71.4804   39.7077   58.5687 C   0  0  0  0  0  0  0  0  0  0  0  0
   71.7091   41.1600   58.5065 C   0  0  0  0  0  0  0  0  0  0  0  0
   68.5725   48.2304   56.3426 C   0  0  0  0  0  0  0  0  0  0  0  0
   69.0334   48.4795   54.9812 C   0  0  0  0  0  0  0  0  0  0  0  0
   69.4993   49.7151   54.6435 N   0  0  0  0  0  0  0  0  0  0  0  0
   69.8586   50.0157   53.4180 N   0  0  0  0  0  0  0  0  0  0  0  0
   69.7970   49.1330   52.3999 C   0  0  0  0  0  0  0  0  0  0  0  0
   70.1379   49.4060   51.2175 O   0  0  0  0  0  0  0  0  0  0  0  0
   69.3343   47.8786   52.7030 C   0  0  0  0  0  0  0  0  0  0  0  0
   68.9466   47.5401   54.0108 C   0  0  0  0  0  0  0  0  0  0  0  0
   68.5336   46.1342   54.1671 C   0  0  0  0  0  0  0  0  0  0  0  0
   67.4448   45.8153   53.1764 C   0  0  0  0  0  0  0  0  0  0  0  0
   67.7791   46.2637   51.7894 C   0  0  0  0  0  0  0  0  0  0  0  0
   69.1995   46.8201   51.6916 C   0  0  0  0  0  0  0  0  0  0  0  0
  7  8  2  0
  8  9  1  0
  8 10  1  0
  9  1  1  0
  1  2  2  0
  1  6  1  0
  2  3  1  0
  3  4  2  0
  4  5  1  0
  5 15  1  0
  5  6  2  0
 15 16  1  0
 16 17  2  0
 16 22  1  0
 17 18  1  0
 18 19  1  0
 19 20  2  0
 19 21  1  0
 21 22  2  0
 21 26  1  0
 22 23  1  0
 23 24  1  0
 24 25  1  0
 25 26  1  0
 10 11  2  0
 10 14  1  0
 11 12  1  0
 12 13  2  0
 13 14  1  0
M  END
>  <minimizedAffinity>  (542) 
-8.59386

$$$$
cs_full_output_folder/data/smiles/7189.pdb
     RDKit          3D

 23 25  0  0  0  0  0  0  0  0999 V2000
   70.7254   44.0770   57.9620 C   0  0  0  0  0  0  0  0  0  0  0  0
   69.5954   43.3820   57.3464 C   0  0  0  0  0  0  0  0  0  0  0  0
   68.7530   44.0522   56.5446 N   0  0  0  0  0  0  0  0  0  0  0  0
   67.7056   43.4531   55.9599 N   0  0  0  0  0  0  0  0  0  0  0  0
   67.4263   42.1495   56.1327 C   0  0  0  0  0  0  0  0  0  0  0  0
   66.4118   41.6360   55.5473 O   0  0  0  0  0  0  0  0  0  0  0  0
   68.2492   41.4116   56.9397 C   0  0  0  0  0  0  0  0  0  0  0  0
   68.0118   40.0701   57.1531 C   0  0  0  0  0  0  0  0  0  0  0  0
   68.8542   39.3333   57.9740 C   0  0  0  0  0  0  0  0  0  0  0  0
   69.9252   39.9732   58.5652 C   0  0  0  0  0  0  0  0  0  0  0  0
   70.1509   41.3121   58.3439 C   0  0  0  0  0  0  0  0  0  0  0  0
   69.3288   42.0440   57.5388 C   0  0  0  0  0  0  0  0  0  0  0  0
   70.4908   46.1174   59.1198 O   0  0  0  0  0  0  0  0  0  0  0  0
   70.4316   45.5295   58.0145 C   0  0  0  0  0  0  0  0  0  0  0  0
   70.0837   46.2971   56.8739 N   0  0  0  0  0  0  0  0  0  0  0  0
   69.8139   47.6210   56.9104 O   0  0  0  0  0  0  0  0  0  0  0  0
   68.6003   47.8109   56.2490 C   0  0  0  0  0  0  0  0  0  0  0  0
   68.6832   47.4984   54.7998 C   0  0  0  0  0  0  0  0  0  0  0  0
   67.9715   46.4562   54.2874 C   0  0  0  0  0  0  0  0  0  0  0  0
   68.0046   46.1173   52.9590 C   0  0  0  0  0  0  0  0  0  0  0  0
   68.7967   46.8633   52.0804 C   0  0  0  0  0  0  0  0  0  0  0  0
   69.5185   47.9168   52.5903 C   0  0  0  0  0  0  0  0  0  0  0  0
   69.4643   48.2306   53.9275 C   0  0  0  0  0  0  0  0  0  0  0  0
 13 14  2  0
 14  1  1  0
 14 15  1  0
  1  2  1  0
  2  3  2  0
  2 12  1  0
  3  4  1  0
  4  5  1  0
  5  6  2  0
  5  7  1  0
  7  8  1  0
  7 12  2  0
  8  9  2  0
  9 10  1  0
 10 11  2  0
 11 12  1  0
 15 16  1  0
 16 17  1  0
 17 18  1  0
 18 19  2  0
 18 23  1  0
 19 20  1  0
 20 21  2  0
 21 22  1  0
 22 23  2  0
M  END
>  <minimizedAffinity>  (543) 
-8.59354

$$$$
cs_full_output_folder/data/smiles/6805.pdb
     RDKit          3D

 23 25  0  0  0  0  0  0  0  0999 V2000
   68.8062   43.6693   56.6250 N   0  0  0  0  0  0  0  0  0  0  0  0
   68.0761   42.4886   56.7744 C   0  0  0  0  0  0  0  0  0  0  0  0
   66.9027   42.4562   56.3660 O   0  0  0  0  0  0  0  0  0  0  0  0
   68.6058   41.2559   57.3936 C   0  0  0  0  0  0  0  0  0  0  0  0
   67.8679   40.1274   57.6346 C   0  0  0  0  0  0  0  0  0  0  0  0
   68.4331   38.9966   58.2240 C   0  0  0  0  0  0  0  0  0  0  0  0
   69.7603   38.9602   58.5925 C   0  0  0  0  0  0  0  0  0  0  0  0
   70.3415   37.8540   59.1767 C   0  0  0  0  0  0  0  0  0  0  0  0
   71.6707   37.8127   59.5481 C   0  0  0  0  0  0  0  0  0  0  0  0
   72.4237   38.9427   59.3107 C   0  0  0  0  0  0  0  0  0  0  0  0
   71.8468   40.0530   58.7259 C   0  0  0  0  0  0  0  0  0  0  0  0
   70.5153   40.0900   58.3561 C   0  0  0  0  0  0  0  0  0  0  0  0
   69.9424   41.2013   57.7717 C   0  0  0  0  0  0  0  0  0  0  0  0
   70.0101   46.2870   57.0569 O   0  0  0  0  0  0  0  0  0  0  0  0
   69.0498   46.1417   56.2893 C   0  0  0  0  0  0  0  0  0  0  0  0
   68.4721   44.8848   56.0817 N   0  0  0  0  0  0  0  0  0  0  0  0
   68.5613   47.3920   55.6096 C   0  0  0  0  0  0  0  0  0  0  0  0
   68.7012   47.3276   54.1623 C   0  0  0  0  0  0  0  0  0  0  0  0
   67.9908   46.4110   53.4266 C   0  0  0  0  0  0  0  0  0  0  0  0
   68.1003   46.3236   52.0559 C   0  0  0  0  0  0  0  0  0  0  0  0
   68.9542   47.1899   51.4247 C   0  0  0  0  0  0  0  0  0  0  0  0
   69.6652   48.1070   52.1575 C   0  0  0  0  0  0  0  0  0  0  0  0
   69.5523   48.1879   53.5124 C   0  0  0  0  0  0  0  0  0  0  0  0
 14 15  2  0
 15 17  1  0
 15 16  1  0
 17 18  1  0
 18 19  2  0
 18 23  1  0
 19 20  1  0
 20 21  2  0
 21 22  1  0
 22 23  2  0
 16  1  1  0
  1  2  1  0
  2  3  2  0
  2  4  1  0
  4  5  2  0
  4 13  1  0
  5  6  1  0
  6  7  2  0
  7  8  1  0
  7 12  1  0
  8  9  2  0
  9 10  1  0
 10 11  2  0
 11 12  1  0
 12 13  2  0
M  END
>  <minimizedAffinity>  (544) 
-8.59283

$$$$
cs_full_output_folder/data/smiles/8151.pdb
     RDKit          3D

 23 25  0  0  0  0  0  0  0  0999 V2000
   68.4092   43.5960   56.1988 C   0  0  0  0  0  0  0  0  0  0  0  0
   69.4816   44.0783   56.8260 N   0  0  0  0  0  0  0  0  0  0  0  0
   70.2898   43.3168   57.6011 C   0  0  0  0  0  0  0  0  0  0  0  0
   71.3941   43.8217   58.2452 C   0  0  0  0  0  0  0  0  0  0  0  0
   72.2084   43.0309   59.0350 C   0  0  0  0  0  0  0  0  0  0  0  0
   71.9086   41.6934   59.1840 C   0  0  0  0  0  0  0  0  0  0  0  0
   70.8086   41.1515   58.5536 C   0  0  0  0  0  0  0  0  0  0  0  0
   70.0027   41.9796   57.7597 C   0  0  0  0  0  0  0  0  0  0  0  0
   68.9322   41.4495   57.1474 N   0  0  0  0  0  0  0  0  0  0  0  0
   68.1431   42.2528   56.3735 C   0  0  0  0  0  0  0  0  0  0  0  0
   66.9746   41.5754   55.7429 C   0  0  0  0  0  0  0  0  0  0  0  0
   67.4366   40.3531   55.2579 O   0  0  0  0  0  0  0  0  0  0  0  0
   67.5432   44.3146   55.3949 O   0  0  0  0  0  0  0  0  0  0  0  0
   68.9958   47.4399   52.9571 C   0  0  0  0  0  0  0  0  0  0  0  0
   68.4084   46.3154   52.4270 C   0  0  0  0  0  0  0  0  0  0  0  0
   67.9369   45.3006   53.2254 C   0  0  0  0  0  0  0  0  0  0  0  0
   68.0273   45.3540   54.6176 C   0  0  0  0  0  0  0  0  0  0  0  0
   68.6155   46.4812   55.1512 C   0  0  0  0  0  0  0  0  0  0  0  0
   69.0882   47.5008   54.3391 C   0  0  0  0  0  0  0  0  0  0  0  0
   69.5221   48.5521   52.1218 C   0  0  0  0  0  0  0  0  0  0  0  0
   71.4551   49.3738   53.1695 O   0  0  0  0  0  0  0  0  0  0  0  0
   70.2616   49.4928   53.0012 C   0  0  0  0  0  0  0  0  0  0  0  0
   69.6434   50.5042   53.6402 F   0  0  0  0  0  0  0  0  0  0  0  0
 21 22  2  0
 22 23  1  0
 22 20  1  0
 20 14  1  0
 14 15  2  0
 14 19  1  0
 15 16  1  0
 16 17  2  0
 17 13  1  0
 17 18  1  0
 13  1  1  0
  1  2  2  0
  1 10  1  0
  2  3  1  0
  3  4  2  0
  3  8  1  0
  4  5  1  0
  5  6  2  0
  6  7  1  0
  7  8  2  0
  8  9  1  0
  9 10  2  0
 10 11  1  0
 11 12  1  0
 18 19  2  0
M  END
>  <minimizedAffinity>  (545) 
-8.58963

$$$$
cs_full_output_folder/data/smiles/2430.pdb
     RDKit          3D

 24 26  0  0  0  0  0  0  0  0999 V2000
   73.6838   50.1633   56.7670 C   0  0  0  0  0  0  0  0  0  0  0  0
   73.0444   49.2065   57.4988 C   0  0  0  0  0  0  0  0  0  0  0  0
   71.6762   49.0286   57.3298 C   0  0  0  0  0  0  0  0  0  0  0  0
   70.9556   49.7816   56.4571 C   0  0  0  0  0  0  0  0  0  0  0  0
   71.6733   50.7462   55.7371 C   0  0  0  0  0  0  0  0  0  0  0  0
   72.9967   50.9166   55.9014 N   0  0  0  0  0  0  0  0  0  0  0  0
   75.9368   50.0352   55.8478 C   0  0  0  0  0  0  0  0  0  0  0  0
   75.4090   49.5594   54.7713 O   0  0  0  0  0  0  0  0  0  0  0  0
   75.0882   50.3664   56.9157 N   0  0  0  0  0  0  0  0  0  0  0  0
   77.3831   50.1697   55.8164 C   0  0  0  0  0  0  0  0  0  0  0  0
   78.0817   48.7396   54.1044 O   0  0  0  0  0  0  0  0  0  0  0  0
   78.1959   49.1228   55.2324 C   0  0  0  0  0  0  0  0  0  0  0  0
   69.5093   49.7204   56.1787 C   0  0  0  0  0  0  0  0  0  0  0  0
   69.0494   48.4037   55.7682 C   0  0  0  0  0  0  0  0  0  0  0  0
   68.7554   47.4875   56.7452 N   0  0  0  0  0  0  0  0  0  0  0  0
   68.3819   46.2667   56.4873 N   0  0  0  0  0  0  0  0  0  0  0  0
   68.2716   45.8604   55.2288 C   0  0  0  0  0  0  0  0  0  0  0  0
   67.9130   44.6791   54.9221 O   0  0  0  0  0  0  0  0  0  0  0  0
   68.5428   46.6969   54.1379 C   0  0  0  0  0  0  0  0  0  0  0  0
   68.9391   47.9984   54.4776 C   0  0  0  0  0  0  0  0  0  0  0  0
   69.1924   48.9237   53.3706 C   0  0  0  0  0  0  0  0  0  0  0  0
   69.8742   48.1913   52.2224 C   0  0  0  0  0  0  0  0  0  0  0  0
   69.0221   47.0615   51.7217 C   0  0  0  0  0  0  0  0  0  0  0  0
   68.4052   46.2030   52.7561 C   0  0  0  0  0  0  0  0  0  0  0  0
 11 12  2  0
 12 10  1  0
 10  7  1  0
  7  8  2  0
  7  9  1  0
  9  1  1  0
  1  2  2  0
  1  6  1  0
  2  3  1  0
  3  4  2  0
  4 13  1  0
  4  5  1  0
 13 14  1  0
 14 15  2  0
 14 20  1  0
 15 16  1  0
 16 17  1  0
 17 18  2  0
 17 19  1  0
 19 20  2  0
 19 24  1  0
 20 21  1  0
 21 22  1  0
 22 23  1  0
 23 24  1  0
  5  6  2  0
M  END
>  <minimizedAffinity>  (546) 
-8.58627

$$$$
cs_full_output_folder/data/smiles/4339.pdb
     RDKit          3D

 24 26  0  0  0  0  0  0  0  0999 V2000
   69.6531   48.3959   53.3879 C   0  0  0  0  0  0  0  0  0  0  0  0
   69.4273   47.8713   52.1522 C   0  0  0  0  0  0  0  0  0  0  0  0
   68.6734   46.7361   51.9182 C   0  0  0  0  0  0  0  0  0  0  0  0
   68.1025   46.0737   53.0022 C   0  0  0  0  0  0  0  0  0  0  0  0
   68.3243   46.5946   54.2605 C   0  0  0  0  0  0  0  0  0  0  0  0
   69.0750   47.7251   54.4836 C   0  0  0  0  0  0  0  0  0  0  0  0
   70.1843   50.6756   53.0135 O   0  0  0  0  0  0  0  0  0  0  0  0
   70.4456   49.5965   53.6481 C   0  0  0  0  0  0  0  0  0  0  0  0
   71.5180   49.6771   54.5718 N   0  0  0  0  0  0  0  0  0  0  0  0
   72.2603   50.8689   54.7854 C   0  0  0  0  0  0  0  0  0  0  0  0
   71.6901   51.8220   55.6097 C   0  0  0  0  0  0  0  0  0  0  0  0
   72.3324   53.0032   55.8760 C   0  0  0  0  0  0  0  0  0  0  0  0
   73.5862   53.2496   55.3060 C   0  0  0  0  0  0  0  0  0  0  0  0
   74.1551   52.2998   54.4852 C   0  0  0  0  0  0  0  0  0  0  0  0
   73.4985   51.1210   54.2268 C   0  0  0  0  0  0  0  0  0  0  0  0
   74.0201   50.1278   53.4100 O   0  0  0  0  0  0  0  0  0  0  0  0
   69.2988   48.2601   55.8267 C   0  0  0  0  0  0  0  0  0  0  0  0
   70.2981   47.8527   56.4596 O   0  0  0  0  0  0  0  0  0  0  0  0
   68.4257   49.2351   56.4645 C   0  0  0  0  0  0  0  0  0  0  0  0
   68.4765   50.5985   56.2127 C   0  0  0  0  0  0  0  0  0  0  0  0
   67.6123   51.4588   56.8580 C   0  0  0  0  0  0  0  0  0  0  0  0
   66.6716   51.0246   57.7679 C   0  0  0  0  0  0  0  0  0  0  0  0
   66.6110   49.6699   58.0258 C   0  0  0  0  0  0  0  0  0  0  0  0
   67.4775   48.8093   57.3783 C   0  0  0  0  0  0  0  0  0  0  0  0
  7  8  2  0
  8  9  1  0
  8  1  1  0
  9 10  1  0
 10 11  2  0
 10 15  1  0
 11 12  1  0
 12 13  2  0
 13 14  1  0
 14 15  2  0
 15 16  1  0
  1  2  2  0
  1  6  1  0
  2  3  1  0
  3  4  2  0
  4  5  1  0
  5  6  2  0
  6 17  1  0
 17 18  2  0
 17 19  1  0
 19 20  2  0
 19 24  1  0
 20 21  1  0
 21 22  2  0
 22 23  1  0
 23 24  2  0
M  END
>  <minimizedAffinity>  (547) 
-8.58608

$$$$
cs_full_output_folder/data/smiles/3365.pdb
     RDKit          3D

 25 27  0  0  0  0  0  0  0  0999 V2000
   69.2299   45.7204   56.9592 N   0  0  0  0  0  0  0  0  0  0  0  0
   70.3215   45.5528   57.8489 C   0  0  0  0  0  0  0  0  0  0  0  0
   71.0110   46.5711   58.1344 O   0  0  0  0  0  0  0  0  0  0  0  0
   70.6906   44.2713   58.4470 C   0  0  0  0  0  0  0  0  0  0  0  0
   71.3699   44.1086   59.6384 C   0  0  0  0  0  0  0  0  0  0  0  0
   71.5228   42.7917   59.8434 N   0  0  0  0  0  0  0  0  0  0  0  0
   70.9868   42.0815   58.8628 N   0  0  0  0  0  0  0  0  0  0  0  0
   70.4745   42.9871   58.0038 C   0  0  0  0  0  0  0  0  0  0  0  0
   69.8339   42.6627   56.8566 F   0  0  0  0  0  0  0  0  0  0  0  0
   70.9570   40.6530   58.7416 C   0  0  0  0  0  0  0  0  0  0  0  0
   69.7723   39.9850   58.6620 C   0  0  0  0  0  0  0  0  0  0  0  0
   69.7444   38.5980   58.5464 C   0  0  0  0  0  0  0  0  0  0  0  0
   70.9135   37.8701   58.5101 C   0  0  0  0  0  0  0  0  0  0  0  0
   72.1033   38.5546   58.5919 C   0  0  0  0  0  0  0  0  0  0  0  0
   72.1311   39.9438   58.7068 C   0  0  0  0  0  0  0  0  0  0  0  0
   68.8313   46.9667   56.3496 C   0  0  0  0  0  0  0  0  0  0  0  0
   69.2742   47.8470   52.7024 C   0  0  0  0  0  0  0  0  0  0  0  0
   68.5681   46.8389   52.0686 C   0  0  0  0  0  0  0  0  0  0  0  0
   67.9394   45.8623   52.8415 C   0  0  0  0  0  0  0  0  0  0  0  0
   68.0146   45.8894   54.2219 C   0  0  0  0  0  0  0  0  0  0  0  0
   68.7133   46.8843   54.8720 C   0  0  0  0  0  0  0  0  0  0  0  0
   69.3179   47.8277   54.0762 C   0  0  0  0  0  0  0  0  0  0  0  0
   69.8995   50.2324   52.4373 N   0  0  0  0  0  0  0  0  0  0  0  0
   69.9490   48.8963   51.9523 C   0  0  0  0  0  0  0  0  0  0  0  0
   70.5796   48.6959   50.8909 O   0  0  0  0  0  0  0  0  0  0  0  0
 23 24  1  0
 24 25  2  0
 24 17  1  0
 17 18  2  0
 17 22  1  0
 18 19  1  0
 19 20  2  0
 20 21  1  0
 21 16  1  0
 21 22  2  0
 16  1  1  0
  1  2  1  0
  2  3  2  0
  2  4  1  0
  4  5  1  0
  4  8  2  0
  5  6  2  0
  6  7  1  0
  7 10  1  0
  7  8  1  0
 10 11  2  0
 10 15  1  0
 11 12  1  0
 12 13  2  0
 13 14  1  0
 14 15  2  0
  8  9  1  0
M  END
>  <minimizedAffinity>  (548) 
-8.58460

$$$$
cs_full_output_folder/data/smiles/7719.pdb
     RDKit          3D

 25 27  0  0  0  0  0  0  0  0999 V2000
   71.0702   45.8561   57.8597 O   0  0  0  0  0  0  0  0  0  0  0  0
   70.0187   45.3523   57.4200 C   0  0  0  0  0  0  0  0  0  0  0  0
   69.1117   46.1789   56.7438 N   0  0  0  0  0  0  0  0  0  0  0  0
   69.7826   43.9047   57.6334 C   0  0  0  0  0  0  0  0  0  0  0  0
   70.3768   43.1607   58.6150 C   0  0  0  0  0  0  0  0  0  0  0  0
   70.0817   41.7944   58.7522 C   0  0  0  0  0  0  0  0  0  0  0  0
   69.1949   41.1577   57.9132 C   0  0  0  0  0  0  0  0  0  0  0  0
   68.6012   41.9166   56.9236 C   0  0  0  0  0  0  0  0  0  0  0  0
   68.8954   43.2600   56.7958 C   0  0  0  0  0  0  0  0  0  0  0  0
   68.9040   39.6916   58.0761 C   0  0  0  0  0  0  0  0  0  0  0  0
   68.0087   39.3065   57.1258 F   0  0  0  0  0  0  0  0  0  0  0  0
   68.3440   39.4352   59.3120 F   0  0  0  0  0  0  0  0  0  0  0  0
   70.0639   38.9676   57.9616 F   0  0  0  0  0  0  0  0  0  0  0  0
   69.1443   47.5746   56.4469 C   0  0  0  0  0  0  0  0  0  0  0  0
   69.2999   47.8536   55.0463 C   0  0  0  0  0  0  0  0  0  0  0  0
   70.1373   48.9092   54.7573 N   0  0  0  0  0  0  0  0  0  0  0  0
   70.4569   49.2353   53.5366 N   0  0  0  0  0  0  0  0  0  0  0  0
   70.0068   48.5866   52.4619 C   0  0  0  0  0  0  0  0  0  0  0  0
   70.3532   48.9483   51.2963 O   0  0  0  0  0  0  0  0  0  0  0  0
   69.1620   47.5198   52.6518 C   0  0  0  0  0  0  0  0  0  0  0  0
   68.6529   46.8524   51.5673 C   0  0  0  0  0  0  0  0  0  0  0  0
   67.7727   45.8054   51.8078 C   0  0  0  0  0  0  0  0  0  0  0  0
   67.4285   45.4579   53.1083 C   0  0  0  0  0  0  0  0  0  0  0  0
   67.9409   46.1275   54.1758 C   0  0  0  0  0  0  0  0  0  0  0  0
   68.8302   47.1828   53.9583 C   0  0  0  0  0  0  0  0  0  0  0  0
  1  2  2  0
  2  3  1  0
  2  4  1  0
  3 14  1  0
 14 15  1  0
 15 16  2  0
 15 25  1  0
 16 17  1  0
 17 18  1  0
 18 19  2  0
 18 20  1  0
 20 21  1  0
 20 25  2  0
 21 22  2  0
 22 23  1  0
 23 24  2  0
 24 25  1  0
  4  5  2  0
  4  9  1  0
  5  6  1  0
  6  7  2  0
  7 10  1  0
  7  8  1  0
 10 11  1  0
 10 12  1  0
 10 13  1  0
  8  9  2  0
M  END
>  <minimizedAffinity>  (549) 
-8.58226

$$$$
cs_full_output_folder/data/smiles/1798.pdb
     RDKit          3D

 23 25  0  0  0  0  0  0  0  0999 V2000
   69.9649   44.6892   57.7011 N   0  0  0  0  0  0  0  0  0  0  0  0
   69.5270   45.2644   56.5718 C   0  0  0  0  0  0  0  0  0  0  0  0
   69.2443   46.6110   56.7963 C   0  0  0  0  0  0  0  0  0  0  0  0
   69.5375   46.7816   58.0936 N   0  0  0  0  0  0  0  0  0  0  0  0
   69.9635   45.6274   58.6122 N   0  0  0  0  0  0  0  0  0  0  0  0
   71.0053   40.5888   58.2424 C   0  0  0  0  0  0  0  0  0  0  0  0
   69.6978   41.0050   58.1594 C   0  0  0  0  0  0  0  0  0  0  0  0
   69.3843   42.3418   57.9870 C   0  0  0  0  0  0  0  0  0  0  0  0
   70.3558   43.3157   57.8884 C   0  0  0  0  0  0  0  0  0  0  0  0
   71.6615   42.8954   57.9719 C   0  0  0  0  0  0  0  0  0  0  0  0
   71.9798   41.5587   58.1458 C   0  0  0  0  0  0  0  0  0  0  0  0
   72.4677   39.0059   59.4209 C   0  0  0  0  0  0  0  0  0  0  0  0
   71.3639   39.1440   58.4120 C   0  0  0  0  0  0  0  0  0  0  0  0
   70.1555   38.3773   58.9595 C   0  0  0  0  0  0  0  0  0  0  0  0
   68.7391   47.5676   55.8221 C   0  0  0  0  0  0  0  0  0  0  0  0
   68.2999   48.6870   56.2184 O   0  0  0  0  0  0  0  0  0  0  0  0
   68.7160   47.2950   54.3999 C   0  0  0  0  0  0  0  0  0  0  0  0
   67.9753   46.2887   53.8192 C   0  0  0  0  0  0  0  0  0  0  0  0
   68.0114   46.0844   52.4474 C   0  0  0  0  0  0  0  0  0  0  0  0
   68.7578   46.8401   51.6005 C   0  0  0  0  0  0  0  0  0  0  0  0
   69.5112   47.8601   52.1772 C   0  0  0  0  0  0  0  0  0  0  0  0
   70.3116   48.6783   51.3408 N   0  0  0  0  0  0  0  0  0  0  0  0
   69.4880   48.0763   53.5331 C   0  0  0  0  0  0  0  0  0  0  0  0
 12 13  1  0
 13 14  1  0
 13  6  1  0
  6  7  2  0
  6 11  1  0
  7  8  1  0
  8  9  2  0
  9  1  1  0
  9 10  1  0
  1  2  1  0
  1  5  1  0
  2  3  2  0
  3 15  1  0
  3  4  1  0
 15 16  2  0
 15 17  1  0
 17 18  2  0
 17 23  1  0
 18 19  1  0
 19 20  2  0
 20 21  1  0
 21 22  1  0
 21 23  2  0
  4  5  2  0
 10 11  2  0
M  END
>  <minimizedAffinity>  (550) 
-8.58128

$$$$
cs_full_output_folder/data/smiles/817.pdb
     RDKit          3D

 24 26  0  0  0  0  0  0  0  0999 V2000
   71.6930   50.4271   54.1534 O   0  0  0  0  0  0  0  0  0  0  0  0
   70.4696   50.4093   53.8791 C   0  0  0  0  0  0  0  0  0  0  0  0
   69.7972   49.1326   53.6902 C   0  0  0  0  0  0  0  0  0  0  0  0
   69.5828   48.5705   52.4546 C   0  0  0  0  0  0  0  0  0  0  0  0
   68.9319   47.3514   52.2801 C   0  0  0  0  0  0  0  0  0  0  0  0
   68.7479   46.8392   50.9802 O   0  0  0  0  0  0  0  0  0  0  0  0
   68.4778   46.6639   53.3622 C   0  0  0  0  0  0  0  0  0  0  0  0
   67.8266   45.4405   53.1599 O   0  0  0  0  0  0  0  0  0  0  0  0
   68.6814   47.2086   54.6176 C   0  0  0  0  0  0  0  0  0  0  0  0
   69.3308   48.4240   54.7898 C   0  0  0  0  0  0  0  0  0  0  0  0
   68.2101   46.4816   55.7419 N   0  0  0  0  0  0  0  0  0  0  0  0
   68.3094   45.2524   55.8454 O   0  0  0  0  0  0  0  0  0  0  0  0
   67.6066   47.1673   56.7743 O   0  0  0  0  0  0  0  0  0  0  0  0
   69.7841   51.7349   53.7660 C   0  0  0  0  0  0  0  0  0  0  0  0
   69.4172   52.2356   55.1425 C   0  0  0  0  0  0  0  0  0  0  0  0
   68.1641   51.8473   55.6255 C   0  0  0  0  0  0  0  0  0  0  0  0
   67.9113   51.5057   56.9293 C   0  0  0  0  0  0  0  0  0  0  0  0
   68.5515   50.5599   57.6914 C   0  0  0  0  0  0  0  0  0  0  0  0
   69.7715   49.9745   57.4810 C   0  0  0  0  0  0  0  0  0  0  0  0
   71.0155   50.5469   57.5242 C   0  0  0  0  0  0  0  0  0  0  0  0
   71.3616   51.8448   57.7716 C   0  0  0  0  0  0  0  0  0  0  0  0
   71.0880   52.9249   56.9691 C   0  0  0  0  0  0  0  0  0  0  0  0
   70.9921   54.1958   56.3082 C   0  0  0  0  0  0  0  0  0  0  0  0
   70.2520   53.0410   55.8552 C   0  0  0  0  0  0  0  0  0  0  0  0
  1  2  2  0
  2 14  1  0
  2  3  1  0
 14 15  1  0
 15 16  2  0
 15 24  1  0
 16 17  1  0
 17 18  2  0
 18 19  1  0
 19 20  2  0
 20 21  1  0
 21 22  2  0
 22 23  1  0
 22 24  1  0
 23 24  2  0
  3  4  2  0
  3 10  1  0
  4  5  1  0
  5  6  1  0
  5  7  2  0
  7  8  1  0
  7  9  1  0
  9 11  1  0
  9 10  2  0
 11 12  2  0
 11 13  1  0
M  CHG  2  11   1  13  -1
M  END
>  <minimizedAffinity>  (551) 
-8.58047

$$$$
cs_full_output_folder/data/smiles/2783.pdb
     RDKit          3D

 26 29  0  0  0  0  0  0  0  0999 V2000
   71.6578   46.9963   58.8822 C   0  0  0  0  0  0  0  0  0  0  0  0
   70.6654   46.2507   58.2899 C   0  0  0  0  0  0  0  0  0  0  0  0
   69.7694   46.7808   57.3761 C   0  0  0  0  0  0  0  0  0  0  0  0
   69.8601   48.1027   57.0381 C   0  0  0  0  0  0  0  0  0  0  0  0
   70.8700   48.8406   57.6484 C   0  0  0  0  0  0  0  0  0  0  0  0
   71.7127   48.2880   58.5237 N   0  0  0  0  0  0  0  0  0  0  0  0
   72.4948   48.1560   61.2512 O   0  0  0  0  0  0  0  0  0  0  0  0
   72.9508   47.0004   61.0107 C   0  0  0  0  0  0  0  0  0  0  0  0
   72.5427   46.3921   59.8142 N   0  0  0  0  0  0  0  0  0  0  0  0
   73.8515   46.4219   61.9981 C   0  0  0  0  0  0  0  0  0  0  0  0
   74.4220   45.1735   61.8376 C   0  0  0  0  0  0  0  0  0  0  0  0
   75.2825   44.5900   62.7403 C   0  0  0  0  0  0  0  0  0  0  0  0
   75.5876   45.3106   63.8797 C   0  0  0  0  0  0  0  0  0  0  0  0
   75.0549   46.5587   64.1031 C   0  0  0  0  0  0  0  0  0  0  0  0
   74.1941   47.0956   63.1581 C   0  0  0  0  0  0  0  0  0  0  0  0
   68.9445   48.7685   56.0682 C   0  0  0  0  0  0  0  0  0  0  0  0
   69.3702   48.6490   54.6700 C   0  0  0  0  0  0  0  0  0  0  0  0
   70.2810   49.5073   54.1317 N   0  0  0  0  0  0  0  0  0  0  0  0
   70.6981   49.4479   52.8879 N   0  0  0  0  0  0  0  0  0  0  0  0
   70.2285   48.5034   52.0617 C   0  0  0  0  0  0  0  0  0  0  0  0
   70.6414   48.4653   50.8751 O   0  0  0  0  0  0  0  0  0  0  0  0
   69.2972   47.5801   52.5108 C   0  0  0  0  0  0  0  0  0  0  0  0
   68.8763   47.6653   53.8185 C   0  0  0  0  0  0  0  0  0  0  0  0
   67.9028   46.5671   54.0200 C   0  0  0  0  0  0  0  0  0  0  0  0
   67.8542   45.8942   52.7033 C   0  0  0  0  0  0  0  0  0  0  0  0
   68.6470   46.4612   51.8208 C   0  0  0  0  0  0  0  0  0  0  0  0
  7  8  2  0
  8  9  1  0
  8 10  1  0
  9  1  1  0
  1  2  2  0
  1  6  1  0
  2  3  1  0
  3  4  2  0
  4 16  1  0
  4  5  1  0
 16 17  1  0
 17 18  2  0
 17 23  1  0
 18 19  1  0
 19 20  1  0
 20 21  2  0
 20 22  1  0
 22 23  2  0
 22 26  1  0
 23 24  1  0
 24 25  1  0
 25 26  2  0
  5  6  2  0
 10 11  2  0
 10 15  1  0
 11 12  1  0
 12 13  2  0
 13 14  1  0
 14 15  2  0
M  END
>  <minimizedAffinity>  (552) 
-8.57983

$$$$
cs_full_output_folder/data/smiles/1982.pdb
     RDKit          3D

 25 27  0  0  0  0  0  0  0  0999 V2000
   69.6934   44.3032   57.2650 C   0  0  0  0  0  0  0  0  0  0  0  0
   69.7668   45.2854   58.1053 O   0  0  0  0  0  0  0  0  0  0  0  0
   68.9922   44.5604   56.0745 N   0  0  0  0  0  0  0  0  0  0  0  0
   68.4511   41.3615   57.8991 C   0  0  0  0  0  0  0  0  0  0  0  0
   69.8513   41.8124   57.9204 C   0  0  0  0  0  0  0  0  0  0  0  0
   70.3330   43.0557   57.6352 C   0  0  0  0  0  0  0  0  0  0  0  0
   71.6991   42.9054   57.7990 N   0  0  0  0  0  0  0  0  0  0  0  0
   71.9604   41.6635   58.1520 N   0  0  0  0  0  0  0  0  0  0  0  0
   70.8692   40.9527   58.2406 N   0  0  0  0  0  0  0  0  0  0  0  0
   70.7831   39.5775   58.5974 C   0  0  0  0  0  0  0  0  0  0  0  0
   71.5718   38.6087   58.0074 C   0  0  0  0  0  0  0  0  0  0  0  0
   71.4906   37.2759   58.3526 C   0  0  0  0  0  0  0  0  0  0  0  0
   70.6032   36.8496   59.3158 C   0  0  0  0  0  0  0  0  0  0  0  0
   69.8038   37.7960   59.9195 C   0  0  0  0  0  0  0  0  0  0  0  0
   69.8923   39.1426   59.5651 C   0  0  0  0  0  0  0  0  0  0  0  0
   68.3747   45.8654   55.7709 C   0  0  0  0  0  0  0  0  0  0  0  0
   68.4391   46.2022   54.3326 C   0  0  0  0  0  0  0  0  0  0  0  0
   67.7463   45.5351   53.3513 C   0  0  0  0  0  0  0  0  0  0  0  0
   67.8211   45.8846   52.0019 C   0  0  0  0  0  0  0  0  0  0  0  0
   68.6117   46.9339   51.6082 C   0  0  0  0  0  0  0  0  0  0  0  0
   69.3204   47.6254   52.5575 C   0  0  0  0  0  0  0  0  0  0  0  0
   69.2345   47.2650   53.8865 C   0  0  0  0  0  0  0  0  0  0  0  0
   70.1578   48.7348   52.1298 C   0  0  0  0  0  0  0  0  0  0  0  0
   71.2402   49.1595   52.9405 N   0  0  0  0  0  0  0  0  0  0  0  0
   69.9538   49.3498   51.0346 O   0  0  0  0  0  0  0  0  0  0  0  0
  4  5  1  0
  5  6  2  0
  5  9  1  0
  6  1  1  0
  6  7  1  0
  1  2  2  0
  1  3  1  0
  3 16  1  0
 16 17  1  0
 17 18  2  0
 17 22  1  0
 18 19  1  0
 19 20  2  0
 20 21  1  0
 21 23  1  0
 21 22  2  0
 23 24  1  0
 23 25  2  0
  7  8  2  0
  8  9  1  0
  9 10  1  0
 10 11  2  0
 10 15  1  0
 11 12  1  0
 12 13  2  0
 13 14  1  0
 14 15  2  0
M  END
>  <minimizedAffinity>  (553) 
-8.57852

$$$$
cs_full_output_folder/data/smiles/3088.pdb
     RDKit          3D

 23 24  0  0  0  0  0  0  0  0999 V2000
   69.9922   50.9244   53.0765 O   0  0  0  0  0  0  0  0  0  0  0  0
   70.5276   49.6649   53.2900 C   0  0  0  0  0  0  0  0  0  0  0  0
   71.7308   49.6000   53.6469 O   0  0  0  0  0  0  0  0  0  0  0  0
   69.7332   48.4422   53.1107 C   0  0  0  0  0  0  0  0  0  0  0  0
   69.3559   47.9999   51.8622 C   0  0  0  0  0  0  0  0  0  0  0  0
   68.6130   46.8542   51.7173 C   0  0  0  0  0  0  0  0  0  0  0  0
   68.2298   46.1226   52.8171 C   0  0  0  0  0  0  0  0  0  0  0  0
   68.6023   46.5546   54.0855 C   0  0  0  0  0  0  0  0  0  0  0  0
   69.3400   47.6977   54.1847 C   0  0  0  0  0  0  0  0  0  0  0  0
   68.2075   45.8017   55.2054 N   0  0  0  0  0  0  0  0  0  0  0  0
   67.7940   44.6427   55.1006 O   0  0  0  0  0  0  0  0  0  0  0  0
   68.2801   46.3688   56.4684 O   0  0  0  0  0  0  0  0  0  0  0  0
   68.7806   51.3017   53.6983 C   0  0  0  0  0  0  0  0  0  0  0  0
   70.4186   53.4957   56.3613 C   0  0  0  0  0  0  0  0  0  0  0  0
   69.9278   52.7979   55.1835 C   0  0  0  0  0  0  0  0  0  0  0  0
   69.1014   51.8271   55.1225 C   0  0  0  0  0  0  0  0  0  0  0  0
   68.3873   51.0995   56.1561 C   0  0  0  0  0  0  0  0  0  0  0  0
   68.8099   49.9437   56.7630 C   0  0  0  0  0  0  0  0  0  0  0  0
   68.0468   49.3191   57.7522 C   0  0  0  0  0  0  0  0  0  0  0  0
   66.8424   49.8721   58.1323 C   0  0  0  0  0  0  0  0  0  0  0  0
   66.0660   49.3069   59.0846 F   0  0  0  0  0  0  0  0  0  0  0  0
   66.4288   51.0197   57.5270 C   0  0  0  0  0  0  0  0  0  0  0  0
   67.1909   51.5667   56.5969 N   0  0  0  0  0  0  0  0  0  0  0  0
 14 15  1  0
 15 16  2  0
 16 13  1  0
 16 17  1  0
 13  1  1  0
  1  2  1  0
  2  3  2  0
  2  4  1  0
  4  5  2  0
  4  9  1  0
  5  6  1  0
  6  7  2  0
  7  8  1  0
  8 10  1  0
  8  9  2  0
 10 11  2  0
 10 12  1  0
 17 18  2  0
 17 23  1  0
 18 19  1  0
 19 20  2  0
 20 21  1  0
 20 22  1  0
 22 23  2  0
M  CHG  2  10   1  12  -1
M  END
>  <minimizedAffinity>  (554) 
-8.57789

$$$$
cs_full_output_folder/data/smiles/1784.pdb
     RDKit          3D

 22 23  0  0  0  0  0  0  0  0999 V2000
   67.7972   43.8611   55.2579 N   0  0  0  0  0  0  0  0  0  0  0  0
   68.1485   45.2195   55.0625 C   0  0  0  0  0  0  0  0  0  0  0  0
   68.3869   45.8960   56.0929 O   0  0  0  0  0  0  0  0  0  0  0  0
   68.2474   45.8600   53.7538 C   0  0  0  0  0  0  0  0  0  0  0  0
   67.5065   45.4779   52.6583 C   0  0  0  0  0  0  0  0  0  0  0  0
   67.6418   46.1272   51.4283 C   0  0  0  0  0  0  0  0  0  0  0  0
   68.5334   47.1809   51.2864 C   0  0  0  0  0  0  0  0  0  0  0  0
   69.2827   47.5734   52.3817 C   0  0  0  0  0  0  0  0  0  0  0  0
   69.1189   46.9124   53.5599 C   0  0  0  0  0  0  0  0  0  0  0  0
   70.1920   48.6581   52.2076 N   0  0  0  0  0  0  0  0  0  0  0  0
   70.0619   49.3420   51.1726 O   0  0  0  0  0  0  0  0  0  0  0  0
   71.1668   48.9774   53.0847 O   0  0  0  0  0  0  0  0  0  0  0  0
   67.4054   41.2319   55.5139 O   0  0  0  0  0  0  0  0  0  0  0  0
   67.4986   41.8620   56.6005 C   0  0  0  0  0  0  0  0  0  0  0  0
   67.7074   43.2649   56.5235 N   0  0  0  0  0  0  0  0  0  0  0  0
   67.3898   41.1349   57.8581 C   0  0  0  0  0  0  0  0  0  0  0  0
   68.0312   39.9219   57.9893 C   0  0  0  0  0  0  0  0  0  0  0  0
   67.9772   39.1745   59.1439 C   0  0  0  0  0  0  0  0  0  0  0  0
   67.2551   39.6548   60.2076 C   0  0  0  0  0  0  0  0  0  0  0  0
   67.1595   38.9430   61.4144 O   0  0  0  0  0  0  0  0  0  0  0  0
   66.5984   40.8607   60.1240 C   0  0  0  0  0  0  0  0  0  0  0  0
   66.6776   41.5821   58.9446 C   0  0  0  0  0  0  0  0  0  0  0  0
 13 14  2  0
 14 15  1  0
 14 16  1  0
 15  1  1  0
  1  2  1  0
  2  3  2  0
  2  4  1  0
  4  5  2  0
  4  9  1  0
  5  6  1  0
  6  7  2  0
  7  8  1  0
  8 10  1  0
  8  9  2  0
 10 11  2  0
 10 12  1  0
 16 17  2  0
 16 22  1  0
 17 18  1  0
 18 19  2  0
 19 20  1  0
 19 21  1  0
 21 22  2  0
M  CHG  2  10   1  12  -1
M  END
>  <minimizedAffinity>  (555) 
-8.57787

$$$$
cs_full_output_folder/data/smiles/493.pdb
     RDKit          3D

 23 25  0  0  0  0  0  0  0  0999 V2000
   69.6110   45.0704   57.1717 O   0  0  0  0  0  0  0  0  0  0  0  0
   69.0137   44.1117   56.6794 C   0  0  0  0  0  0  0  0  0  0  0  0
   68.0636   44.5292   55.6527 N   0  0  0  0  0  0  0  0  0  0  0  0
   69.1493   42.7200   56.9923 C   0  0  0  0  0  0  0  0  0  0  0  0
   68.1581   41.9764   56.5355 O   0  0  0  0  0  0  0  0  0  0  0  0
   70.1280   41.9593   57.6911 C   0  0  0  0  0  0  0  0  0  0  0  0
   69.8196   40.7597   58.3599 C   0  0  0  0  0  0  0  0  0  0  0  0
   70.9323   40.2485   58.8771 N   0  0  0  0  0  0  0  0  0  0  0  0
   71.9648   41.0513   58.5865 C   0  0  0  0  0  0  0  0  0  0  0  0
   73.3199   40.9962   58.8834 C   0  0  0  0  0  0  0  0  0  0  0  0
   74.2083   41.9613   58.4802 C   0  0  0  0  0  0  0  0  0  0  0  0
   73.7532   43.0347   57.7484 C   0  0  0  0  0  0  0  0  0  0  0  0
   72.3953   43.0818   57.4538 C   0  0  0  0  0  0  0  0  0  0  0  0
   71.4881   42.1230   57.8496 C   0  0  0  0  0  0  0  0  0  0  0  0
   67.9396   45.8870   55.3553 N   0  0  0  0  0  0  0  0  0  0  0  0
   68.2996   46.3715   54.0727 C   0  0  0  0  0  0  0  0  0  0  0  0
   69.1159   47.3663   53.8834 C   0  0  0  0  0  0  0  0  0  0  0  0
   69.3334   47.6835   52.6320 C   0  0  0  0  0  0  0  0  0  0  0  0
   68.5357   46.7468   51.8504 C   0  0  0  0  0  0  0  0  0  0  0  0
   67.9095   45.9506   52.7350 C   0  0  0  0  0  0  0  0  0  0  0  0
   70.1796   48.7346   52.1685 N   0  0  0  0  0  0  0  0  0  0  0  0
   71.1929   49.0075   52.8347 O   0  0  0  0  0  0  0  0  0  0  0  0
   69.9397   49.4580   51.0373 O   0  0  0  0  0  0  0  0  0  0  0  0
  1  2  2  0
  2  3  1  0
  2  4  1  0
  3 15  1  0
 15 16  1  0
 16 17  2  0
 16 20  1  0
 17 18  2  0
 18 21  1  0
 18 19  1  0
 21 22  2  0
 21 23  1  0
 19 20  2  0
  4  5  2  0
  4  6  1  0
  6  7  2  0
  6 14  1  0
  7  8  1  0
  8  9  1  0
  9 10  1  0
  9 14  2  0
 10 11  2  0
 11 12  1  0
 12 13  2  0
 13 14  1  0
M  CHG  2  21   1  23  -1
M  END
>  <minimizedAffinity>  (556) 
-8.57732

$$$$
cs_full_output_folder/data/smiles/7960.pdb
     RDKit          3D

 23 25  0  0  0  0  0  0  0  0999 V2000
   70.7640   49.1736   58.3922 C   0  0  0  0  0  0  0  0  0  0  0  0
   69.9782   50.2577   58.6774 C   0  0  0  0  0  0  0  0  0  0  0  0
   68.7845   50.4934   57.9834 C   0  0  0  0  0  0  0  0  0  0  0  0
   68.4318   49.5787   56.9916 C   0  0  0  0  0  0  0  0  0  0  0  0
   69.1966   48.4925   56.6878 C   0  0  0  0  0  0  0  0  0  0  0  0
   70.3806   48.2954   57.4060 C   0  0  0  0  0  0  0  0  0  0  0  0
   68.7949   47.5671   55.6144 C   0  0  0  0  0  0  0  0  0  0  0  0
   68.1030   46.4665   56.0044 N   0  0  0  0  0  0  0  0  0  0  0  0
   67.7085   45.5885   55.1212 N   0  0  0  0  0  0  0  0  0  0  0  0
   67.9585   45.7207   53.8097 C   0  0  0  0  0  0  0  0  0  0  0  0
   67.5502   44.8391   53.0147 O   0  0  0  0  0  0  0  0  0  0  0  0
   68.6659   46.8308   53.3573 C   0  0  0  0  0  0  0  0  0  0  0  0
   68.9511   46.9871   52.0272 C   0  0  0  0  0  0  0  0  0  0  0  0
   69.6615   48.0810   51.6186 C   0  0  0  0  0  0  0  0  0  0  0  0
   70.0838   49.0120   52.5500 C   0  0  0  0  0  0  0  0  0  0  0  0
   69.7911   48.8433   53.8859 C   0  0  0  0  0  0  0  0  0  0  0  0
   69.0792   47.7529   54.2990 C   0  0  0  0  0  0  0  0  0  0  0  0
   72.0069   48.9437   59.1426 C   0  0  0  0  0  0  0  0  0  0  0  0
   72.5855   47.0549   60.7262 C   0  0  0  0  0  0  0  0  0  0  0  0
   72.6616   47.8640   61.6826 O   0  0  0  0  0  0  0  0  0  0  0  0
   72.2621   47.5516   59.4427 N   0  0  0  0  0  0  0  0  0  0  0  0
   71.5907   44.9003   60.8123 N   0  0  0  0  0  0  0  0  0  0  0  0
   72.8367   45.5872   60.9647 C   0  0  0  0  0  0  0  0  0  0  0  0
 22 23  1  0
 23 19  1  0
 19 20  2  0
 19 21  1  0
 21 18  1  0
 18  1  1  0
  1  2  2  0
  1  6  1  0
  2  3  1  0
  3  4  2  0
  4  5  1  0
  5  7  1  0
  5  6  2  0
  7  8  2  0
  7 17  1  0
  8  9  1  0
  9 10  1  0
 10 11  2  0
 10 12  1  0
 12 13  1  0
 12 17  2  0
 13 14  2  0
 14 15  1  0
 15 16  2  0
 16 17  1  0
M  CHG  1  22   1
M  END
>  <minimizedAffinity>  (557) 
-8.57720

$$$$
cs_full_output_folder/data/smiles/1637.pdb
     RDKit          3D

 22 24  0  0  0  0  0  0  0  0999 V2000
   70.7257   50.0319   53.9474 C   0  0  0  0  0  0  0  0  0  0  0  0
   72.0925   50.0066   53.8037 N   0  0  0  0  0  0  0  0  0  0  0  0
   72.6101   51.1950   54.0284 N   0  0  0  0  0  0  0  0  0  0  0  0
   71.6311   52.0638   54.3285 C   0  0  0  0  0  0  0  0  0  0  0  0
   70.4496   51.3205   54.2747 C   0  0  0  0  0  0  0  0  0  0  0  0
   68.3195   46.5846   53.1836 C   0  0  0  0  0  0  0  0  0  0  0  0
   68.5184   47.0556   54.4528 C   0  0  0  0  0  0  0  0  0  0  0  0
   69.2902   48.1723   54.7606 C   0  0  0  0  0  0  0  0  0  0  0  0
   69.8948   48.8529   53.7571 C   0  0  0  0  0  0  0  0  0  0  0  0
   69.7056   48.3873   52.4358 C   0  0  0  0  0  0  0  0  0  0  0  0
   70.3183   49.0685   51.3664 O   0  0  0  0  0  0  0  0  0  0  0  0
   68.9382   47.2841   52.1683 C   0  0  0  0  0  0  0  0  0  0  0  0
   68.7550   46.8349   50.9047 F   0  0  0  0  0  0  0  0  0  0  0  0
   66.8201   45.4124   51.8031 O   0  0  0  0  0  0  0  0  0  0  0  0
   67.5322   45.4586   52.9477 O   0  0  0  0  0  0  0  0  0  0  0  0
   69.1084   51.8777   54.5395 C   0  0  0  0  0  0  0  0  0  0  0  0
   68.6793   51.3890   55.9155 C   0  0  0  0  0  0  0  0  0  0  0  0
   69.6079   51.1196   56.8961 C   0  0  0  0  0  0  0  0  0  0  0  0
   69.1551   50.6822   58.1201 C   0  0  0  0  0  0  0  0  0  0  0  0
   67.8232   50.4977   58.4191 C   0  0  0  0  0  0  0  0  0  0  0  0
   66.9049   50.7709   57.4295 C   0  0  0  0  0  0  0  0  0  0  0  0
   67.3426   51.2061   56.2087 C   0  0  0  0  0  0  0  0  0  0  0  0
 14 15  1  0
 15  6  1  0
  6  7  2  0
  6 12  1  0
  7  8  1  0
  8  9  2  0
  9  1  1  0
  9 10  1  0
  1  2  2  0
  1  5  1  0
  2  3  1  0
  3  4  1  0
  4  5  2  0
  5 16  1  0
 16 17  1  0
 17 18  2  0
 17 22  1  0
 18 19  1  0
 19 20  2  0
 20 21  1  0
 21 22  2  0
 10 11  1  0
 10 12  2  0
 12 13  1  0
M  END
>  <minimizedAffinity>  (558) 
-8.57675

$$$$
cs_full_output_folder/data/smiles/8097.pdb
     RDKit          3D

 22 23  0  0  0  0  0  0  0  0999 V2000
   68.5600   45.9060   56.6191 O   0  0  0  0  0  0  0  0  0  0  0  0
   68.3932   45.5021   55.4079 C   0  0  0  0  0  0  0  0  0  0  0  0
   67.9591   44.1743   55.2977 N   0  0  0  0  0  0  0  0  0  0  0  0
   68.6574   46.4164   54.3182 C   0  0  0  0  0  0  0  0  0  0  0  0
   68.3237   46.2079   53.0110 C   0  0  0  0  0  0  0  0  0  0  0  0
   67.6881   45.0566   52.6616 F   0  0  0  0  0  0  0  0  0  0  0  0
   68.6186   47.1514   52.0125 C   0  0  0  0  0  0  0  0  0  0  0  0
   68.2484   46.8551   50.7484 F   0  0  0  0  0  0  0  0  0  0  0  0
   69.2552   48.3300   52.2959 C   0  0  0  0  0  0  0  0  0  0  0  0
   69.5449   49.2502   51.3309 F   0  0  0  0  0  0  0  0  0  0  0  0
   69.5990   48.5560   53.6093 C   0  0  0  0  0  0  0  0  0  0  0  0
   70.2363   49.7193   53.9326 F   0  0  0  0  0  0  0  0  0  0  0  0
   69.3078   47.6294   54.5828 C   0  0  0  0  0  0  0  0  0  0  0  0
   69.6498   47.8562   55.8776 F   0  0  0  0  0  0  0  0  0  0  0  0
   67.7203   43.3351   56.4072 N   0  0  0  0  0  0  0  0  0  0  0  0
   67.7956   42.0553   56.3123 C   0  0  0  0  0  0  0  0  0  0  0  0
   67.5559   41.1675   57.4310 C   0  0  0  0  0  0  0  0  0  0  0  0
   66.7459   41.5072   58.4696 C   0  0  0  0  0  0  0  0  0  0  0  0
   66.5293   40.6444   59.5301 C   0  0  0  0  0  0  0  0  0  0  0  0
   67.1430   39.4008   59.5519 C   0  0  0  0  0  0  0  0  0  0  0  0
   67.9627   39.0364   58.5192 C   0  0  0  0  0  0  0  0  0  0  0  0
   68.1587   39.9100   57.4828 C   0  0  0  0  0  0  0  0  0  0  0  0
  1  2  2  0
  2  3  1  0
  2  4  1  0
  3 15  1  0
 15 16  2  0
 16 17  1  0
 17 18  2  0
 17 22  1  0
 18 19  1  0
 19 20  2  0
 20 21  1  0
 21 22  2  0
  4  5  2  0
  4 13  1  0
  5  6  1  0
  5  7  1  0
  7  8  1  0
  7  9  2  0
  9 10  1  0
  9 11  1  0
 11 12  1  0
 11 13  2  0
 13 14  1  0
M  END
>  <minimizedAffinity>  (559) 
-8.57576

$$$$
cs_full_output_folder/data/smiles/3703.pdb
     RDKit          3D

 24 27  0  0  0  0  0  0  0  0999 V2000
   71.1844   49.1629   52.8167 O   0  0  0  0  0  0  0  0  0  0  0  0
   70.3886   48.3223   52.4106 C   0  0  0  0  0  0  0  0  0  0  0  0
   70.3566   47.8318   51.1472 N   0  0  0  0  0  0  0  0  0  0  0  0
   69.3799   46.9179   51.0391 N   0  0  0  0  0  0  0  0  0  0  0  0
   68.7737   46.8058   52.2160 C   0  0  0  0  0  0  0  0  0  0  0  0
   69.4163   47.6919   53.0445 N   0  0  0  0  0  0  0  0  0  0  0  0
   69.0597   47.9242   54.4061 C   0  0  0  0  0  0  0  0  0  0  0  0
   68.6757   46.9122   55.2759 C   0  0  0  0  0  0  0  0  0  0  0  0
   68.4016   47.2523   56.5689 C   0  0  0  0  0  0  0  0  0  0  0  0
   68.5089   48.5801   56.9710 C   0  0  0  0  0  0  0  0  0  0  0  0
   68.8929   49.5535   56.0606 C   0  0  0  0  0  0  0  0  0  0  0  0
   69.1832   49.2521   54.7225 C   0  0  0  0  0  0  0  0  0  0  0  0
   68.4306   45.4561   54.9613 C   0  0  0  0  0  0  0  0  0  0  0  0
   67.5992   45.3364   53.7680 N   0  0  0  0  0  0  0  0  0  0  0  0
   67.7007   45.8742   52.6104 C   0  0  0  0  0  0  0  0  0  0  0  0
   69.5377   50.2006   53.8523 O   0  0  0  0  0  0  0  0  0  0  0  0
   69.5582   51.5482   53.7451 C   0  0  0  0  0  0  0  0  0  0  0  0
   70.2519   52.3447   54.7656 C   0  0  0  0  0  0  0  0  0  0  0  0
   71.5949   52.2764   55.0302 C   0  0  0  0  0  0  0  0  0  0  0  0
   72.1403   53.0553   56.0140 C   0  0  0  0  0  0  0  0  0  0  0  0
   71.3998   53.9327   56.7799 C   0  0  0  0  0  0  0  0  0  0  0  0
   70.0498   53.9914   56.5026 C   0  0  0  0  0  0  0  0  0  0  0  0
   69.2647   54.8437   57.2295 F   0  0  0  0  0  0  0  0  0  0  0  0
   69.4867   53.2201   55.5227 C   0  0  0  0  0  0  0  0  0  0  0  0
  1  2  2  0
  2  3  1  0
  2  6  1  0
  3  4  1  0
  4  5  2  0
  5  6  1  0
  5 15  1  0
  6  7  1  0
  7  8  2  0
  7 12  1  0
  8  9  1  0
  8 13  1  0
  9 10  2  0
 10 11  1  0
 11 12  2  0
 12 16  1  0
 16 17  1  0
 17 18  1  0
 18 19  2  0
 18 24  1  0
 19 20  1  0
 20 21  2  0
 21 22  1  0
 22 23  1  0
 22 24  2  0
 13 14  1  0
 14 15  2  0
M  END
>  <minimizedAffinity>  (560) 
-8.57513

$$$$
cs_full_output_folder/data/smiles/5792.pdb
     RDKit          3D

 24 26  0  0  0  0  0  0  0  0999 V2000
   69.3073   48.5268   56.4674 C   0  0  1  0  0  0  0  0  0  0  0  0
   68.3520   49.6615   56.8396 C   0  0  0  0  0  0  0  0  0  0  0  0
   69.5926   48.5764   55.0326 C   0  0  0  0  0  0  0  0  0  0  0  0
   70.4210   49.4887   54.5063 N   0  0  0  0  0  0  0  0  0  0  0  0
   70.7105   49.5667   53.2292 N   0  0  0  0  0  0  0  0  0  0  0  0
   70.1740   48.7054   52.3464 C   0  0  0  0  0  0  0  0  0  0  0  0
   70.4450   48.7741   51.1258 O   0  0  0  0  0  0  0  0  0  0  0  0
   69.2994   47.7260   52.8264 C   0  0  0  0  0  0  0  0  0  0  0  0
   69.0057   47.6587   54.1709 C   0  0  0  0  0  0  0  0  0  0  0  0
   68.0799   46.6471   54.7397 C   0  0  0  0  0  0  0  0  0  0  0  0
   68.0990   45.4513   53.7842 C   0  0  0  0  0  0  0  0  0  0  0  0
   67.6314   46.0064   52.4459 C   0  0  0  0  0  0  0  0  0  0  0  0
   68.7342   46.7998   51.8135 C   0  0  0  0  0  0  0  0  0  0  0  0
   70.5351   48.5993   57.3486 C   0  0  0  0  0  0  0  0  0  0  0  0
   70.4093   44.8505   57.9347 C   0  0  0  0  0  0  0  0  0  0  0  0
   71.1787   44.7162   59.0656 C   0  0  0  0  0  0  0  0  0  0  0  0
   71.7592   45.8378   59.6695 C   0  0  0  0  0  0  0  0  0  0  0  0
   71.5421   47.0875   59.1032 C   0  0  0  0  0  0  0  0  0  0  0  0
   70.7737   47.2452   57.9686 C   0  0  0  0  0  0  0  0  0  0  0  0
   70.2265   46.1082   57.4140 C   0  0  0  0  0  0  0  0  0  0  0  0
   69.8241   43.6560   57.3385 C   0  0  0  0  0  0  0  0  0  0  0  0
   70.4736   42.5723   57.2426 O   0  0  0  0  0  0  0  0  0  0  0  0
   67.9032   42.4133   56.4264 C   0  0  0  0  0  0  0  0  0  0  0  0
   68.5282   43.6325   56.8423 O   0  0  0  0  0  0  0  0  0  0  0  0
 23 24  1  0
 24 21  1  0
 21 22  2  0
 21 15  1  0
 15 16  2  0
 15 20  1  0
 16 17  1  0
 17 18  2  0
 18 19  1  0
 19 14  1  0
 19 20  2  0
 14  1  1  0
  1  2  1  1
  1  3  1  0
  3  4  2  0
  3  9  1  0
  4  5  1  0
  5  6  1  0
  6  7  2  0
  6  8  1  0
  8  9  2  0
  8 13  1  0
  9 10  1  0
 10 11  1  0
 11 12  1  0
 12 13  1  0
M  END
>  <minimizedAffinity>  (561) 
-8.57487

$$$$
cs_full_output_folder/data/smiles/2604.pdb
     RDKit          3D

 24 26  0  0  0  0  0  0  0  0999 V2000
   74.6354   50.5578   55.9078 C   0  0  0  0  0  0  0  0  0  0  0  0
   74.1805   51.1354   54.7509 C   0  0  0  0  0  0  0  0  0  0  0  0
   72.8586   51.1808   54.4035 C   0  0  0  0  0  0  0  0  0  0  0  0
   71.9047   50.6268   55.2337 C   0  0  0  0  0  0  0  0  0  0  0  0
   72.3553   50.0490   56.3900 C   0  0  0  0  0  0  0  0  0  0  0  0
   73.6383   50.0243   56.6915 N   0  0  0  0  0  0  0  0  0  0  0  0
   77.0615   49.8531   55.7015 C   0  0  0  0  0  0  0  0  0  0  0  0
   76.8542   49.2760   54.6059 O   0  0  0  0  0  0  0  0  0  0  0  0
   75.9776   50.4750   56.3306 N   0  0  0  0  0  0  0  0  0  0  0  0
   80.7258   48.9929   56.2439 C   0  0  0  0  0  0  0  0  0  0  0  0
   79.3208   49.0232   55.7079 C   0  0  0  0  0  0  0  0  0  0  0  0
   78.4108   49.8189   56.2109 C   0  0  0  0  0  0  0  0  0  0  0  0
   70.4964   50.6655   54.7844 C   0  0  0  0  0  0  0  0  0  0  0  0
   70.0888   49.6215   53.8414 C   0  0  0  0  0  0  0  0  0  0  0  0
   70.3817   49.8349   52.5114 N   0  0  0  0  0  0  0  0  0  0  0  0
   70.0383   48.9746   51.5893 N   0  0  0  0  0  0  0  0  0  0  0  0
   69.3858   47.8501   51.9087 C   0  0  0  0  0  0  0  0  0  0  0  0
   69.0635   47.0371   51.0114 O   0  0  0  0  0  0  0  0  0  0  0  0
   69.0460   47.5488   53.2315 C   0  0  0  0  0  0  0  0  0  0  0  0
   69.4115   48.4591   54.1954 C   0  0  0  0  0  0  0  0  0  0  0  0
   69.1622   48.2751   55.6353 C   0  0  0  0  0  0  0  0  0  0  0  0
   68.1599   47.1784   55.8581 C   0  0  0  0  0  0  0  0  0  0  0  0
   68.3744   45.9725   55.0022 C   0  0  0  0  0  0  0  0  0  0  0  0
   68.3336   46.2905   53.5422 C   0  0  0  0  0  0  0  0  0  0  0  0
 10 11  1  0
 11 12  2  0
 12  7  1  0
  7  8  2  0
  7  9  1  0
  9  1  1  0
  1  2  2  0
  1  6  1  0
  2  3  1  0
  3  4  2  0
  4 13  1  0
  4  5  1  0
 13 14  1  0
 14 15  2  0
 14 20  1  0
 15 16  1  0
 16 17  1  0
 17 18  2  0
 17 19  1  0
 19 20  2  0
 19 24  1  0
 20 21  1  0
 21 22  1  0
 22 23  1  0
 23 24  1  0
  5  6  2  0
M  END
>  <minimizedAffinity>  (562) 
-8.57449

$$$$
cs_full_output_folder/data/smiles/2510.pdb
     RDKit          3D

 22 24  0  0  0  0  0  0  0  0999 V2000
   67.1127   42.0161   55.6851 O   0  0  0  0  0  0  0  0  0  0  0  0
   67.9018   42.6147   56.4205 C   0  0  0  0  0  0  0  0  0  0  0  0
   68.1835   43.9981   56.0211 N   0  0  0  0  0  0  0  0  0  0  0  0
   68.5517   42.1107   57.5886 C   0  0  0  0  0  0  0  0  0  0  0  0
   68.8597   43.0187   58.4919 O   0  0  0  0  0  0  0  0  0  0  0  0
   68.9307   40.7757   57.9674 C   0  0  0  0  0  0  0  0  0  0  0  0
   68.0321   39.6782   57.9925 C   0  0  0  0  0  0  0  0  0  0  0  0
   68.6972   38.5632   58.2864 N   0  0  0  0  0  0  0  0  0  0  0  0
   70.0030   38.8171   58.4702 C   0  0  0  0  0  0  0  0  0  0  0  0
   71.0775   38.0142   58.8031 C   0  0  0  0  0  0  0  0  0  0  0  0
   72.3355   38.5560   58.9562 C   0  0  0  0  0  0  0  0  0  0  0  0
   72.5116   39.9066   58.7736 C   0  0  0  0  0  0  0  0  0  0  0  0
   71.4166   40.6731   58.4409 C   0  0  0  0  0  0  0  0  0  0  0  0
   70.1347   40.1974   58.2705 C   0  0  0  0  0  0  0  0  0  0  0  0
   67.5827   44.5443   54.8962 N   0  0  0  0  0  0  0  0  0  0  0  0
   68.1125   45.6670   54.2105 C   0  0  0  0  0  0  0  0  0  0  0  0
   68.0752   45.6827   52.8387 C   0  0  0  0  0  0  0  0  0  0  0  0
   68.5673   46.7330   52.0952 C   0  0  0  0  0  0  0  0  0  0  0  0
   69.1218   47.8185   52.7390 C   0  0  0  0  0  0  0  0  0  0  0  0
   69.7668   49.1900   51.8212 Cl  0  0  0  0  0  0  0  0  0  0  0  0
   69.1605   47.8033   54.1214 C   0  0  0  0  0  0  0  0  0  0  0  0
   68.6645   46.7459   54.8603 C   0  0  0  0  0  0  0  0  0  0  0  0
  1  2  2  0
  2  3  1  0
  2  4  1  0
  3 15  1  0
 15 16  1  0
 16 17  2  0
 16 22  1  0
 17 18  1  0
 18 19  2  0
 19 20  1  0
 19 21  1  0
 21 22  2  0
  4  5  2  0
  4  6  1  0
  6  7  2  0
  6 14  1  0
  7  8  1  0
  8  9  1  0
  9 10  1  0
  9 14  2  0
 10 11  2  0
 11 12  1  0
 12 13  2  0
 13 14  1  0
M  END
>  <minimizedAffinity>  (563) 
-8.57434

$$$$
cs_full_output_folder/data/smiles/8240.pdb
     RDKit          3D

 23 26  0  0  0  0  0  0  0  0999 V2000
   68.8927   47.9381   56.2409 C   0  0  0  0  0  0  0  0  0  0  0  0
   72.1802   46.1543   59.1372 O   0  0  0  0  0  0  0  0  0  0  0  0
   71.2202   45.9556   58.3508 C   0  0  0  0  0  0  0  0  0  0  0  0
   70.5673   46.9613   57.7222 N   0  0  0  0  0  0  0  0  0  0  0  0
   69.5461   46.7667   56.8839 C   0  0  0  0  0  0  0  0  0  0  0  0
   69.1527   45.5000   56.6603 N   0  0  0  0  0  0  0  0  0  0  0  0
   69.7710   44.4576   57.2635 C   0  0  0  0  0  0  0  0  0  0  0  0
   69.3782   43.1524   57.0431 C   0  0  0  0  0  0  0  0  0  0  0  0
   70.0070   42.0900   57.6562 C   0  0  0  0  0  0  0  0  0  0  0  0
   71.0612   42.2764   58.5225 C   0  0  0  0  0  0  0  0  0  0  0  0
   71.4581   43.5789   58.7469 C   0  0  0  0  0  0  0  0  0  0  0  0
   70.8274   44.6503   58.1304 C   0  0  0  0  0  0  0  0  0  0  0  0
   69.2706   48.1288   54.8441 C   0  0  0  0  0  0  0  0  0  0  0  0
   70.1579   49.0772   54.5114 N   0  0  0  0  0  0  0  0  0  0  0  0
   70.5646   49.3293   53.2969 N   0  0  0  0  0  0  0  0  0  0  0  0
   70.1068   48.6294   52.2595 C   0  0  0  0  0  0  0  0  0  0  0  0
   70.4833   48.8502   51.0695 O   0  0  0  0  0  0  0  0  0  0  0  0
   69.1791   47.6239   52.5315 C   0  0  0  0  0  0  0  0  0  0  0  0
   68.7048   46.9029   51.4651 C   0  0  0  0  0  0  0  0  0  0  0  0
   67.7891   45.9079   51.7141 C   0  0  0  0  0  0  0  0  0  0  0  0
   67.3902   45.6800   53.0123 C   0  0  0  0  0  0  0  0  0  0  0  0
   67.8532   46.3857   54.0574 N   0  0  0  0  0  0  0  0  0  0  0  0
   68.7520   47.3624   53.8225 C   0  0  0  0  0  0  0  0  0  0  0  0
  2  3  2  0
  3  4  1  0
  3 12  1  0
  4  5  1  0
  5  1  1  0
  5  6  2  0
  1 13  1  0
 13 14  2  0
 13 23  1  0
 14 15  1  0
 15 16  1  0
 16 17  2  0
 16 18  1  0
 18 19  1  0
 18 23  2  0
 19 20  2  0
 20 21  1  0
 21 22  2  0
 22 23  1  0
  6  7  1  0
  7  8  1  0
  7 12  2  0
  8  9  2  0
  9 10  1  0
 10 11  2  0
 11 12  1  0
M  END
>  <minimizedAffinity>  (564) 
-8.57405

$$$$
cs_full_output_folder/data/smiles/1239.pdb
     RDKit          3D

 24 26  0  0  0  0  0  0  0  0999 V2000
   68.3921   44.5999   55.9322 N   0  0  0  0  0  0  0  0  0  0  0  0
   69.0878   43.8891   56.9403 C   0  0  0  0  0  0  0  0  0  0  0  0
   69.8841   44.5118   57.6653 O   0  0  0  0  0  0  0  0  0  0  0  0
   68.8744   42.4461   57.1266 C   0  0  0  0  0  0  0  0  0  0  0  0
   67.8816   41.6816   56.5550 C   0  0  0  0  0  0  0  0  0  0  0  0
   68.0543   40.4236   56.9867 N   0  0  0  0  0  0  0  0  0  0  0  0
   69.0876   40.3085   57.7976 N   0  0  0  0  0  0  0  0  0  0  0  0
   69.6001   41.5575   57.8885 C   0  0  0  0  0  0  0  0  0  0  0  0
   69.5745   39.1306   58.4448 C   0  0  0  0  0  0  0  0  0  0  0  0
   68.7640   38.4744   59.3436 C   0  0  0  0  0  0  0  0  0  0  0  0
   69.1855   37.3219   59.9996 C   0  0  0  0  0  0  0  0  0  0  0  0
   70.4434   36.8107   59.7556 C   0  0  0  0  0  0  0  0  0  0  0  0
   71.0300   35.3641   60.5504 Cl  0  0  0  0  0  0  0  0  0  0  0  0
   71.2683   37.4563   58.8590 C   0  0  0  0  0  0  0  0  0  0  0  0
   70.8210   38.5999   58.2223 C   0  0  0  0  0  0  0  0  0  0  0  0
   68.5049   46.0039   55.6436 C   0  0  0  0  0  0  0  0  0  0  0  0
   69.2029   47.5936   52.2742 C   0  0  0  0  0  0  0  0  0  0  0  0
   68.4036   46.8362   51.4401 C   0  0  0  0  0  0  0  0  0  0  0  0
   67.6524   45.8294   51.9634 C   0  0  0  0  0  0  0  0  0  0  0  0
   67.6894   45.5673   53.3234 C   0  0  0  0  0  0  0  0  0  0  0  0
   68.4677   46.2917   54.1950 C   0  0  0  0  0  0  0  0  0  0  0  0
   69.2185   47.3099   53.6214 C   0  0  0  0  0  0  0  0  0  0  0  0
   70.4014   49.6779   52.6375 N   0  0  0  0  0  0  0  0  0  0  0  0
   70.0125   48.6791   51.6699 C   0  0  0  0  0  0  0  0  0  0  0  0
 23 24  1  0
 24 17  1  0
 17 18  2  0
 17 22  1  0
 18 19  1  0
 19 20  2  0
 20 21  1  0
 21 16  1  0
 21 22  2  0
 16  1  1  0
  1  2  1  0
  2  3  2  0
  2  4  1  0
  4  5  1  0
  4  8  2  0
  5  6  2  0
  6  7  1  0
  7  9  1  0
  7  8  1  0
  9 10  2  0
  9 15  1  0
 10 11  1  0
 11 12  2  0
 12 13  1  0
 12 14  1  0
 14 15  2  0
M  CHG  1  23   1
M  END
>  <minimizedAffinity>  (565) 
-8.57352

$$$$
cs_full_output_folder/data/smiles/4298.pdb
     RDKit          3D

 22 24  0  0  0  0  0  0  0  0999 V2000
   67.4901   41.7327   55.8257 O   0  0  0  0  0  0  0  0  0  0  0  0
   68.0679   42.4914   56.5779 C   0  0  0  0  0  0  0  0  0  0  0  0
   68.1470   43.8785   56.1767 N   0  0  0  0  0  0  0  0  0  0  0  0
   68.6768   42.0951   57.8406 C   0  0  0  0  0  0  0  0  0  0  0  0
   67.9958   42.4285   58.8947 O   0  0  0  0  0  0  0  0  0  0  0  0
   69.8887   41.4145   58.1075 C   0  0  0  0  0  0  0  0  0  0  0  0
   71.1500   42.0524   57.9646 C   0  0  0  0  0  0  0  0  0  0  0  0
   72.1264   41.1573   58.1539 N   0  0  0  0  0  0  0  0  0  0  0  0
   71.5949   39.9514   58.4190 C   0  0  0  0  0  0  0  0  0  0  0  0
   72.1674   38.7185   58.7237 C   0  0  0  0  0  0  0  0  0  0  0  0
   71.4120   37.6207   59.0119 C   0  0  0  0  0  0  0  0  0  0  0  0
   70.0454   37.7790   58.9890 C   0  0  0  0  0  0  0  0  0  0  0  0
   69.4792   38.9907   58.6868 C   0  0  0  0  0  0  0  0  0  0  0  0
   70.2260   40.1243   58.3875 C   0  0  0  0  0  0  0  0  0  0  0  0
   67.6603   44.4774   55.0729 N   0  0  0  0  0  0  0  0  0  0  0  0
   68.0882   45.5161   54.2498 C   0  0  0  0  0  0  0  0  0  0  0  0
   68.0297   45.5663   52.8953 C   0  0  0  0  0  0  0  0  0  0  0  0
   68.5036   46.6317   52.1638 C   0  0  0  0  0  0  0  0  0  0  0  0
   69.0826   47.7442   52.7976 C   0  0  0  0  0  0  0  0  0  0  0  0
   69.6766   49.0948   51.8471 Cl  0  0  0  0  0  0  0  0  0  0  0  0
   69.1564   47.7272   54.1692 C   0  0  0  0  0  0  0  0  0  0  0  0
   68.6697   46.6444   54.8471 C   0  0  0  0  0  0  0  0  0  0  0  0
  1  2  2  0
  2  3  1  0
  2  4  1  0
  3 15  1  0
 15 16  1  0
 16 17  2  0
 16 22  1  0
 17 18  1  0
 18 19  2  0
 19 20  1  0
 19 21  1  0
 21 22  2  0
  4  5  2  0
  4  6  1  0
  6  7  2  0
  6 14  1  0
  7  8  1  0
  8  9  1  0
  9 10  1  0
  9 14  2  0
 10 11  2  0
 11 12  1  0
 12 13  2  0
 13 14  1  0
M  END
>  <minimizedAffinity>  (566) 
-8.57306

$$$$
cs_full_output_folder/data/smiles/2885.pdb
     RDKit          3D

 24 26  0  0  0  0  0  0  0  0999 V2000
   68.1043   45.8177   55.1852 N   0  0  0  0  0  0  0  0  0  0  0  0
   69.6704   48.7639   53.5750 C   0  0  0  0  0  0  0  0  0  0  0  0
   69.5692   48.3604   52.2577 C   0  0  0  0  0  0  0  0  0  0  0  0
   69.0015   47.1642   51.8975 C   0  0  0  0  0  0  0  0  0  0  0  0
   68.5160   46.3380   52.8813 C   0  0  0  0  0  0  0  0  0  0  0  0
   68.6068   46.7267   54.2221 C   0  0  0  0  0  0  0  0  0  0  0  0
   69.1855   47.9380   54.5454 C   0  0  0  0  0  0  0  0  0  0  0  0
   72.6152   51.4510   54.2723 C   0  0  0  0  0  0  0  0  0  0  0  0
   71.9243   50.1902   54.1932 N   0  0  0  0  0  0  0  0  0  0  0  0
   70.4146   50.3011   53.8756 S   0  0  2  0  0  0  0  0  0  0  0  0
   69.6305   51.0438   55.2851 C   0  0  0  0  0  0  0  0  0  0  0  0
   70.2704   51.2419   52.7159 O   0  0  0  0  0  0  0  0  0  0  0  0
   68.8596   45.1873   56.2111 C   0  0  0  0  0  0  0  0  0  0  0  0
   69.7105   45.9621   56.9435 N   0  0  0  0  0  0  0  0  0  0  0  0
   70.4622   45.4471   57.9028 C   0  0  0  0  0  0  0  0  0  0  0  0
   70.3757   44.0746   58.1632 C   0  0  0  0  0  0  0  0  0  0  0  0
   69.5266   43.2671   57.4412 C   0  0  0  0  0  0  0  0  0  0  0  0
   68.8081   43.8911   56.4904 N   0  0  0  0  0  0  0  0  0  0  0  0
   69.4182   41.8331   57.6701 C   0  0  0  0  0  0  0  0  0  0  0  0
   68.2790   41.1497   57.2670 C   0  0  0  0  0  0  0  0  0  0  0  0
   68.1209   39.7939   57.4619 C   0  0  0  0  0  0  0  0  0  0  0  0
   69.1059   39.0495   58.0764 C   0  0  0  0  0  0  0  0  0  0  0  0
   70.2335   39.7162   58.4774 C   0  0  0  0  0  0  0  0  0  0  0  0
   70.3982   41.0869   58.2834 C   0  0  0  0  0  0  0  0  0  0  0  0
  8  9  1  0
  9 10  2  0
 10 11  1  1
 10 12  2  0
 10  2  1  0
  2  3  2  0
  2  7  1  0
  3  4  1  0
  4  5  2  0
  5  6  1  0
  6  1  1  0
  6  7  2  0
  1 13  1  0
 13 14  2  0
 13 18  1  0
 14 15  1  0
 15 16  2  0
 16 17  1  0
 17 19  1  0
 17 18  2  0
 19 20  2  0
 19 24  1  0
 20 21  1  0
 21 22  2  0
 22 23  1  0
 23 24  2  0
M  END
>  <minimizedAffinity>  (567) 
-8.57300

$$$$
cs_full_output_folder/data/smiles/3835.pdb
     RDKit          3D

 25 27  0  0  0  0  0  0  0  0999 V2000
   69.2528   46.8420   56.4440 C   0  0  0  0  0  0  0  0  0  0  0  0
   69.0701   45.7240   57.0095 O   0  0  0  0  0  0  0  0  0  0  0  0
   69.3203   48.0802   52.8869 C   0  0  0  0  0  0  0  0  0  0  0  0
   69.5308   47.9557   54.2650 C   0  0  0  0  0  0  0  0  0  0  0  0
   69.0047   46.9429   55.0168 C   0  0  0  0  0  0  0  0  0  0  0  0
   68.2309   46.0051   54.3787 C   0  0  0  0  0  0  0  0  0  0  0  0
   67.9971   46.0903   53.0105 C   0  0  0  0  0  0  0  0  0  0  0  0
   68.5431   47.1254   52.2794 C   0  0  0  0  0  0  0  0  0  0  0  0
   68.2718   47.1577   50.9046 O   0  0  0  0  0  0  0  0  0  0  0  0
   67.1954   45.1297   52.3441 N   0  0  0  0  0  0  0  0  0  0  0  0
   66.9420   44.0625   52.9128 O   0  0  0  0  0  0  0  0  0  0  0  0
   66.7129   45.3847   51.1000 O   0  0  0  0  0  0  0  0  0  0  0  0
   69.8361   50.4297   52.7468 C   0  0  0  0  0  0  0  0  0  0  0  0
   69.8784   49.1268   52.1663 O   0  0  0  0  0  0  0  0  0  0  0  0
   69.7137   47.9515   57.3114 C   0  0  0  0  0  0  0  0  0  0  0  0
   68.7266   49.0648   57.3525 C   0  0  0  0  0  0  0  0  0  0  0  0
   67.4246   48.8909   57.7607 C   0  0  0  0  0  0  0  0  0  0  0  0
   66.5552   49.9783   57.7978 C   0  0  0  0  0  0  0  0  0  0  0  0
   67.0005   51.2069   57.4287 C   0  0  0  0  0  0  0  0  0  0  0  0
   68.3140   51.3862   57.0154 C   0  0  0  0  0  0  0  0  0  0  0  0
   68.7354   52.6557   56.6437 C   0  0  0  0  0  0  0  0  0  0  0  0
   70.0428   52.8051   56.2359 C   0  0  0  0  0  0  0  0  0  0  0  0
   70.9349   51.7495   56.1862 C   0  0  0  0  0  0  0  0  0  0  0  0
   70.4777   50.5213   56.5599 C   0  0  0  0  0  0  0  0  0  0  0  0
   69.1728   50.3049   56.9803 C   0  0  0  0  0  0  0  0  0  0  0  0
 13 14  1  0
 14  3  1  0
  3  4  2  0
  3  8  1  0
  4  5  1  0
  5  1  1  0
  5  6  2  0
  1  2  2  0
  1 15  1  0
 15 16  1  0
 16 17  2  0
 16 25  1  0
 17 18  1  0
 18 19  2  0
 19 20  1  0
 20 21  1  0
 20 25  2  0
 21 22  2  0
 22 23  1  0
 23 24  2  0
 24 25  1  0
  6  7  1  0
  7 10  1  0
  7  8  2  0
 10 11  2  0
 10 12  1  0
  8  9  1  0
M  CHG  2  10   1  12  -1
M  END
>  <minimizedAffinity>  (568) 
-8.57277

$$$$
cs_full_output_folder/data/smiles/1930.pdb
     RDKit          3D

 24 26  0  0  0  0  0  0  0  0999 V2000
   70.1447   45.6955   59.0327 O   0  0  0  0  0  0  0  0  0  0  0  0
   69.9762   44.9473   58.0339 C   0  0  0  0  0  0  0  0  0  0  0  0
   69.6205   45.5478   56.8196 N   0  0  0  0  0  0  0  0  0  0  0  0
   70.1616   43.5110   58.2090 C   0  0  0  0  0  0  0  0  0  0  0  0
   71.3592   42.9032   57.8990 C   0  0  0  0  0  0  0  0  0  0  0  0
   71.5430   41.5341   58.0636 C   0  0  0  0  0  0  0  0  0  0  0  0
   70.5264   40.7333   58.5459 C   0  0  0  0  0  0  0  0  0  0  0  0
   69.3414   41.3785   58.8458 C   0  0  0  0  0  0  0  0  0  0  0  0
   69.1870   42.7098   58.6776 N   0  0  0  0  0  0  0  0  0  0  0  0
   70.6917   39.2942   58.7301 C   0  0  0  0  0  0  0  0  0  0  0  0
   69.8533   38.5551   59.5400 C   0  0  0  0  0  0  0  0  0  0  0  0
   70.0091   37.1943   59.7161 C   0  0  0  0  0  0  0  0  0  0  0  0
   71.0225   36.5064   59.0826 C   0  0  0  0  0  0  0  0  0  0  0  0
   71.8686   37.2320   58.2701 C   0  0  0  0  0  0  0  0  0  0  0  0
   71.7021   38.5926   58.1022 C   0  0  0  0  0  0  0  0  0  0  0  0
   69.4321   46.9668   56.6271 C   0  0  0  0  0  0  0  0  0  0  0  0
   68.1645   47.3011   55.8789 C   0  0  0  0  0  0  0  0  0  0  0  0
   68.4369   47.1521   54.4293 C   0  0  0  0  0  0  0  0  0  0  0  0
   67.8025   46.1329   53.7135 C   0  0  0  0  0  0  0  0  0  0  0  0
   68.0573   45.9899   52.3754 C   0  0  0  0  0  0  0  0  0  0  0  0
   68.9263   46.8190   51.6865 C   0  0  0  0  0  0  0  0  0  0  0  0
   69.5520   47.8239   52.3886 C   0  0  0  0  0  0  0  0  0  0  0  0
   70.4119   48.6539   51.7354 F   0  0  0  0  0  0  0  0  0  0  0  0
   69.2983   47.9772   53.7572 C   0  0  0  0  0  0  0  0  0  0  0  0
  1  2  2  0
  2  3  1  0
  2  4  1  0
  3 16  1  0
 16 17  1  0
 17 18  1  0
 18 19  2  0
 18 24  1  0
 19 20  1  0
 20 21  2  0
 21 22  1  0
 22 23  1  0
 22 24  2  0
  4  5  2  0
  4  9  1  0
  5  6  1  0
  6  7  2  0
  7 10  1  0
  7  8  1  0
 10 11  2  0
 10 15  1  0
 11 12  1  0
 12 13  2  0
 13 14  1  0
 14 15  2  0
  8  9  2  0
M  END
>  <minimizedAffinity>  (569) 
-8.57145

$$$$
cs_full_output_folder/data/smiles/217.pdb
     RDKit          3D

 25 28  0  0  0  0  0  0  0  0999 V2000
   70.5214   44.8184   58.1880 C   0  0  0  0  0  0  0  0  0  0  0  0
   70.6895   46.1521   58.4006 C   0  0  0  0  0  0  0  0  0  0  0  0
   69.9959   47.0562   57.5828 C   0  0  0  0  0  0  0  0  0  0  0  0
   69.1597   46.6170   56.5804 C   0  0  0  0  0  0  0  0  0  0  0  0
   69.0447   45.3058   56.4283 N   0  0  0  0  0  0  0  0  0  0  0  0
   69.6786   44.4046   57.1761 C   0  0  0  0  0  0  0  0  0  0  0  0
   71.2327   43.8390   59.0537 C   0  0  0  0  0  0  0  0  0  0  0  0
   68.3229   42.4705   63.4544 O   0  0  0  0  0  0  0  0  0  0  0  0
   69.0643   42.7610   62.4635 C   0  0  0  0  0  0  0  0  0  0  0  0
   68.4638   43.2150   61.3365 N   0  0  0  0  0  0  0  0  0  0  0  0
   69.1789   43.5375   60.2670 N   0  0  0  0  0  0  0  0  0  0  0  0
   70.5293   43.4292   60.2464 C   0  0  0  0  0  0  0  0  0  0  0  0
   71.1452   42.9744   61.3672 C   0  0  0  0  0  0  0  0  0  0  0  0
   70.4120   42.6268   62.5160 C   0  0  0  0  0  0  0  0  0  0  0  0
   71.0803   42.1440   63.7333 C   0  0  0  0  0  0  0  0  0  0  0  0
   72.4365   42.7507   63.9580 C   0  0  0  0  0  0  0  0  0  0  0  0
   72.9863   43.5085   62.7843 C   0  0  0  0  0  0  0  0  0  0  0  0
   72.6082   42.7573   61.5252 C   0  0  0  0  0  0  0  0  0  0  0  0
   68.4633   47.6367   55.7603 C   0  0  0  0  0  0  0  0  0  0  0  0
   68.5780   47.3091   54.3171 C   0  0  0  0  0  0  0  0  0  0  0  0
   69.4486   47.9919   53.4985 C   0  0  0  0  0  0  0  0  0  0  0  0
   69.5613   47.6899   52.1413 C   0  0  0  0  0  0  0  0  0  0  0  0
   68.7950   46.6930   51.6033 C   0  0  0  0  0  0  0  0  0  0  0  0
   67.9174   45.9939   52.3980 C   0  0  0  0  0  0  0  0  0  0  0  0
   67.8146   46.3092   53.7557 C   0  0  0  0  0  0  0  0  0  0  0  0
  8  9  2  0
  9 10  1  0
  9 14  1  0
 10 11  1  0
 11 12  2  0
 12  7  1  0
 12 13  1  0
  7  1  1  0
  1  2  2  0
  1  6  1  0
  2  3  1  0
  3  4  2  0
  4 19  1  0
  4  5  1  0
 19 20  1  0
 20 21  2  0
 20 25  1  0
 21 22  1  0
 22 23  2  0
 23 24  1  0
 24 25  2  0
  5  6  2  0
 13 14  2  0
 13 18  1  0
 14 15  1  0
 15 16  1  0
 16 17  1  0
 17 18  1  0
M  END
>  <minimizedAffinity>  (570) 
-8.57101

$$$$
cs_full_output_folder/data/smiles/7914.pdb
     RDKit          3D

 24 26  0  0  0  0  0  0  0  0999 V2000
   70.2776   44.7368   57.2804 N   0  0  0  0  0  0  0  0  0  0  0  0
   70.0441   46.0452   57.8559 C   0  0  0  0  0  0  0  0  0  0  0  0
   70.2955   46.1607   59.0509 O   0  0  0  0  0  0  0  0  0  0  0  0
   72.2501   43.4595   57.6563 C   0  0  0  0  0  0  0  0  0  0  0  0
   70.8177   43.6511   58.0834 C   0  0  2  0  0  0  0  0  0  0  0  0
   69.9958   42.4186   57.9177 C   0  0  0  0  0  0  0  0  0  0  0  0
   70.4025   41.2693   58.5205 C   0  0  0  0  0  0  0  0  0  0  0  0
   69.6642   40.0897   58.3710 C   0  0  0  0  0  0  0  0  0  0  0  0
   68.5251   40.1006   57.6103 C   0  0  0  0  0  0  0  0  0  0  0  0
   67.8331   38.9297   57.4861 F   0  0  0  0  0  0  0  0  0  0  0  0
   68.1305   41.2772   57.0062 C   0  0  0  0  0  0  0  0  0  0  0  0
   68.8561   42.4388   57.1537 C   0  0  0  0  0  0  0  0  0  0  0  0
   69.5024   47.1282   56.9577 C   0  0  0  0  0  0  0  0  0  0  0  0
   68.9164   46.5954   55.7246 C   0  0  0  0  0  0  0  0  0  0  0  0
   68.1340   45.4599   55.7786 N   0  0  0  0  0  0  0  0  0  0  0  0
   67.5891   44.9346   54.7082 N   0  0  0  0  0  0  0  0  0  0  0  0
   67.7367   45.4457   53.4778 C   0  0  0  0  0  0  0  0  0  0  0  0
   67.2200   44.9467   52.4608 O   0  0  0  0  0  0  0  0  0  0  0  0
   68.5104   46.5878   53.3501 C   0  0  0  0  0  0  0  0  0  0  0  0
   68.7022   47.1930   52.1327 C   0  0  0  0  0  0  0  0  0  0  0  0
   69.4523   48.3372   51.9874 C   0  0  0  0  0  0  0  0  0  0  0  0
   70.0304   48.8961   53.0955 C   0  0  0  0  0  0  0  0  0  0  0  0
   69.8508   48.3010   54.3386 C   0  0  0  0  0  0  0  0  0  0  0  0
   69.0980   47.1533   54.4925 C   0  0  0  0  0  0  0  0  0  0  0  0
  5  4  1  6
  5  1  1  0
  5  6  1  0
  1  2  1  0
  2  3  2  0
  2 13  1  0
 13 14  1  0
 14 15  2  0
 14 24  1  0
 15 16  1  0
 16 17  1  0
 17 18  2  0
 17 19  1  0
 19 20  1  0
 19 24  2  0
 20 21  2  0
 21 22  1  0
 22 23  2  0
 23 24  1  0
  6  7  2  0
  6 12  1  0
  7  8  1  0
  8  9  2  0
  9 10  1  0
  9 11  1  0
 11 12  2  0
M  END
>  <minimizedAffinity>  (571) 
-8.57098

$$$$
cs_full_output_folder/data/smiles/782.pdb
     RDKit          3D

 24 25  0  0  0  0  0  0  0  0999 V2000
   68.5505   43.6664   56.5673 C   0  0  0  0  0  0  0  0  0  0  0  0
   69.4798   44.3221   57.1084 O   0  0  0  0  0  0  0  0  0  0  0  0
   67.9171   44.2557   55.4486 N   0  0  0  0  0  0  0  0  0  0  0  0
   68.3343   45.5358   54.9808 C   0  0  0  0  0  0  0  0  0  0  0  0
   68.5467   46.5663   55.8654 C   0  0  0  0  0  0  0  0  0  0  0  0
   68.9479   47.7953   55.4137 C   0  0  0  0  0  0  0  0  0  0  0  0
   69.1543   48.0477   54.0372 C   0  0  0  0  0  0  0  0  0  0  0  0
   68.9476   47.0315   53.1291 C   0  0  0  0  0  0  0  0  0  0  0  0
   68.5379   45.7958   53.6568 C   0  0  0  0  0  0  0  0  0  0  0  0
   69.5779   49.3694   53.6263 C   0  0  0  0  0  0  0  0  0  0  0  0
   68.6945   50.3016   53.7630 O   0  0  0  0  0  0  0  0  0  0  0  0
   70.7602   49.7982   53.1155 O   0  0  0  0  0  0  0  0  0  0  0  0
   69.1199   47.1455   51.7021 C   0  0  0  0  0  0  0  0  0  0  0  0
   68.0740   46.9169   50.9855 O   0  0  0  0  0  0  0  0  0  0  0  0
   70.2110   47.4593   50.9586 O   0  0  0  0  0  0  0  0  0  0  0  0
   67.5302   41.4608   56.0661 C   0  0  0  0  0  0  0  0  0  0  0  0
   68.1809   42.3395   57.1202 C   0  0  1  0  0  0  0  0  0  0  0  0
   69.3918   41.6332   57.5881 C   0  0  0  0  0  0  0  0  0  0  0  0
   70.6335   42.2203   57.5680 C   0  0  0  0  0  0  0  0  0  0  0  0
   71.7616   41.5428   58.0112 C   0  0  0  0  0  0  0  0  0  0  0  0
   71.6214   40.2568   58.4776 C   0  0  0  0  0  0  0  0  0  0  0  0
   72.7213   39.5691   58.9186 F   0  0  0  0  0  0  0  0  0  0  0  0
   70.3954   39.6342   58.5124 C   0  0  0  0  0  0  0  0  0  0  0  0
   69.2817   40.3492   58.0585 C   0  0  0  0  0  0  0  0  0  0  0  0
 17 16  1  6
 17  1  1  0
 17 18  1  0
  1  2  2  0
  1  3  1  0
  3  4  1  0
  4  5  2  0
  4  9  1  0
  5  6  1  0
  6  7  2  0
  7 10  1  0
  7  8  1  0
 10 11  2  0
 10 12  1  0
  8 13  1  0
  8  9  2  0
 13 14  2  0
 13 15  1  0
 18 19  2  0
 18 24  1  0
 19 20  1  0
 20 21  2  0
 21 22  1  0
 21 23  1  0
 23 24  2  0
M  END
>  <minimizedAffinity>  (572) 
-8.57090

$$$$
cs_full_output_folder/data/smiles/1013.pdb
     RDKit          3D

 24 26  0  0  0  0  0  0  0  0999 V2000
   67.7380   45.1180   54.9427 N   0  0  0  0  0  0  0  0  0  0  0  0
   69.4138   48.1021   53.4257 C   0  0  0  0  0  0  0  0  0  0  0  0
   69.2030   47.8693   52.0807 C   0  0  0  0  0  0  0  0  0  0  0  0
   68.5047   46.7273   51.6964 C   0  0  0  0  0  0  0  0  0  0  0  0
   68.0343   45.8498   52.6518 C   0  0  0  0  0  0  0  0  0  0  0  0
   68.2342   46.0635   54.0132 C   0  0  0  0  0  0  0  0  0  0  0  0
   68.9256   47.1990   54.3405 C   0  0  0  0  0  0  0  0  0  0  0  0
   70.9506   50.8480   56.0128 C   0  0  0  0  0  0  0  0  0  0  0  0
   70.5902   49.5601   55.4467 C   0  0  0  0  0  0  0  0  0  0  0  0
   70.3031   49.5278   53.8802 S   0  0  2  0  0  0  0  0  0  0  0  0
   69.5347   51.0190   53.3927 C   0  0  0  0  0  0  0  0  0  0  0  0
   71.7131   49.5043   53.3434 O   0  0  0  0  0  0  0  0  0  0  0  0
   68.5608   44.6264   55.9869 C   0  0  0  0  0  0  0  0  0  0  0  0
   68.5310   43.2843   56.3410 C   0  0  0  0  0  0  0  0  0  0  0  0
   69.3053   42.7580   57.3473 C   0  0  0  0  0  0  0  0  0  0  0  0
   70.1212   43.6454   57.9909 N   0  0  0  0  0  0  0  0  0  0  0  0
   70.1777   44.9471   57.6775 C   0  0  0  0  0  0  0  0  0  0  0  0
   69.4000   45.4115   56.6862 N   0  0  0  0  0  0  0  0  0  0  0  0
   69.3061   41.3534   57.7387 C   0  0  0  0  0  0  0  0  0  0  0  0
   70.4800   40.8202   58.2665 C   0  0  0  0  0  0  0  0  0  0  0  0
   70.5707   39.5175   58.6527 C   0  0  0  0  0  0  0  0  0  0  0  0
   69.5132   38.6723   58.5388 C   0  0  0  0  0  0  0  0  0  0  0  0
   68.3290   39.1896   58.0119 C   0  0  0  0  0  0  0  0  0  0  0  0
   68.2418   40.5214   57.6196 C   0  0  0  0  0  0  0  0  0  0  0  0
  8  9  1  0
  9 10  2  0
 10 11  1  6
 10 12  2  0
 10  2  1  0
  2  3  2  0
  2  7  1  0
  3  4  1  0
  4  5  2  0
  5  6  1  0
  6  1  1  0
  6  7  2  0
  1 13  1  0
 13 14  2  0
 13 18  1  0
 14 15  1  0
 15 19  1  0
 15 16  2  0
 19 20  2  0
 19 24  1  0
 20 21  1  0
 21 22  2  0
 22 23  1  0
 23 24  2  0
 16 17  1  0
 17 18  2  0
M  END
>  <minimizedAffinity>  (573) 
-8.57000

$$$$
cs_full_output_folder/data/smiles/9672.pdb
     RDKit          3D

 25 27  0  0  0  0  0  0  0  0999 V2000
   74.1233   34.9210   55.5215 C   0  0  0  0  0  0  0  0  0  0  0  0
   73.6039   35.2996   54.3068 C   0  0  0  0  0  0  0  0  0  0  0  0
   74.4521   35.7042   53.2668 C   0  0  0  0  0  0  0  0  0  0  0  0
   75.8205   35.7435   53.3963 C   0  0  0  0  0  0  0  0  0  0  0  0
   76.3464   35.3638   54.6152 C   0  0  0  0  0  0  0  0  0  0  0  0
   75.5209   34.9669   55.6372 C   0  0  0  0  0  0  0  0  0  0  0  0
   71.6228   37.0920   58.5940 C   0  0  0  0  0  0  0  0  0  0  0  0
   71.3098   36.0034   59.2638 C   0  0  0  0  0  0  0  0  0  0  0  0
   71.8972   34.8286   58.6508 C   0  0  0  0  0  0  0  0  0  0  0  0
   71.8160   33.6357   59.0031 O   0  0  0  0  0  0  0  0  0  0  0  0
   72.6592   35.2882   57.4643 C   0  0  0  0  0  0  0  0  0  0  0  0
   73.3746   34.5023   56.6822 C   0  0  0  0  0  0  0  0  0  0  0  0
   72.4510   36.7420   57.4152 C   0  0  0  0  0  0  0  0  0  0  0  0
   71.4250   39.4404   58.2446 O   0  0  0  0  0  0  0  0  0  0  0  0
   71.1734   38.4533   58.9760 C   0  0  0  0  0  0  0  0  0  0  0  0
   70.4756   38.6556   60.1346 O   0  0  0  0  0  0  0  0  0  0  0  0
   76.6314   36.1494   52.3433 O   0  0  0  0  0  0  0  0  0  0  0  0
   77.3863   35.3312   51.5657 C   0  0  0  0  0  0  0  0  0  0  0  0
   78.3360   34.7417   52.1855 O   0  0  0  0  0  0  0  0  0  0  0  0
   77.2181   35.0758   50.1538 C   0  0  0  0  0  0  0  0  0  0  0  0
   77.9743   35.6897   49.1785 C   0  0  0  0  0  0  0  0  0  0  0  0
   77.7810   35.4124   47.8425 C   0  0  0  0  0  0  0  0  0  0  0  0
   76.8326   34.5153   47.4122 C   0  0  0  0  0  0  0  0  0  0  0  0
   76.0628   33.8884   48.3710 C   0  0  0  0  0  0  0  0  0  0  0  0
   76.2671   34.1767   49.7196 C   0  0  0  0  0  0  0  0  0  0  0  0
 14 15  2  0
 15 16  1  0
 15  7  1  0
  7  8  2  0
  7 13  1  0
  8  9  1  0
  9 10  2  0
  9 11  1  0
 11 12  2  0
 11 13  1  0
 12  1  1  0
  1  2  2  0
  1  6  1  0
  2  3  1  0
  3  4  2  0
  4 17  1  0
  4  5  1  0
 17 18  1  0
 18 19  2  0
 18 20  1  0
 20 21  2  0
 20 25  1  0
 21 22  1  0
 22 23  2  0
 23 24  1  0
 24 25  2  0
  5  6  2  0
M  END
>  <minimizedAffinity>  (574) 
-8.56891

$$$$
cs_full_output_folder/data/smiles/5345.pdb
     RDKit          3D

 23 25  0  0  0  0  0  0  0  0999 V2000
   72.5204   46.4423   59.5899 C   0  0  0  0  0  0  0  0  0  0  0  0
   71.4047   46.3185   58.6055 C   0  0  0  0  0  0  0  0  0  0  0  0
   70.6510   47.4697   58.3433 C   0  0  0  0  0  0  0  0  0  0  0  0
   69.6054   47.3919   57.4265 C   0  0  0  0  0  0  0  0  0  0  0  0
   69.2869   46.2296   56.7722 C   0  0  0  0  0  0  0  0  0  0  0  0
   70.0433   45.1187   57.0494 C   0  0  0  0  0  0  0  0  0  0  0  0
   71.0972   45.1542   57.9597 C   0  0  0  0  0  0  0  0  0  0  0  0
   71.8545   43.9316   58.2351 C   0  0  0  0  0  0  0  0  0  0  0  0
   71.4593   43.0378   59.2037 C   0  0  0  0  0  0  0  0  0  0  0  0
   72.1955   41.9123   59.4546 C   0  0  0  0  0  0  0  0  0  0  0  0
   73.3418   41.6507   58.7469 C   0  0  0  0  0  0  0  0  0  0  0  0
   73.7581   42.5174   57.7810 C   0  0  0  0  0  0  0  0  0  0  0  0
   73.0243   43.6451   57.5268 C   0  0  0  0  0  0  0  0  0  0  0  0
   68.2032   46.1964   55.8646 N   0  0  0  0  0  0  0  0  0  0  0  0
   68.3697   46.4393   54.4664 C   0  0  0  0  0  0  0  0  0  0  0  0
   67.6776   45.6633   53.5611 C   0  0  0  0  0  0  0  0  0  0  0  0
   67.7997   45.8651   52.1857 C   0  0  0  0  0  0  0  0  0  0  0  0
   68.6365   46.8697   51.7508 C   0  0  0  0  0  0  0  0  0  0  0  0
   69.3299   47.6477   52.6590 C   0  0  0  0  0  0  0  0  0  0  0  0
   69.1700   47.4021   53.9889 N   0  0  0  0  0  0  0  0  0  0  0  0
   70.1945   48.7035   52.1779 C   0  0  0  0  0  0  0  0  0  0  0  0
   71.2702   49.1458   52.9812 N   0  0  0  0  0  0  0  0  0  0  0  0
   69.9964   49.2206   51.0673 O   0  0  0  0  0  0  0  0  0  0  0  0
  1  2  1  0
  2  3  2  0
  2  7  1  0
  3  4  1  0
  4  5  2  0
  5 14  1  0
  5  6  1  0
 14 15  1  0
 15 16  2  0
 15 20  1  0
 16 17  1  0
 17 18  2  0
 18 19  1  0
 19 21  1  0
 19 20  2  0
 21 22  1  0
 21 23  2  0
  6  7  2  0
  7  8  1  0
  8  9  2  0
  8 13  1  0
  9 10  1  0
 10 11  2  0
 11 12  1  0
 12 13  2  0
M  END
>  <minimizedAffinity>  (575) 
-8.56805

$$$$
cs_full_output_folder/data/smiles/9496.pdb
     RDKit          3D

 23 24  0  0  0  0  0  0  0  0999 V2000
   70.4489   50.1806   53.7387 C   0  0  0  0  0  0  0  0  0  0  0  0
   70.2412   51.1287   52.9371 O   0  0  0  0  0  0  0  0  0  0  0  0
   71.2658   50.4591   54.8483 N   0  0  0  0  0  0  0  0  0  0  0  0
   68.8066   46.8373   54.2013 C   0  0  0  0  0  0  0  0  0  0  0  0
   68.6231   46.4514   52.8678 C   0  0  0  0  0  0  0  0  0  0  0  0
   69.0300   47.2719   51.8357 C   0  0  0  0  0  0  0  0  0  0  0  0
   69.6307   48.4967   52.1283 C   0  0  0  0  0  0  0  0  0  0  0  0
   69.8237   48.9037   53.4295 C   0  0  0  0  0  0  0  0  0  0  0  0
   69.3955   48.0394   54.4234 C   0  0  0  0  0  0  0  0  0  0  0  0
   68.2822   46.1994   56.4355 O   0  0  0  0  0  0  0  0  0  0  0  0
   68.3424   45.9015   55.2147 C   0  0  0  0  0  0  0  0  0  0  0  0
   67.9408   44.6005   54.8117 N   0  0  0  0  0  0  0  0  0  0  0  0
   67.5001   43.6946   55.7186 O   0  0  0  0  0  0  0  0  0  0  0  0
   71.8627   51.7239   55.1209 C   0  0  0  0  0  0  0  0  0  0  0  0
   71.1377   52.8055   55.5668 C   0  0  0  0  0  0  0  0  0  0  0  0
   71.6753   54.0466   55.8423 C   0  0  0  0  0  0  0  0  0  0  0  0
   73.0277   54.2337   55.6648 C   0  0  0  0  0  0  0  0  0  0  0  0
   73.7921   53.1522   55.2107 C   0  0  0  0  0  0  0  0  0  0  0  0
   73.2338   51.9275   54.9446 C   0  0  0  0  0  0  0  0  0  0  0  0
   74.0282   50.8011   54.4721 C   0  0  0  0  0  0  0  0  0  0  0  0
   73.8204   50.3071   53.3066 O   0  0  0  0  0  0  0  0  0  0  0  0
   75.0288   50.2529   55.3018 N   0  0  0  0  0  0  0  0  0  0  0  0
   75.7512   49.1936   54.8173 O   0  0  0  0  0  0  0  0  0  0  0  0
 10 11  2  0
 11 12  1  0
 11  4  1  0
 12 13  1  0
  4  5  2  0
  4  9  1  0
  5  6  1  0
  6  7  2  0
  7  8  1  0
  8  1  1  0
  8  9  2  0
  1  2  2  0
  1  3  1  0
  3 14  1  0
 14 15  2  0
 14 19  1  0
 15 16  1  0
 16 17  2  0
 17 18  1  0
 18 19  2  0
 19 20  1  0
 20 21  2  0
 20 22  1  0
 22 23  1  0
M  END
>  <minimizedAffinity>  (576) 
-8.56704

$$$$
cs_full_output_folder/data/smiles/7456.pdb
     RDKit          3D

 26 28  0  0  0  0  0  0  0  0999 V2000
   69.2020   46.7221   57.3956 N   0  0  0  0  0  0  0  0  0  0  0  0
   69.8511   47.9770   57.3423 C   0  0  0  0  0  0  0  0  0  0  0  0
   71.0510   48.0517   57.6851 O   0  0  0  0  0  0  0  0  0  0  0  0
   69.1519   49.1980   56.8948 C   0  0  0  0  0  0  0  0  0  0  0  0
   68.3864   49.9055   57.8354 C   0  0  0  0  0  0  0  0  0  0  0  0
   67.7219   51.0291   57.4308 C   0  0  0  0  0  0  0  0  0  0  0  0
   67.8135   51.4457   56.1191 C   0  0  0  0  0  0  0  0  0  0  0  0
   68.5689   50.7391   55.2141 C   0  0  0  0  0  0  0  0  0  0  0  0
   69.2647   49.5843   55.5873 C   0  0  0  0  0  0  0  0  0  0  0  0
   70.0838   48.8536   54.5960 C   0  0  0  0  0  0  0  0  0  0  0  0
   69.3348   47.9170   53.7484 C   0  0  0  0  0  0  0  0  0  0  0  0
   69.5407   47.9058   52.3886 C   0  0  0  0  0  0  0  0  0  0  0  0
   68.8262   47.0359   51.5978 C   0  0  0  0  0  0  0  0  0  0  0  0
   67.9007   46.1641   52.1220 C   0  0  0  0  0  0  0  0  0  0  0  0
   67.7040   46.1833   53.4788 C   0  0  0  0  0  0  0  0  0  0  0  0
   68.4211   47.0609   54.2952 C   0  0  0  0  0  0  0  0  0  0  0  0
   69.5638   44.2789   57.2414 C   0  0  0  0  0  0  0  0  0  0  0  0
   68.6963   44.2718   56.3333 O   0  0  0  0  0  0  0  0  0  0  0  0
   69.8583   45.5407   57.8238 N   0  0  0  0  0  0  0  0  0  0  0  0
   69.0450   39.4876   58.3355 C   0  0  0  0  0  0  0  0  0  0  0  0
   69.9330   40.6742   58.1616 C   0  0  0  0  0  0  0  0  0  0  0  0
   71.2979   40.5337   58.3669 C   0  0  0  0  0  0  0  0  0  0  0  0
   72.0953   41.6456   58.1992 C   0  0  0  0  0  0  0  0  0  0  0  0
   71.5466   42.8706   57.8339 C   0  0  0  0  0  0  0  0  0  0  0  0
   70.1933   43.0258   57.6263 C   0  0  0  0  0  0  0  0  0  0  0  0
   69.4128   41.9049   57.7993 C   0  0  0  0  0  0  0  0  0  0  0  0
 20 21  1  0
 21 22  2  0
 21 26  1  0
 22 23  1  0
 23 24  2  0
 24 25  1  0
 25 17  1  0
 25 26  2  0
 17 18  2  0
 17 19  1  0
 19  1  1  0
  1  2  1  0
  2  3  2  0
  2  4  1  0
  4  5  2  0
  4  9  1  0
  5  6  1  0
  6  7  2  0
  7  8  1  0
  8  9  2  0
  9 10  1  0
 10 11  1  0
 11 12  2  0
 11 16  1  0
 12 13  1  0
 13 14  2  0
 14 15  1  0
 15 16  2  0
M  END
>  <minimizedAffinity>  (577) 
-8.56685

$$$$
cs_full_output_folder/data/smiles/3221.pdb
     RDKit          3D

 25 28  0  0  0  0  0  0  0  0999 V2000
   70.3617   48.2363   57.0626 C   0  0  0  0  0  0  0  0  0  0  0  0
   71.5736   48.5574   57.5983 C   0  0  0  0  0  0  0  0  0  0  0  0
   72.2826   47.6097   58.3628 C   0  0  0  0  0  0  0  0  0  0  0  0
   71.7462   46.3563   58.5657 C   0  0  0  0  0  0  0  0  0  0  0  0
   72.4713   45.4620   59.3179 F   0  0  0  0  0  0  0  0  0  0  0  0
   70.5238   46.0109   58.0336 C   0  0  0  0  0  0  0  0  0  0  0  0
   69.8590   46.9543   57.2964 C   0  0  0  0  0  0  0  0  0  0  0  0
   70.0295   44.6627   58.2856 C   0  0  0  0  0  0  0  0  0  0  0  0
   69.9102   44.1749   59.5442 N   0  0  0  0  0  0  0  0  0  0  0  0
   69.4350   42.9116   59.7507 C   0  0  0  0  0  0  0  0  0  0  0  0
   69.0628   42.0994   58.7087 C   0  0  0  0  0  0  0  0  0  0  0  0
   69.1880   42.6046   57.4376 C   0  0  0  0  0  0  0  0  0  0  0  0
   69.6603   43.8486   57.2829 N   0  0  0  0  0  0  0  0  0  0  0  0
   69.5903   49.1987   56.2489 C   0  0  0  0  0  0  0  0  0  0  0  0
   70.5412   48.0112   50.9285 O   0  0  0  0  0  0  0  0  0  0  0  0
   70.2962   48.2693   52.1145 C   0  0  0  0  0  0  0  0  0  0  0  0
   71.0380   49.1325   52.8444 N   0  0  0  0  0  0  0  0  0  0  0  0
   70.7990   49.4202   54.0984 N   0  0  0  0  0  0  0  0  0  0  0  0
   69.7610   48.8720   54.8153 C   0  0  0  0  0  0  0  0  0  0  0  0
   68.9914   47.9952   54.0990 C   0  0  0  0  0  0  0  0  0  0  0  0
   69.2422   47.6876   52.7754 C   0  0  0  0  0  0  0  0  0  0  0  0
   68.3314   46.7099   52.1392 C   0  0  0  0  0  0  0  0  0  0  0  0
   68.1122   45.5163   53.0264 C   0  0  0  0  0  0  0  0  0  0  0  0
   68.0259   45.8480   54.4967 C   0  0  0  0  0  0  0  0  0  0  0  0
   67.7834   47.3376   54.6521 C   0  0  0  0  0  0  0  0  0  0  0  0
 15 16  2  0
 16 17  1  0
 16 21  1  0
 17 18  1  0
 18 19  2  0
 19 14  1  0
 19 20  1  0
 14  1  1  0
  1  2  2  0
  1  7  1  0
  2  3  1  0
  3  4  2  0
  4  5  1  0
  4  6  1  0
  6  8  1  0
  6  7  2  0
  8  9  2  0
  8 13  1  0
  9 10  1  0
 10 11  2  0
 11 12  1  0
 12 13  2  0
 20 21  2  0
 20 25  1  0
 21 22  1  0
 22 23  1  0
 23 24  1  0
 24 25  1  0
M  END
>  <minimizedAffinity>  (578) 
-8.56664

$$$$
cs_full_output_folder/data/smiles/9383.pdb
     RDKit          3D

 25 27  0  0  0  0  0  0  0  0999 V2000
   68.8384   46.1859   55.9604 C   0  0  0  0  0  0  0  0  0  0  0  0
   69.7553   46.1808   56.9813 C   0  0  0  0  0  0  0  0  0  0  0  0
   70.1668   44.9883   57.6020 C   0  0  0  0  0  0  0  0  0  0  0  0
   69.6843   43.7653   57.2312 C   0  0  0  0  0  0  0  0  0  0  0  0
   68.7486   43.7932   56.1861 C   0  0  0  0  0  0  0  0  0  0  0  0
   68.3463   44.9572   55.5798 C   0  0  0  0  0  0  0  0  0  0  0  0
   70.0343   42.5197   57.7902 N   0  0  0  0  0  0  0  0  0  0  0  0
   71.2700   41.8787   57.8133 C   0  0  0  0  0  0  0  0  0  0  0  0
   72.2396   42.4480   57.2730 O   0  0  0  0  0  0  0  0  0  0  0  0
   71.5098   40.5675   58.4341 C   0  0  0  0  0  0  0  0  0  0  0  0
   70.5344   39.5834   58.3855 C   0  0  0  0  0  0  0  0  0  0  0  0
   70.7072   38.3375   58.9516 C   0  0  0  0  0  0  0  0  0  0  0  0
   71.8800   38.0185   59.6010 C   0  0  0  0  0  0  0  0  0  0  0  0
   72.8624   38.9852   59.6610 C   0  0  0  0  0  0  0  0  0  0  0  0
   72.6664   40.2246   59.0868 C   0  0  0  0  0  0  0  0  0  0  0  0
   68.3905   47.4236   55.2786 C   0  0  0  0  0  0  0  0  0  0  0  0
   70.2413   49.5703   55.9466 C   0  0  0  0  0  0  0  0  0  0  0  0
   70.1874   48.9796   54.5927 C   0  0  0  0  0  0  0  0  0  0  0  0
   71.0044   49.4239   53.6075 N   0  0  0  0  0  0  0  0  0  0  0  0
   71.0039   48.9491   52.3778 N   0  0  0  0  0  0  0  0  0  0  0  0
   70.1557   47.9621   52.0398 C   0  0  0  0  0  0  0  0  0  0  0  0
   70.1161   47.4744   50.8812 O   0  0  0  0  0  0  0  0  0  0  0  0
   69.2746   47.4367   52.9868 C   0  0  0  0  0  0  0  0  0  0  0  0
   68.3463   46.3683   52.5950 C   0  0  0  0  0  0  0  0  0  0  0  0
   69.3022   47.9595   54.2720 C   0  0  0  0  0  0  0  0  0  0  0  0
 17 18  1  0
 18 19  2  0
 18 25  1  0
 19 20  1  0
 20 21  1  0
 21 22  2  0
 21 23  1  0
 23 24  1  0
 23 25  2  0
 25 16  1  0
 16  1  1  0
  1  2  2  0
  1  6  1  0
  2  3  1  0
  3  4  2  0
  4  7  1  0
  4  5  1  0
  7  8  1  0
  8  9  2  0
  8 10  1  0
 10 11  2  0
 10 15  1  0
 11 12  1  0
 12 13  2  0
 13 14  1  0
 14 15  2  0
  5  6  2  0
M  END
>  <minimizedAffinity>  (579) 
-8.56617

$$$$
cs_full_output_folder/data/smiles/7049.pdb
     RDKit          3D

 23 25  0  0  0  0  0  0  0  0999 V2000
   70.4581   45.0570   59.3116 O   0  0  0  0  0  0  0  0  0  0  0  0
   70.5035   44.4752   58.2005 C   0  0  0  0  0  0  0  0  0  0  0  0
   69.8655   45.1339   57.0964 N   0  0  0  0  0  0  0  0  0  0  0  0
   69.2299   46.3247   57.1865 N   0  0  0  0  0  0  0  0  0  0  0  0
   68.7073   47.1404   56.4040 C   0  0  0  0  0  0  0  0  0  0  0  0
   68.6215   47.0264   54.9731 C   0  0  0  0  0  0  0  0  0  0  0  0
   69.1694   47.9365   54.1078 C   0  0  0  0  0  0  0  0  0  0  0  0
   69.0805   47.8207   52.7142 C   0  0  0  0  0  0  0  0  0  0  0  0
   68.4217   46.7608   52.1735 C   0  0  0  0  0  0  0  0  0  0  0  0
   68.3261   46.6322   50.8208 F   0  0  0  0  0  0  0  0  0  0  0  0
   67.8593   45.8289   53.0166 C   0  0  0  0  0  0  0  0  0  0  0  0
   67.9491   45.9460   54.3735 C   0  0  0  0  0  0  0  0  0  0  0  0
   71.1915   43.1871   58.1057 C   0  0  0  0  0  0  0  0  0  0  0  0
   70.2197   42.1025   57.9869 C   0  0  0  0  0  0  0  0  0  0  0  0
   68.9223   42.3462   57.5900 C   0  0  0  0  0  0  0  0  0  0  0  0
   67.9893   41.3185   57.4756 C   0  0  0  0  0  0  0  0  0  0  0  0
   68.3317   40.0166   57.7573 C   0  0  0  0  0  0  0  0  0  0  0  0
   69.6225   39.7557   58.1549 C   0  0  0  0  0  0  0  0  0  0  0  0
   69.9659   38.4521   58.4367 C   0  0  0  0  0  0  0  0  0  0  0  0
   71.2528   38.1831   58.8354 C   0  0  0  0  0  0  0  0  0  0  0  0
   72.1994   39.1985   58.9543 C   0  0  0  0  0  0  0  0  0  0  0  0
   71.8168   40.4885   58.6634 C   0  0  0  0  0  0  0  0  0  0  0  0
   70.5428   40.7858   58.2656 C   0  0  0  0  0  0  0  0  0  0  0  0
  1  2  2  0
  2 13  1  0
  2  3  1  0
 13 14  1  0
 14 15  2  0
 14 23  1  0
 15 16  1  0
 16 17  2  0
 17 18  1  0
 18 19  1  0
 18 23  2  0
 19 20  2  0
 20 21  1  0
 21 22  2  0
 22 23  1  0
  3  4  1  0
  4  5  2  0
  5  6  1  0
  6  7  2  0
  6 12  1  0
  7  8  1  0
  8  9  2  0
  9 10  1  0
  9 11  1  0
 11 12  2  0
M  END
>  <minimizedAffinity>  (580) 
-8.56458

$$$$
cs_full_output_folder/data/smiles/9650.pdb
     RDKit          3D

 24 26  0  0  0  0  0  0  0  0999 V2000
   70.7275   45.8294   59.1858 O   0  0  0  0  0  0  0  0  0  0  0  0
   70.4258   45.0940   58.1750 C   0  0  0  0  0  0  0  0  0  0  0  0
   69.7918   45.7754   57.1203 N   0  0  0  0  0  0  0  0  0  0  0  0
   70.7537   43.6817   58.2150 C   0  0  0  0  0  0  0  0  0  0  0  0
   69.7216   42.7319   58.2861 C   0  0  0  0  0  0  0  0  0  0  0  0
   69.9625   41.3817   58.3279 C   0  0  0  0  0  0  0  0  0  0  0  0
   68.9363   40.4512   58.3984 C   0  0  0  0  0  0  0  0  0  0  0  0
   69.1595   39.0924   58.4408 C   0  0  0  0  0  0  0  0  0  0  0  0
   70.4576   38.6242   58.4108 C   0  0  0  0  0  0  0  0  0  0  0  0
   71.4910   39.5428   58.3399 C   0  0  0  0  0  0  0  0  0  0  0  0
   71.2533   40.9058   58.2985 C   0  0  0  0  0  0  0  0  0  0  0  0
   72.2409   41.8072   58.2297 N   0  0  0  0  0  0  0  0  0  0  0  0
   72.0146   43.1607   58.1878 C   0  0  0  0  0  0  0  0  0  0  0  0
   73.0180   43.9083   58.1239 O   0  0  0  0  0  0  0  0  0  0  0  0
   69.4992   47.2046   57.1712 C   0  0  0  0  0  0  0  0  0  0  0  0
   68.2809   47.5740   56.3522 C   0  0  0  0  0  0  0  0  0  0  0  0
   68.6622   47.4632   54.8988 C   0  0  0  0  0  0  0  0  0  0  0  0
   68.1776   46.4372   54.1147 C   0  0  0  0  0  0  0  0  0  0  0  0
   68.5365   46.3505   52.7835 C   0  0  0  0  0  0  0  0  0  0  0  0
   69.3794   47.2691   52.1916 C   0  0  0  0  0  0  0  0  0  0  0  0
   69.6935   47.1152   50.8531 O   0  0  0  0  0  0  0  0  0  0  0  0
   69.8641   48.2951   52.9757 C   0  0  0  0  0  0  0  0  0  0  0  0
   70.7151   49.2177   52.3681 O   0  0  0  0  0  0  0  0  0  0  0  0
   69.5033   48.3778   54.3046 C   0  0  0  0  0  0  0  0  0  0  0  0
  1  2  2  0
  2  3  1  0
  2  4  1  0
  3 15  1  0
 15 16  1  0
 16 17  1  0
 17 18  2  0
 17 24  1  0
 18 19  1  0
 19 20  2  0
 20 21  1  0
 20 22  1  0
 22 23  1  0
 22 24  2  0
  4  5  2  0
  4 13  1  0
  5  6  1  0
  6  7  2  0
  6 11  1  0
  7  8  1  0
  8  9  2  0
  9 10  1  0
 10 11  2  0
 11 12  1  0
 12 13  1  0
 13 14  2  0
M  END
>  <minimizedAffinity>  (581) 
-8.56363

$$$$
cs_full_output_folder/data/smiles/6444.pdb
     RDKit          3D

 23 26  0  0  0  0  0  0  0  0999 V2000
   69.7855   43.3319   57.4420 C   0  0  0  0  0  0  0  0  0  0  0  0
   70.5197   44.3138   58.0497 C   0  0  0  0  0  0  0  0  0  0  0  0
   70.3248   45.6329   57.6399 C   0  0  0  0  0  0  0  0  0  0  0  0
   69.4376   45.9133   56.6762 N   0  0  0  0  0  0  0  0  0  0  0  0
   68.7003   44.9446   56.0647 C   0  0  0  0  0  0  0  0  0  0  0  0
   68.9149   43.6878   56.4841 N   0  0  0  0  0  0  0  0  0  0  0  0
   70.2687   39.1831   58.5042 C   0  0  0  0  0  0  0  0  0  0  0  0
   69.0499   39.6808   58.0778 C   0  0  0  0  0  0  0  0  0  0  0  0
   68.8868   41.0094   57.7314 C   0  0  0  0  0  0  0  0  0  0  0  0
   69.9289   41.8986   57.7931 C   0  0  0  0  0  0  0  0  0  0  0  0
   71.1503   41.4149   58.2159 C   0  0  0  0  0  0  0  0  0  0  0  0
   71.3108   40.0881   58.5625 C   0  0  0  0  0  0  0  0  0  0  0  0
   71.6905   35.5883   58.8412 C   0  0  0  0  0  0  0  0  0  0  0  0
   71.5202   37.0159   58.4871 C   0  0  0  0  0  0  0  0  0  0  0  0
   72.4251   37.5574   57.8076 O   0  0  0  0  0  0  0  0  0  0  0  0
   70.4100   37.8076   58.8609 N   0  0  0  0  0  0  0  0  0  0  0  0
   67.7727   45.2627   55.0399 N   0  0  0  0  0  0  0  0  0  0  0  0
   68.1520   45.9421   53.8253 C   0  0  0  0  0  0  0  0  0  0  0  0
   67.9232   45.7691   52.4787 C   0  0  0  0  0  0  0  0  0  0  0  0
   68.6545   46.8814   52.1092 C   0  0  0  0  0  0  0  0  0  0  0  0
   69.3933   47.9957   51.8062 C   0  0  0  0  0  0  0  0  0  0  0  0
   69.6253   48.1729   53.1487 C   0  0  0  0  0  0  0  0  0  0  0  0
   68.8924   47.0579   53.5360 C   0  0  0  0  0  0  0  0  0  0  0  0
 13 14  1  0
 14 15  2  0
 14 16  1  0
 16  7  1  0
  7  8  2  0
  7 12  1  0
  8  9  1  0
  9 10  2  0
 10  1  1  0
 10 11  1  0
  1  2  2  0
  1  6  1  0
  2  3  1  0
  3  4  2  0
  4  5  1  0
  5 17  1  0
  5  6  2  0
 17 18  1  0
 18 19  2  0
 18 23  1  0
 19 20  1  0
 20 21  2  0
 20 23  1  0
 21 22  1  0
 22 23  2  0
 11 12  2  0
M  END
>  <minimizedAffinity>  (582) 
-8.56075

$$$$
cs_full_output_folder/data/smiles/2001.pdb
     RDKit          3D

 25 27  0  0  0  0  0  0  0  0999 V2000
   70.1408   44.4525   57.0696 N   0  0  0  0  0  0  0  0  0  0  0  0
   70.0231   45.6015   57.9278 C   0  0  0  0  0  0  0  0  0  0  0  0
   69.8967   45.3371   59.1297 O   0  0  0  0  0  0  0  0  0  0  0  0
   72.6368   42.7635   57.4096 C   0  0  0  0  0  0  0  0  0  0  0  0
   71.2659   42.3381   57.7336 C   0  0  0  0  0  0  0  0  0  0  0  0
   70.1125   43.1334   57.5729 C   0  0  0  0  0  0  0  0  0  0  0  0
   69.1156   42.3694   57.9836 N   0  0  0  0  0  0  0  0  0  0  0  0
   69.5544   41.1870   58.3776 N   0  0  0  0  0  0  0  0  0  0  0  0
   70.9209   41.1163   58.2387 C   0  0  0  0  0  0  0  0  0  0  0  0
   71.6823   39.9334   58.5970 C   0  0  0  0  0  0  0  0  0  0  0  0
   71.2600   38.6706   58.1387 C   0  0  0  0  0  0  0  0  0  0  0  0
   71.9518   37.5208   58.4501 C   0  0  0  0  0  0  0  0  0  0  0  0
   73.0601   37.5565   59.2062 N   0  0  0  0  0  0  0  0  0  0  0  0
   73.4695   38.7482   59.6453 C   0  0  0  0  0  0  0  0  0  0  0  0
   72.8070   39.9471   59.3605 C   0  0  0  0  0  0  0  0  0  0  0  0
   70.0523   46.9688   57.4092 C   0  0  0  0  0  0  0  0  0  0  0  0
   68.8202   47.4273   56.7408 C   0  0  0  0  0  0  0  0  0  0  0  0
   68.7379   47.2622   55.2903 C   0  0  0  0  0  0  0  0  0  0  0  0
   69.3321   48.1728   54.4500 C   0  0  0  0  0  0  0  0  0  0  0  0
   69.2972   48.0274   53.0648 C   0  0  0  0  0  0  0  0  0  0  0  0
   68.6447   46.9379   52.5443 C   0  0  0  0  0  0  0  0  0  0  0  0
   68.5942   46.7683   51.1797 F   0  0  0  0  0  0  0  0  0  0  0  0
   68.0375   46.0082   53.3568 C   0  0  0  0  0  0  0  0  0  0  0  0
   67.3897   44.9287   52.8655 F   0  0  0  0  0  0  0  0  0  0  0  0
   68.0842   46.1687   54.7139 C   0  0  0  0  0  0  0  0  0  0  0  0
  4  5  1  0
  5  6  1  0
  5  9  2  0
  6  1  1  0
  6  7  2  0
  1  2  1  0
  2  3  2  0
  2 16  1  0
 16 17  1  0
 17 18  1  0
 18 19  2  0
 18 25  1  0
 19 20  1  0
 20 21  2  0
 21 22  1  0
 21 23  1  0
 23 24  1  0
 23 25  2  0
  7  8  1  0
  8  9  1  0
  9 10  1  0
 10 11  2  0
 10 15  1  0
 11 12  1  0
 12 13  2  0
 13 14  1  0
 14 15  2  0
M  END
>  <minimizedAffinity>  (583) 
-8.56073

$$$$
cs_full_output_folder/data/smiles/7874.pdb
     RDKit          3D

 25 27  0  0  0  0  0  0  0  0999 V2000
   70.9873   48.2229   57.3021 O   0  0  0  0  0  0  0  0  0  0  0  0
   69.9186   47.6243   57.0383 C   0  0  0  0  0  0  0  0  0  0  0  0
   69.7865   46.2890   57.4721 N   0  0  0  0  0  0  0  0  0  0  0  0
   70.7887   45.5795   58.1905 C   0  0  0  0  0  0  0  0  0  0  0  0
   71.2644   46.0776   59.3848 C   0  0  0  0  0  0  0  0  0  0  0  0
   72.2454   45.4113   60.1145 C   0  0  0  0  0  0  0  0  0  0  0  0
   72.7784   44.2218   59.6660 C   0  0  0  0  0  0  0  0  0  0  0  0
   72.3048   43.7217   58.4719 C   0  0  0  0  0  0  0  0  0  0  0  0
   71.3195   44.3902   57.7384 C   0  0  0  0  0  0  0  0  0  0  0  0
   72.8487   42.4531   57.9577 C   0  0  0  0  0  0  0  0  0  0  0  0
   71.8618   41.5403   57.6477 F   0  0  0  0  0  0  0  0  0  0  0  0
   73.7351   41.9619   58.8920 F   0  0  0  0  0  0  0  0  0  0  0  0
   73.5562   42.6913   56.8010 F   0  0  0  0  0  0  0  0  0  0  0  0
   68.8748   48.3609   56.2917 C   0  0  0  0  0  0  0  0  0  0  0  0
   69.3004   48.5146   54.8795 C   0  0  0  0  0  0  0  0  0  0  0  0
   70.1285   49.4704   54.4453 N   0  0  0  0  0  0  0  0  0  0  0  0
   70.4971   49.5918   53.1757 N   0  0  0  0  0  0  0  0  0  0  0  0
   70.0600   48.7491   52.2166 C   0  0  0  0  0  0  0  0  0  0  0  0
   70.4141   48.8703   51.0157 O   0  0  0  0  0  0  0  0  0  0  0  0
   69.2017   47.7451   52.6171 C   0  0  0  0  0  0  0  0  0  0  0  0
   68.7098   46.8423   51.6942 C   0  0  0  0  0  0  0  0  0  0  0  0
   67.8507   45.8188   52.0320 C   0  0  0  0  0  0  0  0  0  0  0  0
   67.4840   45.7185   53.3612 C   0  0  0  0  0  0  0  0  0  0  0  0
   67.9669   46.6178   54.3150 C   0  0  0  0  0  0  0  0  0  0  0  0
   68.8153   47.6160   53.9364 C   0  0  0  0  0  0  0  0  0  0  0  0
  1  2  2  0
  2 14  1  0
  2  3  1  0
 14 15  1  0
 15 16  2  0
 15 25  1  0
 16 17  1  0
 17 18  1  0
 18 19  2  0
 18 20  1  0
 20 21  1  0
 20 25  2  0
 21 22  2  0
 22 23  1  0
 23 24  2  0
 24 25  1  0
  3  4  1  0
  4  5  2  0
  4  9  1  0
  5  6  1  0
  6  7  2  0
  7  8  1  0
  8 10  1  0
  8  9  2  0
 10 11  1  0
 10 12  1  0
 10 13  1  0
M  END
>  <minimizedAffinity>  (584) 
-8.55833

$$$$
cs_full_output_folder/data/smiles/2814.pdb
     RDKit          3D

 24 26  0  0  0  0  0  0  0  0999 V2000
   69.2418   44.3045   56.6348 N   0  0  0  0  0  0  0  0  0  0  0  0
   70.2871   43.8546   57.4732 C   0  0  0  0  0  0  0  0  0  0  0  0
   71.0755   44.6858   57.9706 O   0  0  0  0  0  0  0  0  0  0  0  0
   70.4959   42.4404   57.7922 C   0  0  0  0  0  0  0  0  0  0  0  0
   71.7353   41.9371   58.1223 C   0  0  0  0  0  0  0  0  0  0  0  0
   71.9057   40.5978   58.4188 C   0  0  0  0  0  0  0  0  0  0  0  0
   70.8504   39.7082   58.3989 C   0  0  0  0  0  0  0  0  0  0  0  0
   69.6233   40.2613   58.0615 C   0  0  0  0  0  0  0  0  0  0  0  0
   69.4728   41.5661   57.7750 N   0  0  0  0  0  0  0  0  0  0  0  0
   71.0048   38.2925   58.7077 C   0  0  0  0  0  0  0  0  0  0  0  0
   71.8675   37.4579   58.0175 C   0  0  0  0  0  0  0  0  0  0  0  0
   71.9922   36.1167   58.3339 C   0  0  0  0  0  0  0  0  0  0  0  0
   71.2624   35.5457   59.3535 C   0  0  0  0  0  0  0  0  0  0  0  0
   70.4039   36.3779   60.0396 C   0  0  0  0  0  0  0  0  0  0  0  0
   70.2822   37.7158   59.7210 C   0  0  0  0  0  0  0  0  0  0  0  0
   68.9828   45.6585   56.2863 C   0  0  0  0  0  0  0  0  0  0  0  0
   68.1212   45.7489   55.0636 C   0  0  0  0  0  0  0  0  0  0  0  0
   70.1435   49.2585   51.0917 N   0  0  0  0  0  0  0  0  0  0  0  0
   69.6293   48.3647   52.0652 C   0  0  0  0  0  0  0  0  0  0  0  0
   69.0907   47.1594   51.6875 C   0  0  0  0  0  0  0  0  0  0  0  0
   68.6035   46.3228   52.6702 C   0  0  0  0  0  0  0  0  0  0  0  0
   68.6407   46.6604   54.0226 C   0  0  0  0  0  0  0  0  0  0  0  0
   69.1813   47.8618   54.3712 C   0  0  0  0  0  0  0  0  0  0  0  0
   69.6761   48.7149   53.3913 C   0  0  0  0  0  0  0  0  0  0  0  0
 18 19  1  0
 19 20  2  0
 19 24  1  0
 20 21  1  0
 21 22  2  0
 22 17  1  0
 22 23  1  0
 17 16  1  0
 16  1  1  0
  1  2  1  0
  2  3  2  0
  2  4  1  0
  4  5  2  0
  4  9  1  0
  5  6  1  0
  6  7  2  0
  7 10  1  0
  7  8  1  0
 10 11  2  0
 10 15  1  0
 11 12  1  0
 12 13  2  0
 13 14  1  0
 14 15  2  0
  8  9  2  0
 23 24  2  0
M  END
>  <minimizedAffinity>  (585) 
-8.55656

$$$$
cs_full_output_folder/data/smiles/6212.pdb
     RDKit          3D

 24 26  0  0  0  0  0  0  0  0999 V2000
   74.8751   35.6566   53.9072 C   0  0  0  0  0  0  0  0  0  0  0  0
   74.7397   35.2575   55.2232 C   0  0  0  0  0  0  0  0  0  0  0  0
   73.4096   35.2360   55.5923 C   0  0  0  0  0  0  0  0  0  0  0  0
   72.7579   35.6272   54.4812 N   0  0  0  0  0  0  0  0  0  0  0  0
   73.6181   35.8720   53.4972 N   0  0  0  0  0  0  0  0  0  0  0  0
   72.8281   34.8771   56.8876 C   0  0  0  0  0  0  0  0  0  0  0  0
   72.8384   33.5974   57.3917 C   0  0  0  0  0  0  0  0  0  0  0  0
   72.2740   33.2919   58.6340 C   0  0  0  0  0  0  0  0  0  0  0  0
   71.6905   34.2701   59.3874 C   0  0  0  0  0  0  0  0  0  0  0  0
   71.0884   33.9224   60.7212 C   0  0  0  0  0  0  0  0  0  0  0  0
   71.6696   35.5576   58.8992 C   0  0  0  0  0  0  0  0  0  0  0  0
   72.2330   35.8460   57.6658 C   0  0  0  0  0  0  0  0  0  0  0  0
   72.2097   37.1442   57.1802 O   0  0  0  0  0  0  0  0  0  0  0  0
   76.3577   35.2101   51.9013 N   0  0  0  0  0  0  0  0  0  0  0  0
   76.1263   35.8007   53.1626 C   0  0  0  0  0  0  0  0  0  0  0  0
   77.0507   36.4829   53.6592 O   0  0  0  0  0  0  0  0  0  0  0  0
   77.5382   35.2973   51.1130 C   0  0  0  0  0  0  0  0  0  0  0  0
   76.9239   34.2570   45.4626 C   0  0  0  0  0  0  0  0  0  0  0  0
   77.0625   34.5086   46.9234 C   0  0  0  0  0  0  0  0  0  0  0  0
   76.2294   33.9021   47.8385 C   0  0  0  0  0  0  0  0  0  0  0  0
   76.3627   34.1382   49.1949 C   0  0  0  0  0  0  0  0  0  0  0  0
   77.3318   34.9865   49.6764 C   0  0  0  0  0  0  0  0  0  0  0  0
   78.1802   35.6056   48.7648 C   0  0  0  0  0  0  0  0  0  0  0  0
   78.0283   35.3553   47.4171 C   0  0  0  0  0  0  0  0  0  0  0  0
 18 19  1  0
 19 20  2  0
 19 24  1  0
 20 21  1  0
 21 22  2  0
 22 17  1  0
 22 23  1  0
 17 14  1  0
 14 15  1  0
 15 16  2  0
 15  1  1  0
  1  2  2  0
  1  5  1  0
  2  3  1  0
  3  6  1  0
  3  4  2  0
  6  7  2  0
  6 12  1  0
  7  8  1  0
  8  9  2  0
  9 10  1  0
  9 11  1  0
 11 12  2  0
 12 13  1  0
  4  5  1  0
 23 24  2  0
M  END
>  <minimizedAffinity>  (586) 
-8.55477

$$$$
cs_full_output_folder/data/smiles/2098.pdb
     RDKit          3D

 25 28  0  0  0  0  0  0  0  0999 V2000
   70.0585   47.9394   57.2905 C   0  0  0  0  0  0  0  0  0  0  0  0
   71.3420   48.4031   57.5339 C   0  0  0  0  0  0  0  0  0  0  0  0
   72.1498   47.6709   58.3711 C   0  0  0  0  0  0  0  0  0  0  0  0
   71.7127   46.5078   58.9594 C   0  0  0  0  0  0  0  0  0  0  0  0
   70.4775   46.0795   58.7131 N   0  0  0  0  0  0  0  0  0  0  0  0
   69.6568   46.7854   57.8878 C   0  0  0  0  0  0  0  0  0  0  0  0
   69.2046   48.7387   56.4211 C   0  0  0  0  0  0  0  0  0  0  0  0
   70.5395   48.7885   51.0958 O   0  0  0  0  0  0  0  0  0  0  0  0
   70.2186   48.7565   52.3107 C   0  0  0  0  0  0  0  0  0  0  0  0
   70.6715   49.6872   53.1620 N   0  0  0  0  0  0  0  0  0  0  0  0
   70.3369   49.6555   54.4327 N   0  0  0  0  0  0  0  0  0  0  0  0
   69.5286   48.7033   54.9792 C   0  0  0  0  0  0  0  0  0  0  0  0
   69.0535   47.7279   54.1003 C   0  0  0  0  0  0  0  0  0  0  0  0
   69.3837   47.7386   52.7664 C   0  0  0  0  0  0  0  0  0  0  0  0
   68.8079   46.7967   51.7934 C   0  0  0  0  0  0  0  0  0  0  0  0
   67.9335   45.9301   52.2531 C   0  0  0  0  0  0  0  0  0  0  0  0
   67.4981   45.8467   53.6452 C   0  0  0  0  0  0  0  0  0  0  0  0
   68.2557   46.6242   54.6427 C   0  0  0  0  0  0  0  0  0  0  0  0
   72.6153   45.7286   59.8642 C   0  0  0  0  0  0  0  0  0  0  0  0
   73.2992   44.6555   59.1063 C   0  0  0  0  0  0  0  0  0  0  0  0
   72.6512   43.9023   58.1419 C   0  0  0  0  0  0  0  0  0  0  0  0
   73.2779   42.9004   57.4311 C   0  0  0  0  0  0  0  0  0  0  0  0
   74.6183   42.6088   57.6697 C   0  0  0  0  0  0  0  0  0  0  0  0
   75.2685   43.3562   58.6296 C   0  0  0  0  0  0  0  0  0  0  0  0
   74.6298   44.3565   59.3340 C   0  0  0  0  0  0  0  0  0  0  0  0
  8  9  2  0
  9 10  1  0
  9 14  1  0
 10 11  1  0
 11 12  2  0
 12  7  1  0
 12 13  1  0
  7  1  1  0
  1  2  2  0
  1  6  1  0
  2  3  1  0
  3  4  2  0
  4 19  1  0
  4  5  1  0
 19 20  1  0
 20 21  2  0
 20 25  1  0
 21 22  1  0
 22 23  2  0
 23 24  1  0
 24 25  2  0
  5  6  2  0
 13 14  2  0
 13 18  1  0
 14 15  1  0
 15 16  2  0
 16 17  1  0
 17 18  1  0
M  END
>  <minimizedAffinity>  (587) 
-8.55345

$$$$
cs_full_output_folder/data/smiles/4115.pdb
     RDKit          3D

 23 26  0  0  0  0  0  0  0  0999 V2000
   70.3253   45.5024   57.5864 C   0  0  0  0  0  0  0  0  0  0  0  0
   71.2882   46.1500   58.2869 C   0  0  0  0  0  0  0  0  0  0  0  0
   71.4173   47.5012   58.1536 C   0  0  0  0  0  0  0  0  0  0  0  0
   70.5646   48.2038   57.3047 C   0  0  0  0  0  0  0  0  0  0  0  0
   70.7300   49.4487   57.2149 O   0  0  0  0  0  0  0  0  0  0  0  0
   69.6247   47.5894   56.6210 N   0  0  0  0  0  0  0  0  0  0  0  0
   69.5092   46.2384   56.7640 C   0  0  0  0  0  0  0  0  0  0  0  0
   70.9903   43.2913   58.1025 O   0  0  0  0  0  0  0  0  0  0  0  0
   70.0980   44.0598   57.6607 C   0  0  0  0  0  0  0  0  0  0  0  0
   68.8900   43.4342   57.2495 N   0  0  0  0  0  0  0  0  0  0  0  0
   68.6819   41.9981   57.3320 C   0  0  0  0  0  0  0  0  0  0  0  0
   67.6819   41.5048   56.2877 C   0  0  0  0  0  0  0  0  0  0  0  0
   67.3921   41.4634   57.7948 C   0  0  0  0  0  0  0  0  0  0  0  0
   68.6580   48.1782   55.7256 C   0  0  0  0  0  0  0  0  0  0  0  0
   68.6686   47.4987   54.4123 C   0  0  0  0  0  0  0  0  0  0  0  0
   67.8377   46.3823   54.2364 C   0  0  0  0  0  0  0  0  0  0  0  0
   67.7283   45.7397   53.0306 C   0  0  0  0  0  0  0  0  0  0  0  0
   68.4415   46.1873   51.9667 C   0  0  0  0  0  0  0  0  0  0  0  0
   69.2801   47.2881   52.0925 C   0  0  0  0  0  0  0  0  0  0  0  0
   70.1084   47.9181   51.2487 N   0  0  0  0  0  0  0  0  0  0  0  0
   70.7097   48.8921   51.8673 N   0  0  0  0  0  0  0  0  0  0  0  0
   70.2899   48.9296   53.1458 C   0  0  0  0  0  0  0  0  0  0  0  0
   69.3737   47.9236   53.3296 C   0  0  0  0  0  0  0  0  0  0  0  0
  8  9  2  0
  9 10  1  0
  9  1  1  0
 10 11  1  0
 11 12  1  0
 11 13  1  0
 12 13  1  0
  1  2  1  0
  1  7  2  0
  2  3  2  0
  3  4  1  0
  4  5  2  0
  4  6  1  0
  6 14  1  0
  6  7  1  0
 14 15  1  0
 15 16  2  0
 15 23  1  0
 16 17  1  0
 17 18  2  0
 18 19  1  0
 19 20  1  0
 19 23  2  0
 20 21  1  0
 21 22  2  0
 22 23  1  0
M  END
>  <minimizedAffinity>  (588) 
-8.55337

$$$$
cs_full_output_folder/data/smiles/6126.pdb
     RDKit          3D

 22 24  0  0  0  0  0  0  0  0999 V2000
   69.0436   48.7239   56.2149 C   0  0  0  0  0  0  0  0  0  0  0  0
   69.3375   48.6525   54.7871 C   0  0  0  0  0  0  0  0  0  0  0  0
   70.2185   49.5785   54.2925 N   0  0  0  0  0  0  0  0  0  0  0  0
   70.5977   49.5711   53.0320 N   0  0  0  0  0  0  0  0  0  0  0  0
   70.1642   48.6734   52.1344 C   0  0  0  0  0  0  0  0  0  0  0  0
   70.5439   48.6877   50.9370 O   0  0  0  0  0  0  0  0  0  0  0  0
   69.2690   47.6980   52.5437 C   0  0  0  0  0  0  0  0  0  0  0  0
   68.7688   46.7537   51.6755 C   0  0  0  0  0  0  0  0  0  0  0  0
   67.8642   45.8076   52.1096 C   0  0  0  0  0  0  0  0  0  0  0  0
   67.4821   45.8461   53.4466 C   0  0  0  0  0  0  0  0  0  0  0  0
   67.9911   46.7962   54.3049 C   0  0  0  0  0  0  0  0  0  0  0  0
   68.8886   47.7355   53.8848 C   0  0  0  0  0  0  0  0  0  0  0  0
   70.7370   45.9387   58.2268 C   0  0  0  0  0  0  0  0  0  0  0  0
   69.8393   46.6501   57.4310 C   0  0  0  0  0  0  0  0  0  0  0  0
   69.9943   47.9552   57.0754 C   0  0  0  0  0  0  0  0  0  0  0  0
   71.1521   48.6018   57.5623 C   0  0  0  0  0  0  0  0  0  0  0  0
   72.0686   47.9446   58.3517 C   0  0  0  0  0  0  0  0  0  0  0  0
   71.8617   46.6209   58.6820 C   0  0  0  0  0  0  0  0  0  0  0  0
   72.7302   45.9141   59.4588 F   0  0  0  0  0  0  0  0  0  0  0  0
   69.6555   44.2986   59.4652 O   0  0  0  0  0  0  0  0  0  0  0  0
   70.5002   44.5439   58.5615 C   0  0  0  0  0  0  0  0  0  0  0  0
   71.3056   43.2150   57.7966 Cl  0  0  0  0  0  0  0  0  0  0  0  0
 20 21  2  0
 21 22  1  0
 21 13  1  0
 13 14  2  0
 13 18  1  0
 14 15  1  0
 15  1  1  0
 15 16  2  0
  1  2  1  0
  2  3  2  0
  2 12  1  0
  3  4  1  0
  4  5  1  0
  5  6  2  0
  5  7  1  0
  7  8  1  0
  7 12  2  0
  8  9  2  0
  9 10  1  0
 10 11  2  0
 11 12  1  0
 16 17  1  0
 17 18  2  0
 18 19  1  0
M  END
>  <minimizedAffinity>  (589) 
-8.54987

$$$$
cs_full_output_folder/data/smiles/1562.pdb
     RDKit          3D

 24 25  0  0  0  0  0  0  0  0999 V2000
   70.2243   47.5672   57.0812 C   0  0  0  0  0  0  0  0  0  0  0  0
   67.8285   48.2294   57.1158 C   0  0  0  0  0  0  0  0  0  0  0  0
   69.1338   48.2833   56.3542 C   0  0  2  0  0  0  0  0  0  0  0  0
   68.9118   47.8139   54.9840 C   0  0  0  0  0  0  0  0  0  0  0  0
   68.1536   46.6951   54.6875 C   0  0  0  0  0  0  0  0  0  0  0  0
   68.0293   46.2916   53.3937 C   0  0  0  0  0  0  0  0  0  0  0  0
   67.2933   45.1967   53.0592 F   0  0  0  0  0  0  0  0  0  0  0  0
   68.6553   46.9879   52.3579 C   0  0  0  0  0  0  0  0  0  0  0  0
   68.5525   46.6161   51.0688 F   0  0  0  0  0  0  0  0  0  0  0  0
   69.4123   48.1062   52.6523 C   0  0  0  0  0  0  0  0  0  0  0  0
   70.0401   48.8138   51.6647 F   0  0  0  0  0  0  0  0  0  0  0  0
   69.5406   48.5155   53.9451 C   0  0  0  0  0  0  0  0  0  0  0  0
   69.8896   46.4580   57.7907 O   0  0  0  0  0  0  0  0  0  0  0  0
   70.4816   45.2606   57.9924 C   0  0  0  0  0  0  0  0  0  0  0  0
   71.6014   45.2128   58.5390 O   0  0  0  0  0  0  0  0  0  0  0  0
   69.8231   44.0267   57.5770 C   0  0  0  0  0  0  0  0  0  0  0  0
   68.8451   44.0060   56.6015 C   0  0  0  0  0  0  0  0  0  0  0  0
   68.2264   42.8277   56.2137 C   0  0  0  0  0  0  0  0  0  0  0  0
   68.5622   41.6204   56.7891 C   0  0  0  0  0  0  0  0  0  0  0  0
   69.5367   41.6368   57.7619 C   0  0  0  0  0  0  0  0  0  0  0  0
   70.1506   42.8120   58.1439 C   0  0  0  0  0  0  0  0  0  0  0  0
   67.9214   40.4003   56.3884 N   0  0  0  0  0  0  0  0  0  0  0  0
   67.8516   39.4119   57.1189 O   0  0  0  0  0  0  0  0  0  0  0  0
   67.3692   40.3474   55.1421 O   0  0  0  0  0  0  0  0  0  0  0  0
  3  2  1  1
  3  1  1  0
  3  4  1  0
  1 13  1  0
 13 14  1  0
 14 15  2  0
 14 16  1  0
 16 17  2  0
 16 21  1  0
 17 18  1  0
 18 19  2  0
 19 22  1  0
 19 20  1  0
 22 23  2  0
 22 24  1  0
 20 21  2  0
  4  5  2  0
  4 12  1  0
  5  6  1  0
  6  7  1  0
  6  8  2  0
  8  9  1  0
  8 10  1  0
 10 11  1  0
 10 12  2  0
M  CHG  2  22   1  24  -1
M  END
>  <minimizedAffinity>  (590) 
-8.54936

$$$$
cs_full_output_folder/data/smiles/8412.pdb
     RDKit          3D

 24 25  0  0  0  0  0  0  0  0999 V2000
   70.5568   49.7838   53.3657 C   0  0  0  0  0  0  0  0  0  0  0  0
   70.1224   50.8627   52.7861 O   0  0  0  0  0  0  0  0  0  0  0  0
   71.5900   50.0241   54.2670 N   0  0  0  0  0  0  0  0  0  0  0  0
   67.8581   45.6896   54.2607 C   0  0  0  0  0  0  0  0  0  0  0  0
   68.6121   46.5582   53.3410 C   0  0  0  0  0  0  0  0  0  0  0  0
   68.7209   46.2317   52.0642 N   0  0  0  0  0  0  0  0  0  0  0  0
   69.4005   47.0146   51.2452 N   0  0  0  0  0  0  0  0  0  0  0  0
   69.9954   48.1431   51.6438 C   0  0  0  0  0  0  0  0  0  0  0  0
   70.6404   48.8785   50.8451 O   0  0  0  0  0  0  0  0  0  0  0  0
   69.9235   48.5553   52.9875 C   0  0  0  0  0  0  0  0  0  0  0  0
   69.2194   47.7360   53.8110 C   0  0  0  0  0  0  0  0  0  0  0  0
   69.0187   48.0577   55.2274 C   0  0  0  0  0  0  0  0  0  0  0  0
   72.1314   51.3772   54.5523 C   0  0  2  0  0  0  0  0  0  0  0  0
   73.1133   51.2398   55.6914 C   0  0  0  0  0  0  0  0  0  0  0  0
   70.9454   52.1962   54.9263 C   0  0  0  0  0  0  0  0  0  0  0  0
   70.6446   52.4052   56.3453 C   0  0  0  0  0  0  0  0  0  0  0  0
   69.5898   51.5905   56.9550 C   0  0  0  0  0  0  0  0  0  0  0  0
   69.8665   50.5467   57.8057 C   0  0  0  0  0  0  0  0  0  0  0  0
   68.8697   49.8068   58.3776 C   0  0  0  0  0  0  0  0  0  0  0  0
   67.5472   50.0739   58.1263 C   0  0  0  0  0  0  0  0  0  0  0  0
   66.5167   49.3813   58.6601 F   0  0  0  0  0  0  0  0  0  0  0  0
   67.2854   51.1309   57.2653 C   0  0  0  0  0  0  0  0  0  0  0  0
   65.9900   51.4499   56.9741 F   0  0  0  0  0  0  0  0  0  0  0  0
   68.2606   51.8896   56.6783 C   0  0  0  0  0  0  0  0  0  0  0  0
  4  5  1  0
  5  6  2  0
  5 11  1  0
  6  7  1  0
  7  8  1  0
  8  9  2  0
  8 10  1  0
 10  1  1  0
 10 11  2  0
  1  2  2  0
  1  3  1  0
  3 13  1  0
 13 14  1  1
 13 15  1  0
 15 16  1  0
 16 17  1  0
 17 18  2  0
 17 24  1  0
 18 19  1  0
 19 20  2  0
 20 21  1  0
 20 22  1  0
 22 23  1  0
 22 24  2  0
 11 12  1  0
M  END
>  <minimizedAffinity>  (591) 
-8.54931

$$$$
cs_full_output_folder/data/smiles/665.pdb
     RDKit          3D

 23 25  0  0  0  0  0  0  0  0999 V2000
   67.5359   42.0817   55.8000 O   0  0  0  0  0  0  0  0  0  0  0  0
   68.2833   42.8024   56.4890 C   0  0  0  0  0  0  0  0  0  0  0  0
   68.4175   44.1670   56.1800 N   0  0  0  0  0  0  0  0  0  0  0  0
   69.0181   42.2114   57.6199 C   0  0  0  0  0  0  0  0  0  0  0  0
   68.3363   40.9657   58.0516 C   0  0  0  0  0  0  0  0  0  0  0  0
   68.4364   39.6932   57.5804 C   0  0  0  0  0  0  0  0  0  0  0  0
   67.6064   38.8927   58.2969 N   0  0  0  0  0  0  0  0  0  0  0  0
   66.9580   39.6118   59.2336 C   0  0  0  0  0  0  0  0  0  0  0  0
   66.0285   39.2690   60.1929 C   0  0  0  0  0  0  0  0  0  0  0  0
   65.5285   40.2416   61.0355 C   0  0  0  0  0  0  0  0  0  0  0  0
   65.9520   41.5524   60.9237 C   0  0  0  0  0  0  0  0  0  0  0  0
   66.8838   41.8586   59.9506 C   0  0  0  0  0  0  0  0  0  0  0  0
   67.4042   40.9114   59.0916 C   0  0  0  0  0  0  0  0  0  0  0  0
   67.7346   44.7404   55.1146 N   0  0  0  0  0  0  0  0  0  0  0  0
   68.2550   45.8632   54.3960 C   0  0  0  0  0  0  0  0  0  0  0  0
   68.8173   46.9421   55.0626 C   0  0  0  0  0  0  0  0  0  0  0  0
   69.3323   48.0299   54.3931 C   0  0  0  0  0  0  0  0  0  0  0  0
   69.3145   48.1046   53.0098 C   0  0  0  0  0  0  0  0  0  0  0  0
   68.7530   47.0288   52.3516 C   0  0  0  0  0  0  0  0  0  0  0  0
   68.2339   45.9325   53.0200 C   0  0  0  0  0  0  0  0  0  0  0  0
   69.8462   49.2224   52.3100 N   0  0  0  0  0  0  0  0  0  0  0  0
   70.0324   50.2764   52.9340 O   0  0  0  0  0  0  0  0  0  0  0  0
   70.1611   49.1889   50.9784 O   0  0  0  0  0  0  0  0  0  0  0  0
  1  2  2  0
  2  4  1  0
  2  3  1  0
  4  5  1  0
  5  6  2  0
  5 13  1  0
  6  7  1  0
  7  8  1  0
  8  9  1  0
  8 13  2  0
  9 10  2  0
 10 11  1  0
 11 12  2  0
 12 13  1  0
  3 14  1  0
 14 15  1  0
 15 16  2  0
 15 20  1  0
 16 17  1  0
 17 18  2  0
 18 21  1  0
 18 19  1  0
 21 22  2  0
 21 23  1  0
 19 20  2  0
M  CHG  2  21   1  23  -1
M  END
>  <minimizedAffinity>  (592) 
-8.54769

$$$$
cs_full_output_folder/data/smiles/2401.pdb
     RDKit          3D

 25 27  0  0  0  0  0  0  0  0999 V2000
   68.0761   41.7671   57.6265 C   0  0  0  0  0  0  0  0  0  0  0  0
   67.6786   42.4303   58.7016 O   0  0  0  0  0  0  0  0  0  0  0  0
   68.8734   40.6361   57.9412 C   0  0  0  0  0  0  0  0  0  0  0  0
   68.3332   39.3431   58.1098 C   0  0  0  0  0  0  0  0  0  0  0  0
   69.3246   38.5314   58.4585 N   0  0  0  0  0  0  0  0  0  0  0  0
   70.4819   39.1885   58.5324 C   0  0  0  0  0  0  0  0  0  0  0  0
   71.7396   38.7583   58.8363 C   0  0  0  0  0  0  0  0  0  0  0  0
   72.7958   39.6501   58.8278 C   0  0  0  0  0  0  0  0  0  0  0  0
   72.5864   40.9702   58.5125 C   0  0  0  0  0  0  0  0  0  0  0  0
   71.2845   41.3579   58.2094 C   0  0  0  0  0  0  0  0  0  0  0  0
   70.2100   40.5077   58.2091 C   0  0  0  0  0  0  0  0  0  0  0  0
   73.6470   41.9152   58.4917 N   0  0  0  0  0  0  0  0  0  0  0  0
   74.3473   42.1626   59.4780 O   0  0  0  0  0  0  0  0  0  0  0  0
   73.9007   42.5806   57.3233 O   0  0  0  0  0  0  0  0  0  0  0  0
   67.9820   43.7412   56.0769 N   0  0  0  0  0  0  0  0  0  0  0  0
   67.5974   42.3693   56.4223 C   0  0  0  0  0  0  0  0  0  0  0  0
   66.8530   41.7985   55.6170 O   0  0  0  0  0  0  0  0  0  0  0  0
   67.4881   44.2832   54.8920 N   0  0  0  0  0  0  0  0  0  0  0  0
   69.7202   48.8771   52.2811 C   0  0  0  0  0  0  0  0  0  0  0  0
   69.1467   47.6905   52.9793 C   0  0  0  0  0  0  0  0  0  0  0  0
   69.1715   47.5379   54.3495 C   0  0  0  0  0  0  0  0  0  0  0  0
   68.6426   46.4479   54.9970 C   0  0  0  0  0  0  0  0  0  0  0  0
   68.0512   45.4348   54.2831 C   0  0  0  0  0  0  0  0  0  0  0  0
   68.0080   45.5538   52.9115 C   0  0  0  0  0  0  0  0  0  0  0  0
   68.5458   46.6584   52.2895 C   0  0  0  0  0  0  0  0  0  0  0  0
 19 20  1  0
 20 21  2  0
 20 25  1  0
 21 22  1  0
 22 23  2  0
 23 18  1  0
 23 24  1  0
 18 15  1  0
 15 16  1  0
 16 17  2  0
 16  1  1  0
  1  2  2  0
  1  3  1  0
  3  4  2  0
  3 11  1  0
  4  5  1  0
  5  6  1  0
  6  7  1  0
  6 11  2  0
  7  8  2  0
  8  9  1  0
  9 12  1  0
  9 10  2  0
 12 13  2  0
 12 14  1  0
 10 11  1  0
 24 25  2  0
M  CHG  2  12   1  14  -1
M  END
>  <minimizedAffinity>  (593) 
-8.54627

$$$$
cs_full_output_folder/data/smiles/3999.pdb
     RDKit          3D

 24 26  0  0  0  0  0  0  0  0999 V2000
   71.2541   46.5870   58.1904 C   0  0  0  0  0  0  0  0  0  0  0  0
   71.8667   47.4189   59.0811 C   0  0  0  0  0  0  0  0  0  0  0  0
   71.5202   48.7455   59.1394 C   0  0  0  0  0  0  0  0  0  0  0  0
   70.5397   49.2290   58.2812 C   0  0  0  0  0  0  0  0  0  0  0  0
   69.9088   48.4083   57.3747 C   0  0  0  0  0  0  0  0  0  0  0  0
   70.2766   47.0716   57.3355 C   0  0  0  0  0  0  0  0  0  0  0  0
   71.5301   45.1944   58.0346 N   0  0  0  0  0  0  0  0  0  0  0  0
   70.2459   44.0700   58.1728 S   0  0  0  0  0  0  0  0  0  0  0  0
   69.5519   44.2903   59.5071 O   0  0  0  0  0  0  0  0  0  0  0  0
   69.2603   44.3119   57.0594 O   0  0  0  0  0  0  0  0  0  0  0  0
   71.1662   41.3317   58.0145 N   0  0  0  0  0  0  0  0  0  0  0  0
   70.8016   42.4526   58.0769 C   0  0  0  0  0  0  0  0  0  0  0  0
   68.8509   48.9092   56.4296 C   0  0  0  0  0  0  0  0  0  0  0  0
   69.2967   48.8054   55.0241 C   0  0  0  0  0  0  0  0  0  0  0  0
   70.1922   49.7201   54.5254 N   0  0  0  0  0  0  0  0  0  0  0  0
   70.6132   49.6764   53.2811 N   0  0  0  0  0  0  0  0  0  0  0  0
   70.1924   48.7343   52.4273 C   0  0  0  0  0  0  0  0  0  0  0  0
   70.6316   48.7460   51.2511 O   0  0  0  0  0  0  0  0  0  0  0  0
   69.2732   47.7539   52.8527 C   0  0  0  0  0  0  0  0  0  0  0  0
   68.8566   47.8320   54.1590 C   0  0  0  0  0  0  0  0  0  0  0  0
   67.8879   46.8199   54.6835 C   0  0  0  0  0  0  0  0  0  0  0  0
   68.0036   45.5300   53.8514 C   0  0  0  0  0  0  0  0  0  0  0  0
   67.7626   45.8875   52.3981 C   0  0  0  0  0  0  0  0  0  0  0  0
   68.8553   46.7428   51.8692 C   0  0  0  0  0  0  0  0  0  0  0  0
 11 12  3  0
 12  8  1  0
  8  9  2  0
  8 10  2  0
  8  7  1  0
  7  1  1  0
  1  2  2  0
  1  6  1  0
  2  3  1  0
  3  4  2  0
  4  5  1  0
  5 13  1  0
  5  6  2  0
 13 14  1  0
 14 15  2  0
 14 20  1  0
 15 16  1  0
 16 17  1  0
 17 18  2  0
 17 19  1  0
 19 20  2  0
 19 24  1  0
 20 21  1  0
 21 22  1  0
 22 23  1  0
 23 24  1  0
M  END
>  <minimizedAffinity>  (594) 
-8.54483

$$$$
cs_full_output_folder/data/smiles/6054.pdb
     RDKit          3D

 25 27  0  0  0  0  0  0  0  0999 V2000
   71.2446   43.7266   57.9392 C   0  0  0  0  0  0  0  0  0  0  0  0
   67.0256   42.1017   56.0831 C   0  0  0  0  0  0  0  0  0  0  0  0
   68.2769   41.8662   56.7820 N   0  0  0  0  0  0  0  0  0  0  0  0
   69.1624   42.8207   57.0115 N   0  0  0  0  0  0  0  0  0  0  0  0
   70.3160   42.6119   57.6671 C   0  0  0  0  0  0  0  0  0  0  0  0
   70.5590   41.3292   58.1055 C   0  0  0  0  0  0  0  0  0  0  0  0
   71.7223   41.0064   58.7765 C   0  0  0  0  0  0  0  0  0  0  0  0
   72.0545   39.7692   59.2350 C   0  0  0  0  0  0  0  0  0  0  0  0
   71.1390   38.7323   59.0102 C   0  0  0  0  0  0  0  0  0  0  0  0
   69.9638   39.0285   58.3400 C   0  0  0  0  0  0  0  0  0  0  0  0
   69.6600   40.2949   57.8887 C   0  0  0  0  0  0  0  0  0  0  0  0
   68.5018   40.6060   57.2078 C   0  0  0  0  0  0  0  0  0  0  0  0
   67.6682   39.6804   56.9979 O   0  0  0  0  0  0  0  0  0  0  0  0
   70.4103   44.9442   58.0190 C   0  0  0  0  0  0  0  0  0  0  0  0
   69.7843   45.0514   59.1189 O   0  0  0  0  0  0  0  0  0  0  0  0
   70.2306   45.9512   57.0801 N   0  0  0  0  0  0  0  0  0  0  0  0
   69.4465   47.1194   57.1406 C   0  0  0  0  0  0  0  0  0  0  0  0
   68.3772   47.3816   56.1857 C   0  0  0  0  0  0  0  0  0  0  0  0
   68.5924   47.2458   54.7556 C   0  0  0  0  0  0  0  0  0  0  0  0
   69.1572   48.2913   54.0509 C   0  0  0  0  0  0  0  0  0  0  0  0
   69.4255   48.2271   52.6821 C   0  0  0  0  0  0  0  0  0  0  0  0
   69.1197   47.0795   51.9858 C   0  0  0  0  0  0  0  0  0  0  0  0
   68.5519   46.0325   52.6993 C   0  0  0  0  0  0  0  0  0  0  0  0
   68.2930   46.1010   54.0407 C   0  0  0  0  0  0  0  0  0  0  0  0
   67.7475   45.0697   54.6679 F   0  0  0  0  0  0  0  0  0  0  0  0
  2  3  1  0
  3  4  1  0
  3 12  1  0
  4  5  2  0
  5  1  1  0
  5  6  1  0
  1 14  1  0
 14 15  2  0
 14 16  1  0
 16 17  1  0
 17 18  1  0
 18 19  1  0
 19 20  2  0
 19 24  1  0
 20 21  1  0
 21 22  2  0
 22 23  1  0
 23 24  2  0
 24 25  1  0
  6  7  1  0
  6 11  2  0
  7  8  2  0
  8  9  1  0
  9 10  2  0
 10 11  1  0
 11 12  1  0
 12 13  2  0
M  END
>  <minimizedAffinity>  (595) 
-8.54471

$$$$
cs_full_output_folder/data/smiles/3316.pdb
     RDKit          3D

 23 24  0  0  0  0  0  0  0  0999 V2000
   68.5909   42.4931   56.9101 C   0  0  0  0  0  0  0  0  0  0  0  0
   67.5419   42.4032   56.2228 O   0  0  0  0  0  0  0  0  0  0  0  0
   69.1878   43.7803   56.9790 N   0  0  0  0  0  0  0  0  0  0  0  0
   70.1803   39.0135   58.8657 C   0  0  0  0  0  0  0  0  0  0  0  0
   68.9065   39.0132   58.3460 C   0  0  0  0  0  0  0  0  0  0  0  0
   68.3815   40.1221   57.7137 C   0  0  0  0  0  0  0  0  0  0  0  0
   69.0855   41.2937   57.5577 C   0  0  0  0  0  0  0  0  0  0  0  0
   70.3730   41.2800   58.0886 C   0  0  0  0  0  0  0  0  0  0  0  0
   70.9132   40.1810   58.7238 C   0  0  0  0  0  0  0  0  0  0  0  0
   71.8394   38.2775   60.5534 C   0  0  0  0  0  0  0  0  0  0  0  0
   70.8070   37.8359   59.5442 C   0  0  0  0  0  0  0  0  0  0  0  0
   71.5329   36.9656   58.5234 C   0  0  0  0  0  0  0  0  0  0  0  0
   69.7462   37.0436   60.2936 C   0  0  0  0  0  0  0  0  0  0  0  0
   68.5863   44.8773   56.3024 N   0  0  0  0  0  0  0  0  0  0  0  0
   69.0850   46.1913   56.3990 C   0  0  0  0  0  0  0  0  0  0  0  0
   70.0936   46.4445   57.0981 O   0  0  0  0  0  0  0  0  0  0  0  0
   68.4215   47.2809   55.6722 C   0  0  0  0  0  0  0  0  0  0  0  0
   68.5032   47.1205   54.1975 C   0  0  0  0  0  0  0  0  0  0  0  0
   69.3925   47.9711   53.5375 C   0  0  0  0  0  0  0  0  0  0  0  0
   69.5325   47.9057   52.1850 C   0  0  0  0  0  0  0  0  0  0  0  0
   68.8182   47.0172   51.4362 C   0  0  0  0  0  0  0  0  0  0  0  0
   67.9260   46.1607   52.0759 C   0  0  0  0  0  0  0  0  0  0  0  0
   67.7814   46.2287   53.4641 C   0  0  0  0  0  0  0  0  0  0  0  0
 10 11  1  0
 11 12  1  0
 11 13  1  0
 11  4  1  0
  4  5  2  0
  4  9  1  0
  5  6  1  0
  6  7  2  0
  7  1  1  0
  7  8  1  0
  1  2  2  0
  1  3  1  0
  3 14  1  0
 14 15  1  0
 15 16  2  0
 15 17  1  0
 17 18  1  0
 18 19  2  0
 18 23  1  0
 19 20  1  0
 20 21  2  0
 21 22  1  0
 22 23  2  0
  8  9  2  0
M  END
>  <minimizedAffinity>  (596) 
-8.54470

$$$$
cs_full_output_folder/data/smiles/6804.pdb
     RDKit          3D

 23 25  0  0  0  0  0  0  0  0999 V2000
   69.6262   42.9806   57.3228 C   0  0  0  0  0  0  0  0  0  0  0  0
   68.4917   42.9013   56.7350 N   0  0  0  0  0  0  0  0  0  0  0  0
   72.7395   42.7334   57.7064 C   0  0  0  0  0  0  0  0  0  0  0  0
   71.7050   41.6839   58.0111 C   0  0  0  0  0  0  0  0  0  0  0  0
   71.9153   40.4498   58.5033 N   0  0  0  0  0  0  0  0  0  0  0  0
   70.7490   39.7967   58.6440 C   0  0  0  0  0  0  0  0  0  0  0  0
   70.4528   38.5289   59.1019 C   0  0  0  0  0  0  0  0  0  0  0  0
   69.1507   38.0724   59.1558 C   0  0  0  0  0  0  0  0  0  0  0  0
   68.1537   38.9277   58.7366 C   0  0  0  0  0  0  0  0  0  0  0  0
   68.4199   40.1975   58.2758 C   0  0  0  0  0  0  0  0  0  0  0  0
   69.7242   40.6425   58.2265 C   0  0  0  0  0  0  0  0  0  0  0  0
   70.3448   41.8201   57.8332 C   0  0  0  0  0  0  0  0  0  0  0  0
   67.7870   43.9424   56.2455 O   0  0  0  0  0  0  0  0  0  0  0  0
   68.1649   44.7155   55.1778 N   0  0  0  0  0  0  0  0  0  0  0  0
   68.3604   46.1094   55.2351 C   0  0  0  0  0  0  0  0  0  0  0  0
   68.1718   46.6738   56.3555 O   0  0  0  0  0  0  0  0  0  0  0  0
   68.7598   46.9540   54.1234 C   0  0  0  0  0  0  0  0  0  0  0  0
   68.7321   46.5336   52.8138 C   0  0  0  0  0  0  0  0  0  0  0  0
   69.1089   47.3272   51.7590 C   0  0  0  0  0  0  0  0  0  0  0  0
   69.5388   48.6143   52.0137 C   0  0  0  0  0  0  0  0  0  0  0  0
   69.5783   49.0631   53.2990 C   0  0  0  0  0  0  0  0  0  0  0  0
   70.0038   50.3289   53.5203 F   0  0  0  0  0  0  0  0  0  0  0  0
   69.1897   48.2367   54.3609 C   0  0  0  0  0  0  0  0  0  0  0  0
  3  4  1  0
  4  5  1  0
  4 12  2  0
  5  6  1  0
  6  7  2  0
  6 11  1  0
  7  8  1  0
  8  9  2  0
  9 10  1  0
 10 11  2  0
 11 12  1  0
 12  1  1  0
  1  2  2  0
  2 13  1  0
 13 14  1  0
 14 15  1  0
 15 16  2  0
 15 17  1  0
 17 18  2  0
 17 23  1  0
 18 19  1  0
 19 20  2  0
 20 21  1  0
 21 22  1  0
 21 23  2  0
M  END
>  <minimizedAffinity>  (597) 
-8.54344

$$$$
cs_full_output_folder/data/smiles/201.pdb
     RDKit          3D

 20 22  0  0  0  0  0  0  0  0999 V2000
   70.1499   49.2019   51.3523 N   0  0  0  0  0  0  0  0  0  0  0  0
   69.3902   48.1576   51.9862 C   0  0  0  0  0  0  0  0  0  0  0  0
   69.3706   48.0083   53.3505 C   0  0  0  0  0  0  0  0  0  0  0  0
   68.6335   46.9963   53.9221 C   0  0  0  0  0  0  0  0  0  0  0  0
   67.9332   46.1614   53.0632 C   0  0  0  0  0  0  0  0  0  0  0  0
   67.1220   45.0865   53.2862 N   0  0  0  0  0  0  0  0  0  0  0  0
   66.7026   44.6466   52.1045 N   0  0  0  0  0  0  0  0  0  0  0  0
   67.1959   45.3758   51.1410 N   0  0  0  0  0  0  0  0  0  0  0  0
   67.9588   46.3193   51.6970 C   0  0  0  0  0  0  0  0  0  0  0  0
   68.6938   47.3241   51.1804 N   0  0  0  0  0  0  0  0  0  0  0  0
   68.5423   46.7558   55.2602 O   0  0  0  0  0  0  0  0  0  0  0  0
   69.2476   47.4455   56.2665 C   0  0  0  0  0  0  0  0  0  0  0  0
   68.4949   48.6201   56.7664 C   0  0  0  0  0  0  0  0  0  0  0  0
   67.3143   48.4664   57.4517 C   0  0  0  0  0  0  0  0  0  0  0  0
   66.5761   49.5305   57.9235 C   0  0  0  0  0  0  0  0  0  0  0  0
   67.0501   50.8059   57.6930 C   0  0  0  0  0  0  0  0  0  0  0  0
   68.2453   50.9787   57.0001 C   0  0  0  0  0  0  0  0  0  0  0  0
   68.8565   52.5999   56.7078 Cl  0  0  0  0  0  0  0  0  0  0  0  0
   68.9801   49.9010   56.5299 C   0  0  0  0  0  0  0  0  0  0  0  0
   70.4835   50.1861   55.6648 Cl  0  0  0  0  0  0  0  0  0  0  0  0
  1  2  1  0
  2  3  2  0
  2 10  1  0
  3  4  1  0
  4 11  1  0
  4  5  2  0
 11 12  1  0
 12 13  1  0
 13 14  2  0
 13 19  1  0
 14 15  1  0
 15 16  2  0
 16 17  1  0
 17 18  1  0
 17 19  2  0
 19 20  1  0
  5  6  1  0
  5  9  1  0
  6  7  2  0
  7  8  1  0
  8  9  1  0
  9 10  2  0
M  END
>  <minimizedAffinity>  (598) 
-8.54237

$$$$
cs_full_output_folder/data/smiles/827.pdb
     RDKit          3D

 25 27  0  0  0  0  0  0  0  0999 V2000
   72.1961   51.8081   54.4284 C   0  0  0  0  0  0  0  0  0  0  0  0
   73.3972   51.0384   54.8559 C   0  0  2  0  0  0  0  0  0  0  0  0
   73.9572   50.3935   53.6485 N   0  0  0  0  0  0  0  0  0  0  0  0
   73.4379   49.9017   57.0978 C   0  0  0  0  0  0  0  0  0  0  0  0
   74.0923   50.8753   57.5416 O   0  0  0  0  0  0  0  0  0  0  0  0
   73.0553   49.9277   55.7365 N   0  0  0  0  0  0  0  0  0  0  0  0
   71.9130   45.6145   60.5612 N   0  0  0  0  0  0  0  0  0  0  0  0
   72.3263   46.6660   59.6941 C   0  0  0  0  0  0  0  0  0  0  0  0
   71.4680   47.7050   59.4005 C   0  0  0  0  0  0  0  0  0  0  0  0
   71.8302   48.7415   58.5661 C   0  0  0  0  0  0  0  0  0  0  0  0
   73.0940   48.7908   57.9726 C   0  0  0  0  0  0  0  0  0  0  0  0
   73.9432   47.7504   58.2710 C   0  0  0  0  0  0  0  0  0  0  0  0
   73.5767   46.7005   59.1157 C   0  0  0  0  0  0  0  0  0  0  0  0
   70.8738   51.2633   54.7779 C   0  0  0  0  0  0  0  0  0  0  0  0
   70.3725   50.0941   54.0714 C   0  0  0  0  0  0  0  0  0  0  0  0
   69.5313   49.2865   54.7960 N   0  0  0  0  0  0  0  0  0  0  0  0
   69.0293   48.1661   54.2651 C   0  0  0  0  0  0  0  0  0  0  0  0
   68.1743   47.3349   54.9846 C   0  0  0  0  0  0  0  0  0  0  0  0
   67.6712   46.1882   54.4147 C   0  0  0  0  0  0  0  0  0  0  0  0
   67.9734   45.7987   53.1296 C   0  0  0  0  0  0  0  0  0  0  0  0
   68.8157   46.6101   52.4073 C   0  0  0  0  0  0  0  0  0  0  0  0
   69.3240   47.7652   52.9803 C   0  0  0  0  0  0  0  0  0  0  0  0
   70.1600   48.5649   52.2575 C   0  0  0  0  0  0  0  0  0  0  0  0
   70.4633   48.2559   51.0902 O   0  0  0  0  0  0  0  0  0  0  0  0
   70.6389   49.6857   52.8422 N   0  0  0  0  0  0  0  0  0  0  0  0
  7  8  1  0
  8  9  2  0
  8 13  1  0
  9 10  1  0
 10 11  2  0
 11  4  1  0
 11 12  1  0
  4  5  2  0
  4  6  1  0
  6  2  1  0
  2  3  1  6
  2  1  1  0
  1 14  1  0
 14 15  1  0
 15 16  2  0
 15 25  1  0
 16 17  1  0
 17 18  2  0
 17 22  1  0
 18 19  1  0
 19 20  2  0
 20 21  1  0
 21 22  2  0
 22 23  1  0
 23 24  2  0
 23 25  1  0
 12 13  2  0
M  CHG  1   3   1
M  END
>  <minimizedAffinity>  (599) 
-8.54222

$$$$
cs_full_output_folder/data/smiles/7537.pdb
     RDKit          3D

 23 25  0  0  0  0  0  0  0  0999 V2000
   68.9259   47.5792   56.4440 C   0  0  0  0  0  0  0  0  0  0  0  0
   69.2914   47.8861   55.0581 C   0  0  0  0  0  0  0  0  0  0  0  0
   70.2087   48.8550   54.8307 N   0  0  0  0  0  0  0  0  0  0  0  0
   70.6408   49.1905   53.6386 N   0  0  0  0  0  0  0  0  0  0  0  0
   70.1856   48.5744   52.5263 C   0  0  0  0  0  0  0  0  0  0  0  0
   70.5780   48.8675   51.3672 O   0  0  0  0  0  0  0  0  0  0  0  0
   69.2486   47.5782   52.6843 C   0  0  0  0  0  0  0  0  0  0  0  0
   68.7704   46.9478   51.5463 C   0  0  0  0  0  0  0  0  0  0  0  0
   67.8273   45.9597   51.6866 C   0  0  0  0  0  0  0  0  0  0  0  0
   67.3751   45.6159   52.9630 C   0  0  0  0  0  0  0  0  0  0  0  0
   67.8550   46.2449   54.0762 C   0  0  0  0  0  0  0  0  0  0  0  0
   68.7978   47.2313   53.9545 C   0  0  0  0  0  0  0  0  0  0  0  0
   69.1836   45.0660   56.7259 N   0  0  0  0  0  0  0  0  0  0  0  0
   69.6449   46.3950   57.0016 C   0  0  0  0  0  0  0  0  0  0  0  0
   70.6649   46.4722   57.7255 O   0  0  0  0  0  0  0  0  0  0  0  0
   71.1139   41.6081   58.2437 C   0  0  0  0  0  0  0  0  0  0  0  0
   71.7592   42.8300   58.1660 C   0  0  0  0  0  0  0  0  0  0  0  0
   71.1623   43.9733   57.6791 C   0  0  0  0  0  0  0  0  0  0  0  0
   69.8504   43.9247   57.2382 C   0  0  0  0  0  0  0  0  0  0  0  0
   69.2053   42.7103   57.3145 C   0  0  0  0  0  0  0  0  0  0  0  0
   69.7985   41.5558   57.8033 C   0  0  0  0  0  0  0  0  0  0  0  0
   70.9197   39.1874   58.5322 C   0  0  0  0  0  0  0  0  0  0  0  0
   71.8293   40.3970   58.7719 C   0  0  0  0  0  0  0  0  0  0  0  0
 22 23  1  0
 23 16  1  0
 16 17  2  0
 16 21  1  0
 17 18  1  0
 18 19  2  0
 19 13  1  0
 19 20  1  0
 13 14  1  0
 14 15  2  0
 14  1  1  0
  1  2  1  0
  2  3  2  0
  2 12  1  0
  3  4  1  0
  4  5  1  0
  5  6  2  0
  5  7  1  0
  7  8  1  0
  7 12  2  0
  8  9  2  0
  9 10  1  0
 10 11  2  0
 11 12  1  0
 20 21  2  0
M  END
>  <minimizedAffinity>  (600) 
-8.54072

$$$$
cs_full_output_folder/data/smiles/5914.pdb
     RDKit          3D

 23 24  0  0  0  0  0  0  0  0999 V2000
   69.2273   46.8780   56.0900 N   0  0  0  0  0  0  0  0  0  0  0  0
   68.8626   46.7283   54.7311 C   0  0  0  0  0  0  0  0  0  0  0  0
   69.2462   47.6819   53.8089 C   0  0  0  0  0  0  0  0  0  0  0  0
   70.0041   48.7393   54.2620 F   0  0  0  0  0  0  0  0  0  0  0  0
   68.9122   47.6096   52.4739 C   0  0  0  0  0  0  0  0  0  0  0  0
   69.2999   48.5595   51.5758 F   0  0  0  0  0  0  0  0  0  0  0  0
   68.1601   46.5531   51.9927 C   0  0  0  0  0  0  0  0  0  0  0  0
   67.8321   46.4730   50.6643 F   0  0  0  0  0  0  0  0  0  0  0  0
   67.7698   45.5941   52.8946 C   0  0  0  0  0  0  0  0  0  0  0  0
   67.0370   44.5571   52.4503 F   0  0  0  0  0  0  0  0  0  0  0  0
   68.1055   45.6704   54.2244 C   0  0  0  0  0  0  0  0  0  0  0  0
   67.7272   44.7170   55.1247 F   0  0  0  0  0  0  0  0  0  0  0  0
   67.9518   48.6282   57.2198 C   0  0  0  0  0  0  0  0  0  0  0  0
   66.9276   47.8920   57.1731 O   0  0  0  0  0  0  0  0  0  0  0  0
   69.1562   48.1588   56.6869 N   0  0  0  0  0  0  0  0  0  0  0  0
   67.7388   49.9397   57.8570 C   0  0  0  0  0  0  0  0  0  0  0  0
   70.3194   50.9357   58.7202 C   0  0  0  0  0  0  0  0  0  0  0  0
   69.6501   51.4419   57.5219 C   0  0  0  0  0  0  0  0  0  0  0  0
   70.3227   52.4485   56.8159 C   0  0  0  0  0  0  0  0  0  0  0  0
   69.7745   52.9510   55.6554 C   0  0  0  0  0  0  0  0  0  0  0  0
   68.5821   52.4583   55.2097 C   0  0  0  0  0  0  0  0  0  0  0  0
   67.9341   51.4534   55.9350 C   0  0  0  0  0  0  0  0  0  0  0  0
   68.4617   50.9373   57.0967 C   0  0  0  0  0  0  0  0  0  0  0  0
 17 18  1  0
 18 19  2  0
 18 23  1  0
 19 20  1  0
 20 21  2  0
 21 22  1  0
 22 23  2  0
 23 16  1  0
 16 13  1  0
 13 14  2  0
 13 15  1  0
 15  1  1  0
  1  2  1  0
  2  3  2  0
  2 11  1  0
  3  4  1  0
  3  5  1  0
  5  6  1  0
  5  7  2  0
  7  8  1  0
  7  9  1  0
  9 10  1  0
  9 11  2  0
 11 12  1  0
M  END
>  <minimizedAffinity>  (601) 
-8.54059

$$$$
cs_full_output_folder/data/smiles/6071.pdb
     RDKit          3D

 23 26  0  0  0  0  0  0  0  0999 V2000
   69.2892   46.1414   56.3024 C   0  0  0  0  0  0  0  0  0  0  0  0
   69.4530   45.0441   57.0762 N   0  0  0  0  0  0  0  0  0  0  0  0
   69.9594   45.3672   58.2480 N   0  0  0  0  0  0  0  0  0  0  0  0
   70.1516   46.6860   58.3013 C   0  0  0  0  0  0  0  0  0  0  0  0
   69.7330   47.1781   57.0827 C   0  0  0  0  0  0  0  0  0  0  0  0
   69.7781   48.5883   56.7296 C   0  0  0  0  0  0  0  0  0  0  0  0
   70.8499   49.1774   56.1133 C   0  0  0  0  0  0  0  0  0  0  0  0
   70.8043   50.5134   55.8098 C   0  0  0  0  0  0  0  0  0  0  0  0
   69.7010   51.2826   56.1101 C   0  0  0  0  0  0  0  0  0  0  0  0
   68.6077   50.7075   56.7329 C   0  0  0  0  0  0  0  0  0  0  0  0
   67.4883   51.4815   57.0382 C   0  0  0  0  0  0  0  0  0  0  0  0
   66.4096   50.8913   57.6567 C   0  0  0  0  0  0  0  0  0  0  0  0
   66.5144   49.5461   57.9363 C   0  0  0  0  0  0  0  0  0  0  0  0
   67.5972   48.8197   57.6356 N   0  0  0  0  0  0  0  0  0  0  0  0
   68.6769   49.3656   57.0273 C   0  0  0  0  0  0  0  0  0  0  0  0
   67.0869   45.9937   51.0889 O   0  0  0  0  0  0  0  0  0  0  0  0
   67.6480   46.0622   52.3678 C   0  0  0  0  0  0  0  0  0  0  0  0
   68.4345   47.1196   52.7672 C   0  0  0  0  0  0  0  0  0  0  0  0
   68.9770   47.1595   54.0421 C   0  0  0  0  0  0  0  0  0  0  0  0
   68.7592   46.1583   54.9582 C   0  0  0  0  0  0  0  0  0  0  0  0
   67.9649   45.0976   54.5447 C   0  0  0  0  0  0  0  0  0  0  0  0
   67.7219   44.0597   55.4528 O   0  0  0  0  0  0  0  0  0  0  0  0
   67.4225   45.0524   53.2770 C   0  0  0  0  0  0  0  0  0  0  0  0
 16 17  1  0
 17 18  2  0
 17 23  1  0
 18 19  1  0
 19 20  2  0
 20  1  1  0
 20 21  1  0
  1  2  1  0
  1  5  2  0
  2  3  1  0
  3  4  2  0
  4  5  1  0
  5  6  1  0
  6  7  2  0
  6 15  1  0
  7  8  1  0
  8  9  2  0
  9 10  1  0
 10 11  1  0
 10 15  2  0
 11 12  2  0
 12 13  1  0
 13 14  2  0
 14 15  1  0
 21 22  1  0
 21 23  2  0
M  END
>  <minimizedAffinity>  (602) 
-8.54054

$$$$
cs_full_output_folder/data/smiles/8405.pdb
     RDKit          3D

 23 25  0  0  0  0  0  0  0  0999 V2000
   68.9675   48.4821   56.3364 C   0  0  0  0  0  0  0  0  0  0  0  0
   69.2668   48.4987   54.8850 C   0  0  0  0  0  0  0  0  0  0  0  0
   70.1468   49.4906   54.4833 N   0  0  0  0  0  0  0  0  0  0  0  0
   70.5426   49.6107   53.2418 N   0  0  0  0  0  0  0  0  0  0  0  0
   70.1050   48.7693   52.2999 C   0  0  0  0  0  0  0  0  0  0  0  0
   70.4636   48.8502   51.0772 O   0  0  0  0  0  0  0  0  0  0  0  0
   69.2312   47.7604   52.6150 C   0  0  0  0  0  0  0  0  0  0  0  0
   68.7588   46.8616   51.6670 C   0  0  0  0  0  0  0  0  0  0  0  0
   67.8903   45.8599   52.0060 C   0  0  0  0  0  0  0  0  0  0  0  0
   67.4951   45.7719   53.3243 C   0  0  0  0  0  0  0  0  0  0  0  0
   67.9535   46.6543   54.2780 C   0  0  0  0  0  0  0  0  0  0  0  0
   68.8223   47.6483   53.9315 C   0  0  0  0  0  0  0  0  0  0  0  0
   69.6354   46.1472   57.1790 N   0  0  0  0  0  0  0  0  0  0  0  0
   69.9271   47.5339   57.0045 C   0  0  0  0  0  0  0  0  0  0  0  0
   71.0327   47.9076   57.4553 O   0  0  0  0  0  0  0  0  0  0  0  0
   70.5251   45.1964   57.8207 C   0  0  0  0  0  0  0  0  0  0  0  0
   68.1789   39.8673   57.5614 C   0  0  0  0  0  0  0  0  0  0  0  0
   68.7405   41.2351   57.6020 C   0  0  0  0  0  0  0  0  0  0  0  0
   69.6763   41.5682   58.5937 C   0  0  0  0  0  0  0  0  0  0  0  0
   70.2473   42.8341   58.6695 C   0  0  0  0  0  0  0  0  0  0  0  0
   69.9037   43.8160   57.7541 C   0  0  0  0  0  0  0  0  0  0  0  0
   68.9888   43.4847   56.7874 C   0  0  0  0  0  0  0  0  0  0  0  0
   68.4133   42.2175   56.7061 C   0  0  0  0  0  0  0  0  0  0  0  0
 17 18  1  0
 18 19  2  0
 18 23  1  0
 19 20  1  0
 20 21  2  0
 21 16  1  0
 21 22  1  0
 16 13  1  0
 13 14  1  0
 14 15  2  0
 14  1  1  0
  1  2  1  0
  2  3  2  0
  2 12  1  0
  3  4  1  0
  4  5  1  0
  5  6  2  0
  5  7  1  0
  7  8  1  0
  7 12  2  0
  8  9  2  0
  9 10  1  0
 10 11  2  0
 11 12  1  0
 22 23  2  0
M  END
>  <minimizedAffinity>  (603) 
-8.53993

$$$$
cs_full_output_folder/data/smiles/4229.pdb
     RDKit          3D

 25 27  0  0  0  0  0  0  0  0999 V2000
   70.3528   45.6773   57.8437 C   0  0  0  0  0  0  0  0  0  0  0  0
   70.9431   46.7218   58.2072 O   0  0  0  0  0  0  0  0  0  0  0  0
   69.2839   45.7834   56.9509 N   0  0  0  0  0  0  0  0  0  0  0  0
   69.2882   42.8575   57.0656 C   0  0  0  0  0  0  0  0  0  0  0  0
   70.3642   43.1368   58.0479 C   0  0  0  0  0  0  0  0  0  0  0  0
   70.8358   44.4084   58.3906 C   0  0  0  0  0  0  0  0  0  0  0  0
   71.8165   44.1721   59.3243 C   0  0  0  0  0  0  0  0  0  0  0  0
   71.9034   42.8394   59.5066 N   0  0  0  0  0  0  0  0  0  0  0  0
   71.0213   42.2083   58.7321 N   0  0  0  0  0  0  0  0  0  0  0  0
   70.8355   40.7976   58.6664 C   0  0  0  0  0  0  0  0  0  0  0  0
   71.9460   39.9601   58.4793 C   0  0  0  0  0  0  0  0  0  0  0  0
   71.7313   38.6000   58.4198 C   0  0  0  0  0  0  0  0  0  0  0  0
   70.4713   38.0530   58.5385 C   0  0  0  0  0  0  0  0  0  0  0  0
   69.4013   38.9229   58.7229 C   0  0  0  0  0  0  0  0  0  0  0  0
   69.5704   40.2806   58.7877 C   0  0  0  0  0  0  0  0  0  0  0  0
   68.7565   46.9977   56.3726 C   0  0  0  0  0  0  0  0  0  0  0  0
   68.6871   46.8892   54.8941 C   0  0  0  0  0  0  0  0  0  0  0  0
   67.9895   45.8932   54.2448 C   0  0  0  0  0  0  0  0  0  0  0  0
   67.9603   45.8537   52.8462 C   0  0  0  0  0  0  0  0  0  0  0  0
   68.6301   46.8120   52.0983 C   0  0  0  0  0  0  0  0  0  0  0  0
   69.3319   47.8129   52.7335 C   0  0  0  0  0  0  0  0  0  0  0  0
   69.3381   47.8197   54.0988 C   0  0  0  0  0  0  0  0  0  0  0  0
   70.0234   48.8049   51.9315 C   0  0  0  0  0  0  0  0  0  0  0  0
   70.6256   48.4490   50.8919 O   0  0  0  0  0  0  0  0  0  0  0  0
   70.0419   50.1433   52.2735 O   0  0  0  0  0  0  0  0  0  0  0  0
  4  5  1  0
  5  6  2  0
  5  9  1  0
  6  1  1  0
  6  7  1  0
  1  2  2  0
  1  3  1  0
  3 16  1  0
 16 17  1  0
 17 18  2  0
 17 22  1  0
 18 19  1  0
 19 20  2  0
 20 21  1  0
 21 23  1  0
 21 22  2  0
 23 24  2  0
 23 25  1  0
  7  8  2  0
  8  9  1  0
  9 10  1  0
 10 11  2  0
 10 15  1  0
 11 12  1  0
 12 13  2  0
 13 14  1  0
 14 15  2  0
M  END
>  <minimizedAffinity>  (604) 
-8.53942

$$$$
cs_full_output_folder/data/smiles/3078.pdb
     RDKit          3D

 25 27  0  0  0  0  0  0  0  0999 V2000
   71.0736   50.6897   55.0727 C   0  0  0  0  0  0  0  0  0  0  0  0
   70.5929   51.9784   55.0369 C   0  0  0  0  0  0  0  0  0  0  0  0
   71.4279   53.0558   55.3868 C   0  0  0  0  0  0  0  0  0  0  0  0
   72.7339   52.8507   55.7711 C   0  0  0  0  0  0  0  0  0  0  0  0
   73.2340   51.5919   55.8165 C   0  0  0  0  0  0  0  0  0  0  0  0
   72.4038   50.5509   55.4706 C   0  0  0  0  0  0  0  0  0  0  0  0
   70.4335   49.6831   52.4591 O   0  0  0  0  0  0  0  0  0  0  0  0
   69.9994   49.0561   53.4577 C   0  0  0  0  0  0  0  0  0  0  0  0
   70.3126   49.5446   54.7285 N   0  0  0  0  0  0  0  0  0  0  0  0
   69.2020   47.8643   53.1818 C   0  0  0  0  0  0  0  0  0  0  0  0
   68.9666   47.4816   51.8868 C   0  0  0  0  0  0  0  0  0  0  0  0
   68.2077   46.3520   51.5797 C   0  0  0  0  0  0  0  0  0  0  0  0
   67.6793   45.5968   52.5780 C   0  0  0  0  0  0  0  0  0  0  0  0
   66.9436   44.4972   52.2463 F   0  0  0  0  0  0  0  0  0  0  0  0
   67.9124   45.9754   53.8774 C   0  0  0  0  0  0  0  0  0  0  0  0
   68.6636   47.0937   54.1893 C   0  0  0  0  0  0  0  0  0  0  0  0
   74.5686   51.3030   56.1974 N   0  0  0  0  0  0  0  0  0  0  0  0
   75.4093   50.4445   55.4233 C   0  0  0  0  0  0  0  0  0  0  0  0
   74.8589   49.9811   54.3911 O   0  0  0  0  0  0  0  0  0  0  0  0
   76.7767   50.1430   55.8043 C   0  0  0  0  0  0  0  0  0  0  0  0
   77.5375   49.2072   55.1654 C   0  0  0  0  0  0  0  0  0  0  0  0
   78.8543   48.9341   55.5475 C   0  0  0  0  0  0  0  0  0  0  0  0
   79.3931   49.6342   56.6034 C   0  0  0  0  0  0  0  0  0  0  0  0
   78.5970   50.5802   57.2367 C   0  0  0  0  0  0  0  0  0  0  0  0
   77.3158   50.8175   56.8322 N   0  0  0  0  0  0  0  0  0  0  0  0
  7  8  2  0
  8  9  1  0
  8 10  1  0
  9  1  1  0
  1  2  2  0
  1  6  1  0
  2  3  1  0
  3  4  2  0
  4  5  1  0
  5 17  1  0
  5  6  2  0
 17 18  1  0
 18 19  2  0
 18 20  1  0
 20 21  2  0
 20 25  1  0
 21 22  1  0
 22 23  2  0
 23 24  1  0
 24 25  2  0
 10 11  2  0
 10 16  1  0
 11 12  1  0
 12 13  2  0
 13 14  1  0
 13 15  1  0
 15 16  2  0
M  END
>  <minimizedAffinity>  (605) 
-8.53934

$$$$
cs_full_output_folder/data/smiles/1346.pdb
     RDKit          3D

 22 24  0  0  0  0  0  0  0  0999 V2000
   68.1424   46.4728   56.2811 N   0  0  0  0  0  0  0  0  0  0  0  0
   69.2471   47.8235   53.0028 C   0  0  0  0  0  0  0  0  0  0  0  0
   68.6056   47.0019   52.3701 C   0  0  0  0  0  0  0  0  0  0  0  0
   67.8370   45.8074   52.5024 C   0  0  0  0  0  0  0  0  0  0  0  0
   67.9429   45.5625   54.0175 C   0  0  0  0  0  0  0  0  0  0  0  0
   68.6028   46.3868   54.7961 C   0  0  0  0  0  0  0  0  0  0  0  0
   69.3140   47.5497   54.4677 C   0  0  0  0  0  0  0  0  0  0  0  0
   69.4265   50.7326   53.1978 N   0  0  0  0  0  0  0  0  0  0  0  0
   69.9853   49.3291   52.4358 S   0  0  0  0  0  0  0  0  0  0  0  0
   71.4886   49.2048   52.9579 O   0  0  0  0  0  0  0  0  0  0  0  0
   69.9903   49.3962   50.9646 O   0  0  0  0  0  0  0  0  0  0  0  0
   69.2747   46.2717   57.0965 C   0  0  0  0  0  0  0  0  0  0  0  0
   70.0272   47.0290   57.7054 N   0  0  0  0  0  0  0  0  0  0  0  0
   71.1363   47.0559   58.5426 C   0  0  0  0  0  0  0  0  0  0  0  0
   71.3698   45.4750   58.6237 C   0  0  0  0  0  0  0  0  0  0  0  0
   70.7312   44.7616   58.0815 C   0  0  0  0  0  0  0  0  0  0  0  0
   69.5981   44.8755   57.2432 N   0  0  0  0  0  0  0  0  0  0  0  0
   71.5761   43.3584   57.6748 C   0  0  0  0  0  0  0  0  0  0  0  0
   70.2990   42.3593   59.1152 C   0  0  0  0  0  0  0  0  0  0  0  0
   71.3442   40.8710   58.4186 C   0  0  0  0  0  0  0  0  0  0  0  0
   71.4291   41.7808   58.1478 C   0  0  0  0  0  0  0  0  0  0  0  0
   71.4882   42.4791   57.9339 C   0  0  0  0  0  0  0  0  0  0  0  0
  8  9  1  0
  9 10  2  0
  9 11  2  0
  9  2  1  0
  2  3  2  0
  2  7  1  0
  3  4  1  0
  4  5  2  0
  5  6  1  0
  6  1  1  0
  6  7  2  0
  1 12  1  0
 12 13  2  0
 12 17  1  0
 13 14  1  0
 14 15  2  0
 15 16  1  0
 16 18  1  0
 16 17  2  0
 18 19  2  0
 18 22  1  0
 19 20  1  0
 20 21  1  0
 21 22  3  0
M  END
>  <minimizedAffinity>  (606) 
-8.53880

$$$$
cs_full_output_folder/data/smiles/6700.pdb
     RDKit          3D

 22 24  0  0  0  0  0  0  0  0999 V2000
   69.3326   49.2143   52.5956 C   0  0  0  0  0  0  0  0  0  0  0  0
   70.3648   49.8985   53.3866 C   0  0  0  0  0  0  0  0  0  0  0  0
   71.6884   49.5572   53.2754 N   0  0  0  0  0  0  0  0  0  0  0  0
   72.6167   50.1381   53.9692 O   0  0  0  0  0  0  0  0  0  0  0  0
   72.3622   51.0945   54.8286 C   0  0  0  0  0  0  0  0  0  0  0  0
   73.2671   51.6566   55.5016 O   0  0  0  0  0  0  0  0  0  0  0  0
   71.0310   51.5257   55.0229 C   0  0  0  0  0  0  0  0  0  0  0  0
   70.0550   50.9002   54.2795 C   0  0  0  0  0  0  0  0  0  0  0  0
   68.6259   51.2770   54.3954 C   0  0  0  0  0  0  0  0  0  0  0  0
   68.6192   52.7558   54.8248 C   0  0  0  0  0  0  0  0  0  0  0  0
   69.3370   52.8266   56.1827 C   0  0  0  0  0  0  0  0  0  0  0  0
   70.8087   52.6071   55.9965 C   0  0  0  0  0  0  0  0  0  0  0  0
   68.5008   46.5027   55.1375 C   0  0  0  0  0  0  0  0  0  0  0  0
   68.8867   47.7025   54.5861 C   0  0  0  0  0  0  0  0  0  0  0  0
   68.9157   47.9453   53.2511 C   0  0  0  0  0  0  0  0  0  0  0  0
   68.5240   46.8965   52.4066 C   0  0  0  0  0  0  0  0  0  0  0  0
   68.1327   45.6857   52.9275 C   0  0  0  0  0  0  0  0  0  0  0  0
   68.1166   45.4773   54.2953 C   0  0  0  0  0  0  0  0  0  0  0  0
   67.7371   44.2961   54.8476 F   0  0  0  0  0  0  0  0  0  0  0  0
   68.4822   46.2709   56.5420 N   0  0  0  0  0  0  0  0  0  0  0  0
   70.4017   46.1225   57.8881 C   0  0  0  0  0  0  0  0  0  0  0  0
   69.5491   45.5814   57.1052 N   0  0  0  0  0  0  0  0  0  0  0  0
 21 22  2  0
 22 20  1  0
 20 13  1  0
 13 14  2  0
 13 18  1  0
 14 15  1  0
 15  1  1  0
 15 16  2  0
  1  2  1  0
  2  3  2  0
  2  8  1  0
  3  4  1  0
  4  5  1  0
  5  6  2  0
  5  7  1  0
  7  8  2  0
  7 12  1  0
  8  9  1  0
  9 10  1  0
 10 11  1  0
 11 12  1  0
 16 17  1  0
 17 18  2  0
 18 19  1  0
M  END
>  <minimizedAffinity>  (607) 
-8.53877

$$$$
cs_full_output_folder/data/smiles/4045.pdb
     RDKit          3D

 25 28  0  0  0  0  0  0  0  0999 V2000
   71.5367   47.2914   58.8369 C   0  0  0  0  0  0  0  0  0  0  0  0
   71.4879   45.9269   58.6797 C   0  0  0  0  0  0  0  0  0  0  0  0
   70.5824   45.3415   57.7869 C   0  0  0  0  0  0  0  0  0  0  0  0
   69.7393   46.1518   57.0649 C   0  0  0  0  0  0  0  0  0  0  0  0
   69.7662   47.5374   57.2042 C   0  0  0  0  0  0  0  0  0  0  0  0
   70.6598   48.0548   58.0812 C   0  0  0  0  0  0  0  0  0  0  0  0
   72.1918   47.9132   60.9799 O   0  0  0  0  0  0  0  0  0  0  0  0
   72.4871   47.8545   59.7713 C   0  0  0  0  0  0  0  0  0  0  0  0
   73.7251   48.3244   59.3127 N   0  0  0  0  0  0  0  0  0  0  0  0
   74.2068   48.3279   57.9541 C   0  0  0  0  0  0  0  0  0  0  0  0
   75.6772   48.7593   58.0780 C   0  0  0  0  0  0  0  0  0  0  0  0
   75.6153   49.6190   59.2684 N   0  0  0  0  0  0  0  0  0  0  0  0
   74.7539   48.8930   60.1351 C   0  0  0  0  0  0  0  0  0  0  0  0
   68.8127   48.2858   56.3510 C   0  0  0  0  0  0  0  0  0  0  0  0
   69.2346   48.3202   54.9509 C   0  0  0  0  0  0  0  0  0  0  0  0
   70.2001   49.2282   54.6141 N   0  0  0  0  0  0  0  0  0  0  0  0
   70.6832   49.3300   53.4074 N   0  0  0  0  0  0  0  0  0  0  0  0
   70.2803   48.5580   52.3909 C   0  0  0  0  0  0  0  0  0  0  0  0
   70.7761   48.6945   51.2511 O   0  0  0  0  0  0  0  0  0  0  0  0
   69.3196   47.6250   52.6377 C   0  0  0  0  0  0  0  0  0  0  0  0
   68.8851   46.8251   51.6044 C   0  0  0  0  0  0  0  0  0  0  0  0
   67.9030   45.8985   51.8946 C   0  0  0  0  0  0  0  0  0  0  0  0
   67.3890   45.7903   53.1674 C   0  0  0  0  0  0  0  0  0  0  0  0
   67.8395   46.6019   54.1875 C   0  0  0  0  0  0  0  0  0  0  0  0
   68.8043   47.5207   53.9338 C   0  0  0  0  0  0  0  0  0  0  0  0
  7  8  2  0
  8  1  1  0
  8  9  1  0
  1  2  2  0
  1  6  1  0
  2  3  1  0
  3  4  2  0
  4  5  1  0
  5 14  1  0
  5  6  2  0
 14 15  1  0
 15 16  2  0
 15 25  1  0
 16 17  1  0
 17 18  1  0
 18 19  2  0
 18 20  1  0
 20 21  1  0
 20 25  2  0
 21 22  2  0
 22 23  1  0
 23 24  2  0
 24 25  1  0
  9 10  1  0
  9 13  1  0
 10 11  1  0
 11 12  1  0
 12 13  1  0
M  CHG  1  12   1
M  END
>  <minimizedAffinity>  (608) 
-8.53804

$$$$
cs_full_output_folder/data/smiles/5663.pdb
     RDKit          3D

 23 25  0  0  0  0  0  0  0  0999 V2000
   72.2820   50.7493   54.8629 C   0  0  0  0  0  0  0  0  0  0  0  0
   71.5572   49.7080   54.4374 N   0  0  0  0  0  0  0  0  0  0  0  0
   70.2420   49.5549   54.7683 C   0  0  0  0  0  0  0  0  0  0  0  0
   69.6992   50.5341   55.5663 C   0  0  0  0  0  0  0  0  0  0  0  0
   68.3934   50.4215   55.9250 C   0  0  0  0  0  0  0  0  0  0  0  0
   67.8282   51.3896   56.7302 C   0  0  0  0  0  0  0  0  0  0  0  0
   66.5045   51.2445   57.0705 F   0  0  0  0  0  0  0  0  0  0  0  0
   68.5743   52.4660   57.1744 C   0  0  0  0  0  0  0  0  0  0  0  0
   69.8948   52.6027   56.8264 C   0  0  0  0  0  0  0  0  0  0  0  0
   70.4424   51.6312   56.0223 C   0  0  0  0  0  0  0  0  0  0  0  0
   71.7237   51.6990   55.6484 N   0  0  0  0  0  0  0  0  0  0  0  0
   69.5206   48.3764   54.3377 C   0  0  0  0  0  0  0  0  0  0  0  0
   69.0601   47.4496   55.2495 C   0  0  0  0  0  0  0  0  0  0  0  0
   68.3479   46.3301   54.8718 C   0  0  0  0  0  0  0  0  0  0  0  0
   68.1055   46.1604   53.5176 C   0  0  0  0  0  0  0  0  0  0  0  0
   67.4071   45.0510   53.1240 F   0  0  0  0  0  0  0  0  0  0  0  0
   68.5516   47.0666   52.5862 C   0  0  0  0  0  0  0  0  0  0  0  0
   68.3043   46.8668   51.2461 F   0  0  0  0  0  0  0  0  0  0  0  0
   69.2483   48.1627   52.9833 C   0  0  0  0  0  0  0  0  0  0  0  0
   69.7215   49.0899   52.1232 F   0  0  0  0  0  0  0  0  0  0  0  0
   74.5181   51.7834   55.2338 N   0  0  0  0  0  0  0  0  0  0  0  0
   73.6855   50.8872   54.4691 C   0  0  0  0  0  0  0  0  0  0  0  0
   74.1999   50.2733   53.5097 O   0  0  0  0  0  0  0  0  0  0  0  0
 21 22  1  0
 22 23  2  0
 22  1  1  0
  1  2  2  0
  1 11  1  0
  2  3  1  0
  3 12  1  0
  3  4  2  0
 12 13  2  0
 12 19  1  0
 13 14  1  0
 14 15  2  0
 15 16  1  0
 15 17  1  0
 17 18  1  0
 17 19  2  0
 19 20  1  0
  4  5  1  0
  4 10  1  0
  5  6  2  0
  6  7  1  0
  6  8  1  0
  8  9  2  0
  9 10  1  0
 10 11  2  0
M  END
>  <minimizedAffinity>  (609) 
-8.53747

$$$$
cs_full_output_folder/data/smiles/1947.pdb
     RDKit          3D

 24 26  0  0  0  0  0  0  0  0999 V2000
   70.5791   47.6571   58.0311 C   0  0  0  0  0  0  0  0  0  0  0  0
   70.1523   45.2251   57.6013 N   0  0  0  0  0  0  0  0  0  0  0  0
   70.6525   46.2515   58.4709 C   0  0  0  0  0  0  0  0  0  0  0  0
   71.1352   45.9226   59.5739 O   0  0  0  0  0  0  0  0  0  0  0  0
   71.4516   43.2074   57.6680 N   0  0  0  0  0  0  0  0  0  0  0  0
   70.1720   43.8357   57.9246 C   0  0  2  0  0  0  0  0  0  0  0  0
   69.1398   43.0491   57.2161 C   0  0  0  0  0  0  0  0  0  0  0  0
   69.0250   41.7096   57.4401 C   0  0  0  0  0  0  0  0  0  0  0  0
   68.0658   40.9239   56.8038 C   0  0  0  0  0  0  0  0  0  0  0  0
   67.2257   41.5598   55.9245 C   0  0  0  0  0  0  0  0  0  0  0  0
   67.3494   42.9109   55.7053 C   0  0  0  0  0  0  0  0  0  0  0  0
   68.3084   43.6503   56.3524 N   0  0  0  0  0  0  0  0  0  0  0  0
   69.2763   47.9838   57.4000 C   0  0  0  0  0  0  0  0  0  0  0  0
   69.2405   47.8677   55.9255 C   0  0  0  0  0  0  0  0  0  0  0  0
   68.5041   46.9143   55.3366 N   0  0  0  0  0  0  0  0  0  0  0  0
   68.4047   46.7549   54.0134 C   0  0  0  0  0  0  0  0  0  0  0  0
   67.6179   45.7364   53.4581 C   0  0  0  0  0  0  0  0  0  0  0  0
   67.5357   45.5955   52.1059 C   0  0  0  0  0  0  0  0  0  0  0  0
   68.2305   46.4609   51.2678 C   0  0  0  0  0  0  0  0  0  0  0  0
   69.0070   47.4656   51.8151 C   0  0  0  0  0  0  0  0  0  0  0  0
   69.0926   47.6112   53.1873 C   0  0  0  0  0  0  0  0  0  0  0  0
   69.8621   48.6068   53.7694 C   0  0  0  0  0  0  0  0  0  0  0  0
   70.4813   49.3779   52.9996 O   0  0  0  0  0  0  0  0  0  0  0  0
   69.9122   48.7045   55.1190 N   0  0  0  0  0  0  0  0  0  0  0  0
  6  5  1  6
  6  2  1  0
  6  7  1  0
  2  3  1  0
  3  4  2  0
  3  1  1  0
  1 13  1  0
 13 14  1  0
 14 15  2  0
 14 24  1  0
 15 16  1  0
 16 17  2  0
 16 21  1  0
 17 18  1  0
 18 19  2  0
 19 20  1  0
 20 21  2  0
 21 22  1  0
 22 23  2  0
 22 24  1  0
  7  8  2  0
  7 12  1  0
  8  9  1  0
  9 10  2  0
 10 11  1  0
 11 12  2  0
M  CHG  1   5   1
M  END
>  <minimizedAffinity>  (610) 
-8.53719

$$$$
cs_full_output_folder/data/smiles/6402.pdb
     RDKit          3D

 24 26  0  0  0  0  0  0  0  0999 V2000
   70.6168   46.2797   58.6023 C   0  0  0  0  0  0  0  0  0  0  0  0
   70.1071   47.3387   57.7202 C   0  0  1  0  0  0  0  0  0  0  0  0
   70.9372   48.4597   57.9052 F   0  0  0  0  0  0  0  0  0  0  0  0
   67.6553   47.0749   56.5324 O   0  0  0  0  0  0  0  0  0  0  0  0
   68.6837   47.0180   55.7618 C   0  0  0  0  0  0  0  0  0  0  0  0
   69.9919   47.1410   56.3290 N   0  0  0  0  0  0  0  0  0  0  0  0
   68.5136   46.8310   54.3381 C   0  0  0  0  0  0  0  0  0  0  0  0
   69.1779   47.7181   53.4835 C   0  0  0  0  0  0  0  0  0  0  0  0
   69.0854   47.6028   52.1274 C   0  0  0  0  0  0  0  0  0  0  0  0
   68.3417   46.6185   51.5462 C   0  0  0  0  0  0  0  0  0  0  0  0
   67.6794   45.7346   52.3536 C   0  0  0  0  0  0  0  0  0  0  0  0
   67.7791   45.8586   53.7284 C   0  0  0  0  0  0  0  0  0  0  0  0
   71.2126   45.0617   58.0444 C   0  0  0  0  0  0  0  0  0  0  0  0
   70.3470   43.9238   57.7425 C   0  0  0  0  0  0  0  0  0  0  0  0
   70.5592   42.7231   58.2272 N   0  0  0  0  0  0  0  0  0  0  0  0
   69.8023   41.6429   57.9961 C   0  0  0  0  0  0  0  0  0  0  0  0
   70.0858   40.4150   58.5497 C   0  0  0  0  0  0  0  0  0  0  0  0
   69.2836   39.3022   58.3036 C   0  0  0  0  0  0  0  0  0  0  0  0
   68.1808   39.4495   57.4827 C   0  0  0  0  0  0  0  0  0  0  0  0
   67.8813   40.6827   56.9161 C   0  0  0  0  0  0  0  0  0  0  0  0
   68.6973   41.7635   57.1820 C   0  0  0  0  0  0  0  0  0  0  0  0
   68.4604   43.0194   56.6623 C   0  0  0  0  0  0  0  0  0  0  0  0
   67.4560   43.1457   55.9176 O   0  0  0  0  0  0  0  0  0  0  0  0
   69.2517   44.0687   56.9282 N   0  0  0  0  0  0  0  0  0  0  0  0
  4  5  2  0
  5  6  1  0
  5  7  1  0
  6  2  1  0
  2  3  1  6
  2  1  1  0
  1 13  1  0
 13 14  1  0
 14 15  2  0
 14 24  1  0
 15 16  1  0
 16 17  2  0
 16 21  1  0
 17 18  1  0
 18 19  2  0
 19 20  1  0
 20 21  2  0
 21 22  1  0
 22 23  2  0
 22 24  1  0
  7  8  2  0
  7 12  1  0
  8  9  1  0
  9 10  2  0
 10 11  1  0
 11 12  2  0
M  END
>  <minimizedAffinity>  (611) 
-8.53674

$$$$
cs_full_output_folder/data/smiles/4746.pdb
     RDKit          3D

 26 28  0  0  0  0  0  0  0  0999 V2000
   69.8735   42.9151   57.3496 C   0  0  0  0  0  0  0  0  0  0  0  0
   68.9187   43.7074   57.0919 N   0  0  0  0  0  0  0  0  0  0  0  0
   69.6606   38.9054   58.7876 C   0  0  0  0  0  0  0  0  0  0  0  0
   68.5586   39.5543   58.2967 C   0  0  0  0  0  0  0  0  0  0  0  0
   68.6362   40.8390   57.8376 C   0  0  0  0  0  0  0  0  0  0  0  0
   69.8391   41.5580   57.8449 C   0  0  0  0  0  0  0  0  0  0  0  0
   70.9289   40.8946   58.3387 C   0  0  0  0  0  0  0  0  0  0  0  0
   72.1583   41.4972   58.3948 C   0  0  0  0  0  0  0  0  0  0  0  0
   73.3014   40.8580   58.8924 C   0  0  0  0  0  0  0  0  0  0  0  0
   73.2054   39.5680   59.3490 C   0  0  0  0  0  0  0  0  0  0  0  0
   71.9757   38.9552   59.2959 C   0  0  0  0  0  0  0  0  0  0  0  0
   70.8527   39.5891   58.8055 C   0  0  0  0  0  0  0  0  0  0  0  0
   69.0249   37.2090   60.4597 C   0  0  0  0  0  0  0  0  0  0  0  0
   69.6356   37.5974   59.2679 O   0  0  0  0  0  0  0  0  0  0  0  0
   69.1738   44.9906   56.6161 N   0  0  0  0  0  0  0  0  0  0  0  0
   68.5526   45.5333   55.4686 C   0  0  0  0  0  0  0  0  0  0  0  0
   67.7251   44.7561   54.8827 O   0  0  0  0  0  0  0  0  0  0  0  0
   68.8075   46.8739   54.9578 C   0  0  0  0  0  0  0  0  0  0  0  0
   68.7084   48.0104   55.7245 C   0  0  0  0  0  0  0  0  0  0  0  0
   68.9623   49.2801   55.1963 C   0  0  0  0  0  0  0  0  0  0  0  0
   69.3212   49.3909   53.8698 C   0  0  0  0  0  0  0  0  0  0  0  0
   69.4301   48.2546   53.0668 C   0  0  0  0  0  0  0  0  0  0  0  0
   69.1694   47.0242   53.6361 C   0  0  0  0  0  0  0  0  0  0  0  0
   69.8020   48.4159   51.7131 N   0  0  0  0  0  0  0  0  0  0  0  0
   69.8885   49.5325   51.1897 O   0  0  0  0  0  0  0  0  0  0  0  0
   70.0709   47.3091   50.9620 O   0  0  0  0  0  0  0  0  0  0  0  0
 13 14  1  0
 14  3  1  0
  3  4  2  0
  3 12  1  0
  4  5  1  0
  5  6  2  0
  6  1  1  0
  6  7  1  0
  1  2  2  0
  2 15  1  0
 15 16  1  0
 16 17  2  0
 16 18  1  0
 18 19  2  0
 18 23  1  0
 19 20  1  0
 20 21  2  0
 21 22  1  0
 22 24  1  0
 22 23  2  0
 24 25  2  0
 24 26  1  0
  7  8  1  0
  7 12  2  0
  8  9  2  0
  9 10  1  0
 10 11  2  0
 11 12  1  0
M  CHG  2  24   1  26  -1
M  END
>  <minimizedAffinity>  (612) 
-8.53436

$$$$
cs_full_output_folder/data/smiles/2631.pdb
     RDKit          3D

 23 25  0  0  0  0  0  0  0  0999 V2000
   69.4605   49.5934   54.3217 C   0  0  2  0  0  0  0  0  0  0  0  0
   68.0910   51.6660   55.6359 C   0  0  0  0  0  0  0  0  0  0  0  0
   68.9548   50.7508   56.4242 C   0  0  0  0  0  0  0  0  0  0  0  0
   69.0571   50.9486   57.7842 C   0  0  0  0  0  0  0  0  0  0  0  0
   69.8516   50.1249   58.5514 C   0  0  0  0  0  0  0  0  0  0  0  0
   70.5308   49.1098   57.9223 C   0  0  0  0  0  0  0  0  0  0  0  0
   70.4294   48.9076   56.5556 C   0  0  0  0  0  0  0  0  0  0  0  0
   69.6381   49.7261   55.7781 C   0  0  0  0  0  0  0  0  0  0  0  0
   68.9783   48.2686   53.8929 C   0  0  0  0  0  0  0  0  0  0  0  0
   68.5053   47.2829   54.7049 C   0  0  0  0  0  0  0  0  0  0  0  0
   68.0719   46.0475   54.1958 C   0  0  0  0  0  0  0  0  0  0  0  0
   68.1136   45.8010   52.8569 C   0  0  0  0  0  0  0  0  0  0  0  0
   68.5919   46.7923   52.0175 C   0  0  0  0  0  0  0  0  0  0  0  0
   69.0167   48.0028   52.5200 C   0  0  0  0  0  0  0  0  0  0  0  0
   70.7499   49.8957   53.6138 C   0  0  0  0  0  0  0  0  0  0  0  0
   71.4257   49.0434   53.0207 O   0  0  0  0  0  0  0  0  0  0  0  0
   71.1990   51.2044   53.6335 O   0  0  0  0  0  0  0  0  0  0  0  0
   72.1089   51.7572   54.5375 C   0  0  0  0  0  0  0  0  0  0  0  0
   73.2744   50.8881   54.7065 C   0  0  0  0  0  0  0  0  0  0  0  0
   73.5998   50.2778   55.8594 N   0  0  0  0  0  0  0  0  0  0  0  0
   74.6977   49.5796   55.7060 N   0  0  0  0  0  0  0  0  0  0  0  0
   75.0697   49.7490   54.4495 N   0  0  0  0  0  0  0  0  0  0  0  0
   74.2132   50.5458   53.8213 N   0  0  0  0  0  0  0  0  0  0  0  0
  2  3  1  0
  3  4  2  0
  3  8  1  0
  4  5  1  0
  5  6  2  0
  6  7  1  0
  7  8  2  0
  8  1  1  0
  1 15  1  6
  1  9  1  0
 15 16  2  0
 15 17  1  0
 17 18  1  0
 18 19  1  0
 19 20  2  0
 19 23  1  0
 20 21  1  0
 21 22  2  0
 22 23  1  0
  9 10  2  0
  9 14  1  0
 10 11  1  0
 11 12  2  0
 12 13  1  0
 13 14  2  0
M  END
>  <minimizedAffinity>  (613) 
-8.53384

$$$$
cs_full_output_folder/data/smiles/7315.pdb
     RDKit          3D

 25 28  0  0  0  0  0  0  0  0999 V2000
   69.5453   46.1638   58.1742 O   0  0  0  0  0  0  0  0  0  0  0  0
   70.5044   46.9947   58.0884 C   0  0  0  0  0  0  0  0  0  0  0  0
   70.3596   48.0127   57.1110 N   0  0  0  0  0  0  0  0  0  0  0  0
   71.6802   46.8970   58.9487 C   0  0  0  0  0  0  0  0  0  0  0  0
   71.9030   47.8393   59.9360 C   0  0  0  0  0  0  0  0  0  0  0  0
   73.0104   47.7574   60.7557 C   0  0  0  0  0  0  0  0  0  0  0  0
   73.9171   46.7370   60.6099 C   0  0  0  0  0  0  0  0  0  0  0  0
   73.7254   45.7795   59.6350 C   0  0  0  0  0  0  0  0  0  0  0  0
   74.6329   44.7557   59.4878 C   0  0  0  0  0  0  0  0  0  0  0  0
   74.4715   43.7856   58.5267 C   0  0  0  0  0  0  0  0  0  0  0  0
   73.3486   43.8940   57.7168 C   0  0  0  0  0  0  0  0  0  0  0  0
   72.4383   44.9201   57.8635 C   0  0  0  0  0  0  0  0  0  0  0  0
   72.6005   45.8830   58.8187 C   0  0  0  0  0  0  0  0  0  0  0  0
   69.1613   48.0369   56.2974 C   0  0  0  0  0  0  0  0  0  0  0  0
   69.4956   48.2419   54.8690 C   0  0  0  0  0  0  0  0  0  0  0  0
   70.3379   49.1968   54.4724 N   0  0  0  0  0  0  0  0  0  0  0  0
   70.6767   49.4341   53.2228 N   0  0  0  0  0  0  0  0  0  0  0  0
   70.1389   48.6608   52.2633 C   0  0  0  0  0  0  0  0  0  0  0  0
   70.4536   48.8760   51.0571 O   0  0  0  0  0  0  0  0  0  0  0  0
   69.2605   47.6539   52.5876 C   0  0  0  0  0  0  0  0  0  0  0  0
   68.7091   46.8647   51.6222 C   0  0  0  0  0  0  0  0  0  0  0  0
   67.8291   45.8565   51.9598 C   0  0  0  0  0  0  0  0  0  0  0  0
   67.5040   45.6473   53.2977 C   0  0  0  0  0  0  0  0  0  0  0  0
   68.0494   46.4345   54.2973 C   0  0  0  0  0  0  0  0  0  0  0  0
   68.9235   47.4298   53.9222 C   0  0  0  0  0  0  0  0  0  0  0  0
  1  2  2  0
  2  3  1  0
  2  4  1  0
  3 14  1  0
 14 15  1  0
 15 16  2  0
 15 25  1  0
 16 17  1  0
 17 18  1  0
 18 19  2  0
 18 20  1  0
 20 21  1  0
 20 25  2  0
 21 22  2  0
 22 23  1  0
 23 24  2  0
 24 25  1  0
  4  5  2  0
  4 13  1  0
  5  6  1  0
  6  7  2  0
  7  8  1  0
  8  9  1  0
  8 13  2  0
  9 10  2  0
 10 11  1  0
 11 12  2  0
 12 13  1  0
M  END
>  <minimizedAffinity>  (614) 
-8.53257

$$$$
cs_full_output_folder/data/smiles/2595.pdb
     RDKit          3D

 23 25  0  0  0  0  0  0  0  0999 V2000
   67.3597   44.4216   54.8827 N   0  0  0  0  0  0  0  0  0  0  0  0
   69.2732   47.8129   53.1685 C   0  0  0  0  0  0  0  0  0  0  0  0
   69.1568   47.6575   54.5283 C   0  0  0  0  0  0  0  0  0  0  0  0
   68.5316   46.5528   55.0555 C   0  0  0  0  0  0  0  0  0  0  0  0
   67.9840   45.5340   54.2673 C   0  0  0  0  0  0  0  0  0  0  0  0
   68.1203   45.7245   52.9121 C   0  0  0  0  0  0  0  0  0  0  0  0
   68.7517   46.8401   52.3648 C   0  0  0  0  0  0  0  0  0  0  0  0
   70.0774   49.2365   52.5572 S   0  0  0  0  0  0  0  0  0  0  0  0
   70.0010   49.2757   51.0522 O   0  0  0  0  0  0  0  0  0  0  0  0
   71.5125   49.2473   53.0210 O   0  0  0  0  0  0  0  0  0  0  0  0
   70.1213   51.4702   53.9480 C   0  0  0  0  0  0  0  0  0  0  0  0
   69.2614   50.6704   53.1181 N   0  0  0  0  0  0  0  0  0  0  0  0
   67.9553   43.4995   55.7646 C   0  0  0  0  0  0  0  0  0  0  0  0
   67.3595   42.2767   55.8734 N   0  0  0  0  0  0  0  0  0  0  0  0
   67.8060   41.3021   56.6566 C   0  0  0  0  0  0  0  0  0  0  0  0
   68.9598   41.5623   57.4111 C   0  0  0  0  0  0  0  0  0  0  0  0
   69.5745   42.7911   57.3134 C   0  0  0  0  0  0  0  0  0  0  0  0
   69.0469   43.7004   56.4981 N   0  0  0  0  0  0  0  0  0  0  0  0
   70.7724   43.0268   58.1114 C   0  0  0  0  0  0  0  0  0  0  0  0
   70.7820   43.7520   59.2162 C   0  0  0  0  0  0  0  0  0  0  0  0
   72.1585   43.7700   59.7486 C   0  0  0  0  0  0  0  0  0  0  0  0
   72.9427   42.9565   58.8020 C   0  0  0  0  0  0  0  0  0  0  0  0
   72.1223   42.5371   57.8648 C   0  0  0  0  0  0  0  0  0  0  0  0
 11 12  1  0
 12  8  1  0
  8  9  2  0
  8 10  2  0
  8  2  1  0
  2  3  2  0
  2  7  1  0
  3  4  1  0
  4  5  2  0
  5  1  1  0
  5  6  1  0
  1 13  1  0
 13 14  2  0
 13 18  1  0
 14 15  1  0
 15 16  2  0
 16 17  1  0
 17 19  1  0
 17 18  2  0
 19 20  2  0
 19 23  1  0
 20 21  1  0
 21 22  1  0
 22 23  2  0
  6  7  2  0
M  END
>  <minimizedAffinity>  (615) 
-8.53119

$$$$
cs_full_output_folder/data/smiles/8770.pdb
     RDKit          3D

 23 26  0  0  0  0  0  0  0  0999 V2000
   69.1320   48.7881   56.3624 C   0  0  0  0  0  0  0  0  0  0  0  0
   70.5541   48.7828   51.0369 O   0  0  0  0  0  0  0  0  0  0  0  0
   70.1741   48.7130   52.2326 C   0  0  0  0  0  0  0  0  0  0  0  0
   70.5627   49.6913   53.0703 N   0  0  0  0  0  0  0  0  0  0  0  0
   70.2165   49.7072   54.3441 N   0  0  0  0  0  0  0  0  0  0  0  0
   69.4477   48.7550   54.9226 C   0  0  0  0  0  0  0  0  0  0  0  0
   69.0232   47.7226   54.0781 C   0  0  0  0  0  0  0  0  0  0  0  0
   69.3867   47.7071   52.7494 C   0  0  0  0  0  0  0  0  0  0  0  0
   68.9707   46.6363   51.8294 C   0  0  0  0  0  0  0  0  0  0  0  0
   67.6772   46.0502   52.3169 C   0  0  0  0  0  0  0  0  0  0  0  0
   67.9465   45.5057   53.7273 C   0  0  0  0  0  0  0  0  0  0  0  0
   68.1375   46.6980   54.6596 C   0  0  0  0  0  0  0  0  0  0  0  0
   70.1894   48.1785   57.1887 C   0  0  0  0  0  0  0  0  0  0  0  0
   71.2943   48.8903   57.5979 C   0  0  0  0  0  0  0  0  0  0  0  0
   72.2333   48.2392   58.3614 C   0  0  0  0  0  0  0  0  0  0  0  0
   72.0749   46.9150   58.7078 C   0  0  0  0  0  0  0  0  0  0  0  0
   70.9703   46.1726   58.3094 C   0  0  0  0  0  0  0  0  0  0  0  0
   70.0323   46.8288   57.5444 C   0  0  0  0  0  0  0  0  0  0  0  0
   70.8029   44.7483   58.6842 C   0  0  0  0  0  0  0  0  0  0  0  0
   69.6170   44.1275   58.2310 N   0  0  0  0  0  0  0  0  0  0  0  0
   69.7160   42.9904   57.3959 C   0  0  0  0  0  0  0  0  0  0  0  0
   69.2220   41.6513   57.7023 C   0  0  0  0  0  0  0  0  0  0  0  0
   68.4046   42.4889   56.7776 C   0  0  0  0  0  0  0  0  0  0  0  0
  2  3  2  0
  3  4  1  0
  3  8  1  0
  4  5  1  0
  5  6  2  0
  6  1  1  0
  6  7  1  0
  1 13  1  0
 13 14  2  0
 13 18  1  0
 14 15  1  0
 15 16  2  0
 16 17  1  0
 17 19  1  0
 17 18  2  0
 19 20  1  0
 20 21  1  0
 21 22  1  0
 21 23  1  0
 22 23  1  0
  7  8  2  0
  7 12  1  0
  8  9  1  0
  9 10  1  0
 10 11  1  0
 11 12  1  0
M  CHG  1  20   1
M  END
>  <minimizedAffinity>  (616) 
-8.52934

$$$$
cs_full_output_folder/data/smiles/8697.pdb
     RDKit          3D

 23 25  0  0  0  0  0  0  0  0999 V2000
   68.8896   48.3277   56.3688 C   0  0  0  0  0  0  0  0  0  0  0  0
   69.2819   48.3948   54.9476 C   0  0  0  0  0  0  0  0  0  0  0  0
   70.1657   49.3413   54.5809 N   0  0  0  0  0  0  0  0  0  0  0  0
   70.5703   49.4615   53.3261 N   0  0  0  0  0  0  0  0  0  0  0  0
   70.1325   48.6571   52.3430 C   0  0  0  0  0  0  0  0  0  0  0  0
   70.5354   48.7972   51.1549 O   0  0  0  0  0  0  0  0  0  0  0  0
   69.2246   47.6596   52.6374 C   0  0  0  0  0  0  0  0  0  0  0  0
   68.7558   46.8080   51.6591 C   0  0  0  0  0  0  0  0  0  0  0  0
   67.8538   45.8142   51.9707 C   0  0  0  0  0  0  0  0  0  0  0  0
   67.4465   45.7129   53.2981 C   0  0  0  0  0  0  0  0  0  0  0  0
   67.9193   46.5704   54.2827 C   0  0  0  0  0  0  0  0  0  0  0  0
   68.8173   47.5590   53.9667 C   0  0  0  0  0  0  0  0  0  0  0  0
   71.0044   48.0396   57.4533 O   0  0  0  0  0  0  0  0  0  0  0  0
   69.9414   47.5277   57.0559 C   0  0  0  0  0  0  0  0  0  0  0  0
   69.7009   46.1516   57.2559 N   0  0  0  0  0  0  0  0  0  0  0  0
   70.5936   45.2215   57.9065 C   0  0  0  0  0  0  0  0  0  0  0  0
   69.9847   43.8493   57.7436 C   0  0  0  0  0  0  0  0  0  0  0  0
   70.3788   42.8055   58.5365 C   0  0  0  0  0  0  0  0  0  0  0  0
   69.8191   41.5262   58.4147 C   0  0  0  0  0  0  0  0  0  0  0  0
   68.8352   41.3118   57.4598 C   0  0  0  0  0  0  0  0  0  0  0  0
   68.1156   39.7280   57.2675 Cl  0  0  0  0  0  0  0  0  0  0  0  0
   68.4248   42.3513   56.6523 C   0  0  0  0  0  0  0  0  0  0  0  0
   69.0059   43.6092   56.8038 C   0  0  0  0  0  0  0  0  0  0  0  0
 13 14  2  0
 14  1  1  0
 14 15  1  0
  1  2  1  0
  2  3  2  0
  2 12  1  0
  3  4  1  0
  4  5  1  0
  5  6  2  0
  5  7  1  0
  7  8  1  0
  7 12  2  0
  8  9  2  0
  9 10  1  0
 10 11  2  0
 11 12  1  0
 15 16  1  0
 16 17  1  0
 17 18  2  0
 17 23  1  0
 18 19  1  0
 19 20  2  0
 20 21  1  0
 20 22  1  0
 22 23  2  0
M  END
>  <minimizedAffinity>  (617) 
-8.52785

$$$$
cs_full_output_folder/data/smiles/4726.pdb
     RDKit          3D

 23 25  0  0  0  0  0  0  0  0999 V2000
   68.7417   48.3506   56.2672 C   0  0  0  0  0  0  0  0  0  0  0  0
   69.2489   48.4779   54.8725 C   0  0  0  0  0  0  0  0  0  0  0  0
   70.1296   49.4309   54.5086 N   0  0  0  0  0  0  0  0  0  0  0  0
   70.5843   49.5514   53.2772 N   0  0  0  0  0  0  0  0  0  0  0  0
   70.1671   48.7072   52.3449 C   0  0  0  0  0  0  0  0  0  0  0  0
   70.5863   48.7974   51.1495 O   0  0  0  0  0  0  0  0  0  0  0  0
   69.2664   47.7061   52.6418 C   0  0  0  0  0  0  0  0  0  0  0  0
   68.8108   46.8079   51.6909 C   0  0  0  0  0  0  0  0  0  0  0  0
   67.9094   45.8143   52.0076 C   0  0  0  0  0  0  0  0  0  0  0  0
   67.4563   45.7223   53.3116 C   0  0  0  0  0  0  0  0  0  0  0  0
   67.8930   46.6049   54.2865 C   0  0  0  0  0  0  0  0  0  0  0  0
   68.8032   47.5931   53.9219 C   0  0  0  0  0  0  0  0  0  0  0  0
   70.8773   45.7414   57.9694 C   0  0  0  0  0  0  0  0  0  0  0  0
   71.8313   46.5739   58.5675 C   0  0  0  0  0  0  0  0  0  0  0  0
   71.7919   47.9438   58.4269 C   0  0  0  0  0  0  0  0  0  0  0  0
   70.7863   48.5274   57.6777 C   0  0  0  0  0  0  0  0  0  0  0  0
   69.8316   47.7426   57.0763 C   0  0  0  0  0  0  0  0  0  0  0  0
   69.9207   46.3734   57.2509 C   0  0  0  0  0  0  0  0  0  0  0  0
   70.2872   43.5464   59.0668 C   0  0  0  0  0  0  0  0  0  0  0  0
   69.3636   44.0520   59.7374 O   0  0  0  0  0  0  0  0  0  0  0  0
   71.0396   44.3588   58.1960 N   0  0  0  0  0  0  0  0  0  0  0  0
   71.5130   41.5894   58.1688 C   0  0  0  0  0  0  0  0  0  0  0  0
   70.5640   42.0693   59.2187 C   0  0  0  0  0  0  0  0  0  0  0  0
 22 23  1  0
 23 19  1  0
 19 20  2  0
 19 21  1  0
 21 13  1  0
 13 14  2  0
 13 18  1  0
 14 15  1  0
 15 16  2  0
 16 17  1  0
 17  1  1  0
 17 18  2  0
  1  2  1  0
  2  3  2  0
  2 12  1  0
  3  4  1  0
  4  5  1  0
  5  6  2  0
  5  7  1  0
  7  8  1  0
  7 12  2  0
  8  9  2  0
  9 10  1  0
 10 11  2  0
 11 12  1  0
M  END
>  <minimizedAffinity>  (618) 
-8.52721

$$$$
cs_full_output_folder/data/smiles/4032.pdb
     RDKit          3D

 24 26  0  0  0  0  0  0  0  0999 V2000
   75.8086   35.1051   55.1920 C   0  0  0  0  0  0  0  0  0  0  0  0
   77.1236   35.1246   54.9415 C   0  0  0  0  0  0  0  0  0  0  0  0
   77.5389   35.4008   53.6691 C   0  0  0  0  0  0  0  0  0  0  0  0
   76.5794   35.6856   52.5685 C   0  0  0  0  0  0  0  0  0  0  0  0
   75.2836   35.6815   52.9292 C   0  0  0  0  0  0  0  0  0  0  0  0
   74.8544   35.3941   54.2034 C   0  0  0  0  0  0  0  0  0  0  0  0
   75.2249   34.6405   56.7612 S   0  0  0  0  0  0  0  0  0  0  0  0
   75.6719   35.5100   57.8562 O   0  0  0  0  0  0  0  0  0  0  0  0
   75.7465   33.2175   56.9856 O   0  0  0  0  0  0  0  0  0  0  0  0
   73.4749   34.4963   56.7523 N   0  0  0  0  0  0  0  0  0  0  0  0
   71.5088   38.8672   58.0947 N   0  0  0  0  0  0  0  0  0  0  0  0
   71.7090   37.4819   58.2277 C   0  0  0  0  0  0  0  0  0  0  0  0
   71.0197   36.8298   59.3237 C   0  0  0  0  0  0  0  0  0  0  0  0
   71.2156   35.5183   59.3969 C   0  0  0  0  0  0  0  0  0  0  0  0
   71.8769   34.6197   58.7369 C   0  0  0  0  0  0  0  0  0  0  0  0
   72.6644   35.3048   57.4881 C   0  0  0  0  0  0  0  0  0  0  0  0
   72.3991   36.5888   57.5154 C   0  0  0  0  0  0  0  0  0  0  0  0
   77.0592   35.5637   51.3758 C   0  0  0  0  0  0  0  0  0  0  0  0
   77.4996   35.4527   50.2810 C   0  0  0  0  0  0  0  0  0  0  0  0
   77.9792   35.3240   49.0904 C   0  0  0  0  0  0  0  0  0  0  0  0
   78.5449   35.1336   47.5701 C   0  0  0  0  0  0  0  0  0  0  0  0
   77.4892   34.6151   47.8353 C   0  0  0  0  0  0  0  0  0  0  0  0
   77.1862   34.4665   47.9149 C   0  0  0  0  0  0  0  0  0  0  0  0
   76.3022   34.0344   48.1619 C   0  0  0  0  0  0  0  0  0  0  0  0
 11 12  1  0
 12 13  2  0
 12 17  1  0
 13 14  1  0
 14 15  2  0
 15 16  1  0
 16 10  1  0
 16 17  2  0
 10  7  1  0
  7  8  2  0
  7  9  2  0
  7  1  1  0
  1  2  2  0
  1  6  1  0
  2  3  1  0
  3  4  2  0
  4 18  1  0
  4  5  1  0
 18 19  3  0
 19 20  1  0
 20 21  2  0
 20 24  1  0
 21 22  1  0
 22 23  3  0
 23 24  1  0
  5  6  2  0
M  END
>  <minimizedAffinity>  (619) 
-8.52704

$$$$
cs_full_output_folder/data/smiles/2085.pdb
     RDKit          3D

 25 28  0  0  0  0  0  0  0  0999 V2000
   70.7825   46.1669   58.1675 C   0  0  0  0  0  0  0  0  0  0  0  0
   70.5990   44.7928   57.9573 C   0  0  0  0  0  0  0  0  0  0  0  0
   69.6919   44.2905   57.0637 C   0  0  0  0  0  0  0  0  0  0  0  0
   68.9480   45.2027   56.3588 C   0  0  0  0  0  0  0  0  0  0  0  0
   69.0842   46.5650   56.5227 N   0  0  0  0  0  0  0  0  0  0  0  0
   69.9726   47.0039   57.3994 C   0  0  0  0  0  0  0  0  0  0  0  0
   70.1576   48.2357   57.6146 O   0  0  0  0  0  0  0  0  0  0  0  0
   73.9596   47.5286   59.9542 C   0  0  0  0  0  0  0  0  0  0  0  0
   73.0477   47.1244   58.8790 N   0  0  0  0  0  0  0  0  0  0  0  0
   71.7734   46.6063   59.1203 C   0  0  0  0  0  0  0  0  0  0  0  0
   71.4622   46.5145   60.3668 O   0  0  0  0  0  0  0  0  0  0  0  0
   69.5077   42.8921   56.9081 N   0  0  0  0  0  0  0  0  0  0  0  0
   68.3011   42.1878   57.1926 C   0  0  0  0  0  0  0  0  0  0  0  0
   68.1230   40.7252   56.8363 C   0  0  0  0  0  0  0  0  0  0  0  0
   67.3320   41.7930   56.1674 C   0  0  0  0  0  0  0  0  0  0  0  0
   68.2204   47.4141   55.7368 C   0  0  0  0  0  0  0  0  0  0  0  0
   68.5331   47.3291   54.3075 C   0  0  0  0  0  0  0  0  0  0  0  0
   67.8846   46.3744   53.5359 C   0  0  0  0  0  0  0  0  0  0  0  0
   68.2002   46.1927   52.2077 C   0  0  0  0  0  0  0  0  0  0  0  0
   69.1812   46.9789   51.6431 C   0  0  0  0  0  0  0  0  0  0  0  0
   69.8503   47.9479   52.3903 C   0  0  0  0  0  0  0  0  0  0  0  0
   70.7944   48.8450   52.0814 N   0  0  0  0  0  0  0  0  0  0  0  0
   71.0546   49.5593   53.1750 N   0  0  0  0  0  0  0  0  0  0  0  0
   70.2881   49.1331   54.1818 C   0  0  0  0  0  0  0  0  0  0  0  0
   69.5130   48.1110   53.7253 C   0  0  0  0  0  0  0  0  0  0  0  0
  8  9  1  0
  9 10  1  0
 10 11  2  0
 10  1  1  0
  1  2  2  0
  1  6  1  0
  2  3  1  0
  3 12  1  0
  3  4  2  0
 12 13  1  0
 13 14  1  0
 13 15  1  0
 14 15  1  0
  4  5  1  0
  5 16  1  0
  5  6  1  0
 16 17  1  0
 17 18  2  0
 17 25  1  0
 18 19  1  0
 19 20  2  0
 20 21  1  0
 21 22  1  0
 21 25  2  0
 22 23  1  0
 23 24  2  0
 24 25  1  0
  6  7  2  0
M  END
>  <minimizedAffinity>  (620) 
-8.52614

$$$$
cs_full_output_folder/data/smiles/6715.pdb
     RDKit          3D

 25 27  0  0  0  0  0  0  0  0999 V2000
   69.8240   46.6510   57.3348 N   0  0  0  0  0  0  0  0  0  0  0  0
   69.2935   45.4622   57.1102 N   0  0  0  0  0  0  0  0  0  0  0  0
   69.8954   44.2944   57.4644 C   0  0  0  0  0  0  0  0  0  0  0  0
   71.1177   44.3033   58.0914 C   0  0  0  0  0  0  0  0  0  0  0  0
   71.6934   45.5463   58.3370 C   0  0  0  0  0  0  0  0  0  0  0  0
   71.0134   46.6846   57.9431 C   0  0  0  0  0  0  0  0  0  0  0  0
   71.5396   47.8163   58.1672 O   0  0  0  0  0  0  0  0  0  0  0  0
   69.1801   43.0539   57.1472 C   0  0  0  0  0  0  0  0  0  0  0  0
   68.0930   43.0616   56.2870 C   0  0  0  0  0  0  0  0  0  0  0  0
   67.3829   41.9350   55.9510 C   0  0  0  0  0  0  0  0  0  0  0  0
   66.3267   41.9805   55.1074 F   0  0  0  0  0  0  0  0  0  0  0  0
   67.7418   40.7158   56.4772 C   0  0  0  0  0  0  0  0  0  0  0  0
   68.8175   40.6884   57.3321 C   0  0  0  0  0  0  0  0  0  0  0  0
   69.2075   39.5023   57.8771 F   0  0  0  0  0  0  0  0  0  0  0  0
   69.5324   41.8404   57.6679 C   0  0  0  0  0  0  0  0  0  0  0  0
   69.1469   47.8773   56.9468 C   0  0  0  0  0  0  0  0  0  0  0  0
   69.0636   47.5798   53.1846 C   0  0  0  0  0  0  0  0  0  0  0  0
   69.8353   48.6456   52.7911 C   0  0  0  0  0  0  0  0  0  0  0  0
   70.3789   49.4534   53.7531 C   0  0  0  0  0  0  0  0  0  0  0  0
   70.1429   49.1811   55.0905 C   0  0  0  0  0  0  0  0  0  0  0  0
   69.3772   48.1266   55.5081 C   0  0  0  0  0  0  0  0  0  0  0  0
   68.8337   47.3192   54.5358 C   0  0  0  0  0  0  0  0  0  0  0  0
   67.6433   45.5340   52.5594 C   0  0  0  0  0  0  0  0  0  0  0  0
   68.4670   46.6975   52.1967 C   0  0  0  0  0  0  0  0  0  0  0  0
   68.6493   46.9186   50.9661 O   0  0  0  0  0  0  0  0  0  0  0  0
 23 24  1  0
 24 25  2  0
 24 17  1  0
 17 18  2  0
 17 22  1  0
 18 19  1  0
 19 20  2  0
 20 21  1  0
 21 16  1  0
 21 22  2  0
 16  1  1  0
  1  2  1  0
  1  6  1  0
  2  3  2  0
  3  8  1  0
  3  4  1  0
  8  9  2  0
  8 15  1  0
  9 10  1  0
 10 11  1  0
 10 12  2  0
 12 13  1  0
 13 14  1  0
 13 15  2  0
  4  5  2  0
  5  6  1  0
  6  7  2  0
M  END
>  <minimizedAffinity>  (621) 
-8.52610

$$$$
cs_full_output_folder/data/smiles/3411.pdb
     RDKit          3D

 25 27  0  0  0  0  0  0  0  0999 V2000
   69.8492   45.1283   57.3328 C   0  0  0  0  0  0  0  0  0  0  0  0
   70.5236   46.1796   57.6378 O   0  0  0  0  0  0  0  0  0  0  0  0
   68.7592   45.3467   56.4877 N   0  0  0  0  0  0  0  0  0  0  0  0
   68.7545   42.1400   56.9257 C   0  0  0  0  0  0  0  0  0  0  0  0
   69.8744   42.5929   57.7786 C   0  0  0  0  0  0  0  0  0  0  0  0
   70.3274   43.8963   57.9145 C   0  0  0  0  0  0  0  0  0  0  0  0
   71.4039   43.7797   58.8145 C   0  0  0  0  0  0  0  0  0  0  0  0
   71.5142   42.5018   59.1361 N   0  0  0  0  0  0  0  0  0  0  0  0
   70.6167   41.7653   58.5363 N   0  0  0  0  0  0  0  0  0  0  0  0
   70.4947   40.3657   58.7410 C   0  0  0  0  0  0  0  0  0  0  0  0
   71.5319   39.5219   58.3063 C   0  0  0  0  0  0  0  0  0  0  0  0
   71.4604   38.1549   58.4385 C   0  0  0  0  0  0  0  0  0  0  0  0
   70.3698   37.5363   59.0046 C   0  0  0  0  0  0  0  0  0  0  0  0
   69.3448   38.3526   59.4377 C   0  0  0  0  0  0  0  0  0  0  0  0
   69.4179   39.7302   59.3028 C   0  0  0  0  0  0  0  0  0  0  0  0
   68.3546   46.6348   55.9536 C   0  0  0  0  0  0  0  0  0  0  0  0
   68.5272   46.7655   54.5065 C   0  0  0  0  0  0  0  0  0  0  0  0
   67.8150   45.9140   53.6739 C   0  0  0  0  0  0  0  0  0  0  0  0
   67.8882   45.9578   52.2991 C   0  0  0  0  0  0  0  0  0  0  0  0
   68.7343   46.9208   51.7465 C   0  0  0  0  0  0  0  0  0  0  0  0
   69.4465   47.7722   52.5754 C   0  0  0  0  0  0  0  0  0  0  0  0
   69.3583   47.7151   53.9521 C   0  0  0  0  0  0  0  0  0  0  0  0
   70.3395   48.7604   52.0157 N   0  0  0  0  0  0  0  0  0  0  0  0
   70.0830   49.3421   50.9535 O   0  0  0  0  0  0  0  0  0  0  0  0
   71.5205   49.0927   52.6515 O   0  0  0  0  0  0  0  0  0  0  0  0
  4  5  1  0
  5  6  2  0
  5  9  1  0
  6  1  1  0
  6  7  1  0
  1  2  2  0
  1  3  1  0
  3 16  1  0
 16 17  1  0
 17 18  2  0
 17 22  1  0
 18 19  1  0
 19 20  2  0
 20 21  1  0
 21 23  1  0
 21 22  2  0
 23 24  2  0
 23 25  1  0
  7  8  2  0
  8  9  1  0
  9 10  1  0
 10 11  2  0
 10 15  1  0
 11 12  1  0
 12 13  2  0
 13 14  1  0
 14 15  2  0
M  CHG  2  23   1  25  -1
M  END
>  <minimizedAffinity>  (622) 
-8.52568

$$$$
cs_full_output_folder/data/smiles/7498.pdb
     RDKit          3D

 23 25  0  0  0  0  0  0  0  0999 V2000
   69.7465   43.9050   57.7476 O   0  0  0  0  0  0  0  0  0  0  0  0
   68.9292   43.2299   57.0953 C   0  0  0  0  0  0  0  0  0  0  0  0
   68.1484   43.9325   56.1436 N   0  0  0  0  0  0  0  0  0  0  0  0
   68.7377   41.7769   57.2607 C   0  0  0  0  0  0  0  0  0  0  0  0
   69.3822   40.9736   58.1581 C   0  0  0  0  0  0  0  0  0  0  0  0
   68.9724   39.6411   57.9919 C   0  0  0  0  0  0  0  0  0  0  0  0
   68.0875   39.7153   56.9883 N   0  0  0  0  0  0  0  0  0  0  0  0
   67.9439   40.9745   56.5513 N   0  0  0  0  0  0  0  0  0  0  0  0
   69.4707   38.5120   58.7597 C   0  0  0  0  0  0  0  0  0  0  0  0
   68.7289   37.9687   59.7710 C   0  0  0  0  0  0  0  0  0  0  0  0
   69.2247   36.8672   60.4926 C   0  0  0  0  0  0  0  0  0  0  0  0
   70.4525   36.3471   60.1699 C   0  0  0  0  0  0  0  0  0  0  0  0
   71.2054   36.8745   59.1674 C   0  0  0  0  0  0  0  0  0  0  0  0
   70.7117   37.9690   58.4529 C   0  0  0  0  0  0  0  0  0  0  0  0
   68.0931   45.2271   55.7784 N   0  0  0  0  0  0  0  0  0  0  0  0
   68.4196   45.9167   54.8845 C   0  0  0  0  0  0  0  0  0  0  0  0
   68.8048   46.7469   53.8222 C   0  0  0  0  0  0  0  0  0  0  0  0
   69.4395   47.9540   54.2528 C   0  0  0  0  0  0  0  0  0  0  0  0
   69.8526   48.8650   53.3447 C   0  0  0  0  0  0  0  0  0  0  0  0
   69.6879   48.6851   51.9736 C   0  0  0  0  0  0  0  0  0  0  0  0
   69.0843   47.5336   51.5762 C   0  0  0  0  0  0  0  0  0  0  0  0
   68.6525   46.5838   52.4662 C   0  0  0  0  0  0  0  0  0  0  0  0
   68.0337   45.4088   51.9922 O   0  0  0  0  0  0  0  0  0  0  0  0
  1  2  2  0
  2  3  1  0
  2  4  1  0
  3 15  1  0
 15 16  2  3
 16 17  1  0
 17 18  2  0
 17 22  1  0
 18 19  1  0
 19 20  2  0
 20 21  1  0
 21 22  2  0
 22 23  1  0
  4  5  2  0
  4  8  1  0
  5  6  1  0
  6  9  1  0
  6  7  2  0
  9 10  2  0
  9 14  1  0
 10 11  1  0
 11 12  2  0
 12 13  1  0
 13 14  2  0
  7  8  1  0
M  END
>  <minimizedAffinity>  (623) 
-8.52511

$$$$
cs_full_output_folder/data/smiles/6379.pdb
     RDKit          3D

 24 26  0  0  0  0  0  0  0  0999 V2000
   71.8982   49.9519   55.1943 O   0  0  0  0  0  0  0  0  0  0  0  0
   71.1465   50.1522   54.2245 C   0  0  0  0  0  0  0  0  0  0  0  0
   71.0385   51.5579   53.9002 N   0  0  0  0  0  0  0  0  0  0  0  0
   70.4141   49.1835   53.4363 C   0  0  0  0  0  0  0  0  0  0  0  0
   70.5661   49.1869   52.0763 N   0  0  0  0  0  0  0  0  0  0  0  0
   69.9376   48.3414   51.2951 N   0  0  0  0  0  0  0  0  0  0  0  0
   69.0933   47.4027   51.7520 C   0  0  0  0  0  0  0  0  0  0  0  0
   68.5151   46.6150   50.9556 O   0  0  0  0  0  0  0  0  0  0  0  0
   68.8929   47.3436   53.1217 C   0  0  0  0  0  0  0  0  0  0  0  0
   68.0307   46.3853   53.5993 C   0  0  0  0  0  0  0  0  0  0  0  0
   67.8150   46.3063   54.9575 C   0  0  0  0  0  0  0  0  0  0  0  0
   68.4692   47.1868   55.7793 C   0  0  0  0  0  0  0  0  0  0  0  0
   69.3445   48.1598   55.2984 C   0  0  0  0  0  0  0  0  0  0  0  0
   69.5690   48.2511   53.9588 C   0  0  0  0  0  0  0  0  0  0  0  0
   71.7620   52.4792   54.6783 C   0  0  0  0  0  0  0  0  0  0  0  0
   73.1103   52.6404   54.3704 C   0  0  0  0  0  0  0  0  0  0  0  0
   73.8483   53.5284   55.1154 C   0  0  0  0  0  0  0  0  0  0  0  0
   73.3162   54.2655   56.1518 C   0  0  0  0  0  0  0  0  0  0  0  0
   71.9890   54.0761   56.4198 C   0  0  0  0  0  0  0  0  0  0  0  0
   71.2100   53.2068   55.7117 C   0  0  0  0  0  0  0  0  0  0  0  0
   69.7880   53.0112   56.0180 C   0  0  0  0  0  0  0  0  0  0  0  0
   69.5569   51.8697   56.7569 F   0  0  0  0  0  0  0  0  0  0  0  0
   69.0492   53.1008   54.8769 F   0  0  0  0  0  0  0  0  0  0  0  0
   69.3830   54.0906   56.8186 F   0  0  0  0  0  0  0  0  0  0  0  0
  1  2  2  0
  2  3  1  0
  2  4  1  0
  3 15  1  0
 15 16  2  0
 15 20  1  0
 16 17  1  0
 17 18  2  0
 18 19  1  0
 19 20  2  0
 20 21  1  0
 21 22  1  0
 21 23  1  0
 21 24  1  0
  4  5  2  0
  4 14  1  0
  5  6  1  0
  6  7  1  0
  7  8  2  0
  7  9  1  0
  9 10  1  0
  9 14  2  0
 10 11  2  0
 11 12  1  0
 12 13  2  0
 13 14  1  0
M  END
>  <minimizedAffinity>  (624) 
-8.52012

$$$$
cs_full_output_folder/data/smiles/716.pdb
     RDKit          3D

 23 26  0  0  0  0  0  0  0  0999 V2000
   69.6262   50.4219   53.2017 C   0  0  0  0  0  0  0  0  0  0  0  0
   69.8106   50.7804   51.9262 N   0  0  0  0  0  0  0  0  0  0  0  0
   69.6911   49.7496   51.1329 N   0  0  0  0  0  0  0  0  0  0  0  0
   69.4177   48.6332   51.8360 C   0  0  0  0  0  0  0  0  0  0  0  0
   69.2012   47.3125   51.5071 C   0  0  0  0  0  0  0  0  0  0  0  0
   68.9387   46.3928   52.5012 C   0  0  0  0  0  0  0  0  0  0  0  0
   68.8853   46.7650   53.8316 C   0  0  0  0  0  0  0  0  0  0  0  0
   69.1076   48.0957   54.1160 C   0  0  0  0  0  0  0  0  0  0  0  0
   69.3757   49.0616   53.1620 C   0  0  0  0  0  0  0  0  0  0  0  0
   68.6061   45.7737   54.8535 C   0  0  0  0  0  0  0  0  0  0  0  0
   69.0632   45.7389   56.1106 N   0  0  0  0  0  0  0  0  0  0  0  0
   68.5921   44.6816   56.7486 N   0  0  0  0  0  0  0  0  0  0  0  0
   67.8300   44.0407   55.8861 N   0  0  0  0  0  0  0  0  0  0  0  0
   67.8286   44.6901   54.7357 N   0  0  0  0  0  0  0  0  0  0  0  0
   69.7411   51.2602   54.3900 C   0  0  0  0  0  0  0  0  0  0  0  0
   70.7306   50.9413   55.4132 C   0  0  0  0  0  0  0  0  0  0  0  0
   70.3606   50.8561   56.8207 C   0  0  0  0  0  0  0  0  0  0  0  0
   66.5855   49.2734   57.8360 C   0  0  0  0  0  0  0  0  0  0  0  0
   66.7448   50.6495   57.7464 C   0  0  0  0  0  0  0  0  0  0  0  0
   67.9796   51.1461   57.3913 C   0  0  0  0  0  0  0  0  0  0  0  0
   69.0357   50.3338   57.1286 C   0  0  0  0  0  0  0  0  0  0  0  0
   68.8533   48.9992   57.2233 N   0  0  0  0  0  0  0  0  0  0  0  0
   67.6789   48.4884   57.5619 C   0  0  0  0  0  0  0  0  0  0  0  0
 18 19  2  0
 18 23  1  0
 19 20  1  0
 20 21  2  0
 21 17  1  0
 21 22  1  0
 17 16  1  0
 16 15  1  0
 15  1  1  0
  1  2  2  0
  1  9  1  0
  2  3  1  0
  3  4  1  0
  4  5  1  0
  4  9  2  0
  5  6  2  0
  6  7  1  0
  7 10  1  0
  7  8  2  0
 10 11  2  0
 10 14  1  0
 11 12  1  0
 12 13  2  0
 13 14  1  0
  8  9  1  0
 22 23  2  0
M  END
>  <minimizedAffinity>  (625) 
-8.51888

$$$$
cs_full_output_folder/data/smiles/2596.pdb
     RDKit          3D

 24 27  0  0  0  0  0  0  0  0999 V2000
   70.9082   44.9761   58.1123 C   0  0  0  0  0  0  0  0  0  0  0  0
   71.7724   45.5781   58.9914 C   0  0  0  0  0  0  0  0  0  0  0  0
   71.6892   46.9353   59.1582 C   0  0  0  0  0  0  0  0  0  0  0  0
   70.7423   47.6570   58.4395 C   0  0  0  0  0  0  0  0  0  0  0  0
   69.8840   47.0496   57.5647 C   0  0  0  0  0  0  0  0  0  0  0  0
   70.0138   45.6991   57.4412 N   0  0  0  0  0  0  0  0  0  0  0  0
   68.6776   42.9968   57.5759 O   0  0  0  0  0  0  0  0  0  0  0  0
   69.8589   42.7122   57.8704 C   0  0  0  0  0  0  0  0  0  0  0  0
   70.3047   41.3228   58.2255 C   0  0  0  0  0  0  0  0  0  0  0  0
   71.7893   41.4062   58.4058 C   0  0  0  0  0  0  0  0  0  0  0  0
   72.1865   42.7410   57.8229 C   0  0  0  0  0  0  0  0  0  0  0  0
   71.0046   43.5535   57.9441 N   0  0  0  0  0  0  0  0  0  0  0  0
   68.8362   47.7772   56.7726 C   0  0  0  0  0  0  0  0  0  0  0  0
   68.5595   47.0217   55.5567 C   0  0  0  0  0  0  0  0  0  0  0  0
   68.0648   45.7590   55.7085 N   0  0  0  0  0  0  0  0  0  0  0  0
   67.7471   45.0151   54.6628 N   0  0  0  0  0  0  0  0  0  0  0  0
   67.8931   45.4615   53.4027 C   0  0  0  0  0  0  0  0  0  0  0  0
   67.5893   44.7504   52.3904 O   0  0  0  0  0  0  0  0  0  0  0  0
   68.3911   46.7353   53.1747 C   0  0  0  0  0  0  0  0  0  0  0  0
   68.7189   47.4955   54.3034 C   0  0  0  0  0  0  0  0  0  0  0  0
   69.2842   48.8345   54.0623 C   0  0  0  0  0  0  0  0  0  0  0  0
   70.3697   48.6189   52.9853 C   0  0  0  0  0  0  0  0  0  0  0  0
   69.8255   48.0627   51.7171 C   0  0  0  0  0  0  0  0  0  0  0  0
   68.5591   47.2993   51.8252 C   0  0  0  0  0  0  0  0  0  0  0  0
  7  8  2  0
  8  9  1  0
  8 12  1  0
  9 10  1  0
 10 11  1  0
 11 12  1  0
 12  1  1  0
  1  2  2  0
  1  6  1  0
  2  3  1  0
  3  4  2  0
  4  5  1  0
  5 13  1  0
  5  6  2  0
 13 14  1  0
 14 15  2  0
 14 20  1  0
 15 16  1  0
 16 17  1  0
 17 18  2  0
 17 19  1  0
 19 20  2  0
 19 24  1  0
 20 21  1  0
 21 22  1  0
 22 23  1  0
 23 24  1  0
M  END
>  <minimizedAffinity>  (626) 
-8.51827

$$$$
cs_full_output_folder/data/smiles/7248.pdb
     RDKit          3D

 24 26  0  0  0  0  0  0  0  0999 V2000
   72.2769   42.1973   57.9104 C   0  0  0  0  0  0  0  0  0  0  0  0
   70.7751   42.0600   57.7596 C   0  0  0  0  0  0  0  0  0  0  0  0
   69.7885   42.8342   57.4793 C   0  0  0  0  0  0  0  0  0  0  0  0
   68.8443   41.7107   57.5053 C   0  0  0  0  0  0  0  0  0  0  0  0
   69.9479   40.9708   57.9742 N   0  0  0  0  0  0  0  0  0  0  0  0
   70.1088   39.6438   58.4548 C   0  0  0  0  0  0  0  0  0  0  0  0
   69.1773   39.0614   59.2822 C   0  0  0  0  0  0  0  0  0  0  0  0
   69.3193   37.7820   59.7807 C   0  0  0  0  0  0  0  0  0  0  0  0
   70.4328   37.0361   59.4516 C   0  0  0  0  0  0  0  0  0  0  0  0
   70.5679   35.7763   59.9472 F   0  0  0  0  0  0  0  0  0  0  0  0
   71.3750   37.5958   58.6291 C   0  0  0  0  0  0  0  0  0  0  0  0
   71.2095   38.8802   58.1423 C   0  0  0  0  0  0  0  0  0  0  0  0
   69.5639   44.2616   57.1625 C   0  0  0  0  0  0  0  0  0  0  0  0
   70.1577   45.1676   57.8137 O   0  0  0  0  0  0  0  0  0  0  0  0
   68.6967   44.6543   56.1382 N   0  0  0  0  0  0  0  0  0  0  0  0
   68.4750   46.0785   55.8371 C   0  0  0  0  0  0  0  0  0  0  0  0
   68.4621   46.3305   54.3873 C   0  0  0  0  0  0  0  0  0  0  0  0
   67.8159   45.5477   53.4564 C   0  0  0  0  0  0  0  0  0  0  0  0
   67.8688   45.8600   52.0949 C   0  0  0  0  0  0  0  0  0  0  0  0
   68.5861   46.9714   51.7081 C   0  0  0  0  0  0  0  0  0  0  0  0
   69.2372   47.7651   52.6245 C   0  0  0  0  0  0  0  0  0  0  0  0
   69.1758   47.4480   53.9454 C   0  0  0  0  0  0  0  0  0  0  0  0
   69.9999   48.9534   52.2062 C   0  0  0  0  0  0  0  0  0  0  0  0
   70.3157   49.0534   51.0072 O   0  0  0  0  0  0  0  0  0  0  0  0
  1  2  1  0
  2  3  2  0
  2  5  1  0
  3 13  1  0
  3  4  1  0
 13 14  2  0
 13 15  1  0
 15 16  1  0
 16 17  1  0
 17 18  2  0
 17 22  1  0
 18 19  1  0
 19 20  2  0
 20 21  1  0
 21 23  1  0
 21 22  2  0
 23 24  2  0
  4  5  1  0
  5  6  1  0
  6  7  2  0
  6 12  1  0
  7  8  1  0
  8  9  2  0
  9 10  1  0
  9 11  1  0
 11 12  2  0
M  END
>  <minimizedAffinity>  (627) 
-8.51760

$$$$
cs_full_output_folder/data/smiles/197.pdb
     RDKit          3D

 22 24  0  0  0  0  0  0  0  0999 V2000
   68.9926   48.7727   56.1743 C   0  0  0  0  0  0  0  0  0  0  0  0
   69.3579   48.6329   54.7905 C   0  0  0  0  0  0  0  0  0  0  0  0
   70.2439   49.5497   54.2970 N   0  0  0  0  0  0  0  0  0  0  0  0
   70.6316   49.5781   53.0351 N   0  0  0  0  0  0  0  0  0  0  0  0
   70.1714   48.6927   52.1413 C   0  0  0  0  0  0  0  0  0  0  0  0
   70.5322   48.7072   50.9264 O   0  0  0  0  0  0  0  0  0  0  0  0
   69.2693   47.7208   52.5383 C   0  0  0  0  0  0  0  0  0  0  0  0
   68.7931   46.7869   51.6392 C   0  0  0  0  0  0  0  0  0  0  0  0
   67.9131   45.8474   52.1322 C   0  0  0  0  0  0  0  0  0  0  0  0
   67.5179   45.8258   53.4517 C   0  0  0  0  0  0  0  0  0  0  0  0
   68.0097   46.7717   54.3247 C   0  0  0  0  0  0  0  0  0  0  0  0
   68.8809   47.7197   53.8836 C   0  0  0  0  0  0  0  0  0  0  0  0
   70.6837   46.0760   58.1709 C   0  0  0  0  0  0  0  0  0  0  0  0
   69.8322   46.7806   57.3565 C   0  0  0  0  0  0  0  0  0  0  0  0
   70.0091   48.1398   57.0504 C   0  0  0  0  0  0  0  0  0  0  0  0
   71.0887   48.7583   57.6067 C   0  0  0  0  0  0  0  0  0  0  0  0
   71.9872   48.0792   58.4440 C   0  0  0  0  0  0  0  0  0  0  0  0
   71.7677   46.7475   58.7121 C   0  0  0  0  0  0  0  0  0  0  0  0
   72.6129   46.0572   59.5185 F   0  0  0  0  0  0  0  0  0  0  0  0
   69.7198   44.3010   59.4176 O   0  0  0  0  0  0  0  0  0  0  0  0
   70.4819   44.6616   58.4746 C   0  0  0  0  0  0  0  0  0  0  0  0
   71.1037   43.7113   57.7588 F   0  0  0  0  0  0  0  0  0  0  0  0
 20 21  2  0
 21 22  1  0
 21 13  1  0
 13 14  2  0
 13 18  1  0
 14 15  1  0
 15  1  1  0
 15 16  2  0
  1  2  1  0
  2  3  2  0
  2 12  1  0
  3  4  1  0
  4  5  1  0
  5  6  2  0
  5  7  1  0
  7  8  1  0
  7 12  2  0
  8  9  2  0
  9 10  1  0
 10 11  2  0
 11 12  1  0
 16 17  1  0
 17 18  2  0
 18 19  1  0
M  END
>  <minimizedAffinity>  (628) 
-8.51749

$$$$
cs_full_output_folder/data/smiles/8958.pdb
     RDKit          3D

 22 24  0  0  0  0  0  0  0  0999 V2000
   66.1280   49.7934   58.8011 O   0  0  0  0  0  0  0  0  0  0  0  0
   66.8794   49.3157   57.9376 C   0  0  0  0  0  0  0  0  0  0  0  0
   66.8610   48.0045   57.6552 N   0  0  0  0  0  0  0  0  0  0  0  0
   67.6592   47.5189   56.7470 N   0  0  0  0  0  0  0  0  0  0  0  0
   68.5246   48.2346   56.0498 C   0  0  0  0  0  0  0  0  0  0  0  0
   68.6062   49.6113   56.2782 C   0  0  0  0  0  0  0  0  0  0  0  0
   69.4550   50.4132   55.5575 C   0  0  0  0  0  0  0  0  0  0  0  0
   69.4776   51.7882   55.8010 C   0  0  0  0  0  0  0  0  0  0  0  0
   68.6345   52.2900   56.7660 C   0  0  0  0  0  0  0  0  0  0  0  0
   67.7794   51.4960   57.4891 C   0  0  0  0  0  0  0  0  0  0  0  0
   67.7603   50.1461   57.2441 C   0  0  0  0  0  0  0  0  0  0  0  0
   69.4615   47.5784   55.1138 C   0  0  0  0  0  0  0  0  0  0  0  0
   68.8948   46.9833   53.9077 C   0  0  0  0  0  0  0  0  0  0  0  0
   68.0395   45.8774   53.9474 C   0  0  0  0  0  0  0  0  0  0  0  0
   67.4475   45.3624   52.7856 C   0  0  0  0  0  0  0  0  0  0  0  0
   67.6938   45.9356   51.5651 C   0  0  0  0  0  0  0  0  0  0  0  0
   68.5373   47.0193   51.5327 C   0  0  0  0  0  0  0  0  0  0  0  0
   69.1481   47.5585   52.6853 C   0  0  0  0  0  0  0  0  0  0  0  0
   70.0462   48.6289   52.4540 C   0  0  0  0  0  0  0  0  0  0  0  0
   71.1230   48.9295   53.1374 F   0  0  0  0  0  0  0  0  0  0  0  0
   69.3190   49.8375   52.3071 F   0  0  0  0  0  0  0  0  0  0  0  0
   70.5118   48.4591   51.1067 F   0  0  0  0  0  0  0  0  0  0  0  0
  1  2  2  0
  2  3  1  0
  2 11  1  0
  3  4  1  0
  4  5  2  0
  5 12  1  0
  5  6  1  0
 12 13  1  0
 13 14  2  0
 13 18  1  0
 14 15  1  0
 15 16  2  0
 16 17  1  0
 17 18  2  0
 18 19  1  0
 19 20  1  0
 19 21  1  0
 19 22  1  0
  6  7  1  0
  6 11  2  0
  7  8  2  0
  8  9  1  0
  9 10  2  0
 10 11  1  0
M  END
>  <minimizedAffinity>  (629) 
-8.51730

$$$$
cs_full_output_folder/data/smiles/7602.pdb
     RDKit          3D

 25 27  0  0  0  0  0  0  0  0999 V2000
   74.2113   50.6525   56.0005 C   0  0  0  0  0  0  0  0  0  0  0  0
   73.7807   51.3212   54.8783 C   0  0  0  0  0  0  0  0  0  0  0  0
   72.4561   51.3109   54.5030 C   0  0  0  0  0  0  0  0  0  0  0  0
   71.4726   50.6257   55.2328 C   0  0  0  0  0  0  0  0  0  0  0  0
   71.8981   49.9626   56.3442 C   0  0  0  0  0  0  0  0  0  0  0  0
   73.2508   49.9787   56.7198 C   0  0  0  0  0  0  0  0  0  0  0  0
   76.2260   49.3950   54.6393 O   0  0  0  0  0  0  0  0  0  0  0  0
   76.6036   49.9766   55.7120 C   0  0  0  0  0  0  0  0  0  0  0  0
   75.5715   50.6302   56.4269 N   0  0  0  0  0  0  0  0  0  0  0  0
   78.0266   49.9404   56.1355 C   0  0  0  0  0  0  0  0  0  0  0  0
   78.2103   49.2632   57.3229 F   0  0  0  0  0  0  0  0  0  0  0  0
   78.4536   51.2443   56.2789 F   0  0  0  0  0  0  0  0  0  0  0  0
   78.7416   49.2735   55.1489 F   0  0  0  0  0  0  0  0  0  0  0  0
   70.0905   50.6842   54.7082 C   0  0  0  0  0  0  0  0  0  0  0  0
   69.8857   49.6036   53.7434 C   0  0  0  0  0  0  0  0  0  0  0  0
   70.2683   49.7969   52.4437 N   0  0  0  0  0  0  0  0  0  0  0  0
   70.0702   48.8938   51.5004 N   0  0  0  0  0  0  0  0  0  0  0  0
   69.4793   47.7089   51.7286 C   0  0  0  0  0  0  0  0  0  0  0  0
   69.3063   46.8705   50.7976 O   0  0  0  0  0  0  0  0  0  0  0  0
   69.0707   47.4454   53.0095 C   0  0  0  0  0  0  0  0  0  0  0  0
   68.4775   46.2311   53.2743 C   0  0  0  0  0  0  0  0  0  0  0  0
   68.0971   45.9906   54.5713 C   0  0  0  0  0  0  0  0  0  0  0  0
   68.2885   46.9063   55.5785 C   0  0  0  0  0  0  0  0  0  0  0  0
   68.8825   48.1024   55.2660 C   0  0  0  0  0  0  0  0  0  0  0  0
   69.2821   48.4020   53.9974 C   0  0  0  0  0  0  0  0  0  0  0  0
  7  8  2  0
  8  9  1  0
  8 10  1  0
  9  1  1  0
  1  2  2  0
  1  6  1  0
  2  3  1  0
  3  4  2  0
  4 14  1  0
  4  5  1  0
 14 15  1  0
 15 16  2  0
 15 25  1  0
 16 17  1  0
 17 18  1  0
 18 19  2  0
 18 20  1  0
 20 21  1  0
 20 25  2  0
 21 22  2  0
 22 23  1  0
 23 24  2  0
 24 25  1  0
  5  6  2  0
 10 11  1  0
 10 12  1  0
 10 13  1  0
M  END
>  <minimizedAffinity>  (630) 
-8.51723

$$$$
cs_full_output_folder/data/smiles/6517.pdb
     RDKit          3D

 25 28  0  0  0  0  0  0  0  0999 V2000
   73.7507   49.3078   57.1823 C   0  0  0  0  0  0  0  0  0  0  0  0
   73.4421   48.4100   58.1827 C   0  0  0  0  0  0  0  0  0  0  0  0
   72.1556   47.9986   58.4504 C   0  0  0  0  0  0  0  0  0  0  0  0
   71.1165   48.4999   57.6902 C   0  0  0  0  0  0  0  0  0  0  0  0
   71.3593   49.3960   56.6825 C   0  0  0  0  0  0  0  0  0  0  0  0
   72.6737   49.7727   56.4605 C   0  0  0  0  0  0  0  0  0  0  0  0
   75.2846   49.6436   54.5481 O   0  0  0  0  0  0  0  0  0  0  0  0
   75.7846   49.6764   55.7010 C   0  0  0  0  0  0  0  0  0  0  0  0
   77.2626   49.6750   55.9514 C   0  0  0  0  0  0  0  0  0  0  0  0
   77.4148   50.0094   57.3971 C   0  0  0  0  0  0  0  0  0  0  0  0
   76.0051   50.2612   57.8679 C   0  0  0  0  0  0  0  0  0  0  0  0
   75.7545   50.8585   58.9307 O   0  0  0  0  0  0  0  0  0  0  0  0
   75.0876   49.7185   56.9247 N   0  0  0  0  0  0  0  0  0  0  0  0
   70.2535   49.9688   55.8495 C   0  0  0  0  0  0  0  0  0  0  0  0
   70.2021   49.2275   54.5931 C   0  0  0  0  0  0  0  0  0  0  0  0
   71.0430   49.5661   53.5903 N   0  0  0  0  0  0  0  0  0  0  0  0
   71.0218   48.9666   52.4126 N   0  0  0  0  0  0  0  0  0  0  0  0
   70.1534   47.9772   52.1523 C   0  0  0  0  0  0  0  0  0  0  0  0
   70.1061   47.3845   51.0395 O   0  0  0  0  0  0  0  0  0  0  0  0
   69.2564   47.5685   53.1292 C   0  0  0  0  0  0  0  0  0  0  0  0
   69.3164   48.2329   54.3625 C   0  0  0  0  0  0  0  0  0  0  0  0
   68.3902   47.7664   55.4058 C   0  0  0  0  0  0  0  0  0  0  0  0
   68.4821   46.2241   55.3845 C   0  0  0  0  0  0  0  0  0  0  0  0
   68.0161   45.6306   54.1091 C   0  0  0  0  0  0  0  0  0  0  0  0
   68.2670   46.5143   52.9215 C   0  0  0  0  0  0  0  0  0  0  0  0
  7  8  2  0
  8  9  1  0
  8 13  1  0
  9 10  1  0
 10 11  1  0
 11 12  2  0
 11 13  1  0
 13  1  1  0
  1  2  2  0
  1  6  1  0
  2  3  1  0
  3  4  2  0
  4  5  1  0
  5 14  1  0
  5  6  2  0
 14 15  1  0
 15 16  2  0
 15 21  1  0
 16 17  1  0
 17 18  1  0
 18 19  2  0
 18 20  1  0
 20 21  2  0
 20 25  1  0
 21 22  1  0
 22 23  1  0
 23 24  1  0
 24 25  1  0
M  END
>  <minimizedAffinity>  (631) 
-8.51586

$$$$
cs_full_output_folder/data/smiles/6405.pdb
     RDKit          3D

 24 25  0  0  0  0  0  0  0  0999 V2000
   74.3108   43.0320   58.0641 C   0  0  0  0  0  0  0  0  0  0  0  0
   73.0751   42.4403   57.8062 C   0  0  0  0  0  0  0  0  0  0  0  0
   71.8924   43.1466   57.8835 C   0  0  0  0  0  0  0  0  0  0  0  0
   71.8493   44.4766   58.2170 C   0  0  0  0  0  0  0  0  0  0  0  0
   73.0872   45.0663   58.4743 C   0  0  0  0  0  0  0  0  0  0  0  0
   74.2720   44.3662   58.3989 C   0  0  0  0  0  0  0  0  0  0  0  0
   70.6312   45.2675   58.3123 C   0  0  0  0  0  0  0  0  0  0  0  0
   69.7523   45.0145   59.2035 O   0  0  0  0  0  0  0  0  0  0  0  0
   70.3387   46.3397   57.4540 N   0  0  0  0  0  0  0  0  0  0  0  0
   69.1920   47.1085   57.5197 N   0  0  0  0  0  0  0  0  0  0  0  0
   68.4888   47.5191   56.5603 C   0  0  0  0  0  0  0  0  0  0  0  0
   68.6017   47.3588   55.1509 C   0  0  0  0  0  0  0  0  0  0  0  0
   68.0194   46.2537   54.5339 C   0  0  0  0  0  0  0  0  0  0  0  0
   68.0986   46.0504   53.1746 C   0  0  0  0  0  0  0  0  0  0  0  0
   68.7667   46.9457   52.3674 C   0  0  0  0  0  0  0  0  0  0  0  0
   68.8259   46.7167   51.0391 F   0  0  0  0  0  0  0  0  0  0  0  0
   69.3503   48.0486   52.9645 C   0  0  0  0  0  0  0  0  0  0  0  0
   69.2590   48.2380   54.3465 C   0  0  0  0  0  0  0  0  0  0  0  0
   76.7473   42.6969   58.2205 C   0  0  0  0  0  0  0  0  0  0  0  0
   75.5332   42.2495   57.9709 C   0  0  0  0  0  0  0  0  0  0  0  0
   78.3303   41.2362   59.1420 O   0  0  0  0  0  0  0  0  0  0  0  0
   77.9336   41.8652   58.1096 C   0  0  0  0  0  0  0  0  0  0  0  0
   78.6952   41.6871   56.9490 N   0  0  0  0  0  0  0  0  0  0  0  0
   79.8036   40.8762   56.9481 O   0  0  0  0  0  0  0  0  0  0  0  0
 21 22  2  0
 22 19  1  0
 22 23  1  0
 19 20  2  0
 20  1  1  0
  1  2  2  0
  1  6  1  0
  2  3  1  0
  3  4  2  0
  4  7  1  0
  4  5  1  0
  7  8  2  0
  7  9  1  0
  9 10  1  0
 10 11  2  0
 11 12  1  0
 12 13  2  0
 12 18  1  0
 13 14  1  0
 14 15  2  0
 15 16  1  0
 15 17  1  0
 17 18  2  0
  5  6  2  0
 23 24  1  0
M  END
>  <minimizedAffinity>  (632) 
-8.51455

$$$$
cs_full_output_folder/data/smiles/5927.pdb
     RDKit          3D

 23 25  0  0  0  0  0  0  0  0999 V2000
   69.0872   48.8222   56.2090 C   0  0  0  0  0  0  0  0  0  0  0  0
   69.4011   48.7315   54.8001 C   0  0  0  0  0  0  0  0  0  0  0  0
   70.2740   49.6211   54.2778 N   0  0  0  0  0  0  0  0  0  0  0  0
   70.6749   49.5504   53.0169 N   0  0  0  0  0  0  0  0  0  0  0  0
   70.2173   48.5806   52.2144 C   0  0  0  0  0  0  0  0  0  0  0  0
   70.5862   48.4939   51.0103 O   0  0  0  0  0  0  0  0  0  0  0  0
   69.3071   47.6119   52.6654 C   0  0  0  0  0  0  0  0  0  0  0  0
   68.9192   47.7363   54.0009 C   0  0  0  0  0  0  0  0  0  0  0  0
   67.9076   46.8322   54.5184 C   0  0  0  0  0  0  0  0  0  0  0  0
   67.9884   45.5062   53.7774 C   0  0  0  0  0  0  0  0  0  0  0  0
   67.6420   45.8269   52.3139 C   0  0  0  0  0  0  0  0  0  0  0  0
   68.8328   46.5554   51.7515 C   0  0  0  0  0  0  0  0  0  0  0  0
   70.9649   46.2367   58.3021 C   0  0  0  0  0  0  0  0  0  0  0  0
   71.9589   47.0218   58.8011 C   0  0  0  0  0  0  0  0  0  0  0  0
   72.0104   48.3554   58.4635 C   0  0  0  0  0  0  0  0  0  0  0  0
   71.0650   48.8950   57.6285 C   0  0  0  0  0  0  0  0  0  0  0  0
   70.0227   48.1148   57.0958 C   0  0  0  0  0  0  0  0  0  0  0  0
   70.0032   46.8175   57.4452 C   0  0  0  0  0  0  0  0  0  0  0  0
   70.8633   44.7909   58.6488 C   0  0  0  0  0  0  0  0  0  0  0  0
   69.6576   44.1919   58.2015 N   0  0  0  0  0  0  0  0  0  0  0  0
   68.5227   42.3220   57.0429 C   0  0  0  0  0  0  0  0  0  0  0  0
   69.7808   43.0475   57.3734 C   0  0  0  0  0  0  0  0  0  0  0  0
   70.7819   42.0436   57.9041 C   0  0  0  0  0  0  0  0  0  0  0  0
 21 22  1  0
 22 23  1  0
 22 20  1  0
 20 19  1  0
 19 13  1  0
 13 14  2  0
 13 18  1  0
 14 15  1  0
 15 16  2  0
 16 17  1  0
 17  1  1  0
 17 18  2  0
  1  2  1  0
  2  3  2  0
  2  8  1  0
  3  4  1  0
  4  5  1  0
  5  6  2  0
  5  7  1  0
  7  8  2  0
  7 12  1  0
  8  9  1  0
  9 10  1  0
 10 11  1  0
 11 12  1  0
M  CHG  1  20   1
M  END
>  <minimizedAffinity>  (633) 
-8.51420

$$$$
cs_full_output_folder/data/smiles/1876.pdb
     RDKit          3D

 25 27  0  0  0  0  0  0  0  0999 V2000
   69.5358   48.7831   56.5740 C   0  0  0  0  0  0  0  0  0  0  0  0
   68.6718   49.7046   56.9978 O   0  0  0  0  0  0  0  0  0  0  0  0
   69.8481   48.8985   55.1970 C   0  0  0  0  0  0  0  0  0  0  0  0
   70.6694   49.9279   54.6920 C   0  0  0  0  0  0  0  0  0  0  0  0
   70.7265   49.8522   53.3544 N   0  0  0  0  0  0  0  0  0  0  0  0
   69.9782   48.8137   52.9565 C   0  0  0  0  0  0  0  0  0  0  0  0
   69.6939   48.2699   51.7260 C   0  0  0  0  0  0  0  0  0  0  0  0
   68.8921   47.1570   51.5677 C   0  0  0  0  0  0  0  0  0  0  0  0
   68.3474   46.5509   52.6703 C   0  0  0  0  0  0  0  0  0  0  0  0
   68.6283   47.0928   53.9078 C   0  0  0  0  0  0  0  0  0  0  0  0
   69.4309   48.2162   54.0984 C   0  0  0  0  0  0  0  0  0  0  0  0
   67.5089   45.3916   52.5680 N   0  0  0  0  0  0  0  0  0  0  0  0
   67.4057   44.5794   53.4985 O   0  0  0  0  0  0  0  0  0  0  0  0
   66.8081   45.1818   51.4128 O   0  0  0  0  0  0  0  0  0  0  0  0
   70.7064   48.0923   58.5466 O   0  0  0  0  0  0  0  0  0  0  0  0
   69.9563   47.8752   57.5948 C   0  0  0  0  0  0  0  0  0  0  0  0
   69.4673   46.4950   57.5622 N   0  0  0  0  0  0  0  0  0  0  0  0
   69.8835   45.6185   58.5639 N   0  0  0  0  0  0  0  0  0  0  0  0
   70.9187   44.6851   58.3152 C   0  0  0  0  0  0  0  0  0  0  0  0
   72.2435   45.0826   58.4229 C   0  0  0  0  0  0  0  0  0  0  0  0
   73.2442   44.1686   58.1788 C   0  0  0  0  0  0  0  0  0  0  0  0
   72.9870   42.8700   57.8300 C   0  0  0  0  0  0  0  0  0  0  0  0
   73.9993   41.9829   57.5934 F   0  0  0  0  0  0  0  0  0  0  0  0
   71.6763   42.4561   57.7179 C   0  0  0  0  0  0  0  0  0  0  0  0
   70.6755   43.3742   57.9624 C   0  0  0  0  0  0  0  0  0  0  0  0
 15 16  2  0
 16 17  1  0
 16  1  1  0
 17 18  1  0
 18 19  1  0
 19 20  2  0
 19 25  1  0
 20 21  1  0
 21 22  2  0
 22 23  1  0
 22 24  1  0
 24 25  2  0
  1  2  2  0
  1  3  1  0
  3  4  2  0
  3 11  1  0
  4  5  1  0
  5  6  1  0
  6  7  1  0
  6 11  2  0
  7  8  2  0
  8  9  1  0
  9 12  1  0
  9 10  2  0
 12 13  2  0
 12 14  1  0
 10 11  1  0
M  CHG  2  12   1  14  -1
M  END
>  <minimizedAffinity>  (634) 
-8.51357

$$$$
cs_full_output_folder/data/smiles/3990.pdb
     RDKit          3D

 25 27  0  0  0  0  0  0  0  0999 V2000
   69.8486   45.0201   57.8105 C   0  0  0  0  0  0  0  0  0  0  0  0
   69.7728   46.0126   58.6145 O   0  0  0  0  0  0  0  0  0  0  0  0
   69.2389   45.1778   56.5472 N   0  0  0  0  0  0  0  0  0  0  0  0
   70.9361   41.6492   58.6604 N   0  0  0  0  0  0  0  0  0  0  0  0
   71.8939   42.3913   59.2426 N   0  0  0  0  0  0  0  0  0  0  0  0
   71.6917   43.6999   59.0435 C   0  0  0  0  0  0  0  0  0  0  0  0
   70.5513   43.8517   58.2969 C   0  0  0  0  0  0  0  0  0  0  0  0
   70.1107   42.5346   58.0773 C   0  0  0  0  0  0  0  0  0  0  0  0
   68.9168   42.2119   57.2722 C   0  0  0  0  0  0  0  0  0  0  0  0
   71.8959   36.8585   58.3584 C   0  0  0  0  0  0  0  0  0  0  0  0
   71.2527   37.9851   58.5726 C   0  0  0  0  0  0  0  0  0  0  0  0
   69.8767   38.1837   59.0387 C   0  0  0  0  0  0  0  0  0  0  0  0
   69.6773   39.4803   59.0929 C   0  0  0  0  0  0  0  0  0  0  0  0
   70.8553   40.2285   58.6840 C   0  0  0  0  0  0  0  0  0  0  0  0
   71.7653   39.3551   58.3823 C   0  0  0  0  0  0  0  0  0  0  0  0
   68.5239   46.4046   56.1535 C   0  0  0  0  0  0  0  0  0  0  0  0
   68.6404   46.6401   54.6785 C   0  0  0  0  0  0  0  0  0  0  0  0
   67.8915   45.8146   53.8728 C   0  0  0  0  0  0  0  0  0  0  0  0
   67.9066   45.9436   52.4797 C   0  0  0  0  0  0  0  0  0  0  0  0
   68.6962   46.9263   51.9305 C   0  0  0  0  0  0  0  0  0  0  0  0
   69.4512   47.7613   52.7037 C   0  0  0  0  0  0  0  0  0  0  0  0
   69.4119   47.6029   54.1000 C   0  0  0  0  0  0  0  0  0  0  0  0
   70.2420   48.8046   52.0851 C   0  0  0  0  0  0  0  0  0  0  0  0
   69.8874   49.3990   51.0307 O   0  0  0  0  0  0  0  0  0  0  0  0
   71.4398   49.1773   52.6563 O   0  0  0  0  0  0  0  0  0  0  0  0
 10 11  2  0
 11 12  1  0
 11 15  1  0
 12 13  2  0
 13 14  1  0
 14  4  1  0
 14 15  2  0
  4  5  1  0
  4  8  1  0
  5  6  2  0
  6  7  1  0
  7  1  1  0
  7  8  2  0
  1  2  2  0
  1  3  1  0
  3 16  1  0
 16 17  1  0
 17 18  2  0
 17 22  1  0
 18 19  1  0
 19 20  2  0
 20 21  1  0
 21 23  1  0
 21 22  2  0
 23 24  2  0
 23 25  1  0
  8  9  1  0
M  END
>  <minimizedAffinity>  (635) 
-8.51268

$$$$
cs_full_output_folder/data/smiles/2292.pdb
     RDKit          3D

 22 24  0  0  0  0  0  0  0  0999 V2000
   68.8065   48.3541   56.6905 C   0  0  0  0  0  0  0  0  0  0  0  0
   69.1388   46.9311   56.8605 C   0  0  0  0  0  0  0  0  0  0  0  0
   68.3404   46.0255   56.2502 N   0  0  0  0  0  0  0  0  0  0  0  0
   68.5787   44.7314   56.3386 N   0  0  0  0  0  0  0  0  0  0  0  0
   69.6294   44.2999   57.0451 C   0  0  0  0  0  0  0  0  0  0  0  0
   69.8305   43.0512   57.1107 O   0  0  0  0  0  0  0  0  0  0  0  0
   70.5055   45.1549   57.7062 C   0  0  0  0  0  0  0  0  0  0  0  0
   70.2175   46.5215   57.5877 C   0  0  0  0  0  0  0  0  0  0  0  0
   71.0676   47.5327   58.2558 C   0  0  0  0  0  0  0  0  0  0  0  0
   71.7010   46.8213   59.4632 C   0  0  0  0  0  0  0  0  0  0  0  0
   72.5734   45.7477   58.8449 C   0  0  0  0  0  0  0  0  0  0  0  0
   71.6501   44.6180   58.4676 C   0  0  0  0  0  0  0  0  0  0  0  0
   69.2141   48.1530   52.9670 C   0  0  0  0  0  0  0  0  0  0  0  0
   68.9962   47.8622   54.2951 C   0  0  0  0  0  0  0  0  0  0  0  0
   69.0847   48.8200   55.3084 C   0  0  0  0  0  0  0  0  0  0  0  0
   69.4006   50.0872   54.9347 C   0  0  0  0  0  0  0  0  0  0  0  0
   69.6268   50.4061   53.5883 C   0  0  0  0  0  0  0  0  0  0  0  0
   69.5333   49.4348   52.6082 C   0  0  0  0  0  0  0  0  0  0  0  0
   69.7678   49.8331   51.3340 F   0  0  0  0  0  0  0  0  0  0  0  0
   68.0376   46.1375   51.9205 C   0  0  0  0  0  0  0  0  0  0  0  0
   69.1181   47.1391   51.9269 C   0  0  0  0  0  0  0  0  0  0  0  0
   70.0023   47.1370   51.0101 O   0  0  0  0  0  0  0  0  0  0  0  0
 20 21  1  0
 21 22  2  0
 21 13  1  0
 13 14  2  0
 13 18  1  0
 14 15  1  0
 15  1  1  0
 15 16  2  0
  1  2  1  0
  2  3  2  0
  2  8  1  0
  3  4  1  0
  4  5  1  0
  5  6  2  0
  5  7  1  0
  7  8  2  0
  7 12  1  0
  8  9  1  0
  9 10  1  0
 10 11  1  0
 11 12  1  0
 16 17  1  0
 17 18  2  0
 18 19  1  0
M  END
>  <minimizedAffinity>  (636) 
-8.51133

$$$$
cs_full_output_folder/data/smiles/8249.pdb
     RDKit          3D

 23 25  0  0  0  0  0  0  0  0999 V2000
   72.0196   49.9490   55.0248 O   0  0  0  0  0  0  0  0  0  0  0  0
   70.9840   50.2744   54.3479 C   0  0  0  0  0  0  0  0  0  0  0  0
   70.4958   51.5962   54.4250 N   0  0  0  0  0  0  0  0  0  0  0  0
   70.3147   49.2925   53.5186 C   0  0  0  0  0  0  0  0  0  0  0  0
   70.4427   49.3981   52.1573 N   0  0  0  0  0  0  0  0  0  0  0  0
   69.8517   48.5442   51.3462 N   0  0  0  0  0  0  0  0  0  0  0  0
   69.0976   47.5318   51.8102 C   0  0  0  0  0  0  0  0  0  0  0  0
   68.5386   46.7220   51.0527 O   0  0  0  0  0  0  0  0  0  0  0  0
   68.9132   47.3531   53.1705 C   0  0  0  0  0  0  0  0  0  0  0  0
   68.1223   46.3394   53.6626 C   0  0  0  0  0  0  0  0  0  0  0  0
   67.9442   46.2206   55.0185 C   0  0  0  0  0  0  0  0  0  0  0  0
   68.5462   47.1041   55.8730 C   0  0  0  0  0  0  0  0  0  0  0  0
   69.3344   48.1112   55.3707 C   0  0  0  0  0  0  0  0  0  0  0  0
   69.5527   48.2764   54.0215 C   0  0  0  0  0  0  0  0  0  0  0  0
   71.2118   52.5364   55.2621 C   0  0  0  0  0  0  0  0  0  0  0  0
   70.2923   53.1190   56.3343 C   0  0  0  0  0  0  0  0  0  0  0  0
   69.4205   52.0604   56.9293 C   0  0  0  0  0  0  0  0  0  0  0  0
   68.1057   51.9519   56.5194 C   0  0  0  0  0  0  0  0  0  0  0  0
   67.3201   50.9791   57.0735 C   0  0  0  0  0  0  0  0  0  0  0  0
   67.8058   50.1049   58.0320 C   0  0  0  0  0  0  0  0  0  0  0  0
   69.1225   50.2172   58.4392 C   0  0  0  0  0  0  0  0  0  0  0  0
   69.8891   51.1977   57.8704 C   0  0  0  0  0  0  0  0  0  0  0  0
   71.1887   51.2844   58.2950 F   0  0  0  0  0  0  0  0  0  0  0  0
  1  2  2  0
  2  3  1  0
  2  4  1  0
  3 15  1  0
 15 16  1  0
 16 17  1  0
 17 18  2  0
 17 22  1  0
 18 19  1  0
 19 20  2  0
 20 21  1  0
 21 22  2  0
 22 23  1  0
  4  5  2  0
  4 14  1  0
  5  6  1  0
  6  7  1  0
  7  8  2  0
  7  9  1  0
  9 10  1  0
  9 14  2  0
 10 11  2  0
 11 12  1  0
 12 13  2  0
 13 14  1  0
M  END
>  <minimizedAffinity>  (637) 
-8.51007

$$$$
cs_full_output_folder/data/smiles/422.pdb
     RDKit          3D

 23 24  0  0  0  0  0  0  0  0999 V2000
   69.7552   50.1294   56.8730 C   0  0  0  0  0  0  0  0  0  0  0  0
   68.8724   51.0756   57.3567 C   0  0  0  0  0  0  0  0  0  0  0  0
   68.1196   51.8585   56.4721 C   0  0  0  0  0  0  0  0  0  0  0  0
   68.2824   51.6621   55.1085 C   0  0  0  0  0  0  0  0  0  0  0  0
   69.1570   50.7252   54.5985 C   0  0  0  0  0  0  0  0  0  0  0  0
   69.8679   49.9870   55.5301 C   0  0  0  0  0  0  0  0  0  0  0  0
   71.1271   48.6563   58.6261 C   0  0  0  0  0  0  0  0  0  0  0  0
   70.5065   49.3321   57.8410 C   0  0  0  0  0  0  0  0  0  0  0  0
   72.4306   47.1460   60.3256 C   0  0  0  0  0  0  0  0  0  0  0  0
   71.8375   47.8470   59.5451 C   0  0  0  0  0  0  0  0  0  0  0  0
   73.1663   46.3060   61.2758 C   0  0  0  0  0  0  0  0  0  0  0  0
   71.4914   44.5940   61.2884 O   0  0  0  0  0  0  0  0  0  0  0  0
   72.6663   44.8884   61.2252 C   0  0  0  0  0  0  0  0  0  0  0  0
   69.2919   50.5667   53.1994 N   0  0  0  0  0  0  0  0  0  0  0  0
   70.0128   49.1806   52.4869 S   0  0  0  0  0  0  0  0  0  0  0  0
   70.0672   49.3175   50.9769 O   0  0  0  0  0  0  0  0  0  0  0  0
   71.4344   49.0740   52.9482 O   0  0  0  0  0  0  0  0  0  0  0  0
   69.1109   47.7295   52.8372 C   0  0  0  0  0  0  0  0  0  0  0  0
   68.5961   46.9986   51.7931 C   0  0  0  0  0  0  0  0  0  0  0  0
   67.8692   45.8488   52.0558 C   0  0  0  0  0  0  0  0  0  0  0  0
   67.6473   45.4198   53.3338 C   0  0  0  0  0  0  0  0  0  0  0  0
   68.1790   46.1738   54.3743 C   0  0  0  0  0  0  0  0  0  0  0  0
   68.9063   47.3227   54.1283 C   0  0  0  0  0  0  0  0  0  0  0  0
 12 13  2  0
 13 11  1  0
 11  9  1  0
  9 10  3  0
 10  7  1  0
  7  8  3  0
  8  1  1  0
  1  2  2  0
  1  6  1  0
  2  3  1  0
  3  4  2  0
  4  5  1  0
  5 14  1  0
  5  6  2  0
 14 15  1  0
 15 16  2  0
 15 17  2  0
 15 18  1  0
 18 19  2  0
 18 23  1  0
 19 20  1  0
 20 21  2  0
 21 22  1  0
 22 23  2  0
M  END
>  <minimizedAffinity>  (638) 
-8.50874

$$$$
cs_full_output_folder/data/smiles/7264.pdb
     RDKit          3D

 26 29  0  0  0  0  0  0  0  0999 V2000
   72.9371   35.3264   52.1018 O   0  0  0  0  0  0  0  0  0  0  0  0
   73.8408   34.9327   52.8746 C   0  0  0  0  0  0  0  0  0  0  0  0
   74.9149   34.2124   52.2739 N   0  0  0  0  0  0  0  0  0  0  0  0
   74.9695   33.9491   50.8796 C   0  0  0  0  0  0  0  0  0  0  0  0
   74.0786   33.1652   50.1965 C   0  0  0  0  0  0  0  0  0  0  0  0
   74.1744   32.9385   48.8340 C   0  0  0  0  0  0  0  0  0  0  0  0
   75.1979   33.5155   48.1249 C   0  0  0  0  0  0  0  0  0  0  0  0
   76.1226   34.3177   48.7780 C   0  0  0  0  0  0  0  0  0  0  0  0
   77.1384   34.8812   48.0354 C   0  0  0  0  0  0  0  0  0  0  0  0
   78.0718   35.6813   48.6545 C   0  0  0  0  0  0  0  0  0  0  0  0
   77.9662   35.8973   49.9992 C   0  0  0  0  0  0  0  0  0  0  0  0
   76.9515   35.3292   50.7193 C   0  0  0  0  0  0  0  0  0  0  0  0
   75.9853   34.5138   50.1399 C   0  0  0  0  0  0  0  0  0  0  0  0
   73.8296   35.1781   54.3131 C   0  0  0  0  0  0  0  0  0  0  0  0
   72.7734   35.5791   55.1032 C   0  0  0  0  0  0  0  0  0  0  0  0
   73.1875   35.6959   56.4211 C   0  0  0  0  0  0  0  0  0  0  0  0
   74.4894   35.3620   56.3944 N   0  0  0  0  0  0  0  0  0  0  0  0
   74.8695   35.0572   55.1557 N   0  0  0  0  0  0  0  0  0  0  0  0
   72.3502   36.0984   57.5466 C   0  0  0  0  0  0  0  0  0  0  0  0
   71.9619   37.4130   57.6800 C   0  0  0  0  0  0  0  0  0  0  0  0
   71.1588   37.7953   58.7598 C   0  0  0  0  0  0  0  0  0  0  0  0
   70.7345   36.8919   59.7103 C   0  0  0  0  0  0  0  0  0  0  0  0
   69.9363   37.2903   60.7767 O   0  0  0  0  0  0  0  0  0  0  0  0
   71.1291   35.5735   59.5683 C   0  0  0  0  0  0  0  0  0  0  0  0
   71.9209   35.2028   58.5013 C   0  0  0  0  0  0  0  0  0  0  0  0
   72.3055   33.8757   58.3776 O   0  0  0  0  0  0  0  0  0  0  0  0
  1  2  2  0
  2  3  1  0
  2 14  1  0
  3  4  1  0
  4  5  2  0
  4 13  1  0
  5  6  1  0
  6  7  2  0
  7  8  1  0
  8  9  1  0
  8 13  2  0
  9 10  2  0
 10 11  1  0
 11 12  2  0
 12 13  1  0
 14 15  2  0
 14 18  1  0
 15 16  1  0
 16 19  1  0
 16 17  2  0
 19 20  2  0
 19 25  1  0
 20 21  1  0
 21 22  2  0
 22 23  1  0
 22 24  1  0
 24 25  2  0
 25 26  1  0
 17 18  1  0
M  END
>  <minimizedAffinity>  (639) 
-8.50749

$$$$
cs_full_output_folder/data/smiles/4267.pdb
     RDKit          3D

 23 25  0  0  0  0  0  0  0  0999 V2000
   69.8668   44.7442   57.4026 C   0  0  0  0  0  0  0  0  0  0  0  0
   70.7485   45.2425   58.3690 C   0  0  0  0  0  0  0  0  0  0  0  0
   70.9381   46.6032   58.4462 C   0  0  0  0  0  0  0  0  0  0  0  0
   71.7830   47.1281   59.3669 F   0  0  0  0  0  0  0  0  0  0  0  0
   70.2476   47.4435   57.5630 C   0  0  0  0  0  0  0  0  0  0  0  0
   70.4848   48.6570   57.7049 O   0  0  0  0  0  0  0  0  0  0  0  0
   69.4065   47.0006   56.6401 N   0  0  0  0  0  0  0  0  0  0  0  0
   69.2389   45.6330   56.5880 C   0  0  0  0  0  0  0  0  0  0  0  0
   70.6579   42.5017   57.4075 O   0  0  0  0  0  0  0  0  0  0  0  0
   69.6665   43.2952   57.3206 C   0  0  0  0  0  0  0  0  0  0  0  0
   68.3989   42.6947   57.1445 N   0  0  0  0  0  0  0  0  0  0  0  0
   68.2288   41.2470   57.0662 C   0  0  0  0  0  0  0  0  0  0  0  0
   67.8246   40.8355   55.8324 F   0  0  0  0  0  0  0  0  0  0  0  0
   68.6412   47.8185   55.7168 C   0  0  0  0  0  0  0  0  0  0  0  0
   68.6447   47.3446   54.3266 C   0  0  0  0  0  0  0  0  0  0  0  0
   67.7662   46.3103   53.9889 C   0  0  0  0  0  0  0  0  0  0  0  0
   67.6758   45.8733   52.6939 C   0  0  0  0  0  0  0  0  0  0  0  0
   68.4303   46.4156   51.6788 C   0  0  0  0  0  0  0  0  0  0  0  0
   69.3107   47.4403   51.9838 C   0  0  0  0  0  0  0  0  0  0  0  0
   70.1842   48.1448   51.2287 N   0  0  0  0  0  0  0  0  0  0  0  0
   70.7850   48.9733   52.0227 N   0  0  0  0  0  0  0  0  0  0  0  0
   70.3480   48.8541   53.2891 C   0  0  0  0  0  0  0  0  0  0  0  0
   69.3951   47.8789   53.3074 C   0  0  0  0  0  0  0  0  0  0  0  0
  9 10  2  0
 10 11  1  0
 10  1  1  0
 11 12  1  0
 12 13  1  0
  1  2  1  0
  1  8  2  0
  2  3  2  0
  3  4  1  0
  3  5  1  0
  5  6  2  0
  5  7  1  0
  7 14  1  0
  7  8  1  0
 14 15  1  0
 15 16  2  0
 15 23  1  0
 16 17  1  0
 17 18  2  0
 18 19  1  0
 19 20  1  0
 19 23  2  0
 20 21  1  0
 21 22  2  0
 22 23  1  0
M  END
>  <minimizedAffinity>  (640) 
-8.50537

$$$$
cs_full_output_folder/data/smiles/489.pdb
     RDKit          3D

 25 28  0  0  0  0  0  0  0  0999 V2000
   69.8203   47.9021   57.2922 C   0  0  0  0  0  0  0  0  0  0  0  0
   70.5478   48.8194   58.0678 C   0  0  0  0  0  0  0  0  0  0  0  0
   71.5003   48.3890   58.9550 C   0  0  0  0  0  0  0  0  0  0  0  0
   71.7592   47.0419   59.0998 C   0  0  0  0  0  0  0  0  0  0  0  0
   72.7104   46.5940   59.9827 F   0  0  0  0  0  0  0  0  0  0  0  0
   71.0731   46.0987   58.3632 C   0  0  0  0  0  0  0  0  0  0  0  0
   70.1162   46.5775   57.4758 C   0  0  0  0  0  0  0  0  0  0  0  0
   71.3535   44.7286   58.5262 N   0  0  0  0  0  0  0  0  0  0  0  0
   72.5293   44.1404   57.9498 C   0  0  0  0  0  0  0  0  0  0  0  0
   72.4031   42.6272   58.1093 C   0  0  0  0  0  0  0  0  0  0  0  0
   71.0424   42.2059   57.6234 C   0  0  0  0  0  0  0  0  0  0  0  0
   69.9827   42.6718   58.5872 C   0  0  0  0  0  0  0  0  0  0  0  0
   70.4526   43.9050   59.2819 C   0  0  0  0  0  0  0  0  0  0  0  0
   68.7760   48.4171   56.3583 C   0  0  0  0  0  0  0  0  0  0  0  0
   70.6139   48.7963   51.1708 O   0  0  0  0  0  0  0  0  0  0  0  0
   70.1590   48.6799   52.3463 C   0  0  0  0  0  0  0  0  0  0  0  0
   70.5192   49.5308   53.3212 N   0  0  0  0  0  0  0  0  0  0  0  0
   70.0702   49.4453   54.5554 N   0  0  0  0  0  0  0  0  0  0  0  0
   69.1897   48.4721   54.9554 C   0  0  0  0  0  0  0  0  0  0  0  0
   68.7919   47.5823   53.9954 C   0  0  0  0  0  0  0  0  0  0  0  0
   67.8930   46.5790   54.3112 C   0  0  0  0  0  0  0  0  0  0  0  0
   67.5040   45.7039   53.3151 C   0  0  0  0  0  0  0  0  0  0  0  0
   67.9817   45.8055   52.0371 C   0  0  0  0  0  0  0  0  0  0  0  0
   68.8830   46.8055   51.6985 C   0  0  0  0  0  0  0  0  0  0  0  0
   69.2726   47.6789   52.6875 C   0  0  0  0  0  0  0  0  0  0  0  0
 15 16  2  0
 16 17  1  0
 16 25  1  0
 17 18  1  0
 18 19  2  0
 19 14  1  0
 19 20  1  0
 14  1  1  0
  1  2  2  0
  1  7  1  0
  2  3  1  0
  3  4  2  0
  4  5  1  0
  4  6  1  0
  6  8  1  0
  6  7  2  0
  8  9  1  0
  8 13  1  0
  9 10  1  0
 10 11  1  0
 11 12  1  0
 12 13  1  0
 20 21  1  0
 20 25  2  0
 21 22  2  0
 22 23  1  0
 23 24  2  0
 24 25  1  0
M  END
>  <minimizedAffinity>  (641) 
-8.50473

$$$$
cs_full_output_folder/data/smiles/400.pdb
     RDKit          3D

 24 26  0  0  0  0  0  0  0  0999 V2000
   69.6906   47.6307   58.0770 O   0  0  0  0  0  0  0  0  0  0  0  0
   70.6480   46.6932   57.7037 C   0  0  0  0  0  0  0  0  0  0  0  0
   69.7722   44.9096   59.0599 O   0  0  0  0  0  0  0  0  0  0  0  0
   70.0781   45.3397   57.9036 C   0  0  0  0  0  0  0  0  0  0  0  0
   69.8408   44.4470   56.8235 N   0  0  0  0  0  0  0  0  0  0  0  0
   69.2939   43.1526   57.0265 C   0  0  0  0  0  0  0  0  0  0  0  0
   69.8322   42.2221   57.8846 C   0  0  0  0  0  0  0  0  0  0  0  0
   69.2823   40.9696   58.0642 C   0  0  0  0  0  0  0  0  0  0  0  0
   68.1544   40.6382   57.3596 C   0  0  0  0  0  0  0  0  0  0  0  0
   67.5908   41.5385   56.4969 C   0  0  0  0  0  0  0  0  0  0  0  0
   68.1590   42.7963   56.3283 C   0  0  0  0  0  0  0  0  0  0  0  0
   67.6037   43.6960   55.4711 F   0  0  0  0  0  0  0  0  0  0  0  0
   68.5635   47.9880   56.8466 P   0  0  0  0  0  0  0  0  0  0  0  0
   69.3417   48.4547   55.2661 C   0  0  0  0  0  0  0  0  0  0  0  0
   70.2269   49.4827   55.1311 C   0  0  0  0  0  0  0  0  0  0  0  0
   70.7683   49.7602   53.8754 C   0  0  0  0  0  0  0  0  0  0  0  0
   71.5747   50.6949   53.7500 O   0  0  0  0  0  0  0  0  0  0  0  0
   70.4433   49.0463   52.7949 N   0  0  0  0  0  0  0  0  0  0  0  0
   69.5672   48.0187   52.8919 C   0  0  0  0  0  0  0  0  0  0  0  0
   69.2400   47.2924   51.7761 C   0  0  0  0  0  0  0  0  0  0  0  0
   68.3493   46.2553   51.9036 C   0  0  0  0  0  0  0  0  0  0  0  0
   67.7899   45.9460   53.1258 C   0  0  0  0  0  0  0  0  0  0  0  0
   68.1115   46.6681   54.2472 C   0  0  0  0  0  0  0  0  0  0  0  0
   69.0101   47.7197   54.1401 C   0  0  0  0  0  0  0  0  0  0  0  0
  3  4  2  0
  4  2  1  0
  4  5  1  0
  2  1  1  0
  1 13  1  0
 13 14  1  0
 14 15  2  0
 14 24  1  0
 15 16  1  0
 16 17  2  0
 16 18  1  0
 18 19  1  0
 19 20  1  0
 19 24  2  0
 20 21  2  0
 21 22  1  0
 22 23  2  0
 23 24  1  0
  5  6  1  0
  6  7  2  0
  6 11  1  0
  7  8  1  0
  8  9  2  0
  9 10  1  0
 10 11  2  0
 11 12  1  0
M  END
>  <minimizedAffinity>  (642) 
-8.50423

$$$$
cs_full_output_folder/data/smiles/1602.pdb
     RDKit          3D

 22 24  0  0  0  0  0  0  0  0999 V2000
   69.5374   50.7542   53.1519 N   0  0  0  0  0  0  0  0  0  0  0  0
   69.3868   51.1304   54.5121 C   0  0  0  0  0  0  0  0  0  0  0  0
   68.2332   50.9033   55.2298 C   0  0  0  0  0  0  0  0  0  0  0  0
   68.1398   51.2856   56.5504 C   0  0  0  0  0  0  0  0  0  0  0  0
   66.6526   50.9868   57.4500 Cl  0  0  0  0  0  0  0  0  0  0  0  0
   69.1695   51.9052   57.2249 C   0  0  0  0  0  0  0  0  0  0  0  0
   70.3183   52.1267   56.4961 C   0  0  0  0  0  0  0  0  0  0  0  0
   70.4330   51.7508   55.1729 C   0  0  0  0  0  0  0  0  0  0  0  0
   71.7134   52.0241   54.4630 C   0  0  0  0  0  0  0  0  0  0  0  0
   72.6719   51.0320   54.8923 N   0  0  0  0  0  0  0  0  0  0  0  0
   73.8865   50.3697   54.7022 N   0  0  0  0  0  0  0  0  0  0  0  0
   73.0843   50.0520   55.7555 N   0  0  0  0  0  0  0  0  0  0  0  0
   70.0479   49.2221   51.0870 O   0  0  0  0  0  0  0  0  0  0  0  0
   70.1301   49.2571   52.5856 S   0  0  0  0  0  0  0  0  0  0  0  0
   71.5831   49.1418   52.9465 O   0  0  0  0  0  0  0  0  0  0  0  0
   69.2225   47.8769   53.1823 C   0  0  0  0  0  0  0  0  0  0  0  0
   69.1723   47.6846   54.5659 C   0  0  0  0  0  0  0  0  0  0  0  0
   68.4583   46.6089   55.0429 C   0  0  0  0  0  0  0  0  0  0  0  0
   67.8158   45.7522   54.1604 C   0  0  0  0  0  0  0  0  0  0  0  0
   67.8695   45.9480   52.7966 C   0  0  0  0  0  0  0  0  0  0  0  0
   67.2522   45.1312   51.9083 F   0  0  0  0  0  0  0  0  0  0  0  0
   68.5876   47.0333   52.3022 C   0  0  0  0  0  0  0  0  0  0  0  0
 13 14  2  0
 14 15  2  0
 14  1  1  0
 14 16  1  0
  1  2  1  0
  2  3  2  0
  2  8  1  0
  3  4  1  0
  4  5  1  0
  4  6  2  0
  6  7  1  0
  7  8  2  0
  8  9  1  0
  9 10  1  0
 10 11  1  0
 10 12  1  0
 11 12  2  0
 16 17  2  0
 16 22  1  0
 17 18  1  0
 18 19  2  0
 19 20  1  0
 20 21  1  0
 20 22  2  0
M  END
>  <minimizedAffinity>  (643) 
-8.50388

$$$$
cs_full_output_folder/data/smiles/8906.pdb
     RDKit          3D

 25 27  0  0  0  0  0  0  0  0999 V2000
   71.4920   47.0133   58.7382 C   0  0  0  0  0  0  0  0  0  0  0  0
   70.6788   47.7890   57.9397 C   0  0  0  0  0  0  0  0  0  0  0  0
   69.7382   47.2634   57.0500 C   0  0  0  0  0  0  0  0  0  0  0  0
   69.6421   45.9133   56.9899 C   0  0  0  0  0  0  0  0  0  0  0  0
   70.4313   45.1068   57.7650 C   0  0  0  0  0  0  0  0  0  0  0  0
   71.3471   45.6572   58.6299 C   0  0  0  0  0  0  0  0  0  0  0  0
   72.1845   44.7354   59.4328 C   0  0  0  0  0  0  0  0  0  0  0  0
   73.5137   44.8485   59.1283 F   0  0  0  0  0  0  0  0  0  0  0  0
   71.8293   43.4104   59.1684 F   0  0  0  0  0  0  0  0  0  0  0  0
   71.9344   44.8760   60.8047 F   0  0  0  0  0  0  0  0  0  0  0  0
   73.5860   48.0231   59.3453 O   0  0  0  0  0  0  0  0  0  0  0  0
   72.4435   47.6509   59.6565 C   0  0  0  0  0  0  0  0  0  0  0  0
   72.0609   47.8625   60.9749 O   0  0  0  0  0  0  0  0  0  0  0  0
   68.8832   48.1781   56.2518 C   0  0  0  0  0  0  0  0  0  0  0  0
   69.2607   48.3191   54.8474 C   0  0  0  0  0  0  0  0  0  0  0  0
   70.1619   49.2816   54.4927 N   0  0  0  0  0  0  0  0  0  0  0  0
   70.6093   49.4712   53.2774 N   0  0  0  0  0  0  0  0  0  0  0  0
   70.1773   48.6891   52.2813 C   0  0  0  0  0  0  0  0  0  0  0  0
   70.5622   48.8107   51.0858 O   0  0  0  0  0  0  0  0  0  0  0  0
   69.2658   47.6991   52.5743 C   0  0  0  0  0  0  0  0  0  0  0  0
   68.7755   46.8659   51.5713 C   0  0  0  0  0  0  0  0  0  0  0  0
   67.8558   45.8745   51.8203 C   0  0  0  0  0  0  0  0  0  0  0  0
   67.4140   45.7160   53.1150 C   0  0  0  0  0  0  0  0  0  0  0  0
   67.8649   46.5095   54.1416 C   0  0  0  0  0  0  0  0  0  0  0  0
   68.7877   47.4957   53.8661 C   0  0  0  0  0  0  0  0  0  0  0  0
 11 12  2  0
 12 13  1  0
 12  1  1  0
  1  2  2  0
  1  6  1  0
  2  3  1  0
  3 14  1  0
  3  4  2  0
 14 15  1  0
 15 16  2  0
 15 25  1  0
 16 17  1  0
 17 18  1  0
 18 19  2  0
 18 20  1  0
 20 21  1  0
 20 25  2  0
 21 22  2  0
 22 23  1  0
 23 24  2  0
 24 25  1  0
  4  5  1  0
  5  6  2  0
  6  7  1  0
  7  8  1  0
  7  9  1  0
  7 10  1  0
M  END
>  <minimizedAffinity>  (644) 
-8.50364

$$$$
cs_full_output_folder/data/smiles/7848.pdb
     RDKit          3D

 22 24  0  0  0  0  0  0  0  0999 V2000
   69.7386   48.9766   52.8205 C   0  0  0  0  0  0  0  0  0  0  0  0
   70.3166   48.8356   51.5744 N   0  0  0  0  0  0  0  0  0  0  0  0
   70.0345   47.6659   51.0518 N   0  0  0  0  0  0  0  0  0  0  0  0
   69.2697   46.9989   51.9249 C   0  0  0  0  0  0  0  0  0  0  0  0
   69.0733   47.8023   53.0389 C   0  0  0  0  0  0  0  0  0  0  0  0
   70.1399   53.7632   55.8793 O   0  0  0  0  0  0  0  0  0  0  0  0
   70.0491   52.5852   55.1279 C   0  0  0  0  0  0  0  0  0  0  0  0
   68.8507   52.1114   54.6570 C   0  0  0  0  0  0  0  0  0  0  0  0
   68.7764   50.9499   53.9175 C   0  0  0  0  0  0  0  0  0  0  0  0
   69.9029   50.1727   53.5939 C   0  0  0  0  0  0  0  0  0  0  0  0
   71.0785   50.6768   54.0798 C   0  0  0  0  0  0  0  0  0  0  0  0
   72.2337   49.9979   53.8221 O   0  0  0  0  0  0  0  0  0  0  0  0
   71.1630   51.8493   54.8277 C   0  0  0  0  0  0  0  0  0  0  0  0
   68.3554   47.4802   54.1336 O   0  0  0  0  0  0  0  0  0  0  0  0
   68.9025   47.0904   55.3295 C   0  0  0  0  0  0  0  0  0  0  0  0
   69.4883   47.9875   56.2096 C   0  0  0  0  0  0  0  0  0  0  0  0
   70.0406   47.6032   57.4143 C   0  0  0  0  0  0  0  0  0  0  0  0
   70.0273   46.2785   57.7959 C   0  0  0  0  0  0  0  0  0  0  0  0
   70.5615   45.8830   58.9710 F   0  0  0  0  0  0  0  0  0  0  0  0
   69.4477   45.3713   56.9331 C   0  0  0  0  0  0  0  0  0  0  0  0
   68.8951   45.7672   55.7228 C   0  0  0  0  0  0  0  0  0  0  0  0
   68.3374   44.8152   54.9143 F   0  0  0  0  0  0  0  0  0  0  0  0
  6  7  1  0
  7  8  2  0
  7 13  1  0
  8  9  1  0
  9 10  2  0
 10  1  1  0
 10 11  1  0
  1  2  1  0
  1  5  2  0
  2  3  1  0
  3  4  2  0
  4  5  1  0
  5 14  1  0
 14 15  1  0
 15 16  2  0
 15 21  1  0
 16 17  1  0
 17 18  2  0
 18 19  1  0
 18 20  1  0
 20 21  2  0
 21 22  1  0
 11 12  1  0
 11 13  2  0
M  END
>  <minimizedAffinity>  (645) 
-8.50146

$$$$
cs_full_output_folder/data/smiles/927.pdb
     RDKit          3D

 23 25  0  0  0  0  0  0  0  0999 V2000
   68.7801   43.7609   56.4469 C   0  0  0  0  0  0  0  0  0  0  0  0
   69.8804   44.3468   56.9463 N   0  0  0  0  0  0  0  0  0  0  0  0
   70.8176   43.6434   57.6399 C   0  0  0  0  0  0  0  0  0  0  0  0
   71.9469   44.2501   58.1499 C   0  0  0  0  0  0  0  0  0  0  0  0
   72.8606   43.4915   58.8431 C   0  0  0  0  0  0  0  0  0  0  0  0
   72.6596   42.1420   59.0308 C   0  0  0  0  0  0  0  0  0  0  0  0
   71.5274   41.5744   58.5104 C   0  0  0  0  0  0  0  0  0  0  0  0
   70.5713   42.2960   57.8013 C   0  0  0  0  0  0  0  0  0  0  0  0
   69.4712   41.6987   57.3063 N   0  0  0  0  0  0  0  0  0  0  0  0
   68.5457   42.4143   56.6155 C   0  0  0  0  0  0  0  0  0  0  0  0
   67.3487   41.7742   56.0742 C   0  0  0  0  0  0  0  0  0  0  0  0
   66.2312   42.3062   56.2832 O   0  0  0  0  0  0  0  0  0  0  0  0
   67.4024   40.6106   55.3438 O   0  0  0  0  0  0  0  0  0  0  0  0
   67.8681   44.5419   55.7499 O   0  0  0  0  0  0  0  0  0  0  0  0
   68.8946   46.9558   53.3413 C   0  0  0  0  0  0  0  0  0  0  0  0
   68.8174   47.7509   54.4603 C   0  0  0  0  0  0  0  0  0  0  0  0
   68.4175   46.9073   55.4887 C   0  0  0  0  0  0  0  0  0  0  0  0
   68.2594   45.6305   54.9957 C   0  0  0  0  0  0  0  0  0  0  0  0
   68.5530   45.6794   53.6923 N   0  0  0  0  0  0  0  0  0  0  0  0
   69.2795   47.3628   51.9626 C   0  0  0  0  0  0  0  0  0  0  0  0
   69.7154   49.6152   51.2475 O   0  0  0  0  0  0  0  0  0  0  0  0
   70.0390   48.6346   51.9612 C   0  0  0  0  0  0  0  0  0  0  0  0
   71.1449   48.7144   52.7922 O   0  0  0  0  0  0  0  0  0  0  0  0
 21 22  2  0
 22 23  1  0
 22 20  1  0
 20 15  1  0
 15 16  2  0
 15 19  1  0
 16 17  1  0
 17 18  2  0
 18 14  1  0
 18 19  1  0
 14  1  1  0
  1  2  2  0
  1 10  1  0
  2  3  1  0
  3  4  2  0
  3  8  1  0
  4  5  1  0
  5  6  2  0
  6  7  1  0
  7  8  2  0
  8  9  1  0
  9 10  2  0
 10 11  1  0
 11 12  2  0
 11 13  1  0
M  END
>  <minimizedAffinity>  (646) 
-8.50102

$$$$
