cs_full_output_folder/data/smiles/1640.pdb
     RDKit          3D

 31 33  0  0  0  0  0  0  0  0999 V2000
   68.9774   47.6832   52.5737 C   0  0  0  0  0  0  0  0  0  0  0  0
   68.3918   47.0954   51.4795 C   0  0  0  0  0  0  0  0  0  0  0  0
   67.7319   45.8792   51.6057 C   0  0  0  0  0  0  0  0  0  0  0  0
   67.6872   45.2905   52.8535 C   0  0  0  0  0  0  0  0  0  0  0  0
   68.2613   45.8426   53.9782 C   0  0  0  0  0  0  0  0  0  0  0  0
   68.9023   47.0452   53.8115 C   0  0  0  0  0  0  0  0  0  0  0  0
   69.8191   49.2120   52.4894 S   0  0  0  0  0  0  0  0  0  0  0  0
   71.1863   48.9853   53.0671 O   0  0  0  0  0  0  0  0  0  0  0  0
   70.0457   49.6072   51.0455 O   0  0  0  0  0  0  0  0  0  0  0  0
   68.9812   50.4627   53.3314 N   0  0  0  0  0  0  0  0  0  0  0  0
   68.6562   53.0588   54.4300 N   0  0  0  0  0  0  0  0  0  0  0  0
   68.8335   51.9169   55.2523 C   0  0  0  0  0  0  0  0  0  0  0  0
   68.8409   52.0919   56.6188 C   0  0  0  0  0  0  0  0  0  0  0  0
   68.6774   53.3445   57.1047 F   0  0  0  0  0  0  0  0  0  0  0  0
   69.0078   51.0416   57.4900 C   0  0  0  0  0  0  0  0  0  0  0  0
   69.1707   49.7804   56.9685 C   0  0  0  0  0  0  0  0  0  0  0  0
   69.1631   49.6061   55.5909 C   0  0  0  0  0  0  0  0  0  0  0  0
   68.9972   50.6563   54.7175 C   0  0  0  0  0  0  0  0  0  0  0  0
   68.1651   45.1470   55.2541 C   0  0  0  0  0  0  0  0  0  0  0  0
   68.4509   45.7679   56.3074 O   0  0  0  0  0  0  0  0  0  0  0  0
   67.7630   43.7968   55.3894 N   0  0  0  0  0  0  0  0  0  0  0  0
   67.6786   43.1572   56.6390 N   0  0  0  0  0  0  0  0  0  0  0  0
   67.4624   41.7756   56.7737 C   0  0  0  0  0  0  0  0  0  0  0  0
   67.3470   41.1489   55.6693 O   0  0  0  0  0  0  0  0  0  0  0  0
   67.3562   41.0062   57.9969 C   0  0  0  0  0  0  0  0  0  0  0  0
   66.6279   41.5102   59.0839 C   0  0  0  0  0  0  0  0  0  0  0  0
   66.4974   40.8266   60.2689 C   0  0  0  0  0  0  0  0  0  0  0  0
   67.0820   39.5945   60.4550 C   0  0  0  0  0  0  0  0  0  0  0  0
   67.8036   39.0713   59.4075 C   0  0  0  0  0  0  0  0  0  0  0  0
   67.9320   39.7781   58.1987 C   0  0  0  0  0  0  0  0  0  0  0  0
   68.6563   39.1928   57.2167 F   0  0  0  0  0  0  0  0  0  0  0  0
 11 12  1  0
 12 13  2  0
 12 18  1  0
 13 14  1  0
 13 15  1  0
 15 16  2  0
 16 17  1  0
 17 18  2  0
 18 10  1  0
 10  7  1  0
  7  8  2  0
  7  9  2  0
  7  1  1  0
  1  2  2  0
  1  6  1  0
  2  3  1  0
  3  4  2  0
  4  5  1  0
  5 19  1  0
  5  6  2  0
 19 20  2  0
 19 21  1  0
 21 22  1  0
 22 23  1  0
 23 24  2  0
 23 25  1  0
 25 26  2  0
 25 30  1  0
 26 27  1  0
 27 28  2  0
 28 29  1  0
 29 30  2  0
 30 31  1  0
M  END
>  <minimizedAffinity>  (1) 
-10.74809

$$$$
cs_full_output_folder/data/smiles/1433.pdb
     RDKit          3D

 29 31  0  0  0  0  0  0  0  0999 V2000
   68.3299   45.9690   53.9950 C   0  0  0  0  0  0  0  0  0  0  0  0
   67.8360   45.4974   52.8210 C   0  0  0  0  0  0  0  0  0  0  0  0
   67.9928   46.2640   51.6592 C   0  0  0  0  0  0  0  0  0  0  0  0
   68.6374   47.4838   51.6822 C   0  0  0  0  0  0  0  0  0  0  0  0
   69.1415   47.9666   52.8753 C   0  0  0  0  0  0  0  0  0  0  0  0
   68.9722   47.1899   54.0026 C   0  0  0  0  0  0  0  0  0  0  0  0
   68.4704   45.8388   56.3628 O   0  0  0  0  0  0  0  0  0  0  0  0
   68.2263   45.2607   55.2650 C   0  0  0  0  0  0  0  0  0  0  0  0
   67.8519   43.8936   55.3713 N   0  0  0  0  0  0  0  0  0  0  0  0
   67.7627   43.2375   56.6321 N   0  0  0  0  0  0  0  0  0  0  0  0
   67.4411   41.8715   56.7338 C   0  0  0  0  0  0  0  0  0  0  0  0
   67.2417   41.2870   55.6065 O   0  0  0  0  0  0  0  0  0  0  0  0
   67.3166   41.0785   57.9354 C   0  0  0  0  0  0  0  0  0  0  0  0
   66.6037   41.6008   59.0250 C   0  0  0  0  0  0  0  0  0  0  0  0
   66.4263   40.9329   60.2076 C   0  0  0  0  0  0  0  0  0  0  0  0
   66.9726   39.6734   60.3608 C   0  0  0  0  0  0  0  0  0  0  0  0
   67.6821   39.1156   59.3211 C   0  0  0  0  0  0  0  0  0  0  0  0
   67.8419   39.8312   58.1219 C   0  0  0  0  0  0  0  0  0  0  0  0
   68.5415   39.2579   57.1225 F   0  0  0  0  0  0  0  0  0  0  0  0
   69.9675   49.5082   52.9606 S   0  0  0  0  0  0  0  0  0  0  0  0
   69.8859   50.2510   51.6626 O   0  0  0  0  0  0  0  0  0  0  0  0
   71.4377   49.1911   53.1807 O   0  0  0  0  0  0  0  0  0  0  0  0
   69.3786   50.4710   54.2957 C   0  0  0  0  0  0  0  0  0  0  0  0
   69.2466   51.8352   54.1800 C   0  0  0  0  0  0  0  0  0  0  0  0
   68.7790   52.5646   55.2530 C   0  0  0  0  0  0  0  0  0  0  0  0
   68.4339   51.9831   56.4542 C   0  0  0  0  0  0  0  0  0  0  0  0
   68.5655   50.6085   56.5754 C   0  0  0  0  0  0  0  0  0  0  0  0
   68.2241   50.0559   57.7543 F   0  0  0  0  0  0  0  0  0  0  0  0
   69.0364   49.8711   55.4954 C   0  0  0  0  0  0  0  0  0  0  0  0
  7  8  2  0
  8  9  1  0
  8  1  1  0
  9 10  1  0
 10 11  1  0
 11 12  2  0
 11 13  1  0
 13 14  2  0
 13 18  1  0
 14 15  1  0
 15 16  2  0
 16 17  1  0
 17 18  2  0
 18 19  1  0
  1  2  2  0
  1  6  1  0
  2  3  1  0
  3  4  2  0
  4  5  1  0
  5 20  1  0
  5  6  2  0
 20 21  2  0
 20 22  2  0
 20 23  1  0
 23 24  2  0
 23 29  1  0
 24 25  1  0
 25 26  2  0
 26 27  1  0
 27 28  1  0
 27 29  2  0
M  END
>  <minimizedAffinity>  (2) 
-10.67539

$$$$
cs_full_output_folder/data/smiles/3428.pdb
     RDKit          3D

 29 31  0  0  0  0  0  0  0  0999 V2000
   68.3019   45.8290   54.0557 C   0  0  0  0  0  0  0  0  0  0  0  0
   67.6622   45.3252   52.9447 C   0  0  0  0  0  0  0  0  0  0  0  0
   67.7074   45.9831   51.7100 C   0  0  0  0  0  0  0  0  0  0  0  0
   68.4043   47.1630   51.5931 C   0  0  0  0  0  0  0  0  0  0  0  0
   69.0539   47.6848   52.7026 C   0  0  0  0  0  0  0  0  0  0  0  0
   68.9871   47.0087   53.8989 C   0  0  0  0  0  0  0  0  0  0  0  0
   67.7114   43.7572   55.3443 N   0  0  0  0  0  0  0  0  0  0  0  0
   68.2061   45.0845   55.2979 C   0  0  0  0  0  0  0  0  0  0  0  0
   68.5645   45.5963   56.4015 O   0  0  0  0  0  0  0  0  0  0  0  0
   67.5176   41.0071   55.4881 O   0  0  0  0  0  0  0  0  0  0  0  0
   67.5238   41.6252   56.5906 C   0  0  0  0  0  0  0  0  0  0  0  0
   67.6223   43.0395   56.5590 N   0  0  0  0  0  0  0  0  0  0  0  0
   67.4339   40.9116   57.8554 C   0  0  0  0  0  0  0  0  0  0  0  0
   66.7078   41.4929   58.8922 C   0  0  0  0  0  0  0  0  0  0  0  0
   66.5734   40.8851   60.1220 C   0  0  0  0  0  0  0  0  0  0  0  0
   67.1584   39.6624   60.3761 C   0  0  0  0  0  0  0  0  0  0  0  0
   67.8777   39.0795   59.3605 C   0  0  0  0  0  0  0  0  0  0  0  0
   68.0139   39.6940   58.1185 C   0  0  0  0  0  0  0  0  0  0  0  0
   69.9195   49.1820   52.4616 S   0  0  0  0  0  0  0  0  0  0  0  0
   71.2822   49.0243   53.1134 O   0  0  0  0  0  0  0  0  0  0  0  0
   70.0736   49.4746   50.9953 O   0  0  0  0  0  0  0  0  0  0  0  0
   69.0490   50.4406   53.2312 N   0  0  0  0  0  0  0  0  0  0  0  0
   68.9514   50.6674   54.6077 C   0  0  0  0  0  0  0  0  0  0  0  0
   69.1504   49.6400   55.4945 C   0  0  0  0  0  0  0  0  0  0  0  0
   69.0658   49.8503   56.8768 C   0  0  0  0  0  0  0  0  0  0  0  0
   68.7790   51.1071   57.3608 C   0  0  0  0  0  0  0  0  0  0  0  0
   68.5800   52.1336   56.4745 C   0  0  0  0  0  0  0  0  0  0  0  0
   68.6664   51.9143   55.1053 C   0  0  0  0  0  0  0  0  0  0  0  0
   68.4539   52.9929   54.2951 F   0  0  0  0  0  0  0  0  0  0  0  0
 10 11  2  0
 11 12  1  0
 11 13  1  0
 12  7  1  0
  7  8  1  0
  8  9  2  0
  8  1  1  0
  1  2  2  0
  1  6  1  0
  2  3  1  0
  3  4  2  0
  4  5  1  0
  5 19  1  0
  5  6  2  0
 19 20  2  0
 19 21  2  0
 19 22  1  0
 22 23  1  0
 23 24  2  0
 23 28  1  0
 24 25  1  0
 25 26  2  0
 26 27  1  0
 27 28  2  0
 28 29  1  0
 13 14  2  0
 13 18  1  0
 14 15  1  0
 15 16  2  0
 16 17  1  0
 17 18  2  0
M  END
>  <minimizedAffinity>  (3) 
-10.56632

$$$$
cs_full_output_folder/data/smiles/1654.pdb
     RDKit          3D

 30 32  0  0  0  0  0  0  0  0999 V2000
   68.2504   45.8447   53.9499 C   0  0  0  0  0  0  0  0  0  0  0  0
   67.6827   45.3351   52.8105 C   0  0  0  0  0  0  0  0  0  0  0  0
   67.7568   45.9960   51.5842 C   0  0  0  0  0  0  0  0  0  0  0  0
   68.4343   47.2155   51.5338 C   0  0  0  0  0  0  0  0  0  0  0  0
   69.0166   47.7601   52.6527 C   0  0  0  0  0  0  0  0  0  0  0  0
   68.9066   47.0522   53.8358 C   0  0  0  0  0  0  0  0  0  0  0  0
   68.4761   45.8085   56.2849 O   0  0  0  0  0  0  0  0  0  0  0  0
   68.1847   45.1702   55.2400 C   0  0  0  0  0  0  0  0  0  0  0  0
   67.8090   43.8200   55.4060 N   0  0  0  0  0  0  0  0  0  0  0  0
   67.7532   43.1839   56.6785 N   0  0  0  0  0  0  0  0  0  0  0  0
   67.4090   41.8212   56.8158 C   0  0  0  0  0  0  0  0  0  0  0  0
   67.1612   41.2544   55.6791 O   0  0  0  0  0  0  0  0  0  0  0  0
   67.3158   41.0590   58.0315 C   0  0  0  0  0  0  0  0  0  0  0  0
   66.6554   41.5532   59.1567 C   0  0  0  0  0  0  0  0  0  0  0  0
   66.5452   40.8678   60.3244 C   0  0  0  0  0  0  0  0  0  0  0  0
   67.0935   39.6291   60.4430 C   0  0  0  0  0  0  0  0  0  0  0  0
   67.7504   39.1016   59.3659 C   0  0  0  0  0  0  0  0  0  0  0  0
   67.8608   39.8178   58.1635 C   0  0  0  0  0  0  0  0  0  0  0  0
   68.5334   39.1799   57.1839 F   0  0  0  0  0  0  0  0  0  0  0  0
   69.8538   49.2916   52.5622 S   0  0  0  0  0  0  0  0  0  0  0  0
   71.1482   49.1385   53.2886 O   0  0  0  0  0  0  0  0  0  0  0  0
   70.0859   49.6688   51.1285 O   0  0  0  0  0  0  0  0  0  0  0  0
   68.8713   50.4691   53.3526 N   0  0  0  0  0  0  0  0  0  0  0  0
   68.9203   50.7196   54.7328 C   0  0  0  0  0  0  0  0  0  0  0  0
   69.0989   49.7144   55.6839 C   0  0  0  0  0  0  0  0  0  0  0  0
   69.1317   49.9915   57.0338 C   0  0  0  0  0  0  0  0  0  0  0  0
   68.9859   51.2885   57.4483 C   0  0  0  0  0  0  0  0  0  0  0  0
   68.8083   52.3025   56.5374 C   0  0  0  0  0  0  0  0  0  0  0  0
   68.7786   52.0005   55.1992 C   0  0  0  0  0  0  0  0  0  0  0  0
   68.5981   53.0588   54.3470 F   0  0  0  0  0  0  0  0  0  0  0  0
  7  8  2  0
  8  9  1  0
  8  1  1  0
  9 10  1  0
 10 11  1  0
 11 12  2  0
 11 13  1  0
 13 14  2  0
 13 18  1  0
 14 15  1  0
 15 16  2  0
 16 17  1  0
 17 18  2  0
 18 19  1  0
  1  2  2  0
  1  6  1  0
  2  3  1  0
  3  4  2  0
  4  5  1  0
  5 20  1  0
  5  6  2  0
 20 21  2  0
 20 22  2  0
 20 23  1  0
 23 24  1  0
 24 25  2  0
 24 29  1  0
 25 26  1  0
 26 27  2  0
 27 28  1  0
 28 29  2  0
 29 30  1  0
M  END
>  <minimizedAffinity>  (4) 
-10.54213

$$$$
cs_full_output_folder/data/smiles/558.pdb
     RDKit          3D

 30 32  0  0  0  0  0  0  0  0999 V2000
   68.2150   45.7349   53.9158 C   0  0  0  0  0  0  0  0  0  0  0  0
   67.5690   45.2636   52.8028 C   0  0  0  0  0  0  0  0  0  0  0  0
   67.5901   45.9385   51.5889 C   0  0  0  0  0  0  0  0  0  0  0  0
   68.2823   47.1191   51.5008 C   0  0  0  0  0  0  0  0  0  0  0  0
   68.9551   47.6380   52.6053 C   0  0  0  0  0  0  0  0  0  0  0  0
   68.9035   46.9206   53.8032 C   0  0  0  0  0  0  0  0  0  0  0  0
   68.5494   45.6414   56.2305 O   0  0  0  0  0  0  0  0  0  0  0  0
   68.1822   45.0148   55.1774 C   0  0  0  0  0  0  0  0  0  0  0  0
   67.7817   43.6855   55.3554 N   0  0  0  0  0  0  0  0  0  0  0  0
   67.7541   43.0068   56.5722 N   0  0  0  0  0  0  0  0  0  0  0  0
   67.6720   41.5966   56.6916 C   0  0  0  0  0  0  0  0  0  0  0  0
   67.6231   40.9536   55.6120 O   0  0  0  0  0  0  0  0  0  0  0  0
   67.6416   40.8825   57.9509 C   0  0  0  0  0  0  0  0  0  0  0  0
   68.4655   39.8249   58.2687 C   0  0  0  0  0  0  0  0  0  0  0  0
   68.3926   39.1763   59.4907 C   0  0  0  0  0  0  0  0  0  0  0  0
   67.4819   39.5710   60.4450 C   0  0  0  0  0  0  0  0  0  0  0  0
   66.6511   40.6269   60.1428 C   0  0  0  0  0  0  0  0  0  0  0  0
   66.7358   41.2646   58.9157 C   0  0  0  0  0  0  0  0  0  0  0  0
   65.8749   42.3315   58.6475 O   0  0  0  0  0  0  0  0  0  0  0  0
   69.8413   49.1304   52.5157 S   0  0  0  0  0  0  0  0  0  0  0  0
   70.0911   49.4788   51.0517 O   0  0  0  0  0  0  0  0  0  0  0  0
   71.2435   48.8713   53.0638 O   0  0  0  0  0  0  0  0  0  0  0  0
   69.1805   50.4440   53.3504 N   0  0  0  0  0  0  0  0  0  0  0  0
   68.9456   50.5768   54.7393 C   0  0  0  0  0  0  0  0  0  0  0  0
   69.1065   49.5358   55.6139 C   0  0  0  0  0  0  0  0  0  0  0  0
   68.8942   49.6528   56.9883 C   0  0  0  0  0  0  0  0  0  0  0  0
   68.5076   50.8886   57.4490 C   0  0  0  0  0  0  0  0  0  0  0  0
   68.3385   51.9521   56.6006 C   0  0  0  0  0  0  0  0  0  0  0  0
   68.5541   51.8013   55.2632 C   0  0  0  0  0  0  0  0  0  0  0  0
   68.3757   52.8781   54.4550 F   0  0  0  0  0  0  0  0  0  0  0  0
  7  8  2  0
  8  9  1  0
  8  1  1  0
  9 10  1  0
 10 11  1  0
 11 12  2  0
 11 13  1  0
 13 14  2  0
 13 18  1  0
 14 15  1  0
 15 16  2  0
 16 17  1  0
 17 18  2  0
 18 19  1  0
  1  2  2  0
  1  6  1  0
  2  3  1  0
  3  4  2  0
  4  5  1  0
  5 20  1  0
  5  6  2  0
 20 21  2  0
 20 22  2  0
 20 23  1  0
 23 24  1  0
 24 25  2  0
 24 29  1  0
 25 26  1  0
 26 27  2  0
 27 28  1  0
 28 29  2  0
 29 30  1  0
M  END
>  <minimizedAffinity>  (5) 
-10.54210

$$$$
cs_full_output_folder/data/smiles/167.pdb
     RDKit          3D

 30 33  0  0  0  0  0  0  0  0999 V2000
   70.5583   45.8492   58.1752 C   0  0  0  0  0  0  0  0  0  0  0  0
   71.6620   46.4580   58.7184 C   0  0  0  0  0  0  0  0  0  0  0  0
   71.9331   47.7971   58.4835 C   0  0  0  0  0  0  0  0  0  0  0  0
   71.0929   48.5376   57.6964 C   0  0  0  0  0  0  0  0  0  0  0  0
   69.9462   47.9576   57.1163 C   0  0  0  0  0  0  0  0  0  0  0  0
   69.7369   46.6463   57.3855 C   0  0  0  0  0  0  0  0  0  0  0  0
   70.5116   43.4159   57.4595 N   0  0  0  0  0  0  0  0  0  0  0  0
   70.2805   44.4443   58.4035 C   0  0  0  0  0  0  0  0  0  0  0  0
   69.8008   44.1217   59.5169 O   0  0  0  0  0  0  0  0  0  0  0  0
   68.9274   41.5536   57.5287 C   0  0  0  0  0  0  0  0  0  0  0  0
   68.6569   40.2264   57.8163 C   0  0  0  0  0  0  0  0  0  0  0  0
   69.6025   39.3522   58.3153 C   0  0  0  0  0  0  0  0  0  0  0  0
   70.8737   39.8443   58.5321 C   0  0  0  0  0  0  0  0  0  0  0  0
   71.9149   38.9296   59.0654 C   0  0  0  0  0  0  0  0  0  0  0  0
   71.1413   41.1753   58.2435 C   0  0  0  0  0  0  0  0  0  0  0  0
   70.2115   42.0364   57.7524 C   0  0  0  0  0  0  0  0  0  0  0  0
   67.0927   42.2048   55.9906 C   0  0  0  0  0  0  0  0  0  0  0  0
   67.9882   42.4224   57.0326 O   0  0  0  0  0  0  0  0  0  0  0  0
   69.0801   48.8416   56.2964 C   0  0  0  0  0  0  0  0  0  0  0  0
   69.4586   48.7007   54.8737 C   0  0  0  0  0  0  0  0  0  0  0  0
   70.3808   49.5621   54.3421 N   0  0  0  0  0  0  0  0  0  0  0  0
   70.7424   49.5442   53.0836 N   0  0  0  0  0  0  0  0  0  0  0  0
   70.2138   48.6590   52.2292 C   0  0  0  0  0  0  0  0  0  0  0  0
   70.5833   48.6657   51.0148 O   0  0  0  0  0  0  0  0  0  0  0  0
   69.2777   47.7494   52.6689 C   0  0  0  0  0  0  0  0  0  0  0  0
   68.9001   47.7753   54.0105 C   0  0  0  0  0  0  0  0  0  0  0  0
   67.9387   46.7612   54.4982 C   0  0  0  0  0  0  0  0  0  0  0  0
   67.9568   45.5068   53.6335 C   0  0  0  0  0  0  0  0  0  0  0  0
   67.6631   45.9058   52.1976 C   0  0  0  0  0  0  0  0  0  0  0  0
   68.7378   46.8087   51.6742 C   0  0  0  0  0  0  0  0  0  0  0  0
 17 18  1  0
 18 10  1  0
 10 11  2  0
 10 16  1  0
 11 12  1  0
 12 13  2  0
 13 14  1  0
 13 15  1  0
 15 16  2  0
 16  7  1  0
  7  8  1  0
  8  9  2  0
  8  1  1  0
  1  2  2  0
  1  6  1  0
  2  3  1  0
  3  4  2  0
  4  5  1  0
  5 19  1  0
  5  6  2  0
 19 20  1  0
 20 21  2  0
 20 26  1  0
 21 22  1  0
 22 23  1  0
 23 24  2  0
 23 25  1  0
 25 26  2  0
 25 30  1  0
 26 27  1  0
 27 28  1  0
 28 29  1  0
 29 30  1  0
M  END
>  <minimizedAffinity>  (6) 
-10.52620

$$$$
cs_full_output_folder/data/smiles/1552.pdb
     RDKit          3D

 30 32  0  0  0  0  0  0  0  0999 V2000
   68.2145   45.8232   53.8754 C   0  0  0  0  0  0  0  0  0  0  0  0
   67.6188   45.3500   52.7267 C   0  0  0  0  0  0  0  0  0  0  0  0
   67.7087   46.0346   51.5175 C   0  0  0  0  0  0  0  0  0  0  0  0
   68.4202   47.2277   51.4773 C   0  0  0  0  0  0  0  0  0  0  0  0
   69.0287   47.7286   52.6099 C   0  0  0  0  0  0  0  0  0  0  0  0
   68.9027   47.0088   53.7648 C   0  0  0  0  0  0  0  0  0  0  0  0
   68.4120   45.7548   56.1957 O   0  0  0  0  0  0  0  0  0  0  0  0
   68.1254   45.1069   55.1591 C   0  0  0  0  0  0  0  0  0  0  0  0
   67.7435   43.7691   55.2623 N   0  0  0  0  0  0  0  0  0  0  0  0
   67.7013   43.2022   56.5803 N   0  0  0  0  0  0  0  0  0  0  0  0
   67.4202   41.8432   56.7625 C   0  0  0  0  0  0  0  0  0  0  0  0
   67.2064   41.1563   55.7018 O   0  0  0  0  0  0  0  0  0  0  0  0
   67.3446   41.1318   58.0123 C   0  0  0  0  0  0  0  0  0  0  0  0
   66.6310   41.6681   59.0904 C   0  0  0  0  0  0  0  0  0  0  0  0
   66.5643   41.0014   60.2799 C   0  0  0  0  0  0  0  0  0  0  0  0
   67.1913   39.7955   60.4478 C   0  0  0  0  0  0  0  0  0  0  0  0
   67.8918   39.2588   59.4042 C   0  0  0  0  0  0  0  0  0  0  0  0
   67.9739   39.9264   58.1746 C   0  0  0  0  0  0  0  0  0  0  0  0
   68.6903   39.2785   57.2318 F   0  0  0  0  0  0  0  0  0  0  0  0
   69.9379   49.2473   52.5696 S   0  0  0  0  0  0  0  0  0  0  0  0
   70.0241   49.6706   51.1325 O   0  0  0  0  0  0  0  0  0  0  0  0
   71.3427   49.0321   53.0426 O   0  0  0  0  0  0  0  0  0  0  0  0
   69.1084   50.4442   53.4500 N   0  0  0  0  0  0  0  0  0  0  0  0
   69.1078   50.5157   54.8804 C   0  0  0  0  0  0  0  0  0  0  0  0
   69.7835   49.6661   55.6225 C   0  0  0  0  0  0  0  0  0  0  0  0
   69.7756   49.7488   57.0723 C   0  0  0  0  0  0  0  0  0  0  0  0
   69.1024   50.6633   57.6896 C   0  0  0  0  0  0  0  0  0  0  0  0
   68.3093   51.6681   56.9854 C   0  0  2  0  0  0  0  0  0  0  0  0
   66.9792   51.4949   57.4341 F   0  0  0  0  0  0  0  0  0  0  0  0
   68.3253   51.5765   55.5255 C   0  0  0  0  0  0  0  0  0  0  0  0
  7  8  2  0
  8  9  1  0
  8  1  1  0
  9 10  1  0
 10 11  1  0
 11 12  2  0
 11 13  1  0
 13 14  2  0
 13 18  1  0
 14 15  1  0
 15 16  2  0
 16 17  1  0
 17 18  2  0
 18 19  1  0
  1  2  2  0
  1  6  1  0
  2  3  1  0
  3  4  2  0
  4  5  1  0
  5 20  1  0
  5  6  2  0
 20 21  2  0
 20 22  2  0
 20 23  1  0
 23 24  1  0
 24 25  2  0
 24 30  1  0
 25 26  1  0
 26 27  2  0
 27 28  1  0
 28 29  1  1
 28 30  1  0
M  END
>  <minimizedAffinity>  (7) 
-10.50500

$$$$
cs_full_output_folder/data/smiles/288.pdb
     RDKit          3D

 29 31  0  0  0  0  0  0  0  0999 V2000
   68.2481   45.7987   53.9381 C   0  0  0  0  0  0  0  0  0  0  0  0
   67.6600   45.3225   52.7840 C   0  0  0  0  0  0  0  0  0  0  0  0
   67.7257   45.9890   51.5839 C   0  0  0  0  0  0  0  0  0  0  0  0
   68.3970   47.1859   51.4792 C   0  0  0  0  0  0  0  0  0  0  0  0
   68.9957   47.6832   52.6244 C   0  0  0  0  0  0  0  0  0  0  0  0
   68.9219   47.0024   53.8279 C   0  0  0  0  0  0  0  0  0  0  0  0
   67.6662   43.7226   55.2994 N   0  0  0  0  0  0  0  0  0  0  0  0
   68.1437   45.0471   55.1780 C   0  0  0  0  0  0  0  0  0  0  0  0
   68.5053   45.6060   56.2549 O   0  0  0  0  0  0  0  0  0  0  0  0
   67.5377   40.9765   55.5500 O   0  0  0  0  0  0  0  0  0  0  0  0
   67.5357   41.6524   56.6225 C   0  0  0  0  0  0  0  0  0  0  0  0
   67.5994   43.0618   56.5589 N   0  0  0  0  0  0  0  0  0  0  0  0
   67.4675   40.9722   57.9079 C   0  0  0  0  0  0  0  0  0  0  0  0
   68.1075   39.7486   58.0719 C   0  0  0  0  0  0  0  0  0  0  0  0
   68.0498   39.1083   59.2648 C   0  0  0  0  0  0  0  0  0  0  0  0
   67.3779   39.6362   60.3082 N   0  0  0  0  0  0  0  0  0  0  0  0
   66.7383   40.8102   60.2209 C   0  0  0  0  0  0  0  0  0  0  0  0
   66.7964   41.4704   58.9961 C   0  0  0  0  0  0  0  0  0  0  0  0
   69.8551   49.1904   52.5121 S   0  0  0  0  0  0  0  0  0  0  0  0
   71.2322   48.9778   53.0885 O   0  0  0  0  0  0  0  0  0  0  0  0
   70.0666   49.5451   51.0657 O   0  0  0  0  0  0  0  0  0  0  0  0
   69.0528   50.4863   53.2842 N   0  0  0  0  0  0  0  0  0  0  0  0
   68.9668   50.6966   54.6753 C   0  0  0  0  0  0  0  0  0  0  0  0
   69.1391   49.6561   55.5434 C   0  0  0  0  0  0  0  0  0  0  0  0
   69.0593   49.8787   56.9198 C   0  0  0  0  0  0  0  0  0  0  0  0
   68.8083   51.1390   57.4162 C   0  0  0  0  0  0  0  0  0  0  0  0
   68.6350   52.1883   56.5453 C   0  0  0  0  0  0  0  0  0  0  0  0
   68.7168   51.9494   55.1711 C   0  0  0  0  0  0  0  0  0  0  0  0
   68.5449   52.9908   54.3318 F   0  0  0  0  0  0  0  0  0  0  0  0
 10 11  2  0
 11 12  1  0
 11 13  1  0
 12  7  1  0
  7  8  1  0
  8  9  2  0
  8  1  1  0
  1  2  2  0
  1  6  1  0
  2  3  1  0
  3  4  2  0
  4  5  1  0
  5 19  1  0
  5  6  2  0
 19 20  2  0
 19 21  2  0
 19 22  1  0
 22 23  1  0
 23 24  2  0
 23 28  1  0
 24 25  1  0
 25 26  2  0
 26 27  1  0
 27 28  2  0
 28 29  1  0
 13 14  2  0
 13 18  1  0
 14 15  1  0
 15 16  2  0
 16 17  1  0
 17 18  2  0
M  END
>  <minimizedAffinity>  (8) 
-10.46818

$$$$
cs_full_output_folder/data/smiles/3371.pdb
     RDKit          3D

 33 37  0  0  0  0  0  0  0  0999 V2000
   70.8654   45.4236   57.9930 C   0  0  0  0  0  0  0  0  0  0  0  0
   71.7527   45.9631   58.8879 C   0  0  0  0  0  0  0  0  0  0  0  0
   71.8686   47.3524   59.0053 C   0  0  0  0  0  0  0  0  0  0  0  0
   71.0939   48.1683   58.2252 C   0  0  0  0  0  0  0  0  0  0  0  0
   70.1735   47.6465   57.2964 C   0  0  0  0  0  0  0  0  0  0  0  0
   70.0981   46.3004   57.2213 C   0  0  0  0  0  0  0  0  0  0  0  0
   69.8855   43.1909   58.6141 C   0  0  0  0  0  0  0  0  0  0  0  0
   69.2787   43.7470   59.5658 O   0  0  0  0  0  0  0  0  0  0  0  0
   70.6902   44.0264   57.8114 N   0  0  0  0  0  0  0  0  0  0  0  0
   71.8354   40.9201   59.4996 C   0  0  0  0  0  0  0  0  0  0  0  0
   70.5561   40.7253   58.7776 C   0  0  0  0  0  0  0  0  0  0  0  0
   69.7242   41.7588   58.4054 C   0  0  0  0  0  0  0  0  0  0  0  0
   68.6685   41.1192   57.7693 C   0  0  0  0  0  0  0  0  0  0  0  0
   68.9030   39.7901   57.7890 N   0  0  0  0  0  0  0  0  0  0  0  0
   70.0480   39.5379   58.3985 N   0  0  0  0  0  0  0  0  0  0  0  0
   70.6200   38.2390   58.6093 C   0  0  0  0  0  0  0  0  0  0  0  0
   71.6155   37.7961   57.7640 C   0  0  0  0  0  0  0  0  0  0  0  0
   72.2189   36.5452   57.9122 C   0  0  0  0  0  0  0  0  0  0  0  0
   71.7866   35.7423   58.9449 C   0  0  0  0  0  0  0  0  0  0  0  0
   70.7925   36.1802   59.7920 C   0  0  0  0  0  0  0  0  0  0  0  0
   70.2036   37.4206   59.6357 C   0  0  0  0  0  0  0  0  0  0  0  0
   69.3761   48.6310   56.5111 C   0  0  0  0  0  0  0  0  0  0  0  0
   69.6527   48.6155   55.0664 C   0  0  0  0  0  0  0  0  0  0  0  0
   70.7161   49.3312   54.5703 N   0  0  0  0  0  0  0  0  0  0  0  0
   71.0772   49.3400   53.3220 N   0  0  0  0  0  0  0  0  0  0  0  0
   70.3712   48.5976   52.4251 C   0  0  0  0  0  0  0  0  0  0  0  0
   70.6773   48.5696   51.2048 O   0  0  0  0  0  0  0  0  0  0  0  0
   69.2994   47.8632   52.8575 C   0  0  0  0  0  0  0  0  0  0  0  0
   68.9159   47.8618   54.2127 C   0  0  0  0  0  0  0  0  0  0  0  0
   67.7024   47.0611   54.5586 C   0  0  0  0  0  0  0  0  0  0  0  0
   67.9565   45.6729   54.0160 C   0  0  0  0  0  0  0  0  0  0  0  0
   68.4190   45.6381   52.5925 C   0  0  0  0  0  0  0  0  0  0  0  0
   68.4698   47.0040   51.9400 C   0  0  0  0  0  0  0  0  0  0  0  0
 10 11  1  0
 11 12  2  0
 11 15  1  0
 12  7  1  0
 12 13  1  0
  7  8  2  0
  7  9  1  0
  9  1  1  0
  1  2  2  0
  1  6  1  0
  2  3  1  0
  3  4  2  0
  4  5  1  0
  5 22  1  0
  5  6  2  0
 22 23  1  0
 23 24  2  0
 23 29  1  0
 24 25  1  0
 25 26  1  0
 26 27  2  0
 26 28  1  0
 28 29  2  0
 28 33  1  0
 29 30  1  0
 30 31  1  0
 31 32  1  0
 32 33  1  0
 13 14  2  0
 14 15  1  0
 15 16  1  0
 16 17  2  0
 16 21  1  0
 17 18  1  0
 18 19  2  0
 19 20  1  0
 20 21  2  0
M  END
>  <minimizedAffinity>  (9) 
-10.41914

$$$$
cs_full_output_folder/data/smiles/639.pdb
     RDKit          3D

 30 33  0  0  0  0  0  0  0  0999 V2000
   69.1051   42.5164   57.2829 C   0  0  0  0  0  0  0  0  0  0  0  0
   67.8585   41.9752   57.0458 C   0  0  0  0  0  0  0  0  0  0  0  0
   67.5943   40.6340   57.2244 C   0  0  0  0  0  0  0  0  0  0  0  0
   68.6027   39.7995   57.6536 C   0  0  0  0  0  0  0  0  0  0  0  0
   69.8837   40.2966   57.9086 C   0  0  0  0  0  0  0  0  0  0  0  0
   70.0932   41.6471   57.7139 C   0  0  0  0  0  0  0  0  0  0  0  0
   71.4084   41.8570   58.0320 C   0  0  0  0  0  0  0  0  0  0  0  0
   71.9239   40.6640   58.3942 N   0  0  0  0  0  0  0  0  0  0  0  0
   71.0342   39.7077   58.3315 N   0  0  0  0  0  0  0  0  0  0  0  0
   71.1431   38.3217   58.6184 C   0  0  0  0  0  0  0  0  0  0  0  0
   70.4644   37.7370   59.6873 C   0  0  0  0  0  0  0  0  0  0  0  0
   70.5646   36.3916   59.9730 C   0  0  0  0  0  0  0  0  0  0  0  0
   71.3610   35.5763   59.1847 C   0  0  0  0  0  0  0  0  0  0  0  0
   71.4376   34.2467   59.4962 F   0  0  0  0  0  0  0  0  0  0  0  0
   72.0439   36.1280   58.1204 C   0  0  0  0  0  0  0  0  0  0  0  0
   71.9262   37.4819   57.8550 C   0  0  0  0  0  0  0  0  0  0  0  0
   68.5778   44.7243   56.3223 N   0  0  0  0  0  0  0  0  0  0  0  0
   69.4271   43.9252   57.1086 C   0  0  0  0  0  0  0  0  0  0  0  0
   70.4292   44.4184   57.6374 O   0  0  0  0  0  0  0  0  0  0  0  0
   68.7545   46.1303   56.0468 C   0  0  0  0  0  0  0  0  0  0  0  0
   69.3449   47.8735   52.7549 C   0  0  0  0  0  0  0  0  0  0  0  0
   68.6036   47.0715   51.9154 C   0  0  0  0  0  0  0  0  0  0  0  0
   67.9194   45.9762   52.3892 C   0  0  0  0  0  0  0  0  0  0  0  0
   67.9753   45.6674   53.7547 C   0  0  0  0  0  0  0  0  0  0  0  0
   68.7087   46.4539   54.6105 C   0  0  0  0  0  0  0  0  0  0  0  0
   69.3725   47.5350   54.0848 C   0  0  0  0  0  0  0  0  0  0  0  0
   70.0614   49.0303   52.2296 C   0  0  0  0  0  0  0  0  0  0  0  0
   70.1863   49.1654   50.9801 O   0  0  0  0  0  0  0  0  0  0  0  0
   69.8262   51.0615   53.5402 C   0  0  0  0  0  0  0  0  0  0  0  0
   70.6128   49.9898   53.0322 O   0  0  0  0  0  0  0  0  0  0  0  0
 29 30  1  0
 30 27  1  0
 27 28  2  0
 27 21  1  0
 21 22  2  0
 21 26  1  0
 22 23  1  0
 23 24  2  0
 24 25  1  0
 25 20  1  0
 25 26  2  0
 20 17  1  0
 17 18  1  0
 18 19  2  0
 18  1  1  0
  1  2  2  0
  1  6  1  0
  2  3  1  0
  3  4  2  0
  4  5  1  0
  5  6  2  0
  5  9  1  0
  6  7  1  0
  7  8  2  0
  8  9  1  0
  9 10  1  0
 10 11  2  0
 10 16  1  0
 11 12  1  0
 12 13  2  0
 13 14  1  0
 13 15  1  0
 15 16  2  0
M  END
>  <minimizedAffinity>  (10) 
-10.38605

$$$$
cs_full_output_folder/data/smiles/8199.pdb
     RDKit          3D

 30 33  0  0  0  0  0  0  0  0999 V2000
   70.6166   45.6992   57.9972 C   0  0  0  0  0  0  0  0  0  0  0  0
   69.8558   46.4052   57.1233 C   0  0  0  0  0  0  0  0  0  0  0  0
   69.8315   47.7967   57.1070 C   0  0  0  0  0  0  0  0  0  0  0  0
   70.6809   48.3863   58.0874 C   0  0  0  0  0  0  0  0  0  0  0  0
   71.4493   47.7013   58.9683 C   0  0  0  0  0  0  0  0  0  0  0  0
   71.4259   46.3317   58.9428 C   0  0  0  0  0  0  0  0  0  0  0  0
   72.1826   45.6221   59.8026 F   0  0  0  0  0  0  0  0  0  0  0  0
   71.5961   43.4872   57.8603 O   0  0  0  0  0  0  0  0  0  0  0  0
   70.6263   44.2221   58.0935 C   0  0  0  0  0  0  0  0  0  0  0  0
   69.3902   43.5957   58.4932 N   0  0  0  0  0  0  0  0  0  0  0  0
   69.2477   42.1830   58.7025 C   0  0  0  0  0  0  0  0  0  0  0  0
   68.6269   41.4695   57.5593 C   0  0  0  0  0  0  0  0  0  0  0  0
   68.0046   41.9231   56.4385 C   0  0  0  0  0  0  0  0  0  0  0  0
   67.5595   40.8730   55.7126 O   0  0  0  0  0  0  0  0  0  0  0  0
   67.8934   39.7758   56.3517 N   0  0  0  0  0  0  0  0  0  0  0  0
   68.5361   40.0938   57.4692 C   0  0  0  0  0  0  0  0  0  0  0  0
   69.2030   39.1373   58.4164 C   0  0  0  0  0  0  0  0  0  0  0  0
   69.7886   38.2580   59.2811 S   0  0  0  0  0  0  0  0  0  0  0  0
   68.9859   48.6583   56.2658 C   0  0  0  0  0  0  0  0  0  0  0  0
   69.3586   48.6491   54.8630 C   0  0  0  0  0  0  0  0  0  0  0  0
   70.2249   49.5978   54.3745 N   0  0  0  0  0  0  0  0  0  0  0  0
   70.6223   49.6093   53.1006 N   0  0  0  0  0  0  0  0  0  0  0  0
   70.2005   48.6967   52.2349 C   0  0  0  0  0  0  0  0  0  0  0  0
   70.5744   48.6874   50.9986 O   0  0  0  0  0  0  0  0  0  0  0  0
   69.3267   47.6861   52.6171 C   0  0  0  0  0  0  0  0  0  0  0  0
   68.8544   46.8332   51.6597 C   0  0  0  0  0  0  0  0  0  0  0  0
   67.8665   45.8918   52.1013 C   0  0  0  0  0  0  0  0  0  0  0  0
   67.5028   45.9413   53.3970 C   0  0  0  0  0  0  0  0  0  0  0  0
   67.9568   46.7716   54.3643 C   0  0  0  0  0  0  0  0  0  0  0  0
   68.9434   47.7247   53.9405 C   0  0  0  0  0  0  0  0  0  0  0  0
  8  9  2  0
  9 10  1  0
  9  1  1  0
 10 11  1  0
 11 12  1  0
 12 13  2  0
 12 16  1  0
 13 14  1  0
 14 15  1  0
 15 16  2  0
 16 17  1  0
 17 18  3  0
  1  2  2  0
  1  6  1  0
  2  3  1  0
  3 19  1  0
  3  4  2  0
 19 20  1  0
 20 21  2  0
 20 30  1  0
 21 22  1  0
 22 23  1  0
 23 24  2  0
 23 25  1  0
 25 26  1  0
 25 30  2  0
 26 27  2  0
 27 28  1  0
 28 29  2  0
 29 30  1  0
  4  5  1  0
  5  6  2  0
  6  7  1  0
M  END
>  <minimizedAffinity>  (11) 
-10.38203

$$$$
cs_full_output_folder/data/smiles/5109.pdb
     RDKit          3D

 30 32  0  0  0  0  0  0  0  0999 V2000
   70.4611   40.0880   58.5694 C   0  0  0  0  0  0  0  0  0  0  0  0
   70.9807   41.3129   58.2310 C   0  0  0  0  0  0  0  0  0  0  0  0
   70.2388   42.2280   57.4897 C   0  0  0  0  0  0  0  0  0  0  0  0
   68.9615   41.9613   57.0600 C   0  0  0  0  0  0  0  0  0  0  0  0
   68.4372   40.7345   57.3965 C   0  0  0  0  0  0  0  0  0  0  0  0
   69.1594   39.8190   58.1285 C   0  0  0  0  0  0  0  0  0  0  0  0
   71.3457   38.8860   59.4959 S   0  0  0  0  0  0  0  0  0  0  0  0
   72.8309   39.0248   59.2872 O   0  0  0  0  0  0  0  0  0  0  0  0
   71.0304   39.1522   60.9639 O   0  0  0  0  0  0  0  0  0  0  0  0
   70.8102   37.2809   59.1588 N   0  0  0  0  0  0  0  0  0  0  0  0
   71.0429   34.7309   60.2913 C   0  0  0  0  0  0  0  0  0  0  0  0
   71.7406   35.0648   58.9984 C   0  0  0  0  0  0  0  0  0  0  0  0
   72.5084   34.1379   58.3439 C   0  0  0  0  0  0  0  0  0  0  0  0
   73.1287   34.4756   57.1695 C   0  0  0  0  0  0  0  0  0  0  0  0
   72.9884   35.7568   56.6298 C   0  0  0  0  0  0  0  0  0  0  0  0
   72.2233   36.6926   57.2744 C   0  0  0  0  0  0  0  0  0  0  0  0
   71.6028   36.3457   58.4524 C   0  0  0  0  0  0  0  0  0  0  0  0
   68.2173   42.9470   56.2852 C   0  0  0  0  0  0  0  0  0  0  0  0
   67.1327   42.5897   55.7306 O   0  0  0  0  0  0  0  0  0  0  0  0
   68.5956   44.2906   56.0880 N   0  0  0  0  0  0  0  0  0  0  0  0
   67.8462   45.2016   55.3342 N   0  0  0  0  0  0  0  0  0  0  0  0
   68.1597   46.6077   55.3082 C   0  0  0  0  0  0  0  0  0  0  0  0
   67.8316   47.2370   56.3841 N   0  0  0  0  0  0  0  0  0  0  0  0
   68.7836   47.2129   54.1435 C   0  0  0  0  0  0  0  0  0  0  0  0
   69.5156   48.3746   54.1998 C   0  0  0  0  0  0  0  0  0  0  0  0
   70.1154   48.9422   53.0897 C   0  0  0  0  0  0  0  0  0  0  0  0
   69.9783   48.3188   51.8634 C   0  0  0  0  0  0  0  0  0  0  0  0
   69.2559   47.1640   51.7816 C   0  0  0  0  0  0  0  0  0  0  0  0
   68.6554   46.6053   52.9216 C   0  0  0  0  0  0  0  0  0  0  0  0
   67.9393   45.4322   52.7667 O   0  0  0  0  0  0  0  0  0  0  0  0
 11 12  1  0
 12 13  2  0
 12 17  1  0
 13 14  1  0
 14 15  2  0
 15 16  1  0
 16 17  2  0
 17 10  1  0
 10  7  1  0
  7  8  2  0
  7  9  2  0
  7  1  1  0
  1  2  2  0
  1  6  1  0
  2  3  1  0
  3  4  2  0
  4 18  1  0
  4  5  1  0
 18 19  2  0
 18 20  1  0
 20 21  1  0
 21 22  1  0
 22 23  2  0
 22 24  1  0
 24 25  2  0
 24 29  1  0
 25 26  1  0
 26 27  2  0
 27 28  1  0
 28 29  2  0
 29 30  1  0
  5  6  2  0
M  CHG  1  23   1
M  END
>  <minimizedAffinity>  (12) 
-10.37655

$$$$
cs_full_output_folder/data/smiles/6417.pdb
     RDKit          3D

 31 35  0  0  0  0  0  0  0  0999 V2000
   71.0526   45.9405   58.0771 C   0  0  0  0  0  0  0  0  0  0  0  0
   71.7162   46.7721   58.9473 C   0  0  0  0  0  0  0  0  0  0  0  0
   71.4234   48.1467   58.9792 C   0  0  0  0  0  0  0  0  0  0  0  0
   70.4716   48.6848   58.1421 C   0  0  0  0  0  0  0  0  0  0  0  0
   69.7976   47.8901   57.2717 C   0  0  0  0  0  0  0  0  0  0  0  0
   70.1167   46.5253   57.2679 C   0  0  0  0  0  0  0  0  0  0  0  0
   73.7047   44.4767   57.5155 O   0  0  0  0  0  0  0  0  0  0  0  0
   72.6044   43.9173   57.7885 C   0  0  0  0  0  0  0  0  0  0  0  0
   72.4187   42.4511   57.8824 C   0  0  0  0  0  0  0  0  0  0  0  0
   71.1694   42.1630   58.1805 C   0  0  0  0  0  0  0  0  0  0  0  0
   70.4766   43.4403   58.2969 C   0  0  0  0  0  0  0  0  0  0  0  0
   69.2502   43.5364   58.5766 O   0  0  0  0  0  0  0  0  0  0  0  0
   71.3596   44.5435   58.0546 N   0  0  0  0  0  0  0  0  0  0  0  0
   70.6467   40.8032   58.3488 C   0  0  0  0  0  0  0  0  0  0  0  0
   71.4554   39.7491   58.7130 C   0  0  0  0  0  0  0  0  0  0  0  0
   71.0068   38.4617   58.8811 C   0  0  0  0  0  0  0  0  0  0  0  0
   69.6587   38.1776   58.6770 C   0  0  0  0  0  0  0  0  0  0  0  0
   68.8275   39.2088   58.3131 C   0  0  0  0  0  0  0  0  0  0  0  0
   69.3185   40.5069   58.1516 C   0  0  0  0  0  0  0  0  0  0  0  0
   68.7537   48.4135   56.3605 C   0  0  0  0  0  0  0  0  0  0  0  0
   69.1684   48.4751   54.9398 C   0  0  0  0  0  0  0  0  0  0  0  0
   70.0440   49.4532   54.5321 N   0  0  0  0  0  0  0  0  0  0  0  0
   70.4884   49.5437   53.2975 N   0  0  0  0  0  0  0  0  0  0  0  0
   70.1239   48.6853   52.3314 C   0  0  0  0  0  0  0  0  0  0  0  0
   70.5806   48.8096   51.1442 O   0  0  0  0  0  0  0  0  0  0  0  0
   69.2502   47.6806   52.6603 C   0  0  0  0  0  0  0  0  0  0  0  0
   68.8572   46.8034   51.6794 C   0  0  0  0  0  0  0  0  0  0  0  0
   67.9682   45.7951   51.9875 C   0  0  0  0  0  0  0  0  0  0  0  0
   67.5101   45.7138   53.2815 C   0  0  0  0  0  0  0  0  0  0  0  0
   67.8870   46.5791   54.2848 C   0  0  0  0  0  0  0  0  0  0  0  0
   68.7879   47.5945   53.9605 C   0  0  0  0  0  0  0  0  0  0  0  0
  7  8  2  0
  8  9  1  0
  8 13  1  0
  9 10  2  0
 10 14  1  0
 10 11  1  0
 14 15  2  0
 14 19  1  0
 15 16  1  0
 16 17  2  0
 17 18  1  0
 18 19  2  0
 11 12  2  0
 11 13  1  0
 13  1  1  0
  1  2  2  0
  1  6  1  0
  2  3  1  0
  3  4  2  0
  4  5  1  0
  5 20  1  0
  5  6  2  0
 20 21  1  0
 21 22  2  0
 21 31  1  0
 22 23  1  0
 23 24  1  0
 24 25  2  0
 24 26  1  0
 26 27  1  0
 26 31  2  0
 27 28  2  0
 28 29  1  0
 29 30  2  0
 30 31  1  0
M  END
>  <minimizedAffinity>  (13) 
-10.36129

$$$$
cs_full_output_folder/data/smiles/751.pdb
     RDKit          3D

 30 32  0  0  0  0  0  0  0  0999 V2000
   68.2280   45.8597   53.9008 C   0  0  0  0  0  0  0  0  0  0  0  0
   67.6202   45.3773   52.7619 C   0  0  0  0  0  0  0  0  0  0  0  0
   67.7131   46.0514   51.5482 C   0  0  0  0  0  0  0  0  0  0  0  0
   68.4184   47.2259   51.4540 C   0  0  0  0  0  0  0  0  0  0  0  0
   69.0377   47.7274   52.5916 C   0  0  0  0  0  0  0  0  0  0  0  0
   68.9291   47.0351   53.7872 C   0  0  0  0  0  0  0  0  0  0  0  0
   68.4156   45.8254   56.2318 O   0  0  0  0  0  0  0  0  0  0  0  0
   68.1384   45.1658   55.1715 C   0  0  0  0  0  0  0  0  0  0  0  0
   67.7715   43.8231   55.3558 N   0  0  0  0  0  0  0  0  0  0  0  0
   67.6986   43.1944   56.6038 N   0  0  0  0  0  0  0  0  0  0  0  0
   67.4461   41.8366   56.7991 C   0  0  0  0  0  0  0  0  0  0  0  0
   67.2766   41.1610   55.7215 O   0  0  0  0  0  0  0  0  0  0  0  0
   67.3516   41.0994   58.0321 C   0  0  0  0  0  0  0  0  0  0  0  0
   66.6442   41.6010   59.1282 C   0  0  0  0  0  0  0  0  0  0  0  0
   66.5318   40.9316   60.3159 C   0  0  0  0  0  0  0  0  0  0  0  0
   67.1333   39.6999   60.4722 C   0  0  0  0  0  0  0  0  0  0  0  0
   67.8421   39.1641   59.4167 C   0  0  0  0  0  0  0  0  0  0  0  0
   67.9357   39.8807   58.2131 C   0  0  0  0  0  0  0  0  0  0  0  0
   68.6540   39.2589   57.2534 F   0  0  0  0  0  0  0  0  0  0  0  0
   69.9254   49.2218   52.4352 S   0  0  0  0  0  0  0  0  0  0  0  0
   70.1145   49.5903   50.9862 O   0  0  0  0  0  0  0  0  0  0  0  0
   71.3217   48.9721   52.9828 O   0  0  0  0  0  0  0  0  0  0  0  0
   69.2447   50.4979   53.3424 N   0  0  0  0  0  0  0  0  0  0  0  0
   69.1622   50.3770   54.7800 C   0  0  0  0  0  0  0  0  0  0  0  0
   70.0843   49.6281   55.4781 C   0  0  0  0  0  0  0  0  0  0  0  0
   69.9984   49.5163   56.8567 C   0  0  0  0  0  0  0  0  0  0  0  0
   68.9872   50.1567   57.5300 C   0  0  0  0  0  0  0  0  0  0  0  0
   68.0602   50.9068   56.8578 C   0  0  0  0  0  0  0  0  0  0  0  0
   67.0797   51.5210   57.5649 F   0  0  0  0  0  0  0  0  0  0  0  0
   68.1640   51.0035   55.4905 C   0  0  0  0  0  0  0  0  0  0  0  0
  7  8  2  0
  8  9  1  0
  8  1  1  0
  9 10  1  0
 10 11  1  0
 11 12  2  0
 11 13  1  0
 13 14  2  0
 13 18  1  0
 14 15  1  0
 15 16  2  0
 16 17  1  0
 17 18  2  0
 18 19  1  0
  1  2  2  0
  1  6  1  0
  2  3  1  0
  3  4  2  0
  4  5  1  0
  5 20  1  0
  5  6  2  0
 20 21  2  0
 20 22  2  0
 20 23  1  0
 23 24  1  0
 24 25  2  0
 24 30  1  0
 25 26  1  0
 26 27  2  0
 27 28  1  0
 28 29  1  0
 28 30  2  0
M  END
>  <minimizedAffinity>  (14) 
-10.35892

$$$$
cs_full_output_folder/data/smiles/2766.pdb
     RDKit          3D

 26 27  0  0  0  0  0  0  0  0999 V2000
   69.9921   49.1335   52.5566 S   0  0  0  0  0  0  0  0  0  0  0  0
   70.1011   49.0425   51.0519 O   0  0  0  0  0  0  0  0  0  0  0  0
   71.3913   49.2219   53.0796 O   0  0  0  0  0  0  0  0  0  0  0  0
   69.2017   47.7032   53.1707 C   0  0  0  0  0  0  0  0  0  0  0  0
   68.5654   46.8271   52.3170 C   0  0  0  0  0  0  0  0  0  0  0  0
   68.5274   47.0293   50.9726 F   0  0  0  0  0  0  0  0  0  0  0  0
   67.9394   45.6920   52.8398 C   0  0  0  0  0  0  0  0  0  0  0  0
   67.3211   44.8431   51.9946 F   0  0  0  0  0  0  0  0  0  0  0  0
   67.9870   45.5007   54.1874 C   0  0  0  0  0  0  0  0  0  0  0  0
   67.3768   44.3949   54.6977 F   0  0  0  0  0  0  0  0  0  0  0  0
   68.6248   46.3807   55.0390 C   0  0  0  0  0  0  0  0  0  0  0  0
   68.6608   46.1740   56.3692 F   0  0  0  0  0  0  0  0  0  0  0  0
   69.2473   47.5060   54.5370 C   0  0  0  0  0  0  0  0  0  0  0  0
   69.8795   48.3804   55.3704 F   0  0  0  0  0  0  0  0  0  0  0  0
   69.1415   50.5596   52.9370 N   0  0  0  0  0  0  0  0  0  0  0  0
   71.3089   52.3463   55.2720 C   0  0  0  0  0  0  0  0  0  0  0  0
   70.3640   53.0135   56.0490 C   0  0  0  0  0  0  0  0  0  0  0  0
   69.0236   52.8709   55.8008 C   0  0  0  0  0  0  0  0  0  0  0  0
   68.5969   52.0696   54.7848 C   0  0  0  0  0  0  0  0  0  0  0  0
   69.5188   51.4072   54.0130 C   0  0  0  0  0  0  0  0  0  0  0  0
   70.8564   51.5538   54.2656 C   0  0  0  0  0  0  0  0  0  0  0  0
   72.6888   52.5153   55.5574 N   0  0  0  0  0  0  0  0  0  0  0  0
   74.0283   50.5993   54.0086 N   0  0  0  0  0  0  0  0  0  0  0  0
   73.9176   52.2635   54.3769 S   0  0  0  0  0  0  0  0  0  0  0  0
   75.2366   52.7013   54.9469 O   0  0  0  0  0  0  0  0  0  0  0  0
   73.6561   53.0496   53.1454 O   0  0  0  0  0  0  0  0  0  0  0  0
 23 24  1  0
 24 25  2  0
 24 26  2  0
 24 22  1  0
 22 16  1  0
 16 17  2  0
 16 21  1  0
 17 18  1  0
 18 19  2  0
 19 20  1  0
 20 15  1  0
 20 21  2  0
 15  1  1  0
  1  2  2  0
  1  3  2  0
  1  4  1  0
  4  5  2  0
  4 13  1  0
  5  6  1  0
  5  7  1  0
  7  8  1  0
  7  9  2  0
  9 10  1  0
  9 11  1  0
 11 12  1  0
 11 13  2  0
 13 14  1  0
M  END
>  <minimizedAffinity>  (15) 
-10.25835

$$$$
cs_full_output_folder/data/smiles/941.pdb
     RDKit          3D

 32 36  0  0  0  0  0  0  0  0999 V2000
   71.2977   45.6940   58.4742 C   0  0  0  0  0  0  0  0  0  0  0  0
   70.2739   46.1674   57.6639 C   0  0  0  0  0  0  0  0  0  0  0  0
   70.1694   47.4600   57.2893 C   0  0  0  0  0  0  0  0  0  0  0  0
   71.1430   48.3718   57.7398 C   0  0  0  0  0  0  0  0  0  0  0  0
   72.1608   47.9278   58.5397 C   0  0  0  0  0  0  0  0  0  0  0  0
   72.2510   46.5816   58.9180 C   0  0  0  0  0  0  0  0  0  0  0  0
   73.2781   46.2185   59.7275 F   0  0  0  0  0  0  0  0  0  0  0  0
   71.1699   44.2321   61.2585 O   0  0  0  0  0  0  0  0  0  0  0  0
   71.0303   43.7761   60.1057 C   0  0  0  0  0  0  0  0  0  0  0  0
   70.4485   42.4104   59.8443 C   0  0  0  0  0  0  0  0  0  0  0  0
   70.7215   42.0893   58.4290 C   0  0  2  0  0  0  0  0  0  0  0  0
   71.6478   43.2013   57.9964 C   0  0  0  0  0  0  0  0  0  0  0  0
   72.5037   43.1588   57.0918 O   0  0  0  0  0  0  0  0  0  0  0  0
   71.3285   44.3116   58.8505 N   0  0  0  0  0  0  0  0  0  0  0  0
   69.5302   42.1477   57.5486 C   0  0  0  0  0  0  0  0  0  0  0  0
   69.1692   43.2349   56.8176 C   0  0  0  0  0  0  0  0  0  0  0  0
   68.0274   43.2035   56.0107 C   0  0  0  0  0  0  0  0  0  0  0  0
   67.2285   42.0834   55.9234 C   0  0  0  0  0  0  0  0  0  0  0  0
   67.6039   40.9750   56.6740 C   0  0  0  0  0  0  0  0  0  0  0  0
   68.7431   41.0207   57.4728 C   0  0  0  0  0  0  0  0  0  0  0  0
   69.0908   48.0478   56.4291 C   0  0  0  0  0  0  0  0  0  0  0  0
   69.5123   48.1574   55.0111 C   0  0  0  0  0  0  0  0  0  0  0  0
   70.4554   49.0915   54.6646 N   0  0  0  0  0  0  0  0  0  0  0  0
   70.8450   49.3064   53.4335 N   0  0  0  0  0  0  0  0  0  0  0  0
   70.2955   48.5783   52.4549 C   0  0  0  0  0  0  0  0  0  0  0  0
   70.6293   48.7414   51.2481 O   0  0  0  0  0  0  0  0  0  0  0  0
   69.3346   47.6133   52.7345 C   0  0  0  0  0  0  0  0  0  0  0  0
   68.7817   46.8531   51.7400 C   0  0  0  0  0  0  0  0  0  0  0  0
   67.8443   45.8896   52.0413 C   0  0  0  0  0  0  0  0  0  0  0  0
   67.4495   45.6751   53.3446 C   0  0  0  0  0  0  0  0  0  0  0  0
   67.9943   46.4330   54.3734 C   0  0  0  0  0  0  0  0  0  0  0  0
   68.9280   47.3933   54.0547 C   0  0  0  0  0  0  0  0  0  0  0  0
  8  9  2  0
  9 10  1  0
  9 14  1  0
 10 11  1  0
 11 15  1  6
 11 12  1  0
 15 16  2  0
 15 20  1  0
 16 17  1  0
 17 18  2  0
 18 19  1  0
 19 20  2  0
 12 13  2  0
 12 14  1  0
 14  1  1  0
  1  2  2  0
  1  6  1  0
  2  3  1  0
  3 21  1  0
  3  4  2  0
 21 22  1  0
 22 23  2  0
 22 32  1  0
 23 24  1  0
 24 25  1  0
 25 26  2  0
 25 27  1  0
 27 28  1  0
 27 32  2  0
 28 29  2  0
 29 30  1  0
 30 31  2  0
 31 32  1  0
  4  5  1  0
  5  6  2  0
  6  7  1  0
M  END
>  <minimizedAffinity>  (16) 
-10.24271

$$$$
cs_full_output_folder/data/smiles/4727.pdb
     RDKit          3D

 30 33  0  0  0  0  0  0  0  0999 V2000
   70.9492   45.1350   58.0014 C   0  0  0  0  0  0  0  0  0  0  0  0
   71.7085   45.9511   58.8122 C   0  0  0  0  0  0  0  0  0  0  0  0
   71.4589   47.3255   58.8923 C   0  0  0  0  0  0  0  0  0  0  0  0
   70.4330   47.8930   58.1491 C   0  0  0  0  0  0  0  0  0  0  0  0
   69.6690   47.0856   57.3354 C   0  0  0  0  0  0  0  0  0  0  0  0
   69.9428   45.7281   57.2797 C   0  0  0  0  0  0  0  0  0  0  0  0
   69.3234   43.1944   59.0225 O   0  0  0  0  0  0  0  0  0  0  0  0
   70.3849   42.7486   58.4669 C   0  0  0  0  0  0  0  0  0  0  0  0
   71.2272   43.7378   57.9403 N   0  0  0  0  0  0  0  0  0  0  0  0
   70.5872   41.3135   58.4474 C   0  0  0  0  0  0  0  0  0  0  0  0
   69.4692   40.4763   58.3497 C   0  0  0  0  0  0  0  0  0  0  0  0
   69.5640   39.1036   58.3371 C   0  0  0  0  0  0  0  0  0  0  0  0
   70.7852   38.4710   58.4222 C   0  0  0  0  0  0  0  0  0  0  0  0
   70.8717   37.1106   58.4102 F   0  0  0  0  0  0  0  0  0  0  0  0
   71.8972   39.2702   58.5194 C   0  0  0  0  0  0  0  0  0  0  0  0
   71.7958   40.6714   58.5309 C   0  0  0  0  0  0  0  0  0  0  0  0
   72.9230   41.4200   58.6214 F   0  0  0  0  0  0  0  0  0  0  0  0
   68.5857   47.6988   56.5522 C   0  0  0  0  0  0  0  0  0  0  0  0
   69.0252   48.0724   55.1890 C   0  0  0  0  0  0  0  0  0  0  0  0
   69.6012   49.2810   54.9392 N   0  0  0  0  0  0  0  0  0  0  0  0
   69.9914   49.6601   53.7342 N   0  0  0  0  0  0  0  0  0  0  0  0
   69.8569   48.8900   52.6308 C   0  0  0  0  0  0  0  0  0  0  0  0
   69.2755   47.6511   52.8340 C   0  0  0  0  0  0  0  0  0  0  0  0
   68.8704   47.2546   54.0900 C   0  0  0  0  0  0  0  0  0  0  0  0
   68.2728   45.9081   54.2426 C   0  0  0  0  0  0  0  0  0  0  0  0
   67.3934   45.4807   53.1248 C   0  0  0  0  0  0  0  0  0  0  0  0
   67.7234   46.0398   51.7893 C   0  0  0  0  0  0  0  0  0  0  0  0
   69.0679   46.7134   51.7062 C   0  0  0  0  0  0  0  0  0  0  0  0
   70.2832   49.3225   51.3471 N   0  0  0  0  0  0  0  0  0  0  0  0
   69.5965   50.1676   50.5518 O   0  0  0  0  0  0  0  0  0  0  0  0
  7  8  2  0
  8  9  1  0
  8 10  1  0
  9  1  1  0
  1  2  2  0
  1  6  1  0
  2  3  1  0
  3  4  2  0
  4  5  1  0
  5 18  1  0
  5  6  2  0
 18 19  1  0
 19 20  2  0
 19 24  1  0
 20 21  1  0
 21 22  2  0
 22 29  1  0
 22 23  1  0
 29 30  1  0
 23 24  2  0
 23 28  1  0
 24 25  1  0
 25 26  1  0
 26 27  1  0
 27 28  1  0
 10 11  2  0
 10 16  1  0
 11 12  1  0
 12 13  2  0
 13 14  1  0
 13 15  1  0
 15 16  2  0
 16 17  1  0
M  END
>  <minimizedAffinity>  (17) 
-10.22774

$$$$
cs_full_output_folder/data/smiles/7100.pdb
     RDKit          3D

 29 32  0  0  0  0  0  0  0  0999 V2000
   70.7206   46.0397   58.1603 C   0  0  0  0  0  0  0  0  0  0  0  0
   69.8038   46.7592   57.3801 C   0  0  0  0  0  0  0  0  0  0  0  0
   69.9761   48.0806   57.0430 C   0  0  0  0  0  0  0  0  0  0  0  0
   71.1270   48.6795   57.5230 C   0  0  0  0  0  0  0  0  0  0  0  0
   72.0389   47.9969   58.2874 C   0  0  0  0  0  0  0  0  0  0  0  0
   71.8493   46.6543   58.6216 C   0  0  0  0  0  0  0  0  0  0  0  0
   72.7994   46.0235   59.3813 F   0  0  0  0  0  0  0  0  0  0  0  0
   70.7159   43.5275   57.6705 N   0  0  0  0  0  0  0  0  0  0  0  0
   70.4120   44.6549   58.4555 C   0  0  0  0  0  0  0  0  0  0  0  0
   69.7951   44.3955   59.5449 O   0  0  0  0  0  0  0  0  0  0  0  0
   70.3510   42.1572   58.0769 C   0  0  0  0  0  0  0  0  0  0  0  0
   69.2007   39.3616   58.2400 C   0  0  0  0  0  0  0  0  0  0  0  0
   68.6081   40.5084   57.4404 C   0  0  0  0  0  0  0  0  0  0  0  0
   67.4588   40.2329   56.7383 N   0  0  0  0  0  0  0  0  0  0  0  0
   67.0404   41.7924   55.9232 S   0  0  0  0  0  0  0  0  0  0  0  0
   68.4226   42.6700   56.5819 C   0  0  0  0  0  0  0  0  0  0  0  0
   69.0744   41.7449   57.3450 C   0  0  0  0  0  0  0  0  0  0  0  0
   68.9930   48.8227   56.2089 C   0  0  0  0  0  0  0  0  0  0  0  0
   69.3724   48.7310   54.7897 C   0  0  0  0  0  0  0  0  0  0  0  0
   70.2456   49.6415   54.2624 N   0  0  0  0  0  0  0  0  0  0  0  0
   70.6266   49.6239   53.0101 N   0  0  0  0  0  0  0  0  0  0  0  0
   70.1839   48.7056   52.1487 C   0  0  0  0  0  0  0  0  0  0  0  0
   70.5462   48.6752   50.9255 O   0  0  0  0  0  0  0  0  0  0  0  0
   69.3045   47.7510   52.5921 C   0  0  0  0  0  0  0  0  0  0  0  0
   68.8227   46.7789   51.7311 C   0  0  0  0  0  0  0  0  0  0  0  0
   67.9443   45.8438   52.2164 C   0  0  0  0  0  0  0  0  0  0  0  0
   67.5526   45.8748   53.5372 C   0  0  0  0  0  0  0  0  0  0  0  0
   68.0205   46.8343   54.4128 C   0  0  0  0  0  0  0  0  0  0  0  0
   68.9024   47.7747   53.9284 C   0  0  0  0  0  0  0  0  0  0  0  0
 12 13  1  0
 13 14  2  0
 13 17  1  0
 14 15  1  0
 15 16  1  0
 16 17  2  0
 17 11  1  0
 11  8  1  0
  8  9  1  0
  9 10  2  0
  9  1  1  0
  1  2  2  0
  1  6  1  0
  2  3  1  0
  3 18  1  0
  3  4  2  0
 18 19  1  0
 19 20  2  0
 19 29  1  0
 20 21  1  0
 21 22  1  0
 22 23  2  0
 22 24  1  0
 24 25  1  0
 24 29  2  0
 25 26  2  0
 26 27  1  0
 27 28  2  0
 28 29  1  0
  4  5  1  0
  5  6  2  0
  6  7  1  0
M  END
>  <minimizedAffinity>  (18) 
-10.19202

$$$$
cs_full_output_folder/data/smiles/7525.pdb
     RDKit          3D

 33 37  0  0  0  0  0  0  0  0999 V2000
   71.2447   46.6562   58.7183 C   0  0  0  0  0  0  0  0  0  0  0  0
   70.4909   47.5361   57.9668 C   0  0  0  0  0  0  0  0  0  0  0  0
   69.5917   47.1231   57.0207 C   0  0  0  0  0  0  0  0  0  0  0  0
   69.4183   45.7613   56.7999 C   0  0  0  0  0  0  0  0  0  0  0  0
   70.1526   44.8662   57.5323 C   0  0  0  0  0  0  0  0  0  0  0  0
   71.0666   45.3166   58.4935 C   0  0  0  0  0  0  0  0  0  0  0  0
   71.7494   44.3818   59.1678 F   0  0  0  0  0  0  0  0  0  0  0  0
   75.2063   48.4337   58.9127 C   0  0  0  0  0  0  0  0  0  0  0  0
   74.3969   47.3180   58.2801 C   0  0  0  0  0  0  0  0  0  0  0  0
   73.5518   47.3724   59.4424 N   0  0  0  0  0  0  0  0  0  0  0  0
   72.1912   47.1040   59.7114 C   0  0  0  0  0  0  0  0  0  0  0  0
   71.7463   47.2580   60.8926 O   0  0  0  0  0  0  0  0  0  0  0  0
   74.7021   47.8038   60.1870 C   0  0  0  0  0  0  0  0  0  0  0  0
   77.3991   48.0617   59.9154 C   0  0  0  0  0  0  0  0  0  0  0  0
   76.6670   48.2433   58.6095 C   0  0  2  0  0  0  0  0  0  0  0  0
   77.1339   49.3687   57.8961 N   0  0  0  0  0  0  0  0  0  0  0  0
   77.7144   50.4352   58.6017 C   0  0  0  0  0  0  0  0  0  0  0  0
   79.0624   50.8924   58.1082 C   0  0  0  0  0  0  0  0  0  0  0  0
   79.2261   50.8542   56.6300 C   0  0  0  0  0  0  0  0  0  0  0  0
   78.6255   49.6420   55.9606 C   0  0  0  0  0  0  0  0  0  0  0  0
   77.2627   49.3043   56.5048 C   0  0  0  0  0  0  0  0  0  0  0  0
   68.7679   48.0221   56.1789 C   0  0  0  0  0  0  0  0  0  0  0  0
   69.2330   48.1754   54.8012 C   0  0  0  0  0  0  0  0  0  0  0  0
   70.1587   49.1270   54.4712 N   0  0  0  0  0  0  0  0  0  0  0  0
   70.5846   49.3543   53.2653 N   0  0  0  0  0  0  0  0  0  0  0  0
   70.1238   48.6405   52.2296 C   0  0  0  0  0  0  0  0  0  0  0  0
   70.5072   48.8247   51.0336 O   0  0  0  0  0  0  0  0  0  0  0  0
   69.1796   47.6522   52.4844 C   0  0  0  0  0  0  0  0  0  0  0  0
   68.7246   46.9103   51.3917 C   0  0  0  0  0  0  0  0  0  0  0  0
   67.8002   45.9057   51.5828 C   0  0  0  0  0  0  0  0  0  0  0  0
   67.3655   45.6811   52.8678 C   0  0  0  0  0  0  0  0  0  0  0  0
   67.8190   46.4160   53.9361 C   0  0  0  0  0  0  0  0  0  0  0  0
   68.7384   47.4236   53.7709 C   0  0  0  0  0  0  0  0  0  0  0  0
 15 14  1  1
 15  8  1  0
 15 16  1  0
  8  9  1  0
  8 13  1  0
  9 10  1  0
 10 11  1  0
 10 13  1  0
 11 12  2  0
 11  1  1  0
  1  2  2  0
  1  6  1  0
  2  3  1  0
  3 22  1  0
  3  4  2  0
 22 23  1  0
 23 24  2  0
 23 33  1  0
 24 25  1  0
 25 26  1  0
 26 27  2  0
 26 28  1  0
 28 29  1  0
 28 33  2  0
 29 30  2  0
 30 31  1  0
 31 32  2  0
 32 33  1  0
  4  5  1  0
  5  6  2  0
  6  7  1  0
 16 17  1  0
 16 21  1  0
 17 18  1  0
 18 19  1  0
 19 20  1  0
 20 21  1  0
M  CHG  1  16   1
M  END
>  <minimizedAffinity>  (19) 
-10.18423

$$$$
cs_full_output_folder/data/smiles/1617.pdb
     RDKit          3D

 33 37  0  0  0  0  0  0  0  0999 V2000
   71.5234   47.2344   58.8166 C   0  0  0  0  0  0  0  0  0  0  0  0
   70.6736   48.0184   58.0468 C   0  0  0  0  0  0  0  0  0  0  0  0
   69.7819   47.4715   57.1685 C   0  0  0  0  0  0  0  0  0  0  0  0
   69.7275   46.0665   57.0492 C   0  0  0  0  0  0  0  0  0  0  0  0
   70.5475   45.2814   57.7924 C   0  0  0  0  0  0  0  0  0  0  0  0
   71.4369   45.8738   58.6695 C   0  0  0  0  0  0  0  0  0  0  0  0
   72.2386   45.0452   59.3951 F   0  0  0  0  0  0  0  0  0  0  0  0
   76.2572   48.9493   58.1118 N   0  0  0  0  0  0  0  0  0  0  0  0
   76.5164   47.9065   59.0719 C   0  0  0  0  0  0  0  0  0  0  0  0
   75.9271   48.2873   60.3940 C   0  0  0  0  0  0  0  0  0  0  0  0
   74.5999   48.9283   60.2180 C   0  0  0  0  0  0  0  0  0  0  0  0
   73.7370   48.3316   59.2391 N   0  0  0  0  0  0  0  0  0  0  0  0
   72.4930   47.8579   59.7152 C   0  0  0  0  0  0  0  0  0  0  0  0
   72.2258   47.9775   60.9265 O   0  0  0  0  0  0  0  0  0  0  0  0
   73.9731   48.1517   57.8172 C   0  0  0  0  0  0  0  0  0  0  0  0
   75.0464   49.0886   57.3111 C   0  0  0  0  0  0  0  0  0  0  0  0
   77.2075   51.0932   58.6877 N   0  0  0  0  0  0  0  0  0  0  0  0
   77.2448   49.9215   57.8995 C   0  0  0  0  0  0  0  0  0  0  0  0
   78.2106   49.7930   57.0077 C   0  0  0  0  0  0  0  0  0  0  0  0
   79.4333   50.3454   56.3412 C   0  0  0  0  0  0  0  0  0  0  0  0
   78.9493   49.0567   55.9138 C   0  0  0  0  0  0  0  0  0  0  0  0
   68.8565   48.2406   56.3191 C   0  0  0  0  0  0  0  0  0  0  0  0
   69.3220   48.2318   54.9248 C   0  0  0  0  0  0  0  0  0  0  0  0
   70.2913   49.1501   54.6160 N   0  0  0  0  0  0  0  0  0  0  0  0
   70.7636   49.3391   53.4164 N   0  0  0  0  0  0  0  0  0  0  0  0
   70.2751   48.5830   52.3894 C   0  0  0  0  0  0  0  0  0  0  0  0
   70.7052   48.7407   51.2256 O   0  0  0  0  0  0  0  0  0  0  0  0
   69.3000   47.6345   52.6113 C   0  0  0  0  0  0  0  0  0  0  0  0
   68.7963   46.8364   51.6018 C   0  0  0  0  0  0  0  0  0  0  0  0
   67.8377   45.8926   51.9103 C   0  0  0  0  0  0  0  0  0  0  0  0
   67.3717   45.7265   53.1941 C   0  0  0  0  0  0  0  0  0  0  0  0
   67.8776   46.5241   54.1950 C   0  0  0  0  0  0  0  0  0  0  0  0
   68.8313   47.4713   53.9033 C   0  0  0  0  0  0  0  0  0  0  0  0
 17 18  1  0
 18 19  2  0
 18  8  1  0
 19 20  1  0
 19 21  1  0
 20 21  1  0
  8  9  1  0
  8 16  1  0
  9 10  1  0
 10 11  1  0
 11 12  1  0
 12 13  1  0
 12 15  1  0
 13 14  2  0
 13  1  1  0
  1  2  2  0
  1  6  1  0
  2  3  1  0
  3 22  1  0
  3  4  2  0
 22 23  1  0
 23 24  2  0
 23 33  1  0
 24 25  1  0
 25 26  1  0
 26 27  2  0
 26 28  1  0
 28 29  1  0
 28 33  2  0
 29 30  2  0
 30 31  1  0
 31 32  2  0
 32 33  1  0
  4  5  1  0
  5  6  2  0
  6  7  1  0
 15 16  1  0
M  END
>  <minimizedAffinity>  (20) 
-10.18130

$$$$
cs_full_output_folder/data/smiles/224.pdb
     RDKit          3D

 29 30  0  0  0  0  0  0  0  0999 V2000
   70.7085   45.7999   58.4796 C   0  0  0  0  0  0  0  0  0  0  0  0
   71.7754   46.7693   59.2132 S   0  0  0  0  0  0  0  0  0  0  0  0
   70.2316   43.3921   58.9571 C   0  0  0  0  0  0  0  0  0  0  0  0
   69.2657   43.7691   59.6687 O   0  0  0  0  0  0  0  0  0  0  0  0
   70.9939   44.4006   58.3314 N   0  0  0  0  0  0  0  0  0  0  0  0
   70.8842   39.1618   58.5997 C   0  0  0  0  0  0  0  0  0  0  0  0
   71.9380   40.0448   58.6917 C   0  0  0  0  0  0  0  0  0  0  0  0
   71.7496   41.4168   58.8083 C   0  0  0  0  0  0  0  0  0  0  0  0
   70.4827   41.9586   58.8359 C   0  0  0  0  0  0  0  0  0  0  0  0
   69.4333   41.0658   58.7429 C   0  0  0  0  0  0  0  0  0  0  0  0
   69.6153   39.7041   58.6269 C   0  0  0  0  0  0  0  0  0  0  0  0
   71.0952   37.6906   58.4751 C   0  0  2  0  0  0  0  0  0  0  0  0
   70.6129   36.9459   59.7028 C   0  0  0  0  0  0  0  0  0  0  0  0
   72.6441   36.2737   57.1941 C   0  0  0  0  0  0  0  0  0  0  0  0
   72.5543   37.3669   58.2353 C   0  0  0  0  0  0  0  0  0  0  0  0
   73.2459   36.9014   59.4805 C   0  0  0  0  0  0  0  0  0  0  0  0
   69.4936   46.3254   57.9815 N   0  0  0  0  0  0  0  0  0  0  0  0
   69.4345   46.7060   56.6290 N   0  0  0  0  0  0  0  0  0  0  0  0
   68.7277   45.9621   55.6591 C   0  0  0  0  0  0  0  0  0  0  0  0
   68.1398   44.9146   56.0829 O   0  0  0  0  0  0  0  0  0  0  0  0
   68.6369   46.3139   54.2525 C   0  0  0  0  0  0  0  0  0  0  0  0
   67.8003   45.6689   53.3778 C   0  0  0  0  0  0  0  0  0  0  0  0
   67.7639   46.0603   52.0349 C   0  0  0  0  0  0  0  0  0  0  0  0
   68.5429   47.0765   51.5553 C   0  0  0  0  0  0  0  0  0  0  0  0
   69.3885   47.7278   52.4399 C   0  0  0  0  0  0  0  0  0  0  0  0
   69.4140   47.3370   53.7445 C   0  0  0  0  0  0  0  0  0  0  0  0
   70.2225   48.7996   51.9790 N   0  0  0  0  0  0  0  0  0  0  0  0
   71.3048   49.0036   52.5229 O   0  0  0  0  0  0  0  0  0  0  0  0
   69.7925   49.5831   50.9315 O   0  0  0  0  0  0  0  0  0  0  0  0
 14 15  1  0
 15 16  1  0
 15 12  1  0
 12 13  1  1
 12  6  1  0
  6  7  2  0
  6 11  1  0
  7  8  1  0
  8  9  2  0
  9  3  1  0
  9 10  1  0
  3  4  2  0
  3  5  1  0
  5  1  1  0
  1  2  2  0
  1 17  1  0
 17 18  1  0
 18 19  1  0
 19 20  2  0
 19 21  1  0
 21 22  2  0
 21 26  1  0
 22 23  1  0
 23 24  2  0
 24 25  1  0
 25 27  1  0
 25 26  2  0
 27 28  2  0
 27 29  1  0
 10 11  2  0
M  CHG  2  27   1  29  -1
M  END
>  <minimizedAffinity>  (21) 
-10.17433

$$$$
cs_full_output_folder/data/smiles/6793.pdb
     RDKit          3D

 29 32  0  0  0  0  0  0  0  0999 V2000
   70.5654   45.1975   57.9947 C   0  0  0  0  0  0  0  0  0  0  0  0
   69.8454   46.1828   57.3088 C   0  0  0  0  0  0  0  0  0  0  0  0
   70.1074   47.5164   57.3732 C   0  0  0  0  0  0  0  0  0  0  0  0
   71.1621   47.9115   58.1776 C   0  0  0  0  0  0  0  0  0  0  0  0
   71.9093   47.0064   58.8767 C   0  0  0  0  0  0  0  0  0  0  0  0
   71.5902   45.6462   58.7694 C   0  0  0  0  0  0  0  0  0  0  0  0
   72.3642   44.7841   59.4772 F   0  0  0  0  0  0  0  0  0  0  0  0
   71.1039   42.9859   57.4296 O   0  0  0  0  0  0  0  0  0  0  0  0
   70.2064   43.8042   57.8716 C   0  0  0  0  0  0  0  0  0  0  0  0
   68.9893   43.1863   58.1699 N   0  0  0  0  0  0  0  0  0  0  0  0
   68.7408   41.7958   58.0120 C   0  0  0  0  0  0  0  0  0  0  0  0
   69.0409   40.8509   58.9596 C   0  0  0  0  0  0  0  0  0  0  0  0
   68.7773   39.4979   58.7571 C   0  0  0  0  0  0  0  0  0  0  0  0
   68.2005   39.0926   57.5811 C   0  0  0  0  0  0  0  0  0  0  0  0
   67.9082   40.0170   56.6595 N   0  0  0  0  0  0  0  0  0  0  0  0
   68.1637   41.3413   56.8498 C   0  0  0  0  0  0  0  0  0  0  0  0
   67.8502   42.2552   55.8836 F   0  0  0  0  0  0  0  0  0  0  0  0
   69.1415   48.7312   56.4671 S   0  0  0  0  0  0  0  0  0  0  0  0
   69.5571   48.7034   54.7327 C   0  0  0  0  0  0  0  0  0  0  0  0
   70.4038   49.6054   54.2622 N   0  0  0  0  0  0  0  0  0  0  0  0
   70.7338   49.6140   52.9806 N   0  0  0  0  0  0  0  0  0  0  0  0
   70.2124   48.7060   52.1419 C   0  0  0  0  0  0  0  0  0  0  0  0
   70.5251   48.7125   50.9251 O   0  0  0  0  0  0  0  0  0  0  0  0
   69.3270   47.7487   52.5879 C   0  0  0  0  0  0  0  0  0  0  0  0
   68.7963   46.8189   51.7182 C   0  0  0  0  0  0  0  0  0  0  0  0
   67.9129   45.8773   52.2106 C   0  0  0  0  0  0  0  0  0  0  0  0
   67.5736   45.8729   53.5435 C   0  0  0  0  0  0  0  0  0  0  0  0
   68.1016   46.8003   54.4124 C   0  0  0  0  0  0  0  0  0  0  0  0
   68.9884   47.7454   53.9214 C   0  0  0  0  0  0  0  0  0  0  0  0
  8  9  2  0
  9 10  1  0
  9  1  1  0
 10 11  1  0
 11 12  2  0
 11 16  1  0
 12 13  1  0
 13 14  2  0
 14 15  1  0
 15 16  2  0
 16 17  1  0
  1  2  2  0
  1  6  1  0
  2  3  1  0
  3 18  1  0
  3  4  2  0
 18 19  1  0
 19 20  2  0
 19 29  1  0
 20 21  1  0
 21 22  1  0
 22 23  2  0
 22 24  1  0
 24 25  1  0
 24 29  2  0
 25 26  2  0
 26 27  1  0
 27 28  2  0
 28 29  1  0
  4  5  1  0
  5  6  2  0
  6  7  1  0
M  END
>  <minimizedAffinity>  (22) 
-10.16996

$$$$
cs_full_output_folder/data/smiles/1432.pdb
     RDKit          3D

 33 37  0  0  0  0  0  0  0  0999 V2000
   71.5718   47.2316   59.0071 C   0  0  0  0  0  0  0  0  0  0  0  0
   70.7487   48.0080   58.2285 C   0  0  0  0  0  0  0  0  0  0  0  0
   69.9259   47.3903   57.2713 C   0  0  0  0  0  0  0  0  0  0  0  0
   69.9995   46.0335   57.1777 C   0  0  0  0  0  0  0  0  0  0  0  0
   70.8182   45.2452   57.9513 C   0  0  0  0  0  0  0  0  0  0  0  0
   71.6237   45.8654   58.8891 C   0  0  0  0  0  0  0  0  0  0  0  0
   72.4275   45.0853   59.6522 F   0  0  0  0  0  0  0  0  0  0  0  0
   76.0373   48.5432   58.5825 N   0  0  0  0  0  0  0  0  0  0  0  0
   76.3674   48.0348   59.8939 C   0  0  0  0  0  0  0  0  0  0  0  0
   75.5117   48.5480   61.0109 C   0  0  0  0  0  0  0  0  0  0  0  0
   74.3227   49.3531   60.5811 C   0  0  0  0  0  0  0  0  0  0  0  0
   73.5096   48.7182   59.5828 N   0  0  0  0  0  0  0  0  0  0  0  0
   72.4149   47.8911   59.9738 C   0  0  0  0  0  0  0  0  0  0  0  0
   72.2264   47.7713   61.2187 O   0  0  0  0  0  0  0  0  0  0  0  0
   73.6821   48.8415   58.1492 C   0  0  0  0  0  0  0  0  0  0  0  0
   74.9369   48.0917   57.7676 C   0  0  0  0  0  0  0  0  0  0  0  0
   76.7087   50.7930   58.3460 N   0  0  0  0  0  0  0  0  0  0  0  0
   76.8673   49.5571   58.0331 C   0  0  0  0  0  0  0  0  0  0  0  0
   77.9706   49.2702   57.0530 C   0  0  0  0  0  0  0  0  0  0  0  0
   78.5718   50.4195   56.3354 C   0  0  0  0  0  0  0  0  0  0  0  0
   77.6375   49.5559   55.6065 C   0  0  0  0  0  0  0  0  0  0  0  0
   69.0315   48.2543   56.4597 C   0  0  0  0  0  0  0  0  0  0  0  0
   69.4066   48.3418   55.0346 C   0  0  0  0  0  0  0  0  0  0  0  0
   70.3566   49.2591   54.6566 N   0  0  0  0  0  0  0  0  0  0  0  0
   70.7775   49.3777   53.4142 N   0  0  0  0  0  0  0  0  0  0  0  0
   70.2992   48.6004   52.4301 C   0  0  0  0  0  0  0  0  0  0  0  0
   70.7055   48.7143   51.2350 O   0  0  0  0  0  0  0  0  0  0  0  0
   69.3469   47.6579   52.7163 C   0  0  0  0  0  0  0  0  0  0  0  0
   68.8401   46.8618   51.7148 C   0  0  0  0  0  0  0  0  0  0  0  0
   67.8770   45.9382   52.0558 C   0  0  0  0  0  0  0  0  0  0  0  0
   67.4200   45.7980   53.3467 C   0  0  0  0  0  0  0  0  0  0  0  0
   67.9405   46.6057   54.3365 C   0  0  0  0  0  0  0  0  0  0  0  0
   68.9113   47.5451   54.0365 C   0  0  0  0  0  0  0  0  0  0  0  0
 17 18  2  0
 18 19  1  0
 18  8  1  0
 19 20  1  0
 19 21  1  0
 20 21  1  0
  8  9  1  0
  8 16  1  0
  9 10  1  0
 10 11  1  0
 11 12  1  0
 12 13  1  0
 12 15  1  0
 13 14  2  0
 13  1  1  0
  1  2  2  0
  1  6  1  0
  2  3  1  0
  3 22  1  0
  3  4  2  0
 22 23  1  0
 23 24  2  0
 23 33  1  0
 24 25  1  0
 25 26  1  0
 26 27  2  0
 26 28  1  0
 28 29  1  0
 28 33  2  0
 29 30  2  0
 30 31  1  0
 31 32  2  0
 32 33  1  0
  4  5  1  0
  5  6  2  0
  6  7  1  0
 15 16  1  0
M  CHG  1  17   1
M  END
>  <minimizedAffinity>  (23) 
-10.16497

$$$$
cs_full_output_folder/data/smiles/5746.pdb
     RDKit          3D

 30 33  0  0  0  0  0  0  0  0999 V2000
   70.7080   45.9265   58.1785 C   0  0  0  0  0  0  0  0  0  0  0  0
   71.8324   46.5471   58.6514 C   0  0  0  0  0  0  0  0  0  0  0  0
   72.0660   47.8899   58.3164 C   0  0  0  0  0  0  0  0  0  0  0  0
   71.1337   48.5139   57.5189 C   0  0  0  0  0  0  0  0  0  0  0  0
   70.0052   47.9073   57.0393 C   0  0  0  0  0  0  0  0  0  0  0  0
   69.7968   46.5835   57.3824 C   0  0  0  0  0  0  0  0  0  0  0  0
   69.6626   44.2584   59.4827 O   0  0  0  0  0  0  0  0  0  0  0  0
   70.4254   44.5094   58.5015 C   0  0  0  0  0  0  0  0  0  0  0  0
   70.9660   43.4324   57.7661 N   0  0  0  0  0  0  0  0  0  0  0  0
   70.7484   42.0578   58.0069 C   0  0  0  0  0  0  0  0  0  0  0  0
   69.5681   41.3785   57.9625 C   0  0  0  0  0  0  0  0  0  0  0  0
   69.4823   40.0053   58.2162 C   0  0  0  0  0  0  0  0  0  0  0  0
   70.5923   39.2814   58.5218 C   0  0  0  0  0  0  0  0  0  0  0  0
   71.8020   39.9324   58.5775 C   0  0  0  0  0  0  0  0  0  0  0  0
   71.8741   41.2869   58.3252 C   0  0  0  0  0  0  0  0  0  0  0  0
   70.4986   37.8695   58.7811 N   0  0  0  0  0  0  0  0  0  0  0  0
   71.2920   37.1201   58.2071 O   0  0  0  0  0  0  0  0  0  0  0  0
   69.5507   37.3740   59.6445 O   0  0  0  0  0  0  0  0  0  0  0  0
   69.0036   48.6026   56.1925 C   0  0  0  0  0  0  0  0  0  0  0  0
   69.3421   48.6014   54.7459 C   0  0  0  0  0  0  0  0  0  0  0  0
   70.2091   49.5373   54.2571 N   0  0  0  0  0  0  0  0  0  0  0  0
   70.6177   49.6082   53.0145 N   0  0  0  0  0  0  0  0  0  0  0  0
   70.1727   48.7096   52.1264 C   0  0  0  0  0  0  0  0  0  0  0  0
   70.5461   48.7506   50.9327 O   0  0  0  0  0  0  0  0  0  0  0  0
   69.2942   47.7368   52.5521 C   0  0  0  0  0  0  0  0  0  0  0  0
   68.7927   46.7896   51.6754 C   0  0  0  0  0  0  0  0  0  0  0  0
   67.9036   45.8141   52.0667 C   0  0  0  0  0  0  0  0  0  0  0  0
   67.4938   45.7707   53.3808 C   0  0  0  0  0  0  0  0  0  0  0  0
   67.9635   46.6930   54.3010 C   0  0  0  0  0  0  0  0  0  0  0  0
   68.8543   47.6587   53.8802 C   0  0  0  0  0  0  0  0  0  0  0  0
  7  8  2  0
  8  9  1  0
  8  1  1  0
  9 10  1  0
 10 11  2  0
 10 15  1  0
 11 12  1  0
 12 13  2  0
 13 16  1  0
 13 14  1  0
 16 17  2  0
 16 18  1  0
 14 15  2  0
  1  2  2  0
  1  6  1  0
  2  3  1  0
  3  4  2  0
  4  5  1  0
  5 19  1  0
  5  6  2  0
 19 20  1  0
 20 21  2  0
 20 30  1  0
 21 22  1  0
 22 23  1  0
 23 24  2  0
 23 25  1  0
 25 26  1  0
 25 30  2  0
 26 27  2  0
 27 28  1  0
 28 29  2  0
 29 30  1  0
M  CHG  2  16   1  18  -1
M  END
>  <minimizedAffinity>  (24) 
-10.14345

$$$$
cs_full_output_folder/data/smiles/661.pdb
     RDKit          3D

 33 37  0  0  0  0  0  0  0  0999 V2000
   71.6231   47.0845   58.9510 C   0  0  0  0  0  0  0  0  0  0  0  0
   70.7817   47.8853   58.1952 C   0  0  0  0  0  0  0  0  0  0  0  0
   69.9030   47.4116   57.2505 C   0  0  0  0  0  0  0  0  0  0  0  0
   69.8777   46.0378   57.0628 C   0  0  0  0  0  0  0  0  0  0  0  0
   70.6977   45.2013   57.7930 C   0  0  0  0  0  0  0  0  0  0  0  0
   71.5666   45.7233   58.7314 C   0  0  0  0  0  0  0  0  0  0  0  0
   72.3824   44.8925   59.4544 F   0  0  0  0  0  0  0  0  0  0  0  0
   75.4028   49.8265   58.0834 N   0  0  2  0  0  0  0  0  0  0  0  0
   75.1282   50.6770   59.1692 C   0  0  0  0  0  0  0  0  0  0  0  0
   74.8604   50.0614   60.4885 C   0  0  0  0  0  0  0  0  0  0  0  0
   74.6995   48.5799   60.5206 C   0  0  0  0  0  0  0  0  0  0  0  0
   73.8357   48.0245   59.5301 N   0  0  0  0  0  0  0  0  0  0  0  0
   72.5328   47.6547   59.9415 C   0  0  0  0  0  0  0  0  0  0  0  0
   72.1523   47.8020   61.1062 O   0  0  0  0  0  0  0  0  0  0  0  0
   74.1724   47.7964   58.1286 C   0  0  0  0  0  0  0  0  0  0  0  0
   74.2944   49.1671   57.4949 C   0  0  0  0  0  0  0  0  0  0  0  0
   77.7072   51.6034   56.0881 O   0  0  0  0  0  0  0  0  0  0  0  0
   77.5854   50.5933   56.7314 C   0  0  0  0  0  0  0  0  0  0  0  0
   77.8531   50.1758   58.1269 C   0  0  0  0  0  0  0  0  0  0  0  0
   76.6701   49.2419   57.9723 C   0  0  0  0  0  0  0  0  0  0  0  0
   77.1031   49.2123   56.4924 C   0  0  0  0  0  0  0  0  0  0  0  0
   69.0192   48.2909   56.4662 C   0  0  0  0  0  0  0  0  0  0  0  0
   69.4530   48.3710   55.0618 C   0  0  0  0  0  0  0  0  0  0  0  0
   70.4055   49.2505   54.6785 N   0  0  0  0  0  0  0  0  0  0  0  0
   70.8145   49.3524   53.4338 N   0  0  0  0  0  0  0  0  0  0  0  0
   70.3226   48.5916   52.4335 C   0  0  0  0  0  0  0  0  0  0  0  0
   70.7159   48.6922   51.2413 O   0  0  0  0  0  0  0  0  0  0  0  0
   69.3411   47.6642   52.7439 C   0  0  0  0  0  0  0  0  0  0  0  0
   68.8096   46.8645   51.7524 C   0  0  0  0  0  0  0  0  0  0  0  0
   67.8383   45.9453   52.0689 C   0  0  0  0  0  0  0  0  0  0  0  0
   67.4309   45.8621   53.3834 C   0  0  0  0  0  0  0  0  0  0  0  0
   67.9600   46.6650   54.3863 C   0  0  0  0  0  0  0  0  0  0  0  0
   68.9227   47.5703   54.0536 C   0  0  0  0  0  0  0  0  0  0  0  0
 17 18  2  0
 18 19  1  0
 18 21  1  0
 19 20  1  0
  8 20  1  1
 20 21  1  0
  8  9  1  0
  8 16  1  0
  9 10  1  0
 10 11  1  0
 11 12  1  0
 12 13  1  0
 12 15  1  0
 13 14  2  0
 13  1  1  0
  1  2  2  0
  1  6  1  0
  2  3  1  0
  3 22  1  0
  3  4  2  0
 22 23  1  0
 23 24  2  0
 23 33  1  0
 24 25  1  0
 25 26  1  0
 26 27  2  0
 26 28  1  0
 28 29  1  0
 28 33  2  0
 29 30  2  0
 30 31  1  0
 31 32  2  0
 32 33  1  0
  4  5  1  0
  5  6  2  0
  6  7  1  0
 15 16  1  0
M  CHG  1   8   1
M  END
>  <minimizedAffinity>  (25) 
-10.13505

$$$$
cs_full_output_folder/data/smiles/7988.pdb
     RDKit          3D

 33 38  0  0  0  0  0  0  0  0999 V2000
   71.5272   46.8449   58.9508 C   0  0  0  0  0  0  0  0  0  0  0  0
   70.7859   47.7336   58.1772 C   0  0  0  0  0  0  0  0  0  0  0  0
   69.8959   47.3616   57.2072 C   0  0  0  0  0  0  0  0  0  0  0  0
   69.7624   45.9743   57.0236 C   0  0  0  0  0  0  0  0  0  0  0  0
   70.4651   45.0482   57.7545 C   0  0  0  0  0  0  0  0  0  0  0  0
   71.3431   45.5034   58.7129 C   0  0  0  0  0  0  0  0  0  0  0  0
   72.0368   44.5983   59.4343 F   0  0  0  0  0  0  0  0  0  0  0  0
   77.3978   49.0767   58.4182 N   0  0  0  0  0  0  0  0  0  0  0  0
   77.1235   47.8266   59.0933 C   0  0  0  0  0  0  0  0  0  0  0  0
   75.7051   48.2284   59.1895 C   0  0  0  0  0  0  0  0  0  0  0  0
   76.0795   49.5836   58.7305 C   0  0  0  0  0  0  0  0  0  0  0  0
   74.6629   47.4717   58.5157 C   0  0  0  0  0  0  0  0  0  0  0  0
   73.8262   47.5814   59.6828 N   0  0  0  0  0  0  0  0  0  0  0  0
   72.4557   47.3310   59.9670 C   0  0  0  0  0  0  0  0  0  0  0  0
   71.9960   47.5253   61.1196 O   0  0  0  0  0  0  0  0  0  0  0  0
   74.9635   48.0493   60.4330 C   0  0  0  0  0  0  0  0  0  0  0  0
   78.8998   50.8322   58.1018 C   0  0  0  0  0  0  0  0  0  0  0  0
   78.5142   49.6491   57.7039 C   0  0  0  0  0  0  0  0  0  0  0  0
   79.1010   48.8826   56.6220 C   0  0  0  0  0  0  0  0  0  0  0  0
   78.6508   49.0011   55.2169 C   0  0  0  0  0  0  0  0  0  0  0  0
   79.9816   49.6124   55.6495 C   0  0  0  0  0  0  0  0  0  0  0  0
   69.0976   48.2835   56.3585 C   0  0  0  0  0  0  0  0  0  0  0  0
   69.5072   48.3075   54.9395 C   0  0  0  0  0  0  0  0  0  0  0  0
   70.4951   49.1755   54.5416 N   0  0  0  0  0  0  0  0  0  0  0  0
   70.8758   49.2716   53.2873 N   0  0  0  0  0  0  0  0  0  0  0  0
   70.3327   48.5357   52.3054 C   0  0  0  0  0  0  0  0  0  0  0  0
   70.7184   48.6511   51.1136 O   0  0  0  0  0  0  0  0  0  0  0  0
   69.3253   47.6273   52.6110 C   0  0  0  0  0  0  0  0  0  0  0  0
   68.7598   46.8470   51.6149 C   0  0  0  0  0  0  0  0  0  0  0  0
   67.7764   45.9491   51.9575 C   0  0  0  0  0  0  0  0  0  0  0  0
   67.3993   45.8685   53.2807 C   0  0  0  0  0  0  0  0  0  0  0  0
   67.9635   46.6444   54.2660 C   0  0  0  0  0  0  0  0  0  0  0  0
   68.9420   47.5450   53.9475 C   0  0  0  0  0  0  0  0  0  0  0  0
 17 18  2  0
 18 19  1  0
 18  8  1  0
 19 20  1  0
 19 21  1  0
 20 21  1  0
  8  9  1  0
  8 11  1  0
  9 10  1  0
 10 11  1  0
 10 12  1  0
 10 16  1  0
 12 13  1  0
 13 14  1  0
 13 16  1  0
 14 15  2  0
 14  1  1  0
  1  2  2  0
  1  6  1  0
  2  3  1  0
  3 22  1  0
  3  4  2  0
 22 23  1  0
 23 24  2  0
 23 33  1  0
 24 25  1  0
 25 26  1  0
 26 27  2  0
 26 28  1  0
 28 29  1  0
 28 33  2  0
 29 30  2  0
 30 31  1  0
 31 32  2  0
 32 33  1  0
  4  5  1  0
  5  6  2  0
  6  7  1  0
M  END
>  <minimizedAffinity>  (26) 
-10.11615

$$$$
cs_full_output_folder/data/smiles/737.pdb
     RDKit          3D

 29 31  0  0  0  0  0  0  0  0999 V2000
   68.4454   46.7630   53.2120 C   0  0  0  0  0  0  0  0  0  0  0  0
   68.8653   47.6539   54.1682 C   0  0  0  0  0  0  0  0  0  0  0  0
   69.4736   48.8563   53.8942 N   0  0  0  0  0  0  0  0  0  0  0  0
   69.6528   49.1539   52.6106 C   0  0  0  0  0  0  0  0  0  0  0  0
   70.1924   50.2441   52.2984 O   0  0  0  0  0  0  0  0  0  0  0  0
   69.2562   48.3095   51.6362 N   0  0  0  0  0  0  0  0  0  0  0  0
   68.6521   47.1091   51.9016 C   0  0  0  0  0  0  0  0  0  0  0  0
   68.3164   46.3868   50.9282 O   0  0  0  0  0  0  0  0  0  0  0  0
   67.0816   44.9628   52.6756 O   0  0  0  0  0  0  0  0  0  0  0  0
   67.8129   45.5067   53.5753 C   0  0  0  0  0  0  0  0  0  0  0  0
   67.8978   44.8138   54.7776 N   0  0  0  0  0  0  0  0  0  0  0  0
   67.2315   43.5867   55.0325 N   0  0  0  0  0  0  0  0  0  0  0  0
   67.8490   42.7355   55.9851 C   0  0  0  0  0  0  0  0  0  0  0  0
   67.4450   41.4346   56.1734 C   0  0  0  0  0  0  0  0  0  0  0  0
   68.0503   40.6046   57.1104 C   0  0  0  0  0  0  0  0  0  0  0  0
   69.0876   41.0971   57.8766 C   0  0  0  0  0  0  0  0  0  0  0  0
   69.5074   42.3968   57.7039 C   0  0  0  0  0  0  0  0  0  0  0  0
   68.8830   43.2079   56.7574 C   0  0  0  0  0  0  0  0  0  0  0  0
   69.9239   49.6475   55.0130 C   0  0  0  0  0  0  0  0  0  0  0  0
   68.9523   50.0702   56.0087 C   0  0  0  0  0  0  0  0  0  0  0  0
   68.3896   49.0101   56.7803 C   0  0  0  0  0  0  0  0  0  0  0  0
   67.4516   49.2246   57.7365 C   0  0  0  0  0  0  0  0  0  0  0  0
   67.0421   50.5169   57.9552 C   0  0  0  0  0  0  0  0  0  0  0  0
   67.5696   51.5517   57.2267 C   0  0  0  0  0  0  0  0  0  0  0  0
   68.5487   51.3526   56.2250 C   0  0  0  0  0  0  0  0  0  0  0  0
   69.0952   52.5040   55.5072 C   0  0  0  0  0  0  0  0  0  0  0  0
   68.8090   53.6452   56.3145 F   0  0  0  0  0  0  0  0  0  0  0  0
   68.5358   52.7934   54.3030 F   0  0  0  0  0  0  0  0  0  0  0  0
   70.4843   52.5325   55.5250 F   0  0  0  0  0  0  0  0  0  0  0  0
  9 10  2  0
 10 11  1  0
 10  1  1  0
 11 12  1  0
 12 13  1  0
 13 14  2  0
 13 18  1  0
 14 15  1  0
 15 16  2  0
 16 17  1  0
 17 18  2  0
  1  2  2  0
  1  7  1  0
  2  3  1  0
  3 19  1  0
  3  4  1  0
 19 20  1  0
 20 21  2  0
 20 25  1  0
 21 22  1  0
 22 23  2  0
 23 24  1  0
 24 25  2  0
 25 26  1  0
 26 27  1  0
 26 28  1  0
 26 29  1  0
  4  5  2  0
  4  6  1  0
  6  7  1  0
  7  8  2  0
M  END
>  <minimizedAffinity>  (27) 
-10.10448

$$$$
cs_full_output_folder/data/smiles/8049.pdb
     RDKit          3D

 32 36  0  0  0  0  0  0  0  0999 V2000
   71.5025   47.3189   58.8613 C   0  0  0  0  0  0  0  0  0  0  0  0
   70.6494   47.9966   58.0529 C   0  0  0  0  0  0  0  0  0  0  0  0
   69.7711   47.3974   57.1412 C   0  0  0  0  0  0  0  0  0  0  0  0
   69.8217   46.0275   57.1073 C   0  0  0  0  0  0  0  0  0  0  0  0
   70.6896   45.2951   57.9275 C   0  0  0  0  0  0  0  0  0  0  0  0
   71.5278   45.9422   58.8026 C   0  0  0  0  0  0  0  0  0  0  0  0
   72.3673   45.2181   59.5944 F   0  0  0  0  0  0  0  0  0  0  0  0
   72.1879   47.9286   61.0256 O   0  0  0  0  0  0  0  0  0  0  0  0
   72.3926   48.0395   59.7920 C   0  0  0  0  0  0  0  0  0  0  0  0
   73.4464   48.8340   59.3238 N   0  0  0  0  0  0  0  0  0  0  0  0
   73.6435   48.9300   57.8749 C   0  0  0  0  0  0  0  0  0  0  0  0
   75.0696   49.4080   57.7030 C   0  0  0  0  0  0  0  0  0  0  0  0
   75.9741   48.5643   58.6143 C   0  0  0  0  0  0  0  0  0  0  0  0
   75.8036   49.1474   60.0017 C   0  0  0  0  0  0  0  0  0  0  0  0
   74.3600   49.5690   60.1528 C   0  0  0  0  0  0  0  0  0  0  0  0
   77.2398   48.6777   58.1188 O   0  0  0  0  0  0  0  0  0  0  0  0
   77.5513   49.8336   57.4878 C   0  0  0  0  0  0  0  0  0  0  0  0
   78.3411   49.7886   56.2172 C   0  0  0  0  0  0  0  0  0  0  0  0
   79.0567   51.0515   56.6529 C   0  0  0  0  0  0  0  0  0  0  0  0
   78.6035   50.7155   58.0778 C   0  0  0  0  0  0  0  0  0  0  0  0
   68.8948   48.2317   56.2868 C   0  0  0  0  0  0  0  0  0  0  0  0
   69.2854   48.2965   54.8792 C   0  0  0  0  0  0  0  0  0  0  0  0
   70.1867   49.2498   54.4756 N   0  0  0  0  0  0  0  0  0  0  0  0
   70.5770   49.4181   53.2490 N   0  0  0  0  0  0  0  0  0  0  0  0
   70.1252   48.6565   52.2345 C   0  0  0  0  0  0  0  0  0  0  0  0
   70.5185   48.8410   51.0586 O   0  0  0  0  0  0  0  0  0  0  0  0
   69.2097   47.6605   52.5350 C   0  0  0  0  0  0  0  0  0  0  0  0
   68.7224   46.8454   51.5424 C   0  0  0  0  0  0  0  0  0  0  0  0
   67.8286   45.8556   51.8420 C   0  0  0  0  0  0  0  0  0  0  0  0
   67.4222   45.6880   53.1614 C   0  0  0  0  0  0  0  0  0  0  0  0
   67.9304   46.5224   54.1341 C   0  0  0  0  0  0  0  0  0  0  0  0
   68.8177   47.5113   53.8539 C   0  0  0  0  0  0  0  0  0  0  0  0
  8  9  2  0
  9  1  1  0
  9 10  1  0
  1  2  2  0
  1  6  1  0
  2  3  1  0
  3 21  1  0
  3  4  2  0
 21 22  1  0
 22 23  2  0
 22 32  1  0
 23 24  1  0
 24 25  1  0
 25 26  2  0
 25 27  1  0
 27 28  1  0
 27 32  2  0
 28 29  2  0
 29 30  1  0
 30 31  2  0
 31 32  1  0
  4  5  1  0
  5  6  2  0
  6  7  1  0
 10 11  1  0
 10 15  1  0
 11 12  1  0
 12 13  1  0
 13 16  1  0
 13 14  1  0
 16 17  1  0
 17 18  1  0
 17 20  1  0
 18 19  1  0
 19 20  1  0
 14 15  1  0
M  END
>  <minimizedAffinity>  (28) 
-10.10264

$$$$
cs_full_output_folder/data/smiles/1109.pdb
     RDKit          3D

 29 30  0  0  0  0  0  0  0  0999 V2000
   70.4007   43.8750   58.1537 C   0  0  0  0  0  0  0  0  0  0  0  0
   71.6868   44.8297   58.9326 S   0  0  0  0  0  0  0  0  0  0  0  0
   71.2125   41.5533   58.3681 C   0  0  0  0  0  0  0  0  0  0  0  0
   72.1869   41.9273   57.4248 O   0  0  0  0  0  0  0  0  0  0  0  0
   70.4166   42.5832   58.6288 N   0  0  0  0  0  0  0  0  0  0  0  0
   72.3404   37.5004   58.7390 C   0  0  0  0  0  0  0  0  0  0  0  0
   71.0168   37.8219   58.3674 C   0  0  0  0  0  0  0  0  0  0  0  0
   70.6420   39.1325   58.3653 C   0  0  0  0  0  0  0  0  0  0  0  0
   71.4620   40.1669   58.7030 C   0  0  0  0  0  0  0  0  0  0  0  0
   72.7756   39.8436   59.0894 C   0  0  0  0  0  0  0  0  0  0  0  0
   73.1582   38.5291   59.0886 C   0  0  0  0  0  0  0  0  0  0  0  0
   74.1494   35.8313   59.0493 C   0  0  0  0  0  0  0  0  0  0  0  0
   72.7904   36.0573   58.5158 C   0  0  0  0  0  0  0  0  0  0  0  0
   71.7040   35.1239   59.0022 C   0  0  0  0  0  0  0  0  0  0  0  0
   72.8514   35.9121   57.0907 C   0  0  0  0  0  0  0  0  0  0  0  0
   72.9017   35.7725   55.6803 S   0  0  0  0  0  0  0  0  0  0  0  0
   69.5403   44.7131   57.5356 N   0  0  0  0  0  0  0  0  0  0  0  0
   69.2709   45.2177   56.2956 N   0  0  0  0  0  0  0  0  0  0  0  0
   68.5058   46.2965   55.7978 C   0  0  0  0  0  0  0  0  0  0  0  0
   67.9206   47.0308   56.5704 O   0  0  0  0  0  0  0  0  0  0  0  0
   68.4916   46.4717   54.3198 C   0  0  0  0  0  0  0  0  0  0  0  0
   67.7270   45.6831   53.4983 C   0  0  0  0  0  0  0  0  0  0  0  0
   67.7799   45.9174   52.1134 C   0  0  0  0  0  0  0  0  0  0  0  0
   68.5991   46.9176   51.6656 C   0  0  0  0  0  0  0  0  0  0  0  0
   69.3875   47.7302   52.4144 C   0  0  0  0  0  0  0  0  0  0  0  0
   69.2853   47.4502   53.8094 C   0  0  0  0  0  0  0  0  0  0  0  0
   70.2135   48.7768   51.9496 N   0  0  0  0  0  0  0  0  0  0  0  0
   69.9956   49.4470   50.9579 O   0  0  0  0  0  0  0  0  0  0  0  0
   71.3471   49.0753   52.7064 O   0  0  0  0  0  0  0  0  0  0  0  0
 12 13  1  0
 13 14  1  0
 13 15  1  0
 13  6  1  0
 15 16  3  0
  6  7  2  0
  6 11  1  0
  7  8  1  0
  8  9  2  0
  9  3  1  0
  9 10  1  0
  3  4  2  0
  3  5  1  0
  5  1  1  0
  1  2  2  0
  1 17  1  0
 17 18  1  0
 18 19  1  0
 19 20  2  0
 19 21  1  0
 21 22  2  0
 21 26  1  0
 22 23  1  0
 23 24  2  0
 24 25  1  0
 25 27  1  0
 25 26  2  0
 27 28  2  0
 27 29  1  0
 10 11  2  0
M  CHG  2  27   1  29  -1
M  END
>  <minimizedAffinity>  (29) 
-10.09804

$$$$
cs_full_output_folder/data/smiles/8680.pdb
     RDKit          3D

 32 36  0  0  0  0  0  0  0  0999 V2000
   71.3562   46.6768   58.9004 C   0  0  0  0  0  0  0  0  0  0  0  0
   70.6847   47.6017   58.1396 C   0  0  0  0  0  0  0  0  0  0  0  0
   69.8411   47.1848   57.0988 C   0  0  0  0  0  0  0  0  0  0  0  0
   69.6931   45.8408   56.8447 C   0  0  0  0  0  0  0  0  0  0  0  0
   70.3866   44.9085   57.6298 C   0  0  0  0  0  0  0  0  0  0  0  0
   71.2067   45.3342   58.6461 C   0  0  0  0  0  0  0  0  0  0  0  0
   71.8449   44.3750   59.3627 F   0  0  0  0  0  0  0  0  0  0  0  0
   75.4286   50.4967   57.5103 N   0  0  0  0  0  0  0  0  0  0  0  0
   75.3186   50.7552   58.9094 C   0  0  0  0  0  0  0  0  0  0  0  0
   75.6361   49.4657   59.6319 C   0  0  1  0  0  0  0  0  0  0  0  0
   74.7077   49.3427   60.8018 C   0  0  0  0  0  0  0  0  0  0  0  0
   74.3393   47.8874   61.0291 C   0  0  0  0  0  0  0  0  0  0  0  0
   73.5572   47.5137   59.8641 N   0  0  0  0  0  0  0  0  0  0  0  0
   72.2289   47.0736   59.9920 C   0  0  0  0  0  0  0  0  0  0  0  0
   71.7283   47.0083   61.1451 O   0  0  0  0  0  0  0  0  0  0  0  0
   74.2507   47.6278   58.5955 C   0  0  0  0  0  0  0  0  0  0  0  0
   75.5101   48.3879   58.6181 C   0  0  1  0  0  0  0  0  0  0  0  0
   75.7264   49.1269   57.2930 C   0  0  0  0  0  0  0  0  0  0  0  0
   74.4924   50.7391   55.3543 C   0  0  0  0  0  0  0  0  0  0  0  0
   74.3835   51.0021   56.7604 N   0  0  0  0  0  0  0  0  0  0  0  0
   69.1260   48.2342   56.3394 C   0  0  0  0  0  0  0  0  0  0  0  0
   69.4409   48.2943   54.9120 C   0  0  0  0  0  0  0  0  0  0  0  0
   70.3893   49.1865   54.5274 N   0  0  0  0  0  0  0  0  0  0  0  0
   70.8096   49.3446   53.3053 N   0  0  0  0  0  0  0  0  0  0  0  0
   70.2888   48.5840   52.3171 C   0  0  0  0  0  0  0  0  0  0  0  0
   70.6702   48.7073   51.1241 O   0  0  0  0  0  0  0  0  0  0  0  0
   69.3196   47.6492   52.6087 C   0  0  0  0  0  0  0  0  0  0  0  0
   68.7704   46.8737   51.6159 C   0  0  0  0  0  0  0  0  0  0  0  0
   67.7891   45.9504   51.9295 C   0  0  0  0  0  0  0  0  0  0  0  0
   67.3817   45.8281   53.2436 C   0  0  0  0  0  0  0  0  0  0  0  0
   67.9382   46.6096   54.2294 C   0  0  0  0  0  0  0  0  0  0  0  0
   68.9108   47.5250   53.9198 C   0  0  0  0  0  0  0  0  0  0  0  0
 19 20  1  0
 20  8  1  0
  8  9  1  0
  8 18  1  0
 10  9  1  6
 10 11  1  0
 10 17  1  0
 11 12  1  0
 12 13  1  0
 13 14  1  0
 13 16  1  0
 14 15  2  0
 14  1  1  0
  1  2  2  0
  1  6  1  0
  2  3  1  0
  3 21  1  0
  3  4  2  0
 21 22  1  0
 22 23  2  0
 22 32  1  0
 23 24  1  0
 24 25  1  0
 25 26  2  0
 25 27  1  0
 27 28  1  0
 27 32  2  0
 28 29  2  0
 29 30  1  0
 30 31  2  0
 31 32  1  0
  4  5  1  0
  5  6  2  0
  6  7  1  0
 17 16  1  6
 17 18  1  0
M  END
>  <minimizedAffinity>  (30) 
-10.08798

$$$$
cs_full_output_folder/data/smiles/779.pdb
     RDKit          3D

 27 28  0  0  0  0  0  0  0  0999 V2000
   69.5634   46.9485   57.4982 S   0  0  0  0  0  0  0  0  0  0  0  0
   69.5021   46.4073   58.9008 O   0  0  0  0  0  0  0  0  0  0  0  0
   70.9795   46.8009   57.0259 O   0  0  0  0  0  0  0  0  0  0  0  0
   69.1161   48.6473   57.4825 C   0  0  0  0  0  0  0  0  0  0  0  0
   70.1219   49.5723   57.4160 C   0  0  0  0  0  0  0  0  0  0  0  0
   71.3978   49.1721   57.3694 F   0  0  0  0  0  0  0  0  0  0  0  0
   69.8647   50.9367   57.3940 C   0  0  0  0  0  0  0  0  0  0  0  0
   70.9009   51.8048   57.3267 F   0  0  0  0  0  0  0  0  0  0  0  0
   68.5710   51.3582   57.4414 C   0  0  0  0  0  0  0  0  0  0  0  0
   68.2866   52.6941   57.4217 F   0  0  0  0  0  0  0  0  0  0  0  0
   67.5354   50.4621   57.5091 C   0  0  0  0  0  0  0  0  0  0  0  0
   66.2458   50.8953   57.5552 F   0  0  0  0  0  0  0  0  0  0  0  0
   67.8193   49.0985   57.5293 C   0  0  0  0  0  0  0  0  0  0  0  0
   66.8216   48.2083   57.5910 F   0  0  0  0  0  0  0  0  0  0  0  0
   68.5411   46.0730   56.4357 N   0  0  0  0  0  0  0  0  0  0  0  0
   69.1978   47.7685   53.1545 C   0  0  0  0  0  0  0  0  0  0  0  0
   69.1844   47.4618   54.4982 C   0  0  0  0  0  0  0  0  0  0  0  0
   68.5341   46.3731   55.0512 C   0  0  0  0  0  0  0  0  0  0  0  0
   67.8499   45.5439   54.1483 C   0  0  0  0  0  0  0  0  0  0  0  0
   67.8418   45.8182   52.8023 C   0  0  0  0  0  0  0  0  0  0  0  0
   67.1843   45.0256   51.9160 F   0  0  0  0  0  0  0  0  0  0  0  0
   68.5141   46.9289   52.3033 C   0  0  0  0  0  0  0  0  0  0  0  0
   68.5023   47.1952   50.9714 F   0  0  0  0  0  0  0  0  0  0  0  0
   69.2951   50.5859   53.1964 N   0  0  0  0  0  0  0  0  0  0  0  0
   70.0442   49.1681   52.5191 S   0  0  0  0  0  0  0  0  0  0  0  0
   71.4733   49.1836   52.9806 O   0  0  0  0  0  0  0  0  0  0  0  0
   70.0341   49.2015   51.0380 O   0  0  0  0  0  0  0  0  0  0  0  0
 24 25  1  0
 25 26  2  0
 25 27  2  0
 25 16  1  0
 16 17  2  0
 16 22  1  0
 17 18  1  0
 18 15  1  0
 18 19  2  0
 15  1  1  0
  1  2  2  0
  1  3  2  0
  1  4  1  0
  4  5  2  0
  4 13  1  0
  5  6  1  0
  5  7  1  0
  7  8  1  0
  7  9  2  0
  9 10  1  0
  9 11  1  0
 11 12  1  0
 11 13  2  0
 13 14  1  0
 19 20  1  0
 20 21  1  0
 20 22  2  0
 22 23  1  0
M  END
>  <minimizedAffinity>  (31) 
-10.08574

$$$$
cs_full_output_folder/data/smiles/9135.pdb
     RDKit          3D

 32 36  0  0  0  0  0  0  0  0999 V2000
   71.3833   46.9269   58.7564 C   0  0  0  0  0  0  0  0  0  0  0  0
   70.5643   47.7571   57.9961 C   0  0  0  0  0  0  0  0  0  0  0  0
   69.6767   47.2911   57.0840 C   0  0  0  0  0  0  0  0  0  0  0  0
   69.5716   45.9086   56.8883 C   0  0  0  0  0  0  0  0  0  0  0  0
   70.3749   45.0733   57.6308 C   0  0  0  0  0  0  0  0  0  0  0  0
   71.2747   45.5715   58.5587 C   0  0  0  0  0  0  0  0  0  0  0  0
   72.0506   44.7306   59.2736 F   0  0  0  0  0  0  0  0  0  0  0  0
   75.4523   48.6680   58.8646 C   0  0  0  0  0  0  0  0  0  0  0  0
   74.7942   48.3556   60.1902 C   0  0  0  0  0  0  0  0  0  0  0  0
   73.6467   47.8144   59.4429 N   0  0  0  0  0  0  0  0  0  0  0  0
   72.3123   47.4487   59.7309 C   0  0  0  0  0  0  0  0  0  0  0  0
   71.9116   47.5876   60.9143 O   0  0  0  0  0  0  0  0  0  0  0  0
   74.4456   47.7932   58.2246 C   0  0  0  0  0  0  0  0  0  0  0  0
   74.9934   50.9466   59.6345 C   0  0  0  0  0  0  0  0  0  0  0  0
   75.5386   50.1061   58.5074 C   0  0  1  0  0  0  0  0  0  0  0  0
   76.7057   50.5721   57.8715 N   0  0  0  0  0  0  0  0  0  0  0  0
   77.8451   50.3100   58.7778 C   0  0  0  0  0  0  0  0  0  0  0  0
   79.0388   50.6253   57.9126 C   0  0  0  0  0  0  0  0  0  0  0  0
   78.5417   50.5882   56.4865 C   0  0  0  0  0  0  0  0  0  0  0  0
   77.1489   49.9588   56.6785 C   0  0  0  0  0  0  0  0  0  0  0  0
   68.7776   48.1222   56.2687 C   0  0  0  0  0  0  0  0  0  0  0  0
   69.2211   48.3099   54.8651 C   0  0  0  0  0  0  0  0  0  0  0  0
   70.1328   49.2656   54.5633 N   0  0  0  0  0  0  0  0  0  0  0  0
   70.5629   49.3887   53.3343 N   0  0  0  0  0  0  0  0  0  0  0  0
   70.1619   48.6221   52.3175 C   0  0  0  0  0  0  0  0  0  0  0  0
   70.6333   48.8078   51.1440 O   0  0  0  0  0  0  0  0  0  0  0  0
   69.2341   47.6339   52.5604 C   0  0  0  0  0  0  0  0  0  0  0  0
   68.8030   46.8492   51.5156 C   0  0  0  0  0  0  0  0  0  0  0  0
   67.8598   45.8723   51.7609 C   0  0  0  0  0  0  0  0  0  0  0  0
   67.3792   45.7098   53.0384 C   0  0  0  0  0  0  0  0  0  0  0  0
   67.8289   46.5097   54.0683 C   0  0  0  0  0  0  0  0  0  0  0  0
   68.7707   47.4976   53.8715 C   0  0  0  0  0  0  0  0  0  0  0  0
 15 14  1  1
 15  8  1  0
 15 16  1  0
  8  9  1  0
  8 13  1  0
  9 10  1  0
 10 11  1  0
 10 13  1  0
 11 12  2  0
 11  1  1  0
  1  2  2  0
  1  6  1  0
  2  3  1  0
  3 21  1  0
  3  4  2  0
 21 22  1  0
 22 23  2  0
 22 32  1  0
 23 24  1  0
 24 25  1  0
 25 26  2  0
 25 27  1  0
 27 28  1  0
 27 32  2  0
 28 29  2  0
 29 30  1  0
 30 31  2  0
 31 32  1  0
  4  5  1  0
  5  6  2  0
  6  7  1  0
 16 17  1  0
 16 20  1  0
 17 18  1  0
 18 19  1  0
 19 20  1  0
M  CHG  1  16   1
M  END
>  <minimizedAffinity>  (32) 
-10.08276

$$$$
cs_full_output_folder/data/smiles/121.pdb
     RDKit          3D

 26 27  0  0  0  0  0  0  0  0999 V2000
   70.0023   49.2020   52.6138 S   0  0  0  0  0  0  0  0  0  0  0  0
   69.9947   49.0523   51.0964 O   0  0  0  0  0  0  0  0  0  0  0  0
   71.4802   49.1867   52.9741 O   0  0  0  0  0  0  0  0  0  0  0  0
   69.2173   47.7713   53.2285 C   0  0  0  0  0  0  0  0  0  0  0  0
   68.5560   46.8843   52.3713 C   0  0  0  0  0  0  0  0  0  0  0  0
   68.5328   47.1973   51.0625 F   0  0  0  0  0  0  0  0  0  0  0  0
   67.9485   45.7378   52.8190 C   0  0  0  0  0  0  0  0  0  0  0  0
   67.3049   44.8744   51.9797 F   0  0  0  0  0  0  0  0  0  0  0  0
   67.9914   45.4465   54.1639 C   0  0  0  0  0  0  0  0  0  0  0  0
   67.4090   44.3215   54.6874 F   0  0  0  0  0  0  0  0  0  0  0  0
   68.6316   46.2909   55.0539 C   0  0  0  0  0  0  0  0  0  0  0  0
   68.6727   46.0011   56.3849 F   0  0  0  0  0  0  0  0  0  0  0  0
   69.2323   47.4339   54.5793 C   0  0  0  0  0  0  0  0  0  0  0  0
   69.8793   48.3026   55.4197 F   0  0  0  0  0  0  0  0  0  0  0  0
   69.2694   50.6675   53.0466 N   0  0  0  0  0  0  0  0  0  0  0  0
   71.3940   52.6362   55.3412 C   0  0  0  0  0  0  0  0  0  0  0  0
   70.4026   53.2378   56.1149 C   0  0  0  0  0  0  0  0  0  0  0  0
   69.0580   52.9887   55.8815 C   0  0  0  0  0  0  0  0  0  0  0  0
   68.6536   52.1238   54.8599 C   0  0  0  0  0  0  0  0  0  0  0  0
   69.6238   51.5350   54.1043 C   0  0  0  0  0  0  0  0  0  0  0  0
   70.9730   51.7962   54.3518 C   0  0  0  0  0  0  0  0  0  0  0  0
   72.7412   52.9514   55.6493 N   0  0  0  0  0  0  0  0  0  0  0  0
   73.9901   50.5564   54.7731 N   0  0  0  0  0  0  0  0  0  0  0  0
   73.9852   52.2985   54.6559 S   0  0  0  0  0  0  0  0  0  0  0  0
   75.3024   52.8087   55.1520 O   0  0  0  0  0  0  0  0  0  0  0  0
   73.7700   52.6597   53.2075 O   0  0  0  0  0  0  0  0  0  0  0  0
 23 24  1  0
 24 25  2  0
 24 26  2  0
 24 22  1  0
 22 16  1  0
 16 17  2  0
 16 21  1  0
 17 18  1  0
 18 19  2  0
 19 20  1  0
 20 15  1  0
 20 21  2  0
 15  1  1  0
  1  2  2  0
  1  3  2  0
  1  4  1  0
  4  5  2  0
  4 13  1  0
  5  6  1  0
  5  7  1  0
  7  8  1  0
  7  9  2  0
  9 10  1  0
  9 11  1  0
 11 12  1  0
 11 13  2  0
 13 14  1  0
M  END
>  <minimizedAffinity>  (33) 
-10.08047

$$$$
cs_full_output_folder/data/smiles/1868.pdb
     RDKit          3D

 27 29  0  0  0  0  0  0  0  0999 V2000
   70.0716   49.1877   52.5280 S   0  0  0  0  0  0  0  0  0  0  0  0
   70.1655   49.0192   51.0400 O   0  0  0  0  0  0  0  0  0  0  0  0
   71.4663   49.2956   53.0829 O   0  0  0  0  0  0  0  0  0  0  0  0
   69.2669   47.7574   53.1645 C   0  0  0  0  0  0  0  0  0  0  0  0
   69.2959   47.5533   54.5354 C   0  0  0  0  0  0  0  0  0  0  0  0
   69.9305   48.4511   55.3320 F   0  0  0  0  0  0  0  0  0  0  0  0
   68.6813   46.4456   55.0742 C   0  0  0  0  0  0  0  0  0  0  0  0
   68.6983   46.2289   56.4186 F   0  0  0  0  0  0  0  0  0  0  0  0
   68.0389   45.5323   54.2926 C   0  0  0  0  0  0  0  0  0  0  0  0
   67.4385   44.4409   54.8709 F   0  0  0  0  0  0  0  0  0  0  0  0
   68.0043   45.7246   52.9277 C   0  0  0  0  0  0  0  0  0  0  0  0
   67.3858   44.8571   52.1091 F   0  0  0  0  0  0  0  0  0  0  0  0
   68.6245   46.8436   52.3807 C   0  0  0  0  0  0  0  0  0  0  0  0
   68.5844   47.0132   51.0558 F   0  0  0  0  0  0  0  0  0  0  0  0
   69.1537   50.5989   52.8667 N   0  0  0  0  0  0  0  0  0  0  0  0
   73.7362   52.2390   53.4725 N   0  0  0  0  0  0  0  0  0  0  0  0
   73.7504   52.7600   54.7758 C   0  0  0  0  0  0  0  0  0  0  0  0
   74.8564   53.1439   55.2651 O   0  0  0  0  0  0  0  0  0  0  0  0
   72.5927   52.8871   55.5941 N   0  0  0  0  0  0  0  0  0  0  0  0
   72.5008   53.4041   56.9318 C   0  0  0  0  0  0  0  0  0  0  0  0
   71.0612   53.8790   57.0526 C   0  0  0  0  0  0  0  0  0  0  0  0
   70.3428   53.0710   56.0465 C   0  0  0  0  0  0  0  0  0  0  0  0
   69.0005   52.8366   55.8610 C   0  0  0  0  0  0  0  0  0  0  0  0
   68.6204   52.0127   54.8043 C   0  0  0  0  0  0  0  0  0  0  0  0
   69.5137   51.4293   53.9479 C   0  0  0  0  0  0  0  0  0  0  0  0
   70.8641   51.7008   54.1829 C   0  0  0  0  0  0  0  0  0  0  0  0
   71.2692   52.5097   55.2175 C   0  0  0  0  0  0  0  0  0  0  0  0
 16 17  1  0
 17 18  2  0
 17 19  1  0
 19 20  1  0
 19 27  1  0
 20 21  1  0
 21 22  1  0
 22 23  2  0
 22 27  1  0
 23 24  1  0
 24 25  2  0
 25 15  1  0
 25 26  1  0
 15  1  1  0
  1  2  2  0
  1  3  2  0
  1  4  1  0
  4  5  2  0
  4 13  1  0
  5  6  1  0
  5  7  1  0
  7  8  1  0
  7  9  2  0
  9 10  1  0
  9 11  1  0
 11 12  1  0
 11 13  2  0
 13 14  1  0
 26 27  2  0
M  END
>  <minimizedAffinity>  (34) 
-10.07618

$$$$
cs_full_output_folder/data/smiles/6943.pdb
     RDKit          3D

 32 35  0  0  0  0  0  0  0  0999 V2000
   70.6070   45.7599   58.0406 C   0  0  0  0  0  0  0  0  0  0  0  0
   69.8400   46.5107   57.1675 C   0  0  0  0  0  0  0  0  0  0  0  0
   69.8133   47.8790   57.1393 C   0  0  0  0  0  0  0  0  0  0  0  0
   70.6477   48.4942   58.0924 C   0  0  0  0  0  0  0  0  0  0  0  0
   71.4215   47.8062   58.9719 C   0  0  0  0  0  0  0  0  0  0  0  0
   71.4000   46.3951   58.9463 C   0  0  0  0  0  0  0  0  0  0  0  0
   72.1658   45.7596   59.8367 F   0  0  0  0  0  0  0  0  0  0  0  0
   69.4191   43.4971   58.0617 N   0  0  0  0  0  0  0  0  0  0  0  0
   70.5582   44.3183   57.9531 C   0  0  0  0  0  0  0  0  0  0  0  0
   71.6539   43.6616   57.7577 O   0  0  0  0  0  0  0  0  0  0  0  0
   69.2244   39.8807   59.0089 C   0  0  2  0  0  0  0  0  0  0  0  0
   68.1788   39.3886   58.0493 C   0  0  0  0  0  0  0  0  0  0  0  0
   67.6539   40.4298   57.1223 C   0  0  0  0  0  0  0  0  0  0  0  0
   68.5294   41.5983   56.8776 C   0  0  0  0  0  0  0  0  0  0  0  0
   69.4356   42.0419   57.9540 C   0  0  2  0  0  0  0  0  0  0  0  0
   69.1433   41.3665   59.2424 C   0  0  0  0  0  0  0  0  0  0  0  0
   72.3635   37.9832   58.0914 N   0  0  0  0  0  0  0  0  0  0  0  0
   71.0897   38.2278   58.6345 C   0  0  0  0  0  0  0  0  0  0  0  0
   70.4137   37.3403   59.2537 O   0  0  0  0  0  0  0  0  0  0  0  0
   70.5271   39.5399   58.4830 N   0  0  0  0  0  0  0  0  0  0  0  0
   68.9992   48.7155   56.2231 C   0  0  0  0  0  0  0  0  0  0  0  0
   69.3792   48.5964   54.7984 C   0  0  0  0  0  0  0  0  0  0  0  0
   70.2868   49.4959   54.3215 N   0  0  0  0  0  0  0  0  0  0  0  0
   70.6901   49.5455   53.0721 N   0  0  0  0  0  0  0  0  0  0  0  0
   70.2007   48.6695   52.1818 C   0  0  0  0  0  0  0  0  0  0  0  0
   70.5754   48.6964   50.9622 O   0  0  0  0  0  0  0  0  0  0  0  0
   69.2879   47.7311   52.5705 C   0  0  0  0  0  0  0  0  0  0  0  0
   68.7662   46.8056   51.7106 C   0  0  0  0  0  0  0  0  0  0  0  0
   67.8592   45.8500   52.1045 C   0  0  0  0  0  0  0  0  0  0  0  0
   67.4801   45.8594   53.4496 C   0  0  0  0  0  0  0  0  0  0  0  0
   67.9838   46.7758   54.3393 C   0  0  0  0  0  0  0  0  0  0  0  0
   68.8786   47.7031   53.8993 C   0  0  0  0  0  0  0  0  0  0  0  0
 17 18  1  0
 18 19  2  0
 18 20  1  0
 11 20  1  6
 11 12  1  0
 11 16  1  0
 12 13  1  0
 13 14  1  0
 14 15  1  0
 15  8  1  1
 15 16  1  0
  8  9  1  0
  9 10  2  0
  9  1  1  0
  1  2  2  0
  1  6  1  0
  2  3  1  0
  3 21  1  0
  3  4  2  0
 21 22  1  0
 22 23  2  0
 22 32  1  0
 23 24  1  0
 24 25  1  0
 25 26  2  0
 25 27  1  0
 27 28  1  0
 27 32  2  0
 28 29  2  0
 29 30  1  0
 30 31  2  0
 31 32  1  0
  4  5  1  0
  5  6  2  0
  6  7  1  0
M  END
>  <minimizedAffinity>  (35) 
-10.07304

$$$$
cs_full_output_folder/data/smiles/161.pdb
     RDKit          3D

 28 30  0  0  0  0  0  0  0  0999 V2000
   68.3957   46.0296   54.1440 C   0  0  0  0  0  0  0  0  0  0  0  0
   67.8300   45.6709   52.9273 C   0  0  0  0  0  0  0  0  0  0  0  0
   67.9762   46.4378   51.7825 C   0  0  0  0  0  0  0  0  0  0  0  0
   68.7022   47.5941   51.8434 C   0  0  0  0  0  0  0  0  0  0  0  0
   69.2805   47.9858   53.0353 C   0  0  0  0  0  0  0  0  0  0  0  0
   69.1125   47.2016   54.1378 C   0  0  0  0  0  0  0  0  0  0  0  0
   67.7813   43.8700   55.3522 N   0  0  0  0  0  0  0  0  0  0  0  0
   68.2493   45.2100   55.3331 C   0  0  0  0  0  0  0  0  0  0  0  0
   68.5542   45.6941   56.4518 O   0  0  0  0  0  0  0  0  0  0  0  0
   67.6058   41.0248   55.6300 O   0  0  0  0  0  0  0  0  0  0  0  0
   67.6058   41.7372   56.6469 C   0  0  0  0  0  0  0  0  0  0  0  0
   67.6888   43.1318   56.5355 N   0  0  0  0  0  0  0  0  0  0  0  0
   67.5121   41.0503   57.9849 C   0  0  0  0  0  0  0  0  0  0  0  0
   68.7521   40.2787   58.2589 C   0  0  0  0  0  0  0  0  0  0  0  0
   69.9378   40.9846   58.2387 C   0  0  0  0  0  0  0  0  0  0  0  0
   71.1498   40.3725   58.4721 C   0  0  0  0  0  0  0  0  0  0  0  0
   71.1520   39.0120   58.7327 C   0  0  0  0  0  0  0  0  0  0  0  0
   69.9950   38.2701   58.7631 C   0  0  0  0  0  0  0  0  0  0  0  0
   68.7908   38.9278   58.5213 C   0  0  0  0  0  0  0  0  0  0  0  0
   70.2074   49.4582   53.0557 S   0  0  0  0  0  0  0  0  0  0  0  0
   71.6545   49.1035   52.8530 O   0  0  0  0  0  0  0  0  0  0  0  0
   69.7528   50.2701   51.8500 O   0  0  0  0  0  0  0  0  0  0  0  0
   70.0147   50.3920   54.4205 N   0  0  0  0  0  0  0  0  0  0  0  0
   69.9198   49.8155   55.6843 C   0  0  0  0  0  0  0  0  0  0  0  0
   68.7852   50.2888   56.5503 C   0  0  0  0  0  0  0  0  0  0  0  0
   68.2263   51.6209   56.2136 C   0  0  0  0  0  0  0  0  0  0  0  0
   68.2250   51.9559   54.7392 C   0  0  0  0  0  0  0  0  0  0  0  0
   69.6496   51.7489   54.2575 C   0  0  0  0  0  0  0  0  0  0  0  0
 10 11  2  0
 11 13  1  0
 11 12  1  0
 13 14  1  0
 14 15  2  0
 14 19  1  0
 15 16  1  0
 16 17  2  0
 17 18  1  0
 18 19  2  0
 12  7  1  0
  7  8  1  0
  8  9  2  0
  8  1  1  0
  1  2  2  0
  1  6  1  0
  2  3  1  0
  3  4  2  0
  4  5  1  0
  5 20  1  0
  5  6  2  0
 20 21  2  0
 20 22  2  0
 20 23  1  0
 23 24  1  0
 23 28  1  0
 24 25  1  0
 25 26  1  0
 26 27  1  0
 27 28  1  0
M  END
>  <minimizedAffinity>  (36) 
-10.03452

$$$$
cs_full_output_folder/data/smiles/4347.pdb
     RDKit          3D

 29 31  0  0  0  0  0  0  0  0999 V2000
   69.1189   47.8701   52.9221 C   0  0  0  0  0  0  0  0  0  0  0  0
   68.5745   47.3940   51.7481 C   0  0  0  0  0  0  0  0  0  0  0  0
   67.9085   46.1686   51.7247 C   0  0  0  0  0  0  0  0  0  0  0  0
   67.8011   45.4310   52.9086 C   0  0  0  0  0  0  0  0  0  0  0  0
   68.3332   45.8777   54.0953 C   0  0  0  0  0  0  0  0  0  0  0  0
   68.9897   47.1123   54.0609 C   0  0  0  0  0  0  0  0  0  0  0  0
   69.9393   49.3863   52.9316 S   0  0  0  0  0  0  0  0  0  0  0  0
   69.7325   50.1040   51.6141 O   0  0  0  0  0  0  0  0  0  0  0  0
   71.4262   49.0968   53.0279 O   0  0  0  0  0  0  0  0  0  0  0  0
   70.9679   50.0382   56.1241 C   0  0  0  0  0  0  0  0  0  0  0  0
   69.5989   49.9018   55.5049 C   0  0  1  0  0  0  0  0  0  0  0  0
   68.6406   50.7051   56.3747 C   0  0  0  0  0  0  0  0  0  0  0  0
   68.8530   52.1786   56.2740 C   0  0  0  0  0  0  0  0  0  0  0  0
   68.9593   52.6398   54.8476 C   0  0  0  0  0  0  0  0  0  0  0  0
   69.9499   51.7809   54.0497 C   0  0  0  0  0  0  0  0  0  0  0  0
   69.5203   50.4321   54.1819 N   0  0  0  0  0  0  0  0  0  0  0  0
   68.2346   45.1258   55.3431 C   0  0  0  0  0  0  0  0  0  0  0  0
   68.5630   45.6434   56.4524 O   0  0  0  0  0  0  0  0  0  0  0  0
   67.7772   43.8072   55.3869 N   0  0  0  0  0  0  0  0  0  0  0  0
   67.6698   43.0533   56.5739 N   0  0  0  0  0  0  0  0  0  0  0  0
   67.5378   41.6543   56.5843 C   0  0  0  0  0  0  0  0  0  0  0  0
   67.5185   41.0834   55.4558 O   0  0  0  0  0  0  0  0  0  0  0  0
   67.4232   40.8303   57.7824 C   0  0  0  0  0  0  0  0  0  0  0  0
   68.0165   39.5920   57.9018 C   0  0  0  0  0  0  0  0  0  0  0  0
   67.8855   38.8306   59.0630 C   0  0  0  0  0  0  0  0  0  0  0  0
   67.1556   39.2855   60.1413 C   0  0  0  0  0  0  0  0  0  0  0  0
   67.0244   38.5471   61.2751 F   0  0  0  0  0  0  0  0  0  0  0  0
   66.5624   40.5251   60.0189 C   0  0  0  0  0  0  0  0  0  0  0  0
   66.6950   41.2742   58.8684 C   0  0  0  0  0  0  0  0  0  0  0  0
 11 10  1  1
 11 12  1  0
 11 16  1  0
 12 13  1  0
 13 14  1  0
 14 15  1  0
 15 16  1  0
 16  7  1  0
  7  8  2  0
  7  9  2  0
  7  1  1  0
  1  2  2  0
  1  6  1  0
  2  3  1  0
  3  4  2  0
  4  5  1  0
  5 17  1  0
  5  6  2  0
 17 18  2  0
 17 19  1  0
 19 20  1  0
 20 21  1  0
 21 22  2  0
 21 23  1  0
 23 24  2  0
 23 29  1  0
 24 25  1  0
 25 26  2  0
 26 27  1  0
 26 28  1  0
 28 29  2  0
M  END
>  <minimizedAffinity>  (37) 
-10.03448

$$$$
cs_full_output_folder/data/smiles/6426.pdb
     RDKit          3D

 31 34  0  0  0  0  0  0  0  0999 V2000
   71.4630   46.8691   58.9510 C   0  0  0  0  0  0  0  0  0  0  0  0
   70.5510   47.6620   58.2620 C   0  0  0  0  0  0  0  0  0  0  0  0
   69.6811   47.1341   57.3481 C   0  0  0  0  0  0  0  0  0  0  0  0
   69.7685   45.7464   57.1502 C   0  0  0  0  0  0  0  0  0  0  0  0
   70.6675   44.9589   57.8286 C   0  0  0  0  0  0  0  0  0  0  0  0
   71.5256   45.5127   58.7380 C   0  0  0  0  0  0  0  0  0  0  0  0
   72.4145   44.7207   59.4065 F   0  0  0  0  0  0  0  0  0  0  0  0
   72.0176   47.5585   61.1146 O   0  0  0  0  0  0  0  0  0  0  0  0
   72.3755   47.4483   59.9132 C   0  0  0  0  0  0  0  0  0  0  0  0
   73.6694   47.9026   59.5619 N   0  0  0  0  0  0  0  0  0  0  0  0
   74.6989   48.5006   60.3851 C   0  0  0  0  0  0  0  0  0  0  0  0
   75.2143   49.6111   59.4623 C   0  0  0  0  0  0  0  0  0  0  0  0
   74.8314   49.2158   58.0707 C   0  0  2  0  0  0  0  0  0  0  0  0
   74.2209   47.8413   58.2263 C   0  0  0  0  0  0  0  0  0  0  0  0
   76.0276   49.1891   57.1337 C   0  0  0  0  0  0  0  0  0  0  0  0
   75.6911   50.3338   55.8174 S   0  0  0  0  0  0  0  0  0  0  0  0
   76.8728   51.2427   55.5805 O   0  0  0  0  0  0  0  0  0  0  0  0
   75.3929   49.5809   54.5562 O   0  0  0  0  0  0  0  0  0  0  0  0
   74.4034   51.2799   56.2664 O   0  0  0  0  0  0  0  0  0  0  0  0
   68.6663   47.8717   56.5701 C   0  0  0  0  0  0  0  0  0  0  0  0
   69.1442   48.0584   55.1941 C   0  0  0  0  0  0  0  0  0  0  0  0
   70.1070   49.0092   55.0066 N   0  0  0  0  0  0  0  0  0  0  0  0
   70.6715   49.2816   53.8573 N   0  0  0  0  0  0  0  0  0  0  0  0
   70.3271   48.6202   52.7533 C   0  0  0  0  0  0  0  0  0  0  0  0
   70.8868   48.9025   51.6653 O   0  0  0  0  0  0  0  0  0  0  0  0
   69.3568   47.6457   52.8749 C   0  0  0  0  0  0  0  0  0  0  0  0
   68.9823   46.9609   51.7382 C   0  0  0  0  0  0  0  0  0  0  0  0
   67.9922   45.9768   51.8412 C   0  0  0  0  0  0  0  0  0  0  0  0
   67.4177   45.7233   53.0874 C   0  0  0  0  0  0  0  0  0  0  0  0
   67.8018   46.4160   54.2125 C   0  0  0  0  0  0  0  0  0  0  0  0
   68.7625   47.3639   54.0973 C   0  0  0  0  0  0  0  0  0  0  0  0
  8  9  2  0
  9  1  1  0
  9 10  1  0
  1  2  2  0
  1  6  1  0
  2  3  1  0
  3 20  1  0
  3  4  2  0
 20 21  1  0
 21 22  2  0
 21 31  1  0
 22 23  1  0
 23 24  1  0
 24 25  2  0
 24 26  1  0
 26 27  1  0
 26 31  2  0
 27 28  2  0
 28 29  1  0
 29 30  2  0
 30 31  1  0
  4  5  1  0
  5  6  2  0
  6  7  1  0
 10 11  1  0
 10 14  1  0
 11 12  1  0
 12 13  1  0
 13 15  1  6
 13 14  1  0
 15 16  1  0
 16 17  2  0
 16 18  2  0
 16 19  1  0
M  CHG  1  19  -1
M  END
>  <minimizedAffinity>  (38) 
-10.02152

$$$$
cs_full_output_folder/data/smiles/811.pdb
     RDKit          3D

 32 36  0  0  0  0  0  0  0  0999 V2000
   72.2240   44.7882   59.4513 C   0  0  0  0  0  0  0  0  0  0  0  0
   71.3755   45.7048   58.6538 C   0  0  0  0  0  0  0  0  0  0  0  0
   70.4707   45.1886   57.7448 C   0  0  0  0  0  0  0  0  0  0  0  0
   69.6661   46.0011   56.9856 C   0  0  0  0  0  0  0  0  0  0  0  0
   69.7997   47.3860   57.1701 C   0  0  0  0  0  0  0  0  0  0  0  0
   70.6994   47.8830   58.0729 C   0  0  0  0  0  0  0  0  0  0  0  0
   71.5172   47.0628   58.8446 C   0  0  0  0  0  0  0  0  0  0  0  0
   72.4710   47.6115   59.8016 C   0  0  0  0  0  0  0  0  0  0  0  0
   72.1013   47.8301   60.9658 O   0  0  0  0  0  0  0  0  0  0  0  0
   73.8237   47.9021   59.4282 N   0  0  0  0  0  0  0  0  0  0  0  0
   74.7648   48.4475   60.3833 C   0  0  0  0  0  0  0  0  0  0  0  0
   75.5159   49.6352   59.8369 C   0  0  0  0  0  0  0  0  0  0  0  0
   75.7484   49.5432   58.4148 N   0  0  0  0  0  0  0  0  0  0  0  0
   74.6857   49.0716   57.5560 C   0  0  0  0  0  0  0  0  0  0  0  0
   74.3280   47.6719   58.0858 C   0  0  0  0  0  0  0  0  0  0  0  0
   76.9852   49.8933   57.8145 C   0  0  0  0  0  0  0  0  0  0  0  0
   77.4842   51.0294   58.1523 N   0  0  0  0  0  0  0  0  0  0  0  0
   77.6866   49.0201   56.8469 C   0  0  0  0  0  0  0  0  0  0  0  0
   79.0839   49.3439   56.4297 C   0  0  0  0  0  0  0  0  0  0  0  0
   77.9032   49.3794   55.4445 C   0  0  0  0  0  0  0  0  0  0  0  0
   68.8986   48.2544   56.3591 C   0  0  0  0  0  0  0  0  0  0  0  0
   69.3521   48.2809   54.9492 C   0  0  0  0  0  0  0  0  0  0  0  0
   70.3261   49.1856   54.5989 N   0  0  0  0  0  0  0  0  0  0  0  0
   70.7568   49.3112   53.3631 N   0  0  0  0  0  0  0  0  0  0  0  0
   70.2861   48.5735   52.3481 C   0  0  0  0  0  0  0  0  0  0  0  0
   70.7152   48.7085   51.1508 O   0  0  0  0  0  0  0  0  0  0  0  0
   69.3061   47.6406   52.6151 C   0  0  0  0  0  0  0  0  0  0  0  0
   68.8090   46.8559   51.5977 C   0  0  0  0  0  0  0  0  0  0  0  0
   67.8465   45.9356   51.9279 C   0  0  0  0  0  0  0  0  0  0  0  0
   67.3814   45.7826   53.2139 C   0  0  0  0  0  0  0  0  0  0  0  0
   67.8888   46.5753   54.2193 C   0  0  0  0  0  0  0  0  0  0  0  0
   68.8512   47.5110   53.9395 C   0  0  0  0  0  0  0  0  0  0  0  0
  1  2  1  0
  2  3  2  0
  2  7  1  0
  3  4  1  0
  4  5  2  0
  5 21  1  0
  5  6  1  0
 21 22  1  0
 22 23  2  0
 22 32  1  0
 23 24  1  0
 24 25  1  0
 25 26  2  0
 25 27  1  0
 27 28  1  0
 27 32  2  0
 28 29  2  0
 29 30  1  0
 30 31  2  0
 31 32  1  0
  6  7  2  0
  7  8  1  0
  8  9  2  0
  8 10  1  0
 10 11  1  0
 10 15  1  0
 11 12  1  0
 12 13  1  0
 13 16  1  0
 13 14  1  0
 16 17  2  0
 16 18  1  0
 18 19  1  0
 18 20  1  0
 19 20  1  0
 14 15  1  0
M  CHG  1  17   1
M  END
>  <minimizedAffinity>  (39) 
-10.01213

$$$$
cs_full_output_folder/data/smiles/75.pdb
     RDKit          3D

 29 31  0  0  0  0  0  0  0  0999 V2000
   68.4158   45.9330   54.2638 C   0  0  0  0  0  0  0  0  0  0  0  0
   67.9192   45.6054   53.0316 C   0  0  0  0  0  0  0  0  0  0  0  0
   68.0734   46.4444   51.9413 C   0  0  0  0  0  0  0  0  0  0  0  0
   68.7469   47.6360   52.1232 C   0  0  0  0  0  0  0  0  0  0  0  0
   69.2697   48.0241   53.3374 C   0  0  0  0  0  0  0  0  0  0  0  0
   69.0779   47.1315   54.3912 C   0  0  0  0  0  0  0  0  0  0  0  0
   67.7804   43.7690   55.4298 N   0  0  0  0  0  0  0  0  0  0  0  0
   68.2872   45.0974   55.4458 C   0  0  0  0  0  0  0  0  0  0  0  0
   68.6333   45.5350   56.5716 O   0  0  0  0  0  0  0  0  0  0  0  0
   67.5346   41.0316   55.4605 O   0  0  0  0  0  0  0  0  0  0  0  0
   67.5482   41.5834   56.5866 C   0  0  0  0  0  0  0  0  0  0  0  0
   67.6742   42.9965   56.5980 N   0  0  0  0  0  0  0  0  0  0  0  0
   67.4368   40.7635   57.7875 C   0  0  0  0  0  0  0  0  0  0  0  0
   66.7154   41.2197   58.8707 C   0  0  0  0  0  0  0  0  0  0  0  0
   66.5690   40.4974   60.0361 C   0  0  0  0  0  0  0  0  0  0  0  0
   67.1536   39.2884   60.1331 N   0  0  0  0  0  0  0  0  0  0  0  0
   67.8729   38.8011   59.0906 C   0  0  0  0  0  0  0  0  0  0  0  0
   68.0197   39.5236   57.9243 C   0  0  0  0  0  0  0  0  0  0  0  0
   70.1340   49.5312   53.5844 S   0  0  0  0  0  0  0  0  0  0  0  0
   71.5797   49.3500   53.1436 O   0  0  0  0  0  0  0  0  0  0  0  0
   69.5492   50.5709   52.7038 O   0  0  0  0  0  0  0  0  0  0  0  0
   70.1439   50.0570   55.2007 N   0  0  0  0  0  0  0  0  0  0  0  0
   69.0343   50.1612   56.0603 C   0  0  0  0  0  0  0  0  0  0  0  0
   68.6462   49.0896   56.8271 C   0  0  0  0  0  0  0  0  0  0  0  0
   67.5571   49.1445   57.7011 C   0  0  0  0  0  0  0  0  0  0  0  0
   66.8725   50.3356   57.7690 C   0  0  0  0  0  0  0  0  0  0  0  0
   67.2327   51.4265   57.0179 C   0  0  0  0  0  0  0  0  0  0  0  0
   68.3078   51.3236   56.1742 C   0  0  0  0  0  0  0  0  0  0  0  0
   68.6245   52.4373   55.4498 F   0  0  0  0  0  0  0  0  0  0  0  0
 10 11  2  0
 11 12  1  0
 11 13  1  0
 12  7  1  0
  7  8  1  0
  8  9  2  0
  8  1  1  0
  1  2  2  0
  1  6  1  0
  2  3  1  0
  3  4  2  0
  4  5  1  0
  5 19  1  0
  5  6  2  0
 19 20  2  0
 19 21  2  0
 19 22  1  0
 22 23  1  0
 23 24  2  0
 23 28  1  0
 24 25  1  0
 25 26  2  0
 26 27  1  0
 27 28  2  0
 28 29  1  0
 13 14  2  0
 13 18  1  0
 14 15  1  0
 15 16  2  0
 16 17  1  0
 17 18  2  0
M  END
>  <minimizedAffinity>  (40) 
-10.00645

$$$$
cs_full_output_folder/data/smiles/7297.pdb
     RDKit          3D

 31 35  0  0  0  0  0  0  0  0999 V2000
   71.4096   47.0148   58.8370 C   0  0  0  0  0  0  0  0  0  0  0  0
   71.3807   45.6419   58.7708 C   0  0  0  0  0  0  0  0  0  0  0  0
   70.5345   45.0404   57.8712 C   0  0  0  0  0  0  0  0  0  0  0  0
   69.7127   45.8158   57.0351 C   0  0  0  0  0  0  0  0  0  0  0  0
   69.7269   47.1802   57.0873 C   0  0  0  0  0  0  0  0  0  0  0  0
   70.6005   47.7480   58.0128 C   0  0  0  0  0  0  0  0  0  0  0  0
   72.0128   47.6838   61.0278 O   0  0  0  0  0  0  0  0  0  0  0  0
   72.2855   47.7057   59.7891 C   0  0  0  0  0  0  0  0  0  0  0  0
   73.4264   48.3936   59.3364 N   0  0  0  0  0  0  0  0  0  0  0  0
   74.2826   49.0806   60.2894 C   0  0  0  0  0  0  0  0  0  0  0  0
   74.3983   50.5571   59.9267 C   0  0  0  0  0  0  0  0  0  0  0  0
   73.7531   50.8003   58.5673 C   0  0  0  0  0  0  0  0  0  0  0  0
   74.3729   49.8003   57.6059 C   0  0  0  0  0  0  0  0  0  0  0  0
   73.7804   48.4376   57.9228 C   0  0  0  0  0  0  0  0  0  0  0  0
   74.0491   52.0631   58.0691 O   0  0  0  0  0  0  0  0  0  0  0  0
   72.8745   52.8283   58.1841 C   0  0  0  0  0  0  0  0  0  0  0  0
   71.6695   52.1432   57.5345 C   0  0  0  0  0  0  0  0  0  0  0  0
   71.3447   53.4097   56.7877 C   0  0  0  0  0  0  0  0  0  0  0  0
   72.7412   53.9155   57.1701 C   0  0  0  0  0  0  0  0  0  0  0  0
   68.8619   47.9872   56.2428 C   0  0  0  0  0  0  0  0  0  0  0  0
   69.3223   48.1828   54.8543 C   0  0  0  0  0  0  0  0  0  0  0  0
   70.2098   49.1390   54.5423 N   0  0  0  0  0  0  0  0  0  0  0  0
   70.5835   49.3573   53.3095 N   0  0  0  0  0  0  0  0  0  0  0  0
   70.1124   48.6486   52.2702 C   0  0  0  0  0  0  0  0  0  0  0  0
   70.4932   48.8843   51.0717 O   0  0  0  0  0  0  0  0  0  0  0  0
   69.1970   47.6473   52.5161 C   0  0  0  0  0  0  0  0  0  0  0  0
   68.7115   46.9002   51.4669 C   0  0  0  0  0  0  0  0  0  0  0  0
   67.8062   45.8829   51.6930 C   0  0  0  0  0  0  0  0  0  0  0  0
   67.3940   45.6244   52.9818 C   0  0  0  0  0  0  0  0  0  0  0  0
   67.9066   46.4023   54.0148 C   0  0  0  0  0  0  0  0  0  0  0  0
   68.8081   47.4257   53.8386 C   0  0  0  0  0  0  0  0  0  0  0  0
  7  8  2  0
  8  1  1  0
  8  9  1  0
  1  2  2  0
  1  6  1  0
  2  3  1  0
  3  4  2  0
  4  5  1  0
  5 20  1  0
  5  6  2  0
 20 21  1  0
 21 22  2  0
 21 31  1  0
 22 23  1  0
 23 24  1  0
 24 25  2  0
 24 26  1  0
 26 27  1  0
 26 31  2  0
 27 28  2  0
 28 29  1  0
 29 30  2  0
 30 31  1  0
  9 10  1  0
  9 14  1  0
 10 11  1  0
 11 12  1  0
 12 15  1  0
 12 13  1  0
 15 16  1  0
 16 17  1  0
 16 19  1  0
 17 18  1  0
 18 19  1  0
 13 14  1  0
M  END
>  <minimizedAffinity>  (41) 
-9.98685

$$$$
cs_full_output_folder/data/smiles/4695.pdb
     RDKit          3D

 30 33  0  0  0  0  0  0  0  0999 V2000
   71.0054   46.6168   58.3620 C   0  0  0  0  0  0  0  0  0  0  0  0
   70.0885   47.2013   57.4671 C   0  0  0  0  0  0  0  0  0  0  0  0
   70.0126   48.5178   57.1632 C   0  0  0  0  0  0  0  0  0  0  0  0
   70.9375   49.3495   57.8056 C   0  0  0  0  0  0  0  0  0  0  0  0
   71.8575   48.8522   58.6855 C   0  0  0  0  0  0  0  0  0  0  0  0
   71.8838   47.4701   58.9606 C   0  0  0  0  0  0  0  0  0  0  0  0
   72.8322   47.0534   59.8207 F   0  0  0  0  0  0  0  0  0  0  0  0
   70.9423   44.1800   57.6994 N   0  0  0  0  0  0  0  0  0  0  0  0
   70.9370   45.1891   58.6433 C   0  0  0  0  0  0  0  0  0  0  0  0
   70.8754   44.8632   59.8840 O   0  0  0  0  0  0  0  0  0  0  0  0
   70.8912   42.7309   57.8814 C   0  0  0  0  0  0  0  0  0  0  0  0
   69.9233   39.9932   58.6106 C   0  0  0  0  0  0  0  0  0  0  0  0
   69.1882   40.8795   57.6612 C   0  0  0  0  0  0  0  0  0  0  0  0
   68.0094   40.3705   57.0993 C   0  0  0  0  0  0  0  0  0  0  0  0
   67.2527   41.1741   56.2967 C   0  0  0  0  0  0  0  0  0  0  0  0
   67.6478   42.4397   56.0565 N   0  0  0  0  0  0  0  0  0  0  0  0
   68.7698   42.9235   56.5888 C   0  0  0  0  0  0  0  0  0  0  0  0
   69.6064   42.1499   57.4292 C   0  0  0  0  0  0  0  0  0  0  0  0
   69.0298   49.1462   56.2041 C   0  0  0  0  0  0  0  0  0  0  0  0
   69.4098   48.8987   54.8127 C   0  0  0  0  0  0  0  0  0  0  0  0
   70.2428   49.8181   54.2485 N   0  0  0  0  0  0  0  0  0  0  0  0
   70.6151   49.7694   52.9855 N   0  0  0  0  0  0  0  0  0  0  0  0
   70.1743   48.7851   52.1920 C   0  0  0  0  0  0  0  0  0  0  0  0
   70.4954   48.6860   50.9736 O   0  0  0  0  0  0  0  0  0  0  0  0
   69.3325   47.8181   52.6824 C   0  0  0  0  0  0  0  0  0  0  0  0
   68.8610   46.7739   51.9215 C   0  0  0  0  0  0  0  0  0  0  0  0
   68.0276   45.7906   52.4318 C   0  0  0  0  0  0  0  0  0  0  0  0
   67.6732   45.8834   53.7574 C   0  0  0  0  0  0  0  0  0  0  0  0
   68.1323   46.9245   54.5446 C   0  0  0  0  0  0  0  0  0  0  0  0
   68.9569   47.8895   54.0084 C   0  0  0  0  0  0  0  0  0  0  0  0
 12 13  1  0
 13 14  2  0
 13 18  1  0
 14 15  1  0
 15 16  2  0
 16 17  1  0
 17 18  2  0
 18 11  1  0
 11  8  1  0
  8  9  1  0
  9 10  2  0
  9  1  1  0
  1  2  2  0
  1  6  1  0
  2  3  1  0
  3 19  1  0
  3  4  2  0
 19 20  1  0
 20 21  2  0
 20 30  1  0
 21 22  1  0
 22 23  1  0
 23 24  2  0
 23 25  1  0
 25 26  1  0
 25 30  2  0
 26 27  2  0
 27 28  1  0
 28 29  2  0
 29 30  1  0
  4  5  1  0
  5  6  2  0
  6  7  1  0
M  END
>  <minimizedAffinity>  (42) 
-9.98527

$$$$
cs_full_output_folder/data/smiles/8625.pdb
     RDKit          3D

 33 37  0  0  0  0  0  0  0  0999 V2000
   71.2103   46.9063   58.8091 C   0  0  0  0  0  0  0  0  0  0  0  0
   70.4724   47.7641   58.0299 C   0  0  0  0  0  0  0  0  0  0  0  0
   69.6442   47.3198   57.0178 C   0  0  0  0  0  0  0  0  0  0  0  0
   69.5968   45.9613   56.8300 C   0  0  0  0  0  0  0  0  0  0  0  0
   70.3225   45.0588   57.5890 C   0  0  0  0  0  0  0  0  0  0  0  0
   71.1338   45.5393   58.5861 C   0  0  0  0  0  0  0  0  0  0  0  0
   71.8635   44.7030   59.3590 F   0  0  0  0  0  0  0  0  0  0  0  0
   71.8000   47.2394   61.0932 O   0  0  0  0  0  0  0  0  0  0  0  0
   72.0824   47.3680   59.8774 C   0  0  0  0  0  0  0  0  0  0  0  0
   73.2953   47.9858   59.5184 N   0  0  0  0  0  0  0  0  0  0  0  0
   73.7359   48.1966   58.1527 C   0  0  0  0  0  0  0  0  0  0  0  0
   75.1988   47.7854   58.0194 C   0  0  0  0  0  0  0  0  0  0  0  0
   75.6171   47.0411   59.1948 N   0  0  0  0  0  0  0  0  0  0  0  0
   75.5293   47.7142   60.4687 C   0  0  0  0  0  0  0  0  0  0  0  0
   74.1999   48.4522   60.5556 C   0  0  0  0  0  0  0  0  0  0  0  0
   76.0771   45.7116   59.0242 C   0  0  0  0  0  0  0  0  0  0  0  0
   75.2479   44.6600   58.7090 C   0  0  0  0  0  0  0  0  0  0  0  0
   75.7024   43.3544   58.5387 C   0  0  0  0  0  0  0  0  0  0  0  0
   77.0432   43.0874   58.6886 C   0  0  0  0  0  0  0  0  0  0  0  0
   77.8627   44.1464   59.0039 C   0  0  0  0  0  0  0  0  0  0  0  0
   77.3916   45.3941   59.1607 N   0  0  0  0  0  0  0  0  0  0  0  0
   68.8250   48.2199   56.2017 C   0  0  0  0  0  0  0  0  0  0  0  0
   69.2276   48.3511   54.7899 C   0  0  0  0  0  0  0  0  0  0  0  0
   70.1257   49.2988   54.4209 N   0  0  0  0  0  0  0  0  0  0  0  0
   70.5560   49.4482   53.1981 N   0  0  0  0  0  0  0  0  0  0  0  0
   70.1200   48.6528   52.2245 C   0  0  0  0  0  0  0  0  0  0  0  0
   70.5636   48.8337   51.0552 O   0  0  0  0  0  0  0  0  0  0  0  0
   69.2104   47.6642   52.4961 C   0  0  0  0  0  0  0  0  0  0  0  0
   68.7640   46.8544   51.4623 C   0  0  0  0  0  0  0  0  0  0  0  0
   67.8381   45.8632   51.7184 C   0  0  0  0  0  0  0  0  0  0  0  0
   67.3806   45.7046   53.0088 C   0  0  0  0  0  0  0  0  0  0  0  0
   67.8399   46.5227   54.0241 C   0  0  0  0  0  0  0  0  0  0  0  0
   68.7629   47.5198   53.8058 C   0  0  0  0  0  0  0  0  0  0  0  0
  8  9  2  0
  9  1  1  0
  9 10  1  0
  1  2  2  0
  1  6  1  0
  2  3  1  0
  3 22  1  0
  3  4  2  0
 22 23  1  0
 23 24  2  0
 23 33  1  0
 24 25  1  0
 25 26  1  0
 26 27  2  0
 26 28  1  0
 28 29  1  0
 28 33  2  0
 29 30  2  0
 30 31  1  0
 31 32  2  0
 32 33  1  0
  4  5  1  0
  5  6  2  0
  6  7  1  0
 10 11  1  0
 10 15  1  0
 11 12  1  0
 12 13  1  0
 13 16  1  0
 13 14  1  0
 16 17  2  0
 16 21  1  0
 17 18  1  0
 18 19  2  0
 19 20  1  0
 20 21  2  0
 14 15  1  0
M  END
>  <minimizedAffinity>  (43) 
-9.98166

$$$$
cs_full_output_folder/data/smiles/76.pdb
     RDKit          3D

 30 33  0  0  0  0  0  0  0  0999 V2000
   68.4216   46.0582   54.1671 C   0  0  0  0  0  0  0  0  0  0  0  0
   67.8602   45.6529   52.9808 C   0  0  0  0  0  0  0  0  0  0  0  0
   67.9961   46.4141   51.8124 C   0  0  0  0  0  0  0  0  0  0  0  0
   68.7198   47.6001   51.8835 C   0  0  0  0  0  0  0  0  0  0  0  0
   69.2909   48.0255   53.0608 C   0  0  0  0  0  0  0  0  0  0  0  0
   69.1273   47.2458   54.1690 C   0  0  0  0  0  0  0  0  0  0  0  0
   67.8182   43.9129   55.3968 N   0  0  0  0  0  0  0  0  0  0  0  0
   68.2592   45.2422   55.3555 C   0  0  0  0  0  0  0  0  0  0  0  0
   68.5439   45.7877   56.4701 O   0  0  0  0  0  0  0  0  0  0  0  0
   67.5621   41.2006   55.4611 O   0  0  0  0  0  0  0  0  0  0  0  0
   67.5463   41.7539   56.5922 C   0  0  0  0  0  0  0  0  0  0  0  0
   67.6785   43.1701   56.5792 N   0  0  0  0  0  0  0  0  0  0  0  0
   67.4016   40.9706   57.8002 C   0  0  0  0  0  0  0  0  0  0  0  0
   68.0030   39.7364   57.8671 C   0  0  0  0  0  0  0  0  0  0  0  0
   67.8814   38.9560   59.0217 C   0  0  0  0  0  0  0  0  0  0  0  0
   67.1612   39.4052   60.1082 C   0  0  0  0  0  0  0  0  0  0  0  0
   66.5654   40.6290   60.0406 C   0  0  0  0  0  0  0  0  0  0  0  0
   66.6885   41.4018   58.8914 C   0  0  0  0  0  0  0  0  0  0  0  0
   70.1807   49.5221   53.0645 S   0  0  0  0  0  0  0  0  0  0  0  0
   69.7653   50.3150   51.8575 O   0  0  0  0  0  0  0  0  0  0  0  0
   71.6434   49.2911   53.1177 O   0  0  0  0  0  0  0  0  0  0  0  0
   69.6345   50.4330   54.4501 N   0  0  0  0  0  0  0  0  0  0  0  0
   68.7687   51.5961   54.4427 C   0  0  0  0  0  0  0  0  0  0  0  0
   68.0345   51.5569   55.7420 C   0  0  0  0  0  0  0  0  0  0  0  0
   69.0139   50.8443   56.6277 C   0  0  0  0  0  0  0  0  0  0  0  0
   69.0648   50.7885   57.9922 C   0  0  0  0  0  0  0  0  0  0  0  0
   70.0740   50.0586   58.5710 C   0  0  0  0  0  0  0  0  0  0  0  0
   71.0087   49.4014   57.7933 C   0  0  0  0  0  0  0  0  0  0  0  0
   70.9545   49.4613   56.4165 C   0  0  0  0  0  0  0  0  0  0  0  0
   69.9430   50.1917   55.8233 C   0  0  0  0  0  0  0  0  0  0  0  0
 10 11  2  0
 11 12  1  0
 11 13  1  0
 12  7  1  0
  7  8  1  0
  8  9  2  0
  8  1  1  0
  1  2  2  0
  1  6  1  0
  2  3  1  0
  3  4  2  0
  4  5  1  0
  5 19  1  0
  5  6  2  0
 19 20  2  0
 19 21  2  0
 19 22  1  0
 22 23  1  0
 22 30  1  0
 23 24  1  0
 24 25  1  0
 25 26  1  0
 25 30  2  0
 26 27  2  0
 27 28  1  0
 28 29  2  0
 29 30  1  0
 13 14  2  0
 13 18  1  0
 14 15  1  0
 15 16  2  0
 16 17  1  0
 17 18  2  0
M  END
>  <minimizedAffinity>  (44) 
-9.98060

$$$$
cs_full_output_folder/data/smiles/573.pdb
     RDKit          3D

 31 34  0  0  0  0  0  0  0  0999 V2000
   71.9899   47.5885   58.6625 C   0  0  0  0  0  0  0  0  0  0  0  0
   73.0881   48.3103   58.3188 C   0  0  0  0  0  0  0  0  0  0  0  0
   73.0444   49.3273   57.3607 C   0  0  0  0  0  0  0  0  0  0  0  0
   71.8387   49.6136   56.7361 C   0  0  0  0  0  0  0  0  0  0  0  0
   70.6979   48.8716   57.0854 C   0  0  0  0  0  0  0  0  0  0  0  0
   70.7847   47.9074   58.0065 C   0  0  0  0  0  0  0  0  0  0  0  0
   70.7770   43.6170   58.4506 N   0  0  0  0  0  0  0  0  0  0  0  0
   70.8540   43.4926   59.8557 C   0  0  0  0  0  0  0  0  0  0  0  0
   72.2110   44.0892   60.3349 C   0  0  0  0  0  0  0  0  0  0  0  0
   72.3660   45.1868   59.3335 N   0  0  0  0  0  0  0  0  0  0  0  0
   71.9628   46.5103   59.6265 C   0  0  0  0  0  0  0  0  0  0  0  0
   71.5431   46.7540   60.7868 O   0  0  0  0  0  0  0  0  0  0  0  0
   72.9479   44.7044   58.1159 C   0  0  0  0  0  0  0  0  0  0  0  0
   72.0787   43.4927   57.7522 C   0  0  0  0  0  0  0  0  0  0  0  0
   68.4915   42.1569   56.9095 C   0  0  0  0  0  0  0  0  0  0  0  0
   69.5769   42.8421   57.6305 S   0  0  0  0  0  0  0  0  0  0  0  0
   66.2883   41.9620   56.1329 O   0  0  0  0  0  0  0  0  0  0  0  0
   67.4951   41.5058   56.2240 C   0  0  0  0  0  0  0  0  0  0  0  0
   67.6837   40.2760   55.5359 O   0  0  0  0  0  0  0  0  0  0  0  0
   69.4559   49.2247   56.3191 C   0  0  0  0  0  0  0  0  0  0  0  0
   69.6056   49.0701   54.8878 C   0  0  0  0  0  0  0  0  0  0  0  0
   70.3092   50.0213   54.1764 N   0  0  0  0  0  0  0  0  0  0  0  0
   70.5618   49.9048   52.8987 N   0  0  0  0  0  0  0  0  0  0  0  0
   70.1505   48.8469   52.1734 C   0  0  0  0  0  0  0  0  0  0  0  0
   70.4139   48.7771   50.9706 O   0  0  0  0  0  0  0  0  0  0  0  0
   69.4376   47.8537   52.8133 C   0  0  0  0  0  0  0  0  0  0  0  0
   68.9481   46.8211   52.0590 C   0  0  0  0  0  0  0  0  0  0  0  0
   68.1501   45.8494   52.6810 C   0  0  0  0  0  0  0  0  0  0  0  0
   67.8603   45.9183   54.0209 C   0  0  0  0  0  0  0  0  0  0  0  0
   68.3906   47.0058   54.7496 C   0  0  0  0  0  0  0  0  0  0  0  0
   69.1793   47.9815   54.1715 C   0  0  0  0  0  0  0  0  0  0  0  0
 17 18  2  0
 18 19  1  0
 18 15  1  0
 15 16  3  0
 16  7  1  0
  7  8  1  0
  7 14  1  0
  8  9  1  0
  9 10  1  0
 10 11  1  0
 10 13  1  0
 11 12  2  0
 11  1  1  0
  1  2  2  0
  1  6  1  0
  2  3  1  0
  3  4  2  0
  4  5  1  0
  5 20  1  0
  5  6  2  0
 20 21  1  0
 21 22  2  0
 21 31  1  0
 22 23  1  0
 23 24  1  0
 24 25  2  0
 24 26  1  0
 26 27  1  0
 26 31  2  0
 27 28  2  0
 28 29  1  0
 29 30  2  0
 30 31  1  0
 13 14  1  0
M  END
>  <minimizedAffinity>  (45) 
-9.97862

$$$$
cs_full_output_folder/data/smiles/3260.pdb
     RDKit          3D

 32 36  0  0  0  0  0  0  0  0999 V2000
   71.8709   46.9242   59.3464 C   0  0  0  0  0  0  0  0  0  0  0  0
   72.0882   45.5592   59.2195 C   0  0  0  0  0  0  0  0  0  0  0  0
   71.3280   44.8216   58.3417 C   0  0  0  0  0  0  0  0  0  0  0  0
   70.3356   45.4559   57.5818 C   0  0  0  0  0  0  0  0  0  0  0  0
   70.0933   46.7920   57.6802 C   0  0  0  0  0  0  0  0  0  0  0  0
   70.8938   47.5094   58.5896 C   0  0  0  0  0  0  0  0  0  0  0  0
   72.4290   47.7594   61.4936 O   0  0  0  0  0  0  0  0  0  0  0  0
   72.7044   47.7074   60.2769 C   0  0  0  0  0  0  0  0  0  0  0  0
   73.8360   48.4026   59.7291 N   0  0  0  0  0  0  0  0  0  0  0  0
   74.7146   49.1933   60.5447 C   0  0  0  0  0  0  0  0  0  0  0  0
   75.0212   50.5495   59.9371 C   0  0  0  0  0  0  0  0  0  0  0  0
   74.2697   50.7792   58.7260 N   0  0  0  0  0  0  0  0  0  0  0  0
   74.1398   49.7168   57.7372 C   0  0  0  0  0  0  0  0  0  0  0  0
   74.1579   48.3416   58.3118 C   0  0  0  0  0  0  0  0  0  0  0  0
   73.6610   52.0389   58.4733 C   0  0  0  0  0  0  0  0  0  0  0  0
   72.4327   52.1931   57.8857 C   0  0  0  0  0  0  0  0  0  0  0  0
   71.8939   53.4377   57.6566 C   0  0  0  0  0  0  0  0  0  0  0  0
   72.6169   54.5491   58.0312 C   0  0  0  0  0  0  0  0  0  0  0  0
   73.8494   54.3839   58.6210 C   0  0  0  0  0  0  0  0  0  0  0  0
   74.3533   53.1559   58.8342 N   0  0  0  0  0  0  0  0  0  0  0  0
   69.0824   47.5613   56.8991 C   0  0  0  0  0  0  0  0  0  0  0  0
   68.6455   46.9100   55.6553 C   0  0  0  0  0  0  0  0  0  0  0  0
   68.1094   45.6547   55.7600 N   0  0  0  0  0  0  0  0  0  0  0  0
   67.7376   44.9186   54.7328 N   0  0  0  0  0  0  0  0  0  0  0  0
   67.8829   45.4066   53.4966 C   0  0  0  0  0  0  0  0  0  0  0  0
   67.5229   44.6895   52.5323 O   0  0  0  0  0  0  0  0  0  0  0  0
   68.4179   46.6729   53.3184 C   0  0  0  0  0  0  0  0  0  0  0  0
   68.8032   47.4344   54.4159 C   0  0  0  0  0  0  0  0  0  0  0  0
   69.2888   48.7764   54.1655 C   0  0  0  0  0  0  0  0  0  0  0  0
   70.3054   48.8001   53.0156 C   0  0  0  0  0  0  0  0  0  0  0  0
   69.9298   47.9045   51.8830 C   0  0  0  0  0  0  0  0  0  0  0  0
   68.5943   47.2480   51.9805 C   0  0  0  0  0  0  0  0  0  0  0  0
  7  8  2  0
  8  1  1  0
  8  9  1  0
  1  2  2  0
  1  6  1  0
  2  3  1  0
  3  4  2  0
  4  5  1  0
  5 21  1  0
  5  6  2  0
 21 22  1  0
 22 23  2  0
 22 28  1  0
 23 24  1  0
 24 25  1  0
 25 26  2  0
 25 27  1  0
 27 28  2  0
 27 32  1  0
 28 29  1  0
 29 30  1  0
 30 31  1  0
 31 32  1  0
  9 10  1  0
  9 14  1  0
 10 11  1  0
 11 12  1  0
 12 15  1  0
 12 13  1  0
 15 16  2  0
 15 20  1  0
 16 17  1  0
 17 18  2  0
 18 19  1  0
 19 20  2  0
 13 14  1  0
M  END
>  <minimizedAffinity>  (46) 
-9.95287

$$$$
cs_full_output_folder/data/smiles/1299.pdb
     RDKit          3D

 32 36  0  0  0  0  0  0  0  0999 V2000
   71.4951   46.7490   58.8975 C   0  0  0  0  0  0  0  0  0  0  0  0
   71.2235   45.4289   58.6960 C   0  0  0  0  0  0  0  0  0  0  0  0
   70.3172   45.0346   57.7229 C   0  0  0  0  0  0  0  0  0  0  0  0
   69.6490   45.9240   56.9210 C   0  0  0  0  0  0  0  0  0  0  0  0
   69.9134   47.2883   57.1130 C   0  0  0  0  0  0  0  0  0  0  0  0
   70.8029   47.6570   58.0676 C   0  0  0  0  0  0  0  0  0  0  0  0
   74.6214   49.9700   58.8819 N   0  0  0  0  0  0  0  0  0  0  0  0
   74.6059   50.4466   60.2264 C   0  0  0  0  0  0  0  0  0  0  0  0
   74.5145   49.4719   61.3168 C   0  0  0  0  0  0  0  0  0  0  0  0
   74.3550   48.0285   61.0326 C   0  0  0  0  0  0  0  0  0  0  0  0
   73.7258   47.6465   59.8251 N   0  0  0  0  0  0  0  0  0  0  0  0
   72.4109   47.2005   59.9023 C   0  0  0  0  0  0  0  0  0  0  0  0
   71.9175   47.1936   61.1254 O   0  0  0  0  0  0  0  0  0  0  0  0
   74.3108   47.6684   58.5108 C   0  0  0  0  0  0  0  0  0  0  0  0
   75.3378   48.7985   58.4008 C   0  0  0  0  0  0  0  0  0  0  0  0
   74.3528   50.9139   56.7273 N   0  0  0  0  0  0  0  0  0  0  0  0
   73.8766   50.6750   57.8866 C   0  0  0  0  0  0  0  0  0  0  0  0
   72.5183   51.1247   58.2331 C   0  0  0  0  0  0  0  0  0  0  0  0
   71.4639   51.3265   57.2209 C   0  0  0  0  0  0  0  0  0  0  0  0
   72.0725   52.5040   57.9385 C   0  0  0  0  0  0  0  0  0  0  0  0
   69.1528   48.2527   56.2977 C   0  0  0  0  0  0  0  0  0  0  0  0
   69.5324   48.2914   54.8766 C   0  0  0  0  0  0  0  0  0  0  0  0
   70.5105   49.1698   54.5267 N   0  0  0  0  0  0  0  0  0  0  0  0
   70.8586   49.2730   53.2728 N   0  0  0  0  0  0  0  0  0  0  0  0
   70.3091   48.5583   52.2829 C   0  0  0  0  0  0  0  0  0  0  0  0
   70.6751   48.6878   51.0697 O   0  0  0  0  0  0  0  0  0  0  0  0
   69.3138   47.6495   52.5730 C   0  0  0  0  0  0  0  0  0  0  0  0
   68.7384   46.8810   51.5663 C   0  0  0  0  0  0  0  0  0  0  0  0
   67.7630   45.9821   51.9480 C   0  0  0  0  0  0  0  0  0  0  0  0
   67.3785   45.8530   53.2641 C   0  0  0  0  0  0  0  0  0  0  0  0
   67.9610   46.6245   54.2473 C   0  0  0  0  0  0  0  0  0  0  0  0
   68.9301   47.5283   53.9138 C   0  0  0  0  0  0  0  0  0  0  0  0
 16 17  2  0
 17 18  1  0
 17  7  1  0
 18 19  1  0
 18 20  1  0
 19 20  1  0
  7  8  1  0
  7 15  1  0
  8  9  1  0
  9 10  1  0
 10 11  1  0
 11 12  1  0
 11 14  1  0
 12 13  2  0
 12  1  1  0
  1  2  2  0
  1  6  1  0
  2  3  1  0
  3  4  2  0
  4  5  1  0
  5 21  1  0
  5  6  2  0
 21 22  1  0
 22 23  2  0
 22 32  1  0
 23 24  1  0
 24 25  1  0
 25 26  2  0
 25 27  1  0
 27 28  1  0
 27 32  2  0
 28 29  2  0
 29 30  1  0
 30 31  2  0
 31 32  1  0
 14 15  1  0
M  CHG  1  16   1
M  END
>  <minimizedAffinity>  (47) 
-9.94840

$$$$
cs_full_output_folder/data/smiles/6613.pdb
     RDKit          3D

 30 32  0  0  0  0  0  0  0  0999 V2000
   69.8280   39.7082   59.1594 C   0  0  0  0  0  0  0  0  0  0  0  0
   68.5021   39.6837   58.7764 C   0  0  0  0  0  0  0  0  0  0  0  0
   67.9575   40.6101   57.9134 C   0  0  0  0  0  0  0  0  0  0  0  0
   68.7150   41.6285   57.3739 C   0  0  0  0  0  0  0  0  0  0  0  0
   70.0492   41.6635   57.7503 C   0  0  0  0  0  0  0  0  0  0  0  0
   70.5942   40.7366   58.6157 C   0  0  0  0  0  0  0  0  0  0  0  0
   70.6021   38.6228   60.2202 S   0  0  0  0  0  0  0  0  0  0  0  0
   69.9757   38.7476   61.6151 O   0  0  0  0  0  0  0  0  0  0  0  0
   72.0230   39.1375   60.4355 O   0  0  0  0  0  0  0  0  0  0  0  0
   70.6612   36.9978   59.8463 N   0  0  0  0  0  0  0  0  0  0  0  0
   71.1190   34.1848   60.2602 C   0  0  0  0  0  0  0  0  0  0  0  0
   71.6709   34.9258   59.1114 C   0  0  0  0  0  0  0  0  0  0  0  0
   72.4468   34.2811   58.1763 C   0  0  0  0  0  0  0  0  0  0  0  0
   72.9925   34.9155   57.0769 C   0  0  0  0  0  0  0  0  0  0  0  0
   72.7365   36.2600   56.9278 C   0  0  0  0  0  0  0  0  0  0  0  0
   71.9631   36.9711   57.8310 C   0  0  0  0  0  0  0  0  0  0  0  0
   71.4435   36.2927   58.9061 C   0  0  0  0  0  0  0  0  0  0  0  0
   68.1490   42.6130   56.4615 C   0  0  0  0  0  0  0  0  0  0  0  0
   67.3000   42.2114   55.6287 O   0  0  0  0  0  0  0  0  0  0  0  0
   68.4894   43.9819   56.4519 N   0  0  0  0  0  0  0  0  0  0  0  0
   67.9198   44.9062   55.5514 N   0  0  0  0  0  0  0  0  0  0  0  0
   68.3368   46.2547   55.4974 C   0  0  0  0  0  0  0  0  0  0  0  0
   68.3624   46.9390   56.5763 N   0  0  0  0  0  0  0  0  0  0  0  0
   68.7403   46.8722   54.2516 C   0  0  0  0  0  0  0  0  0  0  0  0
   69.3710   48.1218   54.3044 C   0  0  0  0  0  0  0  0  0  0  0  0
   69.7688   48.7505   53.1426 C   0  0  0  0  0  0  0  0  0  0  0  0
   69.5723   48.1943   51.8988 C   0  0  0  0  0  0  0  0  0  0  0  0
   68.9522   46.9649   51.8457 C   0  0  0  0  0  0  0  0  0  0  0  0
   68.5445   46.3199   53.0179 C   0  0  0  0  0  0  0  0  0  0  0  0
   67.9262   45.0890   52.9207 O   0  0  0  0  0  0  0  0  0  0  0  0
 11 12  1  0
 12 13  2  0
 12 17  1  0
 13 14  1  0
 14 15  2  0
 15 16  1  0
 16 17  2  0
 17 10  1  0
 10  7  1  0
  7  8  2  0
  7  9  2  0
  7  1  1  0
  1  2  2  0
  1  6  1  0
  2  3  1  0
  3  4  2  0
  4 18  1  0
  4  5  1  0
 18 19  2  0
 18 20  1  0
 20 21  1  0
 21 22  1  0
 22 23  2  0
 22 24  1  0
 24 25  2  0
 24 29  1  0
 25 26  1  0
 26 27  2  0
 27 28  1  0
 28 29  2  0
 29 30  1  0
  5  6  2  0
M  CHG  1  23   1
M  END
>  <minimizedAffinity>  (48) 
-9.94765

$$$$
cs_full_output_folder/data/smiles/1362.pdb
     RDKit          3D

 31 34  0  0  0  0  0  0  0  0999 V2000
   69.8940   50.8269   57.4774 C   0  0  0  0  0  0  0  0  0  0  0  0
   70.1711   49.5017   57.2593 C   0  0  0  0  0  0  0  0  0  0  0  0
   69.1742   48.5520   57.1175 C   0  0  0  0  0  0  0  0  0  0  0  0
   67.8852   49.0060   57.2071 C   0  0  0  0  0  0  0  0  0  0  0  0
   67.5574   50.3367   57.4282 C   0  0  0  0  0  0  0  0  0  0  0  0
   68.5834   51.2374   57.5613 C   0  0  0  0  0  0  0  0  0  0  0  0
   68.2367   52.5345   57.7699 F   0  0  0  0  0  0  0  0  0  0  0  0
   72.8107   52.1519   54.6719 N   0  0  0  0  0  0  0  0  0  0  0  0
   73.5438   53.3558   54.8409 C   0  0  0  0  0  0  0  0  0  0  0  0
   73.0300   54.3204   55.8345 C   0  0  0  0  0  0  0  0  0  0  0  0
   72.3532   53.7127   57.0281 C   0  0  0  0  0  0  0  0  0  0  0  0
   71.2946   52.7963   56.6757 N   0  0  0  0  0  0  0  0  0  0  0  0
   70.9250   51.8437   57.6322 C   0  0  0  0  0  0  0  0  0  0  0  0
   71.5293   51.8457   58.7438 O   0  0  0  0  0  0  0  0  0  0  0  0
   70.5871   52.8013   55.4174 C   0  0  0  0  0  0  0  0  0  0  0  0
   71.3812   52.0059   54.4145 C   0  0  0  0  0  0  0  0  0  0  0  0
   74.0653   50.3712   56.0347 C   0  0  0  0  0  0  0  0  0  0  0  0
   73.5661   50.9356   54.7597 C   0  0  0  0  0  0  0  0  0  0  0  0
   73.8213   50.3034   53.6717 N   0  0  0  0  0  0  0  0  0  0  0  0
   69.5179   47.1206   56.8485 C   0  0  0  0  0  0  0  0  0  0  0  0
   68.9247   46.5708   55.6259 C   0  0  0  0  0  0  0  0  0  0  0  0
   68.1244   45.4661   55.7070 N   0  0  0  0  0  0  0  0  0  0  0  0
   67.5298   44.9441   54.6713 N   0  0  0  0  0  0  0  0  0  0  0  0
   67.6828   45.4827   53.4525 C   0  0  0  0  0  0  0  0  0  0  0  0
   67.1282   45.0142   52.4273 O   0  0  0  0  0  0  0  0  0  0  0  0
   68.4755   46.5973   53.2897 C   0  0  0  0  0  0  0  0  0  0  0  0
   68.6691   47.1731   52.0454 C   0  0  0  0  0  0  0  0  0  0  0  0
   69.4801   48.2799   51.9060 C   0  0  0  0  0  0  0  0  0  0  0  0
   70.1179   48.8425   52.9922 C   0  0  0  0  0  0  0  0  0  0  0  0
   69.9251   48.2699   54.2273 C   0  0  0  0  0  0  0  0  0  0  0  0
   69.1045   47.1436   54.4006 C   0  0  0  0  0  0  0  0  0  0  0  0
 17 18  1  0
 18 19  2  0
 18  8  1  0
  8  9  1  0
  8 16  1  0
  9 10  1  0
 10 11  1  0
 11 12  1  0
 12 13  1  0
 12 15  1  0
 13 14  2  0
 13  1  1  0
  1  2  2  0
  1  6  1  0
  2  3  1  0
  3 20  1  0
  3  4  2  0
 20 21  1  0
 21 22  2  0
 21 31  1  0
 22 23  1  0
 23 24  1  0
 24 25  2  0
 24 26  1  0
 26 27  1  0
 26 31  2  0
 27 28  2  0
 28 29  1  0
 29 30  2  0
 30 31  1  0
  4  5  1  0
  5  6  2  0
  6  7  1  0
 15 16  1  0
M  CHG  1  19   1
M  END
>  <minimizedAffinity>  (49) 
-9.94247

$$$$
cs_full_output_folder/data/smiles/8023.pdb
     RDKit          3D

 31 34  0  0  0  0  0  0  0  0999 V2000
   71.3432   46.7818   58.8601 C   0  0  0  0  0  0  0  0  0  0  0  0
   70.6007   47.6828   58.1278 C   0  0  0  0  0  0  0  0  0  0  0  0
   69.7405   47.2618   57.1447 C   0  0  0  0  0  0  0  0  0  0  0  0
   69.6730   45.8759   56.9409 C   0  0  0  0  0  0  0  0  0  0  0  0
   70.4060   44.9826   57.6641 C   0  0  0  0  0  0  0  0  0  0  0  0
   70.3230   43.6364   57.4490 F   0  0  0  0  0  0  0  0  0  0  0  0
   71.2650   45.4234   58.6484 C   0  0  0  0  0  0  0  0  0  0  0  0
   72.0121   44.5728   59.3887 F   0  0  0  0  0  0  0  0  0  0  0  0
   77.4494   49.7379   56.9601 C   0  0  0  0  0  0  0  0  0  0  0  0
   76.7377   49.9901   58.2396 C   0  0  0  0  0  0  0  0  0  0  0  0
   76.9381   51.0986   58.7966 O   0  0  0  0  0  0  0  0  0  0  0  0
   75.8655   49.0311   58.8237 N   0  0  0  0  0  0  0  0  0  0  0  0
   75.2083   49.3424   60.0762 C   0  0  0  0  0  0  0  0  0  0  0  0
   74.5274   48.0807   60.6167 C   0  0  0  0  0  0  0  0  0  0  0  0
   73.6043   47.5952   59.5933 N   0  0  0  0  0  0  0  0  0  0  0  0
   72.2589   47.2666   59.9070 C   0  0  0  0  0  0  0  0  0  0  0  0
   71.8393   47.3863   61.0778 O   0  0  0  0  0  0  0  0  0  0  0  0
   74.1061   47.4635   58.2443 C   0  0  0  0  0  0  0  0  0  0  0  0
   75.5950   47.7416   58.2261 C   0  0  0  0  0  0  0  0  0  0  0  0
   68.9129   48.1850   56.3361 C   0  0  0  0  0  0  0  0  0  0  0  0
   69.3176   48.2797   54.9173 C   0  0  0  0  0  0  0  0  0  0  0  0
   70.2743   49.1849   54.5594 N   0  0  0  0  0  0  0  0  0  0  0  0
   70.7153   49.3033   53.3276 N   0  0  0  0  0  0  0  0  0  0  0  0
   70.2717   48.5511   52.3088 C   0  0  0  0  0  0  0  0  0  0  0  0
   70.7178   48.6920   51.1440 O   0  0  0  0  0  0  0  0  0  0  0  0
   69.3067   47.6144   52.5866 C   0  0  0  0  0  0  0  0  0  0  0  0
   68.8178   46.8348   51.5758 C   0  0  0  0  0  0  0  0  0  0  0  0
   67.8529   45.9208   51.8649 C   0  0  0  0  0  0  0  0  0  0  0  0
   67.3601   45.7643   53.1371 C   0  0  0  0  0  0  0  0  0  0  0  0
   67.8889   46.5830   54.1389 C   0  0  0  0  0  0  0  0  0  0  0  0
   68.8497   47.5013   53.8917 C   0  0  0  0  0  0  0  0  0  0  0  0
  9 10  1  0
 10 11  2  0
 10 12  1  0
 12 13  1  0
 12 19  1  0
 13 14  1  0
 14 15  1  0
 15 16  1  0
 15 18  1  0
 16 17  2  0
 16  1  1  0
  1  2  2  0
  1  7  1  0
  2  3  1  0
  3 20  1  0
  3  4  2  0
 20 21  1  0
 21 22  2  0
 21 31  1  0
 22 23  1  0
 23 24  1  0
 24 25  2  0
 24 26  1  0
 26 27  1  0
 26 31  2  0
 27 28  2  0
 28 29  1  0
 29 30  2  0
 30 31  1  0
  4  5  1  0
  5  6  1  0
  5  7  2  0
  7  8  1  0
 18 19  1  0
M  END
>  <minimizedAffinity>  (50) 
-9.93939

$$$$
cs_full_output_folder/data/smiles/1086.pdb
     RDKit          3D

 32 36  0  0  0  0  0  0  0  0999 V2000
   71.3307   46.7832   58.8179 C   0  0  0  0  0  0  0  0  0  0  0  0
   71.4322   45.4332   58.6365 C   0  0  0  0  0  0  0  0  0  0  0  0
   70.6359   44.7873   57.7110 C   0  0  0  0  0  0  0  0  0  0  0  0
   69.7557   45.5242   56.9910 C   0  0  0  0  0  0  0  0  0  0  0  0
   69.6004   46.9205   57.1283 C   0  0  0  0  0  0  0  0  0  0  0  0
   70.4083   47.5088   58.0534 C   0  0  0  0  0  0  0  0  0  0  0  0
   71.7408   47.3987   60.9954 O   0  0  0  0  0  0  0  0  0  0  0  0
   72.1709   47.4440   59.7864 C   0  0  0  0  0  0  0  0  0  0  0  0
   73.3871   48.1100   59.5009 N   0  0  0  0  0  0  0  0  0  0  0  0
   74.1110   48.7245   60.5701 C   0  0  0  0  0  0  0  0  0  0  0  0
   74.8862   49.9334   60.2200 C   0  0  0  0  0  0  0  0  0  0  0  0
   74.8155   50.4261   58.8258 C   0  0  0  0  0  0  0  0  0  0  0  0
   74.5781   49.4078   57.7621 C   0  0  0  0  0  0  0  0  0  0  0  0
   73.8793   48.1636   58.1683 C   0  0  0  0  0  0  0  0  0  0  0  0
   73.8613   51.5375   58.5924 C   0  0  0  0  0  0  0  0  0  0  0  0
   72.5261   51.3762   58.3133 C   0  0  0  0  0  0  0  0  0  0  0  0
   71.7157   52.4828   58.1123 C   0  0  0  0  0  0  0  0  0  0  0  0
   72.1995   53.7692   58.1843 C   0  0  0  0  0  0  0  0  0  0  0  0
   73.5473   53.8875   58.4678 C   0  0  0  0  0  0  0  0  0  0  0  0
   74.3198   52.7976   58.6596 N   0  0  0  0  0  0  0  0  0  0  0  0
   68.5893   47.6217   56.2864 C   0  0  0  0  0  0  0  0  0  0  0  0
   69.0577   47.8501   54.9277 C   0  0  0  0  0  0  0  0  0  0  0  0
   69.9599   48.8573   54.7317 N   0  0  0  0  0  0  0  0  0  0  0  0
   70.4110   49.2021   53.5379 N   0  0  0  0  0  0  0  0  0  0  0  0
   70.0153   48.5861   52.4122 C   0  0  0  0  0  0  0  0  0  0  0  0
   70.4489   48.9205   51.2632 O   0  0  0  0  0  0  0  0  0  0  0  0
   69.1053   47.5548   52.5188 C   0  0  0  0  0  0  0  0  0  0  0  0
   68.6813   46.8782   51.4013 C   0  0  0  0  0  0  0  0  0  0  0  0
   67.7932   45.8405   51.5179 C   0  0  0  0  0  0  0  0  0  0  0  0
   67.3421   45.5022   52.7909 C   0  0  0  0  0  0  0  0  0  0  0  0
   67.7627   46.1786   53.9196 C   0  0  0  0  0  0  0  0  0  0  0  0
   68.6406   47.2044   53.7927 C   0  0  0  0  0  0  0  0  0  0  0  0
  7  8  2  0
  8  1  1  0
  8  9  1  0
  1  2  2  0
  1  6  1  0
  2  3  1  0
  3  4  2  0
  4  5  1  0
  5 21  1  0
  5  6  2  0
 21 22  1  0
 22 23  2  0
 22 32  1  0
 23 24  1  0
 24 25  1  0
 25 26  2  0
 25 27  1  0
 27 28  1  0
 27 32  2  0
 28 29  2  0
 29 30  1  0
 30 31  2  0
 31 32  1  0
  9 10  1  0
  9 14  1  0
 10 11  1  0
 11 12  1  0
 12 15  1  0
 12 13  1  0
 15 16  2  0
 15 20  1  0
 16 17  1  0
 17 18  2  0
 18 19  1  0
 19 20  2  0
 13 14  1  0
M  END
>  <minimizedAffinity>  (51) 
-9.92981

$$$$
cs_full_output_folder/data/smiles/221.pdb
     RDKit          3D

 28 30  0  0  0  0  0  0  0  0999 V2000
   69.1161   47.8470   52.9448 C   0  0  0  0  0  0  0  0  0  0  0  0
   68.5633   47.3607   51.7729 C   0  0  0  0  0  0  0  0  0  0  0  0
   67.8994   46.1564   51.7223 C   0  0  0  0  0  0  0  0  0  0  0  0
   67.7857   45.4048   52.8988 C   0  0  0  0  0  0  0  0  0  0  0  0
   68.3232   45.8587   54.0791 C   0  0  0  0  0  0  0  0  0  0  0  0
   68.9732   47.0709   54.0581 C   0  0  0  0  0  0  0  0  0  0  0  0
   69.9498   49.3861   52.9514 S   0  0  0  0  0  0  0  0  0  0  0  0
   71.4293   49.1148   53.1134 O   0  0  0  0  0  0  0  0  0  0  0  0
   69.7530   50.0068   51.6102 O   0  0  0  0  0  0  0  0  0  0  0  0
   70.8170   49.7997   56.1807 C   0  0  0  0  0  0  0  0  0  0  0  0
   69.4856   49.8551   55.5199 C   0  0  1  0  0  0  0  0  0  0  0  0
   68.5657   50.6791   56.4251 C   0  0  0  0  0  0  0  0  0  0  0  0
   68.9007   52.1547   56.3344 C   0  0  0  0  0  0  0  0  0  0  0  0
   68.9341   52.6268   54.9042 C   0  0  0  0  0  0  0  0  0  0  0  0
   69.8860   51.7602   54.0905 C   0  0  0  0  0  0  0  0  0  0  0  0
   69.4614   50.4091   54.2152 N   0  0  0  0  0  0  0  0  0  0  0  0
   68.1829   45.0512   55.2768 C   0  0  0  0  0  0  0  0  0  0  0  0
   68.5697   45.5758   56.3716 O   0  0  0  0  0  0  0  0  0  0  0  0
   67.6638   43.7509   55.3437 N   0  0  0  0  0  0  0  0  0  0  0  0
   67.5602   43.0262   56.5555 N   0  0  0  0  0  0  0  0  0  0  0  0
   67.5474   41.6148   56.6147 C   0  0  0  0  0  0  0  0  0  0  0  0
   67.6348   41.0176   55.5125 O   0  0  0  0  0  0  0  0  0  0  0  0
   67.4418   40.8513   57.8441 C   0  0  0  0  0  0  0  0  0  0  0  0
   68.0089   39.6251   58.0341 C   0  0  0  0  0  0  0  0  0  0  0  0
   67.8484   38.9785   59.2455 C   0  0  0  0  0  0  0  0  0  0  0  0
   67.1312   39.5132   60.2984 C   0  0  0  0  0  0  0  0  0  0  0  0
   66.5642   40.7523   60.0917 C   0  0  0  0  0  0  0  0  0  0  0  0
   66.7230   41.3965   58.8869 C   0  0  0  0  0  0  0  0  0  0  0  0
 11 10  1  1
 11 12  1  0
 11 16  1  0
 12 13  1  0
 13 14  1  0
 14 15  1  0
 15 16  1  0
 16  7  1  0
  7  8  2  0
  7  9  2  0
  7  1  1  0
  1  2  2  0
  1  6  1  0
  2  3  1  0
  3  4  2  0
  4  5  1  0
  5 17  1  0
  5  6  2  0
 17 18  2  0
 17 19  1  0
 19 20  1  0
 20 21  1  0
 21 22  2  0
 21 23  1  0
 23 24  2  0
 23 28  1  0
 24 25  1  0
 25 26  2  0
 26 27  1  0
 27 28  2  0
M  END
>  <minimizedAffinity>  (52) 
-9.92217

$$$$
cs_full_output_folder/data/smiles/9533.pdb
     RDKit          3D

 31 34  0  0  0  0  0  0  0  0999 V2000
   71.7500   47.5802   59.2515 C   0  0  0  0  0  0  0  0  0  0  0  0
   71.2936   48.8512   58.9870 C   0  0  0  0  0  0  0  0  0  0  0  0
   70.2286   49.0843   58.1023 C   0  0  0  0  0  0  0  0  0  0  0  0
   69.5903   48.0598   57.4566 C   0  0  0  0  0  0  0  0  0  0  0  0
   70.0667   46.7657   57.7359 C   0  0  0  0  0  0  0  0  0  0  0  0
   71.1113   46.5516   58.6052 C   0  0  0  0  0  0  0  0  0  0  0  0
   72.9716   48.0345   61.4207 N   0  0  0  0  0  0  0  0  0  0  0  0
   72.8612   47.3900   60.1793 C   0  0  0  0  0  0  0  0  0  0  0  0
   73.8046   46.5987   59.8719 O   0  0  0  0  0  0  0  0  0  0  0  0
   75.9267   47.4673   64.3618 C   0  0  0  0  0  0  0  0  0  0  0  0
   74.6611   47.0169   64.5313 C   0  0  0  0  0  0  0  0  0  0  0  0
   73.7158   47.2252   63.5309 C   0  0  0  0  0  0  0  0  0  0  0  0
   74.0302   47.8834   62.3565 C   0  0  0  0  0  0  0  0  0  0  0  0
   75.3050   48.3381   62.1808 C   0  0  0  0  0  0  0  0  0  0  0  0
   76.2343   48.1270   63.1796 C   0  0  0  0  0  0  0  0  0  0  0  0
   77.7786   46.3612   65.2383 O   0  0  0  0  0  0  0  0  0  0  0  0
   76.9269   47.2654   65.3936 C   0  0  0  0  0  0  0  0  0  0  0  0
   76.9661   48.0550   66.5579 N   0  0  0  0  0  0  0  0  0  0  0  0
   77.9319   47.8011   67.4713 O   0  0  0  0  0  0  0  0  0  0  0  0
   68.4592   48.1984   56.5052 C   0  0  0  0  0  0  0  0  0  0  0  0
   68.9441   48.3785   55.1207 C   0  0  0  0  0  0  0  0  0  0  0  0
   69.4901   49.5993   54.7923 N   0  0  0  0  0  0  0  0  0  0  0  0
   69.9137   49.8859   53.5819 N   0  0  0  0  0  0  0  0  0  0  0  0
   69.8573   49.0182   52.5453 C   0  0  0  0  0  0  0  0  0  0  0  0
   70.2729   49.3250   51.3970 O   0  0  0  0  0  0  0  0  0  0  0  0
   69.3220   47.7872   52.8264 C   0  0  0  0  0  0  0  0  0  0  0  0
   68.8667   47.4723   54.1190 C   0  0  0  0  0  0  0  0  0  0  0  0
   68.3650   46.1136   54.3465 C   0  0  0  0  0  0  0  0  0  0  0  0
   67.5130   45.5747   53.2204 C   0  0  0  0  0  0  0  0  0  0  0  0
   67.8231   46.1486   51.8800 C   0  0  0  0  0  0  0  0  0  0  0  0
   69.1958   46.7629   51.7875 C   0  0  0  0  0  0  0  0  0  0  0  0
 16 17  2  0
 17 18  1  0
 17 10  1  0
 18 19  1  0
 10 11  2  0
 10 15  1  0
 11 12  1  0
 12 13  2  0
 13  7  1  0
 13 14  1  0
  7  8  1  0
  8  9  2  0
  8  1  1  0
  1  2  2  0
  1  6  1  0
  2  3  1  0
  3  4  2  0
  4 20  1  0
  4  5  1  0
 20 21  1  0
 21 22  2  0
 21 27  1  0
 22 23  1  0
 23 24  1  0
 24 25  2  0
 24 26  1  0
 26 27  2  0
 26 31  1  0
 27 28  1  0
 28 29  1  0
 29 30  1  0
 30 31  1  0
  5  6  2  0
 14 15  2  0
M  END
>  <minimizedAffinity>  (53) 
-9.90839

$$$$
cs_full_output_folder/data/smiles/6824.pdb
     RDKit          3D

 33 36  0  0  0  0  0  0  0  0999 V2000
   71.4099   46.6263   58.9185 C   0  0  0  0  0  0  0  0  0  0  0  0
   70.6967   47.5634   58.1574 C   0  0  0  0  0  0  0  0  0  0  0  0
   69.8634   47.1939   57.1494 C   0  0  0  0  0  0  0  0  0  0  0  0
   69.7522   45.8083   56.9076 C   0  0  0  0  0  0  0  0  0  0  0  0
   70.4407   44.8767   57.6406 C   0  0  0  0  0  0  0  0  0  0  0  0
   71.2868   45.2770   58.6659 C   0  0  0  0  0  0  0  0  0  0  0  0
   71.9824   44.3972   59.4131 F   0  0  0  0  0  0  0  0  0  0  0  0
   76.4870   49.3705   58.5350 C   0  0  0  0  0  0  0  0  0  0  0  0
   76.6737   50.4577   59.1708 O   0  0  0  0  0  0  0  0  0  0  0  0
   76.0255   48.2202   59.2173 N   0  0  0  0  0  0  0  0  0  0  0  0
   75.7708   48.2825   60.6373 C   0  0  0  0  0  0  0  0  0  0  0  0
   74.4494   47.6843   60.9499 C   0  0  0  0  0  0  0  0  0  0  0  0
   73.6978   47.1724   59.8345 N   0  0  0  0  0  0  0  0  0  0  0  0
   72.2674   47.1136   59.9738 C   0  0  0  0  0  0  0  0  0  0  0  0
   71.7023   47.4886   61.0331 O   0  0  0  0  0  0  0  0  0  0  0  0
   74.2800   46.7027   58.5886 C   0  0  0  0  0  0  0  0  0  0  0  0
   75.7790   46.9534   58.5783 C   0  0  0  0  0  0  0  0  0  0  0  0
   78.1801   49.1865   55.1088 C   0  0  0  0  0  0  0  0  0  0  0  0
   77.9462   49.1610   56.5787 C   0  0  0  0  0  0  0  0  0  0  0  0
   79.1075   48.8741   57.4473 C   0  0  0  0  0  0  0  0  0  0  0  0
   76.7667   49.3836   57.1155 C   0  0  0  0  0  0  0  0  0  0  0  0
   69.0782   48.1340   56.3061 C   0  0  0  0  0  0  0  0  0  0  0  0
   69.5261   48.2209   54.9144 C   0  0  0  0  0  0  0  0  0  0  0  0
   70.5127   49.0926   54.5389 N   0  0  0  0  0  0  0  0  0  0  0  0
   70.9058   49.2569   53.2975 N   0  0  0  0  0  0  0  0  0  0  0  0
   70.3425   48.5552   52.3064 C   0  0  0  0  0  0  0  0  0  0  0  0
   70.6786   48.6702   51.0862 O   0  0  0  0  0  0  0  0  0  0  0  0
   69.3237   47.6343   52.5865 C   0  0  0  0  0  0  0  0  0  0  0  0
   68.7605   46.8981   51.5736 C   0  0  0  0  0  0  0  0  0  0  0  0
   67.7815   45.9829   51.8711 C   0  0  0  0  0  0  0  0  0  0  0  0
   67.4068   45.8435   53.1833 C   0  0  0  0  0  0  0  0  0  0  0  0
   67.9542   46.5691   54.2190 C   0  0  0  0  0  0  0  0  0  0  0  0
   68.9344   47.4887   53.9179 C   0  0  0  0  0  0  0  0  0  0  0  0
 18 19  1  0
 19 20  1  0
 19 21  2  0
 21  8  1  0
  8  9  2  0
  8 10  1  0
 10 11  1  0
 10 17  1  0
 11 12  1  0
 12 13  1  0
 13 14  1  0
 13 16  1  0
 14 15  2  0
 14  1  1  0
  1  2  2  0
  1  6  1  0
  2  3  1  0
  3 22  1  0
  3  4  2  0
 22 23  1  0
 23 24  2  0
 23 33  1  0
 24 25  1  0
 25 26  1  0
 26 27  2  0
 26 28  1  0
 28 29  1  0
 28 33  2  0
 29 30  2  0
 30 31  1  0
 31 32  2  0
 32 33  1  0
  4  5  1  0
  5  6  2  0
  6  7  1  0
 16 17  1  0
M  END
>  <minimizedAffinity>  (54) 
-9.90103

$$$$
cs_full_output_folder/data/smiles/324.pdb
     RDKit          3D

 28 30  0  0  0  0  0  0  0  0999 V2000
   68.3814   45.9638   54.1264 C   0  0  0  0  0  0  0  0  0  0  0  0
   67.8234   45.5756   52.9350 C   0  0  0  0  0  0  0  0  0  0  0  0
   67.9530   46.3327   51.7759 C   0  0  0  0  0  0  0  0  0  0  0  0
   68.6630   47.5150   51.8102 C   0  0  0  0  0  0  0  0  0  0  0  0
   69.2405   47.9365   53.0002 C   0  0  0  0  0  0  0  0  0  0  0  0
   69.0827   47.1498   54.1207 C   0  0  0  0  0  0  0  0  0  0  0  0
   68.5513   45.7435   56.4588 O   0  0  0  0  0  0  0  0  0  0  0  0
   68.2698   45.2008   55.3647 C   0  0  0  0  0  0  0  0  0  0  0  0
   67.8544   43.8462   55.4199 N   0  0  0  0  0  0  0  0  0  0  0  0
   67.7582   43.1330   56.6470 N   0  0  0  0  0  0  0  0  0  0  0  0
   67.5745   41.7302   56.6707 C   0  0  0  0  0  0  0  0  0  0  0  0
   67.5086   41.1960   55.5068 O   0  0  0  0  0  0  0  0  0  0  0  0
   67.4620   40.8921   57.8503 C   0  0  0  0  0  0  0  0  0  0  0  0
   68.1242   39.6590   57.8033 C   0  0  0  0  0  0  0  0  0  0  0  0
   68.1303   38.7469   58.8108 C   0  0  0  0  0  0  0  0  0  0  0  0
   67.4277   39.0578   59.9758 C   0  0  0  0  0  0  0  0  0  0  0  0
   66.7666   40.2655   60.0500 C   0  0  0  0  0  0  0  0  0  0  0  0
   66.7859   41.1784   58.9867 C   0  0  0  0  0  0  0  0  0  0  0  0
   66.1124   42.3570   59.1168 O   0  0  0  0  0  0  0  0  0  0  0  0
   70.1207   49.4278   52.9894 S   0  0  0  0  0  0  0  0  0  0  0  0
   71.5972   49.1057   52.9096 O   0  0  0  0  0  0  0  0  0  0  0  0
   69.7863   50.1425   51.7003 O   0  0  0  0  0  0  0  0  0  0  0  0
   69.8709   50.3919   54.3588 N   0  0  0  0  0  0  0  0  0  0  0  0
   68.7355   51.2502   54.1302 C   0  0  0  0  0  0  0  0  0  0  0  0
   68.3509   51.9929   55.3973 C   0  0  0  0  0  0  0  0  0  0  0  0
   69.4886   52.7156   56.0297 C   0  0  0  0  0  0  0  0  0  0  0  0
   70.8077   52.0265   55.9333 C   0  0  0  0  0  0  0  0  0  0  0  0
   71.0010   51.2295   54.6932 C   0  0  0  0  0  0  0  0  0  0  0  0
  7  8  2  0
  8  9  1  0
  8  1  1  0
  9 10  1  0
 10 11  1  0
 11 12  2  0
 11 13  1  0
 13 14  2  0
 13 18  1  0
 14 15  1  0
 15 16  2  0
 16 17  1  0
 17 18  2  0
 18 19  1  0
  1  2  2  0
  1  6  1  0
  2  3  1  0
  3  4  2  0
  4  5  1  0
  5 20  1  0
  5  6  2  0
 20 21  2  0
 20 22  2  0
 20 23  1  0
 23 24  1  0
 23 28  1  0
 24 25  1  0
 25 26  1  0
 26 27  1  0
 27 28  1  0
M  END
>  <minimizedAffinity>  (55) 
-9.89880

$$$$
cs_full_output_folder/data/smiles/7931.pdb
     RDKit          3D

 32 36  0  0  0  0  0  0  0  0999 V2000
   71.5100   47.2091   58.7582 C   0  0  0  0  0  0  0  0  0  0  0  0
   70.6594   48.0378   58.0011 C   0  0  0  0  0  0  0  0  0  0  0  0
   69.7591   47.5382   57.1345 C   0  0  0  0  0  0  0  0  0  0  0  0
   69.7038   46.1426   57.0177 C   0  0  0  0  0  0  0  0  0  0  0  0
   70.5028   45.2926   57.7263 C   0  0  0  0  0  0  0  0  0  0  0  0
   71.4166   45.8554   58.6079 C   0  0  0  0  0  0  0  0  0  0  0  0
   72.1957   45.0072   59.2979 F   0  0  0  0  0  0  0  0  0  0  0  0
   72.1224   48.0120   60.8377 O   0  0  0  0  0  0  0  0  0  0  0  0
   72.4919   47.7820   59.6777 C   0  0  0  0  0  0  0  0  0  0  0  0
   73.8056   48.0459   59.2071 N   0  0  0  0  0  0  0  0  0  0  0  0
   74.4802   47.8702   57.9368 C   0  0  0  0  0  0  0  0  0  0  0  0
   75.8005   48.3191   58.5423 C   0  0  0  0  0  0  0  0  0  0  0  0
   75.0082   48.5906   59.7640 C   0  0  0  0  0  0  0  0  0  0  0  0
   76.4487   49.4231   57.8301 C   0  0  0  0  0  0  0  0  0  0  0  0
   75.6924   50.3496   57.3754 O   0  0  0  0  0  0  0  0  0  0  0  0
   77.8261   49.5674   57.5974 N   0  0  0  0  0  0  0  0  0  0  0  0
   78.9758   48.7800   57.9413 C   0  0  0  0  0  0  0  0  0  0  0  0
   79.6654   48.6635   56.5763 C   0  0  0  0  0  0  0  0  0  0  0  0
   79.5089   50.0812   56.0515 C   0  0  0  0  0  0  0  0  0  0  0  0
   78.4128   50.7130   56.8628 C   0  0  0  0  0  0  0  0  0  0  0  0
   68.8530   48.3521   56.3046 C   0  0  0  0  0  0  0  0  0  0  0  0
   69.2874   48.3457   54.9191 C   0  0  0  0  0  0  0  0  0  0  0  0
   70.2062   49.2898   54.5442 N   0  0  0  0  0  0  0  0  0  0  0  0
   70.6216   49.4304   53.3009 N   0  0  0  0  0  0  0  0  0  0  0  0
   70.1910   48.6683   52.2806 C   0  0  0  0  0  0  0  0  0  0  0  0
   70.5974   48.8168   51.0995 O   0  0  0  0  0  0  0  0  0  0  0  0
   69.2593   47.6873   52.5829 C   0  0  0  0  0  0  0  0  0  0  0  0
   68.7923   46.8668   51.6012 C   0  0  0  0  0  0  0  0  0  0  0  0
   67.8843   45.8850   51.9176 C   0  0  0  0  0  0  0  0  0  0  0  0
   67.4541   45.7367   53.2144 C   0  0  0  0  0  0  0  0  0  0  0  0
   67.9310   46.5745   54.2050 C   0  0  0  0  0  0  0  0  0  0  0  0
   68.8330   47.5523   53.8927 C   0  0  0  0  0  0  0  0  0  0  0  0
  8  9  2  0
  9  1  1  0
  9 10  1  0
  1  2  2  0
  1  6  1  0
  2  3  1  0
  3 21  1  0
  3  4  2  0
 21 22  1  0
 22 23  2  0
 22 32  1  0
 23 24  1  0
 24 25  1  0
 25 26  2  0
 25 27  1  0
 27 28  1  0
 27 32  2  0
 28 29  2  0
 29 30  1  0
 30 31  2  0
 31 32  1  0
  4  5  1  0
  5  6  2  0
  6  7  1  0
 10 11  1  0
 10 13  1  0
 11 12  1  0
 12 14  1  0
 12 13  1  0
 14 15  2  0
 14 16  1  0
 16 17  1  0
 16 20  1  0
 17 18  1  0
 18 19  1  0
 19 20  1  0
M  END
>  <minimizedAffinity>  (56) 
-9.89720

$$$$
cs_full_output_folder/data/smiles/7853.pdb
     RDKit          3D

 32 36  0  0  0  0  0  0  0  0999 V2000
   71.3721   46.8360   58.7088 C   0  0  0  0  0  0  0  0  0  0  0  0
   70.5814   47.6267   57.9212 C   0  0  0  0  0  0  0  0  0  0  0  0
   69.6352   47.1173   57.0324 C   0  0  0  0  0  0  0  0  0  0  0  0
   69.5203   45.7624   56.9718 C   0  0  0  0  0  0  0  0  0  0  0  0
   70.3322   44.9477   57.7805 C   0  0  0  0  0  0  0  0  0  0  0  0
   71.2619   45.4750   58.6540 C   0  0  0  0  0  0  0  0  0  0  0  0
   72.0431   44.6777   59.4323 F   0  0  0  0  0  0  0  0  0  0  0  0
   71.9588   47.7219   60.8140 O   0  0  0  0  0  0  0  0  0  0  0  0
   72.3587   47.4135   59.6356 C   0  0  0  0  0  0  0  0  0  0  0  0
   73.7034   47.6415   59.2906 N   0  0  0  0  0  0  0  0  0  0  0  0
   74.8291   48.1964   60.0383 C   0  0  0  0  0  0  0  0  0  0  0  0
   75.8048   47.8387   58.9733 C   0  0  0  0  0  0  0  0  0  0  0  0
   74.5556   47.4798   58.1514 C   0  0  0  0  0  0  0  0  0  0  0  0
   76.5553   48.8356   58.3407 N   0  0  0  0  0  0  0  0  0  0  0  0
   77.9177   48.7009   58.0563 C   0  0  0  0  0  0  0  0  0  0  0  0
   78.9119   49.5138   58.7958 C   0  0  0  0  0  0  0  0  0  0  0  0
   78.9890   50.9484   58.3808 C   0  0  0  0  0  0  0  0  0  0  0  0
   79.0997   51.1126   56.8764 C   0  0  0  0  0  0  0  0  0  0  0  0
   77.8700   50.4548   56.2885 C   0  0  0  0  0  0  0  0  0  0  0  0
   78.0375   48.9650   56.5363 C   0  0  0  0  0  0  0  0  0  0  0  0
   68.8431   48.0056   56.1797 C   0  0  0  0  0  0  0  0  0  0  0  0
   69.3025   48.1399   54.7937 C   0  0  0  0  0  0  0  0  0  0  0  0
   70.2604   49.0743   54.5088 N   0  0  0  0  0  0  0  0  0  0  0  0
   70.7020   49.2809   53.2890 N   0  0  0  0  0  0  0  0  0  0  0  0
   70.2363   48.5849   52.2586 C   0  0  0  0  0  0  0  0  0  0  0  0
   70.6324   48.7521   51.0747 O   0  0  0  0  0  0  0  0  0  0  0  0
   69.2651   47.6243   52.4841 C   0  0  0  0  0  0  0  0  0  0  0  0
   68.7504   46.8687   51.4591 C   0  0  0  0  0  0  0  0  0  0  0  0
   67.7920   45.9022   51.6495 C   0  0  0  0  0  0  0  0  0  0  0  0
   67.3413   45.6919   52.9157 C   0  0  0  0  0  0  0  0  0  0  0  0
   67.8244   46.4231   53.9778 C   0  0  0  0  0  0  0  0  0  0  0  0
   68.7957   47.4012   53.7649 C   0  0  0  0  0  0  0  0  0  0  0  0
  8  9  2  0
  9  1  1  0
  9 10  1  0
  1  2  2  0
  1  6  1  0
  2  3  1  0
  3 21  1  0
  3  4  2  0
 21 22  1  0
 22 23  2  0
 22 32  1  0
 23 24  1  0
 24 25  1  0
 25 26  2  0
 25 27  1  0
 27 28  1  0
 27 32  2  0
 28 29  2  0
 29 30  1  0
 30 31  2  0
 31 32  1  0
  4  5  1  0
  5  6  2  0
  6  7  1  0
 10 11  1  0
 10 13  1  0
 11 12  1  0
 12 14  1  0
 12 13  1  0
 14 15  1  0
 15 16  1  0
 15 20  1  0
 16 17  1  0
 17 18  1  0
 18 19  1  0
 19 20  1  0
M  CHG  1  14   1
M  END
>  <minimizedAffinity>  (57) 
-9.89689

$$$$
cs_full_output_folder/data/smiles/299.pdb
     RDKit          3D

 29 30  0  0  0  0  0  0  0  0999 V2000
   68.5198   42.3976   56.9666 C   0  0  0  0  0  0  0  0  0  0  0  0
   67.8970   40.9624   56.4521 S   0  0  0  0  0  0  0  0  0  0  0  0
   69.7691   42.3867   57.7658 C   0  0  0  0  0  0  0  0  0  0  0  0
   71.4473   40.6373   58.4523 C   0  0  0  0  0  0  0  0  0  0  0  0
   72.1920   41.5886   58.8119 O   0  0  0  0  0  0  0  0  0  0  0  0
   70.1890   41.0084   57.9068 N   0  0  0  0  0  0  0  0  0  0  0  0
   72.7107   36.5752   58.8703 C   0  0  0  0  0  0  0  0  0  0  0  0
   73.4861   37.5937   59.3671 C   0  0  0  0  0  0  0  0  0  0  0  0
   73.0796   38.9234   59.2346 C   0  0  0  0  0  0  0  0  0  0  0  0
   71.9053   39.2638   58.6107 C   0  0  0  0  0  0  0  0  0  0  0  0
   71.1380   38.2297   58.1177 C   0  0  0  0  0  0  0  0  0  0  0  0
   71.5320   36.9014   58.2439 C   0  0  0  0  0  0  0  0  0  0  0  0
   72.9692   34.5220   57.5985 C   0  0  0  0  0  0  0  0  0  0  0  0
   73.0747   35.1470   58.9712 C   0  0  0  0  0  0  0  0  0  0  0  0
   72.0695   34.4669   59.8707 C   0  0  0  0  0  0  0  0  0  0  0  0
   74.4691   34.9399   59.5051 C   0  0  0  0  0  0  0  0  0  0  0  0
   67.8393   43.5761   56.6259 N   0  0  0  0  0  0  0  0  0  0  0  0
   67.9682   44.0877   55.3129 N   0  0  0  0  0  0  0  0  0  0  0  0
   68.2116   45.4776   55.1887 C   0  0  0  0  0  0  0  0  0  0  0  0
   68.3074   46.2181   56.1945 O   0  0  0  0  0  0  0  0  0  0  0  0
   68.3528   46.0602   53.8695 C   0  0  0  0  0  0  0  0  0  0  0  0
   67.5946   45.5477   52.8193 C   0  0  0  0  0  0  0  0  0  0  0  0
   67.6947   46.0683   51.5498 C   0  0  0  0  0  0  0  0  0  0  0  0
   68.5607   47.1246   51.2856 C   0  0  0  0  0  0  0  0  0  0  0  0
   69.3259   47.6544   52.3020 C   0  0  0  0  0  0  0  0  0  0  0  0
   69.1883   47.0961   53.5616 C   0  0  0  0  0  0  0  0  0  0  0  0
   70.2176   48.7342   52.0571 N   0  0  0  0  0  0  0  0  0  0  0  0
   71.1615   48.9644   52.8107 O   0  0  0  0  0  0  0  0  0  0  0  0
   69.9960   49.5201   50.9522 O   0  0  0  0  0  0  0  0  0  0  0  0
 13 14  1  0
 14 15  1  0
 14 16  1  0
 14  7  1  0
  7  8  2  0
  7 12  1  0
  8  9  1  0
  9 10  2  0
 10  4  1  0
 10 11  1  0
  4  5  2  0
  4  6  1  0
  6  3  1  0
  3  1  1  0
  1  2  2  0
  1 17  1  0
 17 18  1  0
 18 19  1  0
 19 20  2  0
 19 21  1  0
 21 22  2  0
 21 26  1  0
 22 23  1  0
 23 24  2  0
 24 25  1  0
 25 27  1  0
 25 26  2  0
 27 28  2  0
 27 29  1  0
 11 12  2  0
M  CHG  2  27   1  29  -1
M  END
>  <minimizedAffinity>  (58) 
-9.89688

$$$$
cs_full_output_folder/data/smiles/6623.pdb
     RDKit          3D

 30 33  0  0  0  0  0  0  0  0999 V2000
   70.8063   46.6301   58.4438 C   0  0  0  0  0  0  0  0  0  0  0  0
   69.9713   47.1677   57.4457 C   0  0  0  0  0  0  0  0  0  0  0  0
   69.8015   48.4876   57.2044 C   0  0  0  0  0  0  0  0  0  0  0  0
   70.5260   49.3543   58.0268 C   0  0  0  0  0  0  0  0  0  0  0  0
   71.3504   48.8684   59.0095 C   0  0  0  0  0  0  0  0  0  0  0  0
   71.4966   47.5106   59.2262 C   0  0  0  0  0  0  0  0  0  0  0  0
   72.3537   47.1108   60.2187 F   0  0  0  0  0  0  0  0  0  0  0  0
   69.7843   44.3913   58.9414 N   0  0  0  0  0  0  0  0  0  0  0  0
   70.8834   45.1966   58.6170 C   0  0  0  0  0  0  0  0  0  0  0  0
   72.0484   44.6651   58.4539 O   0  0  0  0  0  0  0  0  0  0  0  0
   69.9871   42.9879   59.0897 C   0  0  0  0  0  0  0  0  0  0  0  0
   69.9754   40.1436   59.3139 C   0  0  0  0  0  0  0  0  0  0  0  0
   69.2568   40.7731   58.1052 C   0  0  1  0  0  0  0  0  0  0  0  0
   67.7951   40.5362   58.1663 C   0  0  0  0  0  0  0  0  0  0  0  0
   66.9635   41.4571   57.4782 N   0  0  0  0  0  0  0  0  0  0  0  0
   67.5984   42.2299   56.4735 C   0  0  0  0  0  0  0  0  0  0  0  0
   68.8928   42.8443   56.8416 C   0  0  0  0  0  0  0  0  0  0  0  0
   69.7220   42.1574   57.8577 C   0  0  1  0  0  0  0  0  0  0  0  0
   68.9339   49.1126   56.1877 C   0  0  0  0  0  0  0  0  0  0  0  0
   69.3229   48.8852   54.7991 C   0  0  0  0  0  0  0  0  0  0  0  0
   70.1812   49.7730   54.2052 N   0  0  0  0  0  0  0  0  0  0  0  0
   70.5688   49.6867   52.9656 N   0  0  0  0  0  0  0  0  0  0  0  0
   70.1614   48.7134   52.1450 C   0  0  0  0  0  0  0  0  0  0  0  0
   70.5636   48.6735   50.9546 O   0  0  0  0  0  0  0  0  0  0  0  0
   69.2949   47.7653   52.6429 C   0  0  0  0  0  0  0  0  0  0  0  0
   68.8607   46.7446   51.8324 C   0  0  0  0  0  0  0  0  0  0  0  0
   68.0001   45.7829   52.3253 C   0  0  0  0  0  0  0  0  0  0  0  0
   67.6142   45.9064   53.6375 C   0  0  0  0  0  0  0  0  0  0  0  0
   68.0441   46.9284   54.4612 C   0  0  0  0  0  0  0  0  0  0  0  0
   68.8922   47.8764   53.9732 C   0  0  0  0  0  0  0  0  0  0  0  0
 13 12  1  1
 13 14  1  0
 13 18  1  0
 14 15  1  0
 15 16  1  0
 16 17  1  0
 17 18  1  0
 18 11  1  1
 11  8  1  0
  8  9  1  0
  9 10  2  0
  9  1  1  0
  1  2  2  0
  1  6  1  0
  2  3  1  0
  3 19  1  0
  3  4  2  0
 19 20  1  0
 20 21  2  0
 20 30  1  0
 21 22  1  0
 22 23  1  0
 23 24  2  0
 23 25  1  0
 25 26  1  0
 25 30  2  0
 26 27  2  0
 27 28  1  0
 28 29  2  0
 29 30  1  0
  4  5  1  0
  5  6  2  0
  6  7  1  0
M  CHG  1  15   1
M  END
>  <minimizedAffinity>  (59) 
-9.89595

$$$$
cs_full_output_folder/data/smiles/1252.pdb
     RDKit          3D

 32 36  0  0  0  0  0  0  0  0999 V2000
   71.5448   47.1436   58.8383 C   0  0  0  0  0  0  0  0  0  0  0  0
   71.5116   45.7724   58.7486 C   0  0  0  0  0  0  0  0  0  0  0  0
   70.6501   45.1361   57.8783 C   0  0  0  0  0  0  0  0  0  0  0  0
   69.8363   45.9116   57.1105 C   0  0  0  0  0  0  0  0  0  0  0  0
   69.8149   47.3225   57.1458 C   0  0  0  0  0  0  0  0  0  0  0  0
   70.6920   47.8888   58.0288 C   0  0  0  0  0  0  0  0  0  0  0  0
   72.0575   47.9414   60.9569 O   0  0  0  0  0  0  0  0  0  0  0  0
   72.4153   47.8591   59.7593 C   0  0  0  0  0  0  0  0  0  0  0  0
   73.6205   48.4240   59.2512 N   0  0  0  0  0  0  0  0  0  0  0  0
   73.9663   48.2796   57.8648 C   0  0  0  0  0  0  0  0  0  0  0  0
   74.2778   49.6423   57.2253 C   0  0  0  0  0  0  0  0  0  0  0  0
   74.3838   50.5877   58.2803 N   0  0  0  0  0  0  0  0  0  0  0  0
   75.2256   50.2614   59.4029 C   0  0  0  0  0  0  0  0  0  0  0  0
   74.4864   49.1653   60.1814 C   0  0  0  0  0  0  0  0  0  0  0  0
   73.7032   51.8226   58.2517 C   0  0  0  0  0  0  0  0  0  0  0  0
   72.4211   52.0276   57.8025 C   0  0  0  0  0  0  0  0  0  0  0  0
   71.7826   53.2588   57.7982 C   0  0  0  0  0  0  0  0  0  0  0  0
   72.4697   54.3438   58.2688 C   0  0  0  0  0  0  0  0  0  0  0  0
   73.7453   54.1622   58.7204 C   0  0  0  0  0  0  0  0  0  0  0  0
   74.3263   52.9591   58.7088 N   0  0  0  0  0  0  0  0  0  0  0  0
   68.8618   48.0652   56.2932 C   0  0  0  0  0  0  0  0  0  0  0  0
   69.2609   48.2670   54.9000 C   0  0  0  0  0  0  0  0  0  0  0  0
   70.1407   49.2361   54.5386 N   0  0  0  0  0  0  0  0  0  0  0  0
   70.5677   49.4301   53.3251 N   0  0  0  0  0  0  0  0  0  0  0  0
   70.1492   48.6595   52.3175 C   0  0  0  0  0  0  0  0  0  0  0  0
   70.5558   48.8350   51.1271 O   0  0  0  0  0  0  0  0  0  0  0  0
   69.2670   47.6642   52.5825 C   0  0  0  0  0  0  0  0  0  0  0  0
   68.8031   46.8846   51.5586 C   0  0  0  0  0  0  0  0  0  0  0  0
   67.8890   45.9004   51.8146 C   0  0  0  0  0  0  0  0  0  0  0  0
   67.4265   45.6875   53.1146 C   0  0  0  0  0  0  0  0  0  0  0  0
   67.8884   46.4645   54.1415 C   0  0  0  0  0  0  0  0  0  0  0  0
   68.8084   47.4513   53.8745 C   0  0  0  0  0  0  0  0  0  0  0  0
  7  8  2  0
  8  1  1  0
  8  9  1  0
  1  2  2  0
  1  6  1  0
  2  3  1  0
  3  4  2  0
  4  5  1  0
  5 21  1  0
  5  6  2  0
 21 22  1  0
 22 23  2  0
 22 32  1  0
 23 24  1  0
 24 25  1  0
 25 26  2  0
 25 27  1  0
 27 28  1  0
 27 32  2  0
 28 29  2  0
 29 30  1  0
 30 31  2  0
 31 32  1  0
  9 10  1  0
  9 14  1  0
 10 11  1  0
 11 12  1  0
 12 15  1  0
 12 13  1  0
 15 16  2  0
 15 20  1  0
 16 17  1  0
 17 18  2  0
 18 19  1  0
 19 20  2  0
 13 14  1  0
M  END
>  <minimizedAffinity>  (60) 
-9.88623

$$$$
cs_full_output_folder/data/smiles/1039.pdb
     RDKit          3D

 30 32  0  0  0  0  0  0  0  0999 V2000
   68.2632   45.8909   54.1035 C   0  0  0  0  0  0  0  0  0  0  0  0
   67.6670   45.2858   53.0001 C   0  0  0  0  0  0  0  0  0  0  0  0
   67.7413   45.8550   51.7639 C   0  0  0  0  0  0  0  0  0  0  0  0
   68.4192   47.0513   51.5990 C   0  0  0  0  0  0  0  0  0  0  0  0
   69.0198   47.6811   52.6564 C   0  0  0  0  0  0  0  0  0  0  0  0
   68.9350   47.0961   53.8984 C   0  0  0  0  0  0  0  0  0  0  0  0
   68.0094   43.9500   55.6081 N   0  0  0  0  0  0  0  0  0  0  0  0
   68.2568   45.3186   55.4369 C   0  0  0  0  0  0  0  0  0  0  0  0
   68.4756   46.0486   56.4208 O   0  0  0  0  0  0  0  0  0  0  0  0
   67.8320   41.8601   56.9024 C   0  0  0  0  0  0  0  0  0  0  0  0
   67.7612   41.2243   55.8125 O   0  0  0  0  0  0  0  0  0  0  0  0
   67.9697   43.2635   56.8150 N   0  0  0  0  0  0  0  0  0  0  0  0
   70.2267   41.1293   58.1724 C   0  0  0  0  0  0  0  0  0  0  0  0
   68.9372   40.8193   58.8525 C   0  0  0  0  0  0  0  0  0  0  0  0
   68.8852   40.1877   60.0810 C   0  0  0  0  0  0  0  0  0  0  0  0
   67.6622   39.9191   60.6851 C   0  0  0  0  0  0  0  0  0  0  0  0
   66.5068   40.2994   60.0262 C   0  0  0  0  0  0  0  0  0  0  0  0
   66.5596   40.9355   58.7902 C   0  0  0  0  0  0  0  0  0  0  0  0
   67.7843   41.2014   58.1904 C   0  0  0  0  0  0  0  0  0  0  0  0
   69.9277   49.1890   52.4610 S   0  0  0  0  0  0  0  0  0  0  0  0
   71.2317   49.1377   53.1921 O   0  0  0  0  0  0  0  0  0  0  0  0
   70.2367   49.3589   50.9994 O   0  0  0  0  0  0  0  0  0  0  0  0
   68.9469   50.5100   53.0498 N   0  0  0  0  0  0  0  0  0  0  0  0
   68.9633   50.7191   54.4744 C   0  0  0  0  0  0  0  0  0  0  0  0
   69.1726   49.6722   55.3397 C   0  0  0  0  0  0  0  0  0  0  0  0
   69.1878   49.8633   56.7141 C   0  0  0  0  0  0  0  0  0  0  0  0
   68.9919   51.1219   57.2856 C   0  0  0  0  0  0  0  0  0  0  0  0
   68.7824   52.1679   56.4088 C   0  0  0  0  0  0  0  0  0  0  0  0
   68.7681   51.9676   55.0408 C   0  0  0  0  0  0  0  0  0  0  0  0
   68.5594   53.0163   54.1973 F   0  0  0  0  0  0  0  0  0  0  0  0
 13 14  1  0
 14 15  2  0
 14 19  1  0
 15 16  1  0
 16 17  2  0
 17 18  1  0
 18 19  2  0
 19 10  1  0
 10 11  2  0
 10 12  1  0
 12  7  1  0
  7  8  1  0
  8  9  2  0
  8  1  1  0
  1  2  2  0
  1  6  1  0
  2  3  1  0
  3  4  2  0
  4  5  1  0
  5 20  1  0
  5  6  2  0
 20 21  2  0
 20 22  2  0
 20 23  1  0
 23 24  1  0
 24 25  2  0
 24 29  1  0
 25 26  1  0
 26 27  2  0
 27 28  1  0
 28 29  2  0
 29 30  1  0
M  END
>  <minimizedAffinity>  (61) 
-9.88593

$$$$
cs_full_output_folder/data/smiles/7174.pdb
     RDKit          3D

 31 34  0  0  0  0  0  0  0  0999 V2000
   71.3413   46.8453   58.8831 C   0  0  0  0  0  0  0  0  0  0  0  0
   70.5609   47.6407   58.0850 C   0  0  0  0  0  0  0  0  0  0  0  0
   69.6962   47.1282   57.0974 C   0  0  0  0  0  0  0  0  0  0  0  0
   69.6380   45.7770   56.9313 C   0  0  0  0  0  0  0  0  0  0  0  0
   70.4277   44.9548   57.7380 C   0  0  0  0  0  0  0  0  0  0  0  0
   71.2624   45.4788   58.6939 C   0  0  0  0  0  0  0  0  0  0  0  0
   72.0345   44.6947   59.4842 F   0  0  0  0  0  0  0  0  0  0  0  0
   77.0914   49.4659   58.1656 C   0  0  0  0  0  0  0  0  0  0  0  0
   77.3884   48.8505   57.0352 O   0  0  0  0  0  0  0  0  0  0  0  0
   75.9850   48.8871   58.7993 N   0  0  0  0  0  0  0  0  0  0  0  0
   75.3508   47.7280   58.1283 C   0  0  0  0  0  0  0  0  0  0  0  0
   73.8568   48.0120   58.1661 C   0  0  0  0  0  0  0  0  0  0  0  0
   73.4665   47.9968   59.5596 N   0  0  0  0  0  0  0  0  0  0  0  0
   72.2268   47.4197   59.8990 C   0  0  0  0  0  0  0  0  0  0  0  0
   71.8742   47.3987   61.1041 O   0  0  0  0  0  0  0  0  0  0  0  0
   74.3091   48.5440   60.5604 C   0  0  0  0  0  0  0  0  0  0  0  0
   75.4711   49.3720   60.0352 C   0  0  0  0  0  0  0  0  0  0  0  0
   79.1081   50.6259   59.0278 C   0  0  0  0  0  0  0  0  0  0  0  0
   77.9189   50.5707   58.5301 C   0  0  0  0  0  0  0  0  0  0  0  0
   68.9004   48.0749   56.2580 C   0  0  0  0  0  0  0  0  0  0  0  0
   69.3369   48.1690   54.8723 C   0  0  0  0  0  0  0  0  0  0  0  0
   70.3024   49.0874   54.5463 N   0  0  0  0  0  0  0  0  0  0  0  0
   70.7319   49.2824   53.3181 N   0  0  0  0  0  0  0  0  0  0  0  0
   70.2330   48.5733   52.2955 C   0  0  0  0  0  0  0  0  0  0  0  0
   70.6422   48.7578   51.1160 O   0  0  0  0  0  0  0  0  0  0  0  0
   69.2539   47.6170   52.5023 C   0  0  0  0  0  0  0  0  0  0  0  0
   68.7440   46.8706   51.4570 C   0  0  0  0  0  0  0  0  0  0  0  0
   67.7854   45.9265   51.7367 C   0  0  0  0  0  0  0  0  0  0  0  0
   67.3730   45.7602   53.0398 C   0  0  0  0  0  0  0  0  0  0  0  0
   67.8840   46.5058   54.0784 C   0  0  0  0  0  0  0  0  0  0  0  0
   68.8289   47.4438   53.8243 C   0  0  0  0  0  0  0  0  0  0  0  0
 18 19  2  0
 19  8  1  0
  8  9  2  0
  8 10  1  0
 10 11  1  0
 10 17  1  0
 11 12  1  0
 12 13  1  0
 13 14  1  0
 13 16  1  0
 14 15  2  0
 14  1  1  0
  1  2  2  0
  1  6  1  0
  2  3  1  0
  3 20  1  0
  3  4  2  0
 20 21  1  0
 21 22  2  0
 21 31  1  0
 22 23  1  0
 23 24  1  0
 24 25  2  0
 24 26  1  0
 26 27  1  0
 26 31  2  0
 27 28  2  0
 28 29  1  0
 29 30  2  0
 30 31  1  0
  4  5  1  0
  5  6  2  0
  6  7  1  0
 16 17  1  0
M  END
>  <minimizedAffinity>  (62) 
-9.88265

$$$$
cs_full_output_folder/data/smiles/1116.pdb
     RDKit          3D

 33 36  0  0  0  0  0  0  0  0999 V2000
   71.4560   47.0001   58.9077 C   0  0  0  0  0  0  0  0  0  0  0  0
   70.6596   47.7961   58.1181 C   0  0  0  0  0  0  0  0  0  0  0  0
   69.8483   47.1902   57.1901 C   0  0  0  0  0  0  0  0  0  0  0  0
   69.8478   45.8038   57.0703 C   0  0  0  0  0  0  0  0  0  0  0  0
   70.6570   44.9987   57.8717 C   0  0  0  0  0  0  0  0  0  0  0  0
   71.4629   45.6259   58.7943 C   0  0  0  0  0  0  0  0  0  0  0  0
   72.2780   44.8679   59.6033 F   0  0  0  0  0  0  0  0  0  0  0  0
   77.0060   49.4747   58.0300 C   0  0  0  0  0  0  0  0  0  0  0  0
   77.9575   50.0723   58.6373 O   0  0  0  0  0  0  0  0  0  0  0  0
   76.2260   48.5259   58.7284 N   0  0  0  0  0  0  0  0  0  0  0  0
   76.5567   48.3377   60.1307 C   0  0  0  0  0  0  0  0  0  0  0  0
   75.3745   48.2209   61.0107 C   0  0  0  0  0  0  0  0  0  0  0  0
   74.1692   49.0478   60.6024 C   0  0  0  0  0  0  0  0  0  0  0  0
   73.4478   48.4103   59.5267 N   0  0  0  0  0  0  0  0  0  0  0  0
   72.2830   47.7048   59.8923 C   0  0  0  0  0  0  0  0  0  0  0  0
   71.9170   47.6605   61.0896 O   0  0  0  0  0  0  0  0  0  0  0  0
   73.8580   48.4503   58.1406 C   0  0  0  0  0  0  0  0  0  0  0  0
   75.2367   47.8475   57.9547 C   0  0  0  0  0  0  0  0  0  0  0  0
   76.7849   49.8144   56.6283 C   0  0  0  0  0  0  0  0  0  0  0  0
   78.7904   48.9937   55.0715 C   0  0  0  0  0  0  0  0  0  0  0  0
   77.8625   49.3772   55.7999 C   0  0  0  0  0  0  0  0  0  0  0  0
   68.9967   47.9542   56.3116 C   0  0  0  0  0  0  0  0  0  0  0  0
   69.4555   48.2330   54.9557 C   0  0  0  0  0  0  0  0  0  0  0  0
   70.3772   49.1386   54.5826 N   0  0  0  0  0  0  0  0  0  0  0  0
   70.7608   49.3131   53.3377 N   0  0  0  0  0  0  0  0  0  0  0  0
   70.2356   48.5786   52.3553 C   0  0  0  0  0  0  0  0  0  0  0  0
   70.6230   48.7675   51.1649 O   0  0  0  0  0  0  0  0  0  0  0  0
   69.2731   47.6144   52.6323 C   0  0  0  0  0  0  0  0  0  0  0  0
   68.7811   46.9031   51.5820 C   0  0  0  0  0  0  0  0  0  0  0  0
   67.8146   45.9330   51.8459 C   0  0  0  0  0  0  0  0  0  0  0  0
   67.4198   45.7549   53.1431 C   0  0  0  0  0  0  0  0  0  0  0  0
   67.9252   46.4824   54.1976 C   0  0  0  0  0  0  0  0  0  0  0  0
   68.9037   47.4696   53.9547 C   0  0  0  0  0  0  0  0  0  0  0  0
 20 21  3  0
 21 19  1  0
 19  8  1  0
  8  9  2  0
  8 10  1  0
 10 11  1  0
 10 18  1  0
 11 12  1  0
 12 13  1  0
 13 14  1  0
 14 15  1  0
 14 17  1  0
 15 16  2  0
 15  1  1  0
  1  2  2  0
  1  6  1  0
  2  3  1  0
  3 22  1  0
  3  4  2  0
 22 23  1  0
 23 24  2  0
 23 33  1  0
 24 25  1  0
 25 26  1  0
 26 27  2  0
 26 28  1  0
 28 29  1  0
 28 33  2  0
 29 30  2  0
 30 31  1  0
 31 32  2  0
 32 33  1  0
  4  5  1  0
  5  6  2  0
  6  7  1  0
 17 18  1  0
M  END
>  <minimizedAffinity>  (63) 
-9.86400

$$$$
cs_full_output_folder/data/smiles/2471.pdb
     RDKit          3D

 33 37  0  0  0  0  0  0  0  0999 V2000
   71.4694   47.1183   58.8507 C   0  0  0  0  0  0  0  0  0  0  0  0
   70.6286   47.9828   58.1390 C   0  0  0  0  0  0  0  0  0  0  0  0
   69.7505   47.4835   57.2381 C   0  0  0  0  0  0  0  0  0  0  0  0
   69.7306   46.0903   57.0647 C   0  0  0  0  0  0  0  0  0  0  0  0
   70.5489   45.2353   57.7567 C   0  0  0  0  0  0  0  0  0  0  0  0
   71.4352   45.7621   58.6673 C   0  0  0  0  0  0  0  0  0  0  0  0
   72.2850   44.9904   59.4006 F   0  0  0  0  0  0  0  0  0  0  0  0
   72.1194   47.6654   61.0298 O   0  0  0  0  0  0  0  0  0  0  0  0
   72.3943   47.6852   59.8038 C   0  0  0  0  0  0  0  0  0  0  0  0
   73.6266   48.2745   59.3768 N   0  0  0  0  0  0  0  0  0  0  0  0
   74.5089   48.8215   60.3504 C   0  0  0  0  0  0  0  0  0  0  0  0
   74.4985   50.2992   60.5031 C   0  0  0  0  0  0  0  0  0  0  0  0
   74.2985   51.0844   59.2547 C   0  0  0  0  0  0  0  0  0  0  0  0
   73.3332   50.5519   58.3476 N   0  0  2  0  0  0  0  0  0  0  0  0
   74.0238   49.6596   57.4358 C   0  0  0  0  0  0  0  0  0  0  0  0
   73.8304   48.2350   57.9297 C   0  0  0  0  0  0  0  0  0  0  0  0
   72.5692   51.5348   57.6408 C   0  0  0  0  0  0  0  0  0  0  0  0
   71.1839   51.3896   57.9815 N   0  0  0  0  0  0  0  0  0  0  0  0
   70.2773   51.8352   57.2143 C   0  0  0  0  0  0  0  0  0  0  0  0
   69.8955   52.5429   55.9413 C   0  0  0  0  0  0  0  0  0  0  0  0
   68.8357   52.0336   56.9316 C   0  0  0  0  0  0  0  0  0  0  0  0
   68.8012   48.2240   56.3867 C   0  0  0  0  0  0  0  0  0  0  0  0
   69.2902   48.2678   55.0172 C   0  0  0  0  0  0  0  0  0  0  0  0
   70.2661   49.1810   54.7218 N   0  0  0  0  0  0  0  0  0  0  0  0
   70.7454   49.3277   53.4988 N   0  0  0  0  0  0  0  0  0  0  0  0
   70.3263   48.6103   52.4592 C   0  0  0  0  0  0  0  0  0  0  0  0
   70.7599   48.7273   51.2922 O   0  0  0  0  0  0  0  0  0  0  0  0
   69.3390   47.6618   52.6740 C   0  0  0  0  0  0  0  0  0  0  0  0
   68.8689   46.8782   51.6423 C   0  0  0  0  0  0  0  0  0  0  0  0
   67.8949   45.9365   51.8955 C   0  0  0  0  0  0  0  0  0  0  0  0
   67.3972   45.7821   53.1696 C   0  0  0  0  0  0  0  0  0  0  0  0
   67.8781   46.5782   54.2041 C   0  0  0  0  0  0  0  0  0  0  0  0
   68.8375   47.5107   53.9669 C   0  0  0  0  0  0  0  0  0  0  0  0
  8  9  2  0
  9  1  1  0
  9 10  1  0
  1  2  2  0
  1  6  1  0
  2  3  1  0
  3 22  1  0
  3  4  2  0
 22 23  1  0
 23 24  2  0
 23 33  1  0
 24 25  1  0
 25 26  1  0
 26 27  2  0
 26 28  1  0
 28 29  1  0
 28 33  2  0
 29 30  2  0
 30 31  1  0
 31 32  2  0
 32 33  1  0
  4  5  1  0
  5  6  2  0
  6  7  1  0
 10 11  1  0
 10 16  1  0
 11 12  1  0
 12 13  1  0
 13 14  1  0
 14 17  1  6
 14 15  1  0
 17 18  1  0
 18 19  2  0
 19 20  1  0
 19 21  1  0
 20 21  1  0
 15 16  1  0
M  CHG  1  14   1
M  END
>  <minimizedAffinity>  (64) 
-9.86174

$$$$
cs_full_output_folder/data/smiles/8584.pdb
     RDKit          3D

 32 35  0  0  0  0  0  0  0  0999 V2000
   71.5733   47.0205   58.7988 C   0  0  0  0  0  0  0  0  0  0  0  0
   70.7801   47.9022   58.0613 C   0  0  0  0  0  0  0  0  0  0  0  0
   69.8504   47.4427   57.1912 C   0  0  0  0  0  0  0  0  0  0  0  0
   69.7226   46.0560   57.0622 C   0  0  0  0  0  0  0  0  0  0  0  0
   70.4998   45.1841   57.7829 C   0  0  0  0  0  0  0  0  0  0  0  0
   71.4378   45.6596   58.6633 C   0  0  0  0  0  0  0  0  0  0  0  0
   72.2196   44.8095   59.3846 F   0  0  0  0  0  0  0  0  0  0  0  0
   75.8732   48.0891   58.7542 C   0  0  0  0  0  0  0  0  0  0  0  0
   74.7504   47.2602   58.2150 C   0  0  0  0  0  0  0  0  0  0  0  0
   73.9085   47.5909   59.3454 N   0  0  0  0  0  0  0  0  0  0  0  0
   72.5545   47.5438   59.7345 C   0  0  0  0  0  0  0  0  0  0  0  0
   72.1491   47.9346   60.8577 O   0  0  0  0  0  0  0  0  0  0  0  0
   75.1090   48.0517   60.0317 C   0  0  0  0  0  0  0  0  0  0  0  0
   76.3397   49.2005   58.1388 N   0  0  0  0  0  0  0  0  0  0  0  0
   76.7868   49.8657   55.7719 C   0  0  0  0  0  0  0  0  0  0  0  0
   77.2315   49.4335   57.1450 C   0  0  1  0  0  0  0  0  0  0  0  0
   78.5432   50.1225   57.4500 C   0  0  0  0  0  0  0  0  0  0  0  0
   79.7062   49.1107   57.3798 C   0  0  0  0  0  0  0  0  0  0  0  0
   78.8892   51.1757   56.4352 C   0  0  0  0  0  0  0  0  0  0  0  0
   78.5866   50.7206   58.8170 C   0  0  0  0  0  0  0  0  0  0  0  0
   68.9303   48.2479   56.3510 C   0  0  0  0  0  0  0  0  0  0  0  0
   69.3534   48.3556   54.9375 C   0  0  0  0  0  0  0  0  0  0  0  0
   70.3141   49.2591   54.5796 N   0  0  0  0  0  0  0  0  0  0  0  0
   70.7724   49.3728   53.3569 N   0  0  0  0  0  0  0  0  0  0  0  0
   70.3002   48.5850   52.3835 C   0  0  0  0  0  0  0  0  0  0  0  0
   70.7268   48.6778   51.2006 O   0  0  0  0  0  0  0  0  0  0  0  0
   69.3178   47.6343   52.6515 C   0  0  0  0  0  0  0  0  0  0  0  0
   68.8355   46.8374   51.6166 C   0  0  0  0  0  0  0  0  0  0  0  0
   67.8545   45.9150   51.8892 C   0  0  0  0  0  0  0  0  0  0  0  0
   67.3934   45.8229   53.1844 C   0  0  0  0  0  0  0  0  0  0  0  0
   67.8700   46.6085   54.2079 C   0  0  0  0  0  0  0  0  0  0  0  0
   68.8591   47.5422   53.9485 C   0  0  0  0  0  0  0  0  0  0  0  0
 16 15  1  6
 16 14  1  0
 16 17  1  0
 14  8  1  0
  8  9  1  0
  8 13  1  0
  9 10  1  0
 10 11  1  0
 10 13  1  0
 11 12  2  0
 11  1  1  0
  1  2  2  0
  1  6  1  0
  2  3  1  0
  3 21  1  0
  3  4  2  0
 21 22  1  0
 22 23  2  0
 22 32  1  0
 23 24  1  0
 24 25  1  0
 25 26  2  0
 25 27  1  0
 27 28  1  0
 27 32  2  0
 28 29  2  0
 29 30  1  0
 30 31  2  0
 31 32  1  0
  4  5  1  0
  5  6  2  0
  6  7  1  0
 17 18  1  0
 17 19  1  0
 17 20  1  0
M  CHG  1  14   1
M  END
>  <minimizedAffinity>  (65) 
-9.85517

$$$$
cs_full_output_folder/data/smiles/1785.pdb
     RDKit          3D

 32 35  0  0  0  0  0  0  0  0999 V2000
   71.9413   46.3183   58.9331 C   0  0  0  0  0  0  0  0  0  0  0  0
   71.8692   47.6788   58.7458 C   0  0  0  0  0  0  0  0  0  0  0  0
   70.9488   48.2396   57.8611 C   0  0  0  0  0  0  0  0  0  0  0  0
   70.0808   47.4489   57.1437 C   0  0  0  0  0  0  0  0  0  0  0  0
   70.1499   46.0853   57.3283 C   0  0  0  0  0  0  0  0  0  0  0  0
   71.0757   45.5248   58.2184 C   0  0  0  0  0  0  0  0  0  0  0  0
   73.4846   44.4379   61.8612 N   0  0  0  0  0  0  0  0  0  0  0  0
   72.5389   44.9812   60.9628 C   0  0  0  0  0  0  0  0  0  0  0  0
   71.3154   44.7525   61.1698 O   0  0  0  0  0  0  0  0  0  0  0  0
   72.8835   45.7711   59.8370 N   0  0  0  0  0  0  0  0  0  0  0  0
   75.1583   44.5905   64.0812 C   0  0  0  0  0  0  0  0  0  0  0  0
   73.9764   43.7094   64.0955 C   0  0  0  0  0  0  0  0  0  0  0  0
   73.7034   42.9478   65.2376 C   0  0  0  0  0  0  0  0  0  0  0  0
   72.6005   42.1181   65.2665 C   0  0  0  0  0  0  0  0  0  0  0  0
   71.7834   42.0538   64.1600 C   0  0  0  0  0  0  0  0  0  0  0  0
   72.0742   42.8237   63.0287 C   0  0  0  0  0  0  0  0  0  0  0  0
   73.1630   43.6490   62.9880 C   0  0  0  0  0  0  0  0  0  0  0  0
   70.6257   41.1748   64.2061 C   0  0  0  0  0  0  0  0  0  0  0  0
   69.3234   41.7754   64.0589 N   0  0  0  0  0  0  0  0  0  0  0  0
   70.6940   39.9498   64.3629 O   0  0  0  0  0  0  0  0  0  0  0  0
   69.1528   48.0159   56.2504 O   0  0  0  0  0  0  0  0  0  0  0  0
   69.4775   48.2803   54.9391 C   0  0  0  0  0  0  0  0  0  0  0  0
   70.2918   49.2623   54.5303 N   0  0  0  0  0  0  0  0  0  0  0  0
   70.5928   49.5026   53.2786 N   0  0  0  0  0  0  0  0  0  0  0  0
   70.0702   48.7350   52.3065 C   0  0  0  0  0  0  0  0  0  0  0  0
   70.3383   48.9359   51.0770 O   0  0  0  0  0  0  0  0  0  0  0  0
   69.2203   47.7000   52.6594 C   0  0  0  0  0  0  0  0  0  0  0  0
   68.6678   46.8938   51.6773 C   0  0  0  0  0  0  0  0  0  0  0  0
   67.8169   45.8524   51.9765 C   0  0  0  0  0  0  0  0  0  0  0  0
   67.5360   45.6486   53.3297 C   0  0  0  0  0  0  0  0  0  0  0  0
   68.0753   46.4378   54.3040 C   0  0  0  0  0  0  0  0  0  0  0  0
   68.9137   47.4599   53.9687 C   0  0  0  0  0  0  0  0  0  0  0  0
 11 12  1  0
 12 13  2  0
 12 17  1  0
 13 14  1  0
 14 15  2  0
 15 18  1  0
 15 16  1  0
 18 19  1  0
 18 20  2  0
 16 17  2  0
 17  7  1  0
  7  8  1  0
  8  9  2  0
  8 10  1  0
 10  1  1  0
  1  2  2  0
  1  6  1  0
  2  3  1  0
  3  4  2  0
  4 21  1  0
  4  5  1  0
 21 22  1  0
 22 23  2  0
 22 32  1  0
 23 24  1  0
 24 25  1  0
 25 26  2  0
 25 27  1  0
 27 28  1  0
 27 32  2  0
 28 29  2  0
 29 30  1  0
 30 31  2  0
 31 32  1  0
  5  6  2  0
M  END
>  <minimizedAffinity>  (66) 
-9.85411

$$$$
cs_full_output_folder/data/smiles/7267.pdb
     RDKit          3D

 33 36  0  0  0  0  0  0  0  0999 V2000
   71.5038   47.0463   58.8799 C   0  0  0  0  0  0  0  0  0  0  0  0
   70.6714   47.9006   58.1477 C   0  0  0  0  0  0  0  0  0  0  0  0
   69.7939   47.4141   57.2186 C   0  0  0  0  0  0  0  0  0  0  0  0
   69.7049   46.0353   56.9749 C   0  0  0  0  0  0  0  0  0  0  0  0
   70.5171   45.1873   57.6867 C   0  0  0  0  0  0  0  0  0  0  0  0
   71.3937   45.6985   58.6168 C   0  0  0  0  0  0  0  0  0  0  0  0
   72.1999   44.8701   59.3261 F   0  0  0  0  0  0  0  0  0  0  0  0
   76.3494   49.7396   57.6909 C   0  0  0  0  0  0  0  0  0  0  0  0
   76.5435   50.8582   58.3444 O   0  0  0  0  0  0  0  0  0  0  0  0
   75.9979   48.6660   58.5032 N   0  0  0  0  0  0  0  0  0  0  0  0
   75.7549   47.3334   58.0662 C   0  0  0  0  0  0  0  0  0  0  0  0
   74.2981   46.9336   58.2730 C   0  0  0  0  0  0  0  0  0  0  0  0
   73.8299   47.4642   59.5612 N   0  0  0  0  0  0  0  0  0  0  0  0
   72.4472   47.5287   59.8783 C   0  0  0  0  0  0  0  0  0  0  0  0
   72.0921   47.9880   60.9846 O   0  0  0  0  0  0  0  0  0  0  0  0
   74.8184   47.9214   60.5129 C   0  0  0  0  0  0  0  0  0  0  0  0
   75.8308   48.8708   59.9618 C   0  0  0  0  0  0  0  0  0  0  0  0
   76.5230   49.7800   56.2419 C   0  0  0  0  0  0  0  0  0  0  0  0
   73.1201   49.8253   56.4314 N   0  0  0  0  0  0  0  0  0  0  0  0
   74.2261   49.6539   55.9084 N   0  0  0  0  0  0  0  0  0  0  0  0
   75.3562   49.7829   55.4389 N   0  0  0  0  0  0  0  0  0  0  0  0
   68.8892   48.2580   56.3990 C   0  0  0  0  0  0  0  0  0  0  0  0
   69.3704   48.2906   55.0235 C   0  0  0  0  0  0  0  0  0  0  0  0
   70.3504   49.1902   54.6768 N   0  0  0  0  0  0  0  0  0  0  0  0
   70.7961   49.3087   53.4402 N   0  0  0  0  0  0  0  0  0  0  0  0
   70.3379   48.5728   52.4303 C   0  0  0  0  0  0  0  0  0  0  0  0
   70.8023   48.7293   51.2640 O   0  0  0  0  0  0  0  0  0  0  0  0
   69.3517   47.6436   52.6985 C   0  0  0  0  0  0  0  0  0  0  0  0
   68.8615   46.8528   51.6837 C   0  0  0  0  0  0  0  0  0  0  0  0
   67.8891   45.9221   51.9730 C   0  0  0  0  0  0  0  0  0  0  0  0
   67.3892   45.7516   53.2428 C   0  0  0  0  0  0  0  0  0  0  0  0
   67.9106   46.5713   54.2420 C   0  0  0  0  0  0  0  0  0  0  0  0
   68.8802   47.5171   54.0005 C   0  0  0  0  0  0  0  0  0  0  0  0
 19 20  2  0
 20 21  2  0
 21 18  1  0
 18  8  1  0
  8  9  2  0
  8 10  1  0
 10 11  1  0
 10 17  1  0
 11 12  1  0
 12 13  1  0
 13 14  1  0
 13 16  1  0
 14 15  2  0
 14  1  1  0
  1  2  2  0
  1  6  1  0
  2  3  1  0
  3 22  1  0
  3  4  2  0
 22 23  1  0
 23 24  2  0
 23 33  1  0
 24 25  1  0
 25 26  1  0
 26 27  2  0
 26 28  1  0
 28 29  1  0
 28 33  2  0
 29 30  2  0
 30 31  1  0
 31 32  2  0
 32 33  1  0
  4  5  1  0
  5  6  2  0
  6  7  1  0
 16 17  1  0
M  CHG  2  19  -1  20   1
M  END
>  <minimizedAffinity>  (67) 
-9.84357

$$$$
cs_full_output_folder/data/smiles/3465.pdb
     RDKit          3D

 32 35  0  0  0  0  0  0  0  0999 V2000
   68.7322   40.4304   57.7228 C   0  0  0  0  0  0  0  0  0  0  0  0
   69.5464   41.5316   57.9499 C   0  0  0  0  0  0  0  0  0  0  0  0
   69.3878   42.7232   57.2798 C   0  0  0  0  0  0  0  0  0  0  0  0
   68.4129   42.8811   56.3475 C   0  0  0  0  0  0  0  0  0  0  0  0
   67.5881   41.7968   56.0991 C   0  0  0  0  0  0  0  0  0  0  0  0
   67.7485   40.5977   56.7760 C   0  0  0  0  0  0  0  0  0  0  0  0
   67.9003   38.5102   58.7649 O   0  0  0  0  0  0  0  0  0  0  0  0
   68.8949   39.1753   58.4494 C   0  0  0  0  0  0  0  0  0  0  0  0
   70.1978   38.7254   58.7839 N   0  0  0  0  0  0  0  0  0  0  0  0
   70.4593   37.5026   59.5006 C   0  0  0  0  0  0  0  0  0  0  0  0
   71.3560   36.5624   58.7466 C   0  0  0  0  0  0  0  0  0  0  0  0
   72.1137   37.0508   57.6854 C   0  0  0  0  0  0  0  0  0  0  0  0
   72.9078   36.2037   56.9583 C   0  0  0  0  0  0  0  0  0  0  0  0
   72.9836   34.8606   57.2498 C   0  0  0  0  0  0  0  0  0  0  0  0
   72.2296   34.3997   58.3001 C   0  0  0  0  0  0  0  0  0  0  0  0
   71.4208   35.2302   59.0481 C   0  0  0  0  0  0  0  0  0  0  0  0
   70.6832   34.7340   60.0875 F   0  0  0  0  0  0  0  0  0  0  0  0
   68.1553   44.1657   55.6627 C   0  0  0  0  0  0  0  0  0  0  0  0
   67.4086   44.1961   54.6552 O   0  0  0  0  0  0  0  0  0  0  0  0
   68.7202   45.3793   56.1101 N   0  0  0  0  0  0  0  0  0  0  0  0
   68.5278   46.6363   55.5333 N   0  0  0  0  0  0  0  0  0  0  0  0
   69.1902   47.8022   55.9766 C   0  0  0  0  0  0  0  0  0  0  0  0
   69.9773   47.6385   56.9672 O   0  0  0  0  0  0  0  0  0  0  0  0
   69.0832   49.1452   55.4455 C   0  0  0  0  0  0  0  0  0  0  0  0
   68.6422   50.2559   56.1079 C   0  0  0  0  0  0  0  0  0  0  0  0
   68.6107   51.5003   55.5224 C   0  0  0  0  0  0  0  0  0  0  0  0
   69.0251   51.7103   54.2184 C   0  0  0  0  0  0  0  0  0  0  0  0
   69.4739   50.6116   53.5197 C   0  0  0  0  0  0  0  0  0  0  0  0
   69.9299   50.4771   52.2560 N   0  0  0  0  0  0  0  0  0  0  0  0
   70.2310   49.1998   52.0604 N   0  0  0  0  0  0  0  0  0  0  0  0
   69.9812   48.4811   53.1836 C   0  0  0  0  0  0  0  0  0  0  0  0
   69.5004   49.3703   54.1168 C   0  0  0  0  0  0  0  0  0  0  0  0
  7  8  2  0
  8  9  1  0
  8  1  1  0
  9 10  1  0
 10 11  1  0
 11 12  2  0
 11 16  1  0
 12 13  1  0
 13 14  2  0
 14 15  1  0
 15 16  2  0
 16 17  1  0
  1  2  2  0
  1  6  1  0
  2  3  1  0
  3  4  2  0
  4 18  1  0
  4  5  1  0
 18 19  2  0
 18 20  1  0
 20 21  1  0
 21 22  1  0
 22 23  2  0
 22 24  1  0
 24 25  2  0
 24 32  1  0
 25 26  1  0
 26 27  2  0
 27 28  1  0
 28 29  1  0
 28 32  2  0
 29 30  1  0
 30 31  2  0
 31 32  1  0
  5  6  2  0
M  END
>  <minimizedAffinity>  (68) 
-9.84019

$$$$
cs_full_output_folder/data/smiles/4517.pdb
     RDKit          3D

 33 37  0  0  0  0  0  0  0  0999 V2000
   71.5105   46.9448   59.0623 C   0  0  0  0  0  0  0  0  0  0  0  0
   70.8385   47.7785   58.3004 C   0  0  0  0  0  0  0  0  0  0  0  0
   69.9777   47.2689   57.2029 C   0  0  0  0  0  0  0  0  0  0  0  0
   69.8614   45.9927   56.9601 C   0  0  0  0  0  0  0  0  0  0  0  0
   70.5914   45.1582   57.7912 C   0  0  0  0  0  0  0  0  0  0  0  0
   71.3539   45.3910   58.7287 C   0  0  0  0  0  0  0  0  0  0  0  0
   72.0981   44.6677   59.5576 F   0  0  0  0  0  0  0  0  0  0  0  0
   77.4653   50.7534   58.8623 O   0  0  0  0  0  0  0  0  0  0  0  0
   76.5113   49.7950   57.8435 C   0  0  0  0  0  0  0  0  0  0  0  0
   75.8446   49.3223   58.8252 N   0  0  0  0  0  0  0  0  0  0  0  0
   75.3238   48.9796   59.7123 C   0  0  0  0  0  0  0  0  0  0  0  0
   74.8469   48.6506   60.5167 C   0  0  0  0  0  0  0  0  0  0  0  0
   74.1447   48.1537   61.7398 C   0  0  0  0  0  0  0  0  0  0  0  0
   73.6727   47.2634   60.1129 N   0  0  0  0  0  0  0  0  0  0  0  0
   72.3018   47.1109   60.2460 C   0  0  0  0  0  0  0  0  0  0  0  0
   71.8548   47.1062   61.3703 O   0  0  0  0  0  0  0  0  0  0  0  0
   74.7289   46.9595   59.3255 C   0  0  0  0  0  0  0  0  0  0  0  0
   75.3675   47.6544   58.1165 C   0  0  0  0  0  0  0  0  0  0  0  0
   77.1221   50.1984   56.6845 C   0  0  0  0  0  0  0  0  0  0  0  0
   76.5166   49.7731   55.3431 C   0  0  0  0  0  0  0  0  0  0  0  0
   77.8743   49.2376   55.7767 C   0  0  0  0  0  0  0  0  0  0  0  0
   69.2159   48.2881   56.4661 C   0  0  0  0  0  0  0  0  0  0  0  0
   69.5162   48.3447   55.0661 C   0  0  0  0  0  0  0  0  0  0  0  0
   70.4373   49.2394   54.6391 N   0  0  0  0  0  0  0  0  0  0  0  0
   70.9040   49.4249   53.2986 N   0  0  0  0  0  0  0  0  0  0  0  0
   70.3438   48.5989   52.3938 C   0  0  0  0  0  0  0  0  0  0  0  0
   70.6592   48.6619   51.2057 O   0  0  0  0  0  0  0  0  0  0  0  0
   69.3970   47.6580   52.7114 C   0  0  0  0  0  0  0  0  0  0  0  0
   68.8581   46.9145   51.6203 C   0  0  0  0  0  0  0  0  0  0  0  0
   67.7906   45.9947   52.2244 C   0  0  0  0  0  0  0  0  0  0  0  0
   67.4620   45.9189   53.3606 C   0  0  0  0  0  0  0  0  0  0  0  0
   68.0690   46.7181   54.3441 C   0  0  0  0  0  0  0  0  0  0  0  0
   68.9962   47.5552   54.0654 C   0  0  0  0  0  0  0  0  0  0  0  0
  8  9  2  0
  9 19  1  0
  9 10  1  0
 19 20  1  0
 19 21  1  0
 20 21  1  0
 10 11  1  0
 10 18  1  0
 11 12  3  0
 12 13  1  0
 13 14  1  0
 14 15  1  0
 14 17  1  0
 15 16  2  0
 15  1  1  0
  1  2  2  0
  1  6  1  0
  2  3  1  0
  3 22  1  0
  3  4  2  0
 22 23  1  0
 23 24  2  0
 23 33  1  0
 24 25  1  0
 25 26  1  0
 26 27  2  0
 26 28  1  0
 28 29  1  0
 28 33  2  0
 29 30  2  0
 30 31  1  0
 31 32  2  0
 32 33  1  0
  4  5  1  0
  5  6  2  0
  6  7  1  0
 17 18  1  0
M  END
>  <minimizedAffinity>  (69) 
-9.83743

$$$$
cs_full_output_folder/data/smiles/6766.pdb
     RDKit          3D

 31 34  0  0  0  0  0  0  0  0999 V2000
   68.4672   50.7733   56.7482 C   0  0  0  0  0  0  0  0  0  0  0  0
   69.1016   49.5789   56.4742 C   0  0  0  0  0  0  0  0  0  0  0  0
   68.5826   48.3763   56.8907 C   0  0  0  0  0  0  0  0  0  0  0  0
   67.4237   48.3763   57.5825 C   0  0  0  0  0  0  0  0  0  0  0  0
   66.7445   49.5778   57.8830 C   0  0  0  0  0  0  0  0  0  0  0  0
   67.2974   50.7582   57.4493 C   0  0  0  0  0  0  0  0  0  0  0  0
   66.6718   51.9418   57.7212 F   0  0  0  0  0  0  0  0  0  0  0  0
   72.9678   52.1013   56.4758 C   0  0  2  0  0  0  0  0  0  0  0  0
   72.4033   51.6148   57.7637 C   0  0  0  0  0  0  0  0  0  0  0  0
   70.9129   51.6211   57.8713 C   0  0  0  0  0  0  0  0  0  0  0  0
   70.2820   52.4442   56.8654 N   0  0  0  0  0  0  0  0  0  0  0  0
   69.0690   52.0495   56.2804 C   0  0  0  0  0  0  0  0  0  0  0  0
   68.4678   52.6893   55.4061 O   0  0  0  0  0  0  0  0  0  0  0  0
   70.9941   53.6775   56.5281 C   0  0  0  0  0  0  0  0  0  0  0  0
   72.2564   53.2373   55.8268 C   0  0  1  0  0  0  0  0  0  0  0  0
   73.2057   54.4020   55.5730 C   0  0  0  0  0  0  0  0  0  0  0  0
   73.1415   51.0059   55.4470 C   0  0  0  0  0  0  0  0  0  0  0  0
   75.3202   50.2198   55.5761 C   0  0  0  0  0  0  0  0  0  0  0  0
   73.9243   49.8889   55.9112 N   0  0  0  0  0  0  0  0  0  0  0  0
   69.3150   47.1557   56.5364 C   0  0  0  0  0  0  0  0  0  0  0  0
   68.7823   46.5649   55.2836 C   0  0  0  0  0  0  0  0  0  0  0  0
   67.9647   45.4631   55.3664 N   0  0  0  0  0  0  0  0  0  0  0  0
   67.4035   44.9008   54.3240 N   0  0  0  0  0  0  0  0  0  0  0  0
   67.5826   45.3593   53.0784 C   0  0  0  0  0  0  0  0  0  0  0  0
   67.0341   44.8088   52.0728 O   0  0  0  0  0  0  0  0  0  0  0  0
   68.3918   46.4628   52.9088 C   0  0  0  0  0  0  0  0  0  0  0  0
   68.6014   46.9412   51.6202 C   0  0  0  0  0  0  0  0  0  0  0  0
   69.4276   48.0311   51.4895 C   0  0  0  0  0  0  0  0  0  0  0  0
   70.0224   48.6288   52.5621 C   0  0  0  0  0  0  0  0  0  0  0  0
   69.7999   48.1337   53.8467 C   0  0  0  0  0  0  0  0  0  0  0  0
   68.9805   47.0489   54.0197 C   0  0  0  0  0  0  0  0  0  0  0  0
 18 19  1  0
 19 17  1  0
  8 17  1  6
  8  9  1  0
  8 15  1  0
  9 10  1  0
 10 11  1  0
 11 12  1  0
 11 14  1  0
 12 13  2  0
 12  1  1  0
  1  2  2  0
  1  6  1  0
  2  3  1  0
  3 20  1  0
  3  4  2  0
 20 21  1  0
 21 22  2  0
 21 31  1  0
 22 23  1  0
 23 24  1  0
 24 25  2  0
 24 26  1  0
 26 27  1  0
 26 31  2  0
 27 28  2  0
 28 29  1  0
 29 30  2  0
 30 31  1  0
  4  5  1  0
  5  6  2  0
  6  7  1  0
 14 15  1  0
 15 16  1  1
M  CHG  1  19   1
M  END
>  <minimizedAffinity>  (70) 
-9.82367

$$$$
cs_full_output_folder/data/smiles/2474.pdb
     RDKit          3D

 33 37  0  0  0  0  0  0  0  0999 V2000
   70.9446   46.1896   58.2575 C   0  0  0  0  0  0  0  0  0  0  0  0
   71.9999   46.8464   58.8423 C   0  0  0  0  0  0  0  0  0  0  0  0
   72.2325   48.2086   58.6210 C   0  0  0  0  0  0  0  0  0  0  0  0
   71.3734   48.9096   57.7886 C   0  0  0  0  0  0  0  0  0  0  0  0
   70.3251   48.2897   57.1981 C   0  0  0  0  0  0  0  0  0  0  0  0
   70.1161   46.9193   57.4400 C   0  0  0  0  0  0  0  0  0  0  0  0
   69.9693   44.4130   59.4463 O   0  0  0  0  0  0  0  0  0  0  0  0
   70.7542   44.7749   58.5299 C   0  0  0  0  0  0  0  0  0  0  0  0
   71.3998   43.7335   57.8251 N   0  0  0  0  0  0  0  0  0  0  0  0
   71.2178   42.3472   58.0851 C   0  0  0  0  0  0  0  0  0  0  0  0
   72.2575   41.5716   58.5586 C   0  0  0  0  0  0  0  0  0  0  0  0
   72.0773   40.2186   58.8084 C   0  0  0  0  0  0  0  0  0  0  0  0
   70.8725   39.5793   58.6032 C   0  0  0  0  0  0  0  0  0  0  0  0
   69.8316   40.3518   58.1301 C   0  0  0  0  0  0  0  0  0  0  0  0
   70.0150   41.7088   57.8799 C   0  0  0  0  0  0  0  0  0  0  0  0
   70.7383   38.1849   58.8873 N   0  0  0  0  0  0  0  0  0  0  0  0
   71.6593   37.2565   58.2622 C   0  0  0  0  0  0  0  0  0  0  0  0
   71.7197   35.9190   58.9803 C   0  0  0  0  0  0  0  0  0  0  0  0
   71.5281   36.2154   60.3466 O   0  0  0  0  0  0  0  0  0  0  0  0
   70.1369   36.3882   60.4670 C   0  0  0  0  0  0  0  0  0  0  0  0
   69.7131   37.6657   59.7745 C   0  0  0  0  0  0  0  0  0  0  0  0
   69.3457   48.9626   56.3116 C   0  0  0  0  0  0  0  0  0  0  0  0
   69.6138   48.7751   54.8768 C   0  0  0  0  0  0  0  0  0  0  0  0
   70.6466   49.4768   54.3072 N   0  0  0  0  0  0  0  0  0  0  0  0
   70.9743   49.3306   53.0471 N   0  0  0  0  0  0  0  0  0  0  0  0
   70.3247   48.4842   52.2193 C   0  0  0  0  0  0  0  0  0  0  0  0
   70.7007   48.3948   51.0043 O   0  0  0  0  0  0  0  0  0  0  0  0
   69.2844   47.7527   52.7140 C   0  0  0  0  0  0  0  0  0  0  0  0
   68.9548   47.9300   54.0671 C   0  0  0  0  0  0  0  0  0  0  0  0
   67.8014   47.1466   54.5192 C   0  0  0  0  0  0  0  0  0  0  0  0
   67.8662   45.7261   54.0032 C   0  0  0  0  0  0  0  0  0  0  0  0
   68.0524   45.6069   52.5306 C   0  0  0  0  0  0  0  0  0  0  0  0
   68.5626   46.8177   51.8295 C   0  0  0  0  0  0  0  0  0  0  0  0
  7  8  2  0
  8  9  1  0
  8  1  1  0
  9 10  1  0
 10 11  2  0
 10 15  1  0
 11 12  1  0
 12 13  2  0
 13 16  1  0
 13 14  1  0
 16 17  1  0
 16 21  1  0
 17 18  1  0
 18 19  1  0
 19 20  1  0
 20 21  1  0
 14 15  2  0
  1  2  2  0
  1  6  1  0
  2  3  1  0
  3  4  2  0
  4  5  1  0
  5 22  1  0
  5  6  2  0
 22 23  1  0
 23 24  2  0
 23 29  1  0
 24 25  1  0
 25 26  1  0
 26 27  2  0
 26 28  1  0
 28 29  2  0
 28 33  1  0
 29 30  1  0
 30 31  1  0
 31 32  1  0
 32 33  1  0
M  END
>  <minimizedAffinity>  (71) 
-9.82233

$$$$
cs_full_output_folder/data/smiles/4784.pdb
     RDKit          3D

 28 30  0  0  0  0  0  0  0  0999 V2000
   68.4001   45.9932   54.1483 C   0  0  0  0  0  0  0  0  0  0  0  0
   67.9315   45.5494   52.9277 C   0  0  0  0  0  0  0  0  0  0  0  0
   68.1036   46.3522   51.7966 C   0  0  0  0  0  0  0  0  0  0  0  0
   68.7294   47.5747   51.8776 C   0  0  0  0  0  0  0  0  0  0  0  0
   69.2087   48.0453   53.0946 C   0  0  0  0  0  0  0  0  0  0  0  0
   69.0254   47.2330   54.1864 C   0  0  0  0  0  0  0  0  0  0  0  0
   67.8271   43.9082   55.3431 N   0  0  0  0  0  0  0  0  0  0  0  0
   68.2725   45.2424   55.3727 C   0  0  0  0  0  0  0  0  0  0  0  0
   68.5562   45.7709   56.4642 O   0  0  0  0  0  0  0  0  0  0  0  0
   67.4909   41.1930   55.4364 O   0  0  0  0  0  0  0  0  0  0  0  0
   67.5289   41.7671   56.5612 C   0  0  0  0  0  0  0  0  0  0  0  0
   67.7010   43.1650   56.5514 N   0  0  0  0  0  0  0  0  0  0  0  0
   67.3927   40.9443   57.7521 C   0  0  0  0  0  0  0  0  0  0  0  0
   66.6702   41.3579   58.8492 C   0  0  0  0  0  0  0  0  0  0  0  0
   66.5658   40.5316   59.9752 C   0  0  0  0  0  0  0  0  0  0  0  0
   67.1699   39.2935   60.0324 C   0  0  0  0  0  0  0  0  0  0  0  0
   67.0372   38.2593   61.4460 Cl  0  0  0  0  0  0  0  0  0  0  0  0
   67.8936   38.8843   58.9270 C   0  0  0  0  0  0  0  0  0  0  0  0
   67.9885   39.7091   57.8235 C   0  0  0  0  0  0  0  0  0  0  0  0
   70.0046   49.6028   53.1982 S   0  0  0  0  0  0  0  0  0  0  0  0
   71.4777   49.4477   53.4572 O   0  0  0  0  0  0  0  0  0  0  0  0
   69.7928   50.3172   51.8747 O   0  0  0  0  0  0  0  0  0  0  0  0
   69.3384   50.4937   54.4996 N   0  0  0  0  0  0  0  0  0  0  0  0
   69.2452   51.9129   54.2244 C   0  0  0  0  0  0  0  0  0  0  0  0
   69.2230   52.7183   55.5064 C   0  0  0  0  0  0  0  0  0  0  0  0
   68.5458   51.9211   56.6075 C   0  0  0  0  0  0  0  0  0  0  0  0
   69.2547   50.6352   56.8830 C   0  0  0  0  0  0  0  0  0  0  0  0
   70.1002   50.2441   55.6903 C   0  0  0  0  0  0  0  0  0  0  0  0
 10 11  2  0
 11 12  1  0
 11 13  1  0
 12  7  1  0
  7  8  1  0
  8  9  2  0
  8  1  1  0
  1  2  2  0
  1  6  1  0
  2  3  1  0
  3  4  2  0
  4  5  1  0
  5 20  1  0
  5  6  2  0
 20 21  2  0
 20 22  2  0
 20 23  1  0
 23 24  1  0
 23 28  1  0
 24 25  1  0
 25 26  1  0
 26 27  1  0
 27 28  1  0
 13 14  2  0
 13 19  1  0
 14 15  1  0
 15 16  2  0
 16 17  1  0
 16 18  1  0
 18 19  2  0
M  END
>  <minimizedAffinity>  (72) 
-9.82189

$$$$
cs_full_output_folder/data/smiles/8478.pdb
     RDKit          3D

 33 37  0  0  0  0  0  0  0  0999 V2000
   71.7044   47.2694   58.9140 C   0  0  0  0  0  0  0  0  0  0  0  0
   71.6312   45.9041   58.7916 C   0  0  0  0  0  0  0  0  0  0  0  0
   70.7193   45.3087   57.9198 C   0  0  0  0  0  0  0  0  0  0  0  0
   69.9004   46.1151   57.1932 C   0  0  0  0  0  0  0  0  0  0  0  0
   69.9235   47.5224   57.2702 C   0  0  0  0  0  0  0  0  0  0  0  0
   70.8342   48.0438   58.1355 C   0  0  0  0  0  0  0  0  0  0  0  0
   72.3425   47.9953   61.0748 O   0  0  0  0  0  0  0  0  0  0  0  0
   72.6217   47.8932   59.8196 C   0  0  0  0  0  0  0  0  0  0  0  0
   73.8529   48.4180   59.4015 N   0  0  0  0  0  0  0  0  0  0  0  0
   74.7021   49.0368   60.4439 C   0  0  0  0  0  0  0  0  0  0  0  0
   74.7740   50.4991   60.0919 C   0  0  0  0  0  0  0  0  0  0  0  0
   73.6411   50.8572   59.1350 C   0  0  0  0  0  0  0  0  0  0  0  0
   74.0394   50.8335   57.7649 N   0  0  1  0  0  0  0  0  0  0  0  0
   74.0745   49.5236   57.1821 C   0  0  0  0  0  0  0  0  0  0  0  0
   74.2804   48.3571   58.0461 C   0  0  0  0  0  0  0  0  0  0  0  0
   73.2030   51.6330   56.8855 C   0  0  0  0  0  0  0  0  0  0  0  0
   71.8041   51.7390   57.4396 C   0  0  0  0  0  0  0  0  0  0  0  0
   71.1180   52.8991   56.7468 C   0  0  0  0  0  0  0  0  0  0  0  0
   71.0328   52.5339   55.2792 C   0  0  0  0  0  0  0  0  0  0  0  0
   72.3982   52.3192   54.6809 C   0  0  0  0  0  0  0  0  0  0  0  0
   73.2199   51.2805   55.4584 C   0  0  0  0  0  0  0  0  0  0  0  0
   68.9709   48.2344   56.4207 C   0  0  0  0  0  0  0  0  0  0  0  0
   69.3625   48.3450   54.9963 C   0  0  0  0  0  0  0  0  0  0  0  0
   70.3163   49.2613   54.6380 N   0  0  0  0  0  0  0  0  0  0  0  0
   70.7443   49.3512   53.3859 N   0  0  0  0  0  0  0  0  0  0  0  0
   70.2967   48.5750   52.3927 C   0  0  0  0  0  0  0  0  0  0  0  0
   70.7397   48.6954   51.2038 O   0  0  0  0  0  0  0  0  0  0  0  0
   69.3336   47.6311   52.6812 C   0  0  0  0  0  0  0  0  0  0  0  0
   68.8422   46.8334   51.6709 C   0  0  0  0  0  0  0  0  0  0  0  0
   67.8716   45.9196   51.9848 C   0  0  0  0  0  0  0  0  0  0  0  0
   67.3975   45.7986   53.2753 C   0  0  0  0  0  0  0  0  0  0  0  0
   67.9082   46.6134   54.2741 C   0  0  0  0  0  0  0  0  0  0  0  0
   68.8804   47.5392   54.0070 C   0  0  0  0  0  0  0  0  0  0  0  0
  7  8  2  0
  8  1  1  0
  8  9  1  0
  1  2  2  0
  1  6  1  0
  2  3  1  0
  3  4  2  0
  4  5  1  0
  5 22  1  0
  5  6  2  0
 22 23  1  0
 23 24  2  0
 23 33  1  0
 24 25  1  0
 25 26  1  0
 26 27  2  0
 26 28  1  0
 28 29  1  0
 28 33  2  0
 29 30  2  0
 30 31  1  0
 31 32  2  0
 32 33  1  0
  9 10  1  0
  9 15  1  0
 10 11  1  0
 11 12  1  0
 12 13  1  0
 13 16  1  6
 13 14  1  0
 16 17  1  0
 16 21  1  0
 17 18  1  0
 18 19  1  0
 19 20  1  0
 20 21  1  0
 14 15  1  0
M  CHG  1  13   1
M  END
>  <minimizedAffinity>  (73) 
-9.81692

$$$$
cs_full_output_folder/data/smiles/1665.pdb
     RDKit          3D

 33 37  0  0  0  0  0  0  0  0999 V2000
   71.7414   45.9570   58.4729 C   0  0  0  0  0  0  0  0  0  0  0  0
   71.2294   44.6969   58.2739 C   0  0  0  0  0  0  0  0  0  0  0  0
   70.0889   44.5119   57.4906 C   0  0  0  0  0  0  0  0  0  0  0  0
   69.4809   45.6036   56.9211 C   0  0  0  0  0  0  0  0  0  0  0  0
   69.9673   46.9095   57.0965 C   0  0  0  0  0  0  0  0  0  0  0  0
   71.0833   47.0143   57.8714 C   0  0  0  0  0  0  0  0  0  0  0  0
   71.6456   47.1981   60.8292 O   0  0  0  0  0  0  0  0  0  0  0  0
   72.8390   46.8057   60.5348 C   0  0  0  0  0  0  0  0  0  0  0  0
   72.9071   46.1392   59.2750 N   0  0  0  0  0  0  0  0  0  0  0  0
   73.9112   47.0412   61.4066 N   0  0  0  0  0  0  0  0  0  0  0  0
   73.6803   47.7269   62.6586 C   0  0  0  0  0  0  0  0  0  0  0  0
   74.4359   46.9774   63.7674 C   0  0  0  0  0  0  0  0  0  0  0  0
   74.8294   45.6632   63.3016 N   0  0  0  0  0  0  0  0  0  0  0  0
   75.5250   45.4376   62.0567 C   0  0  0  0  0  0  0  0  0  0  0  0
   75.2435   46.6227   61.1112 C   0  0  0  0  0  0  0  0  0  0  0  0
   74.5213   44.4961   64.0988 C   0  0  0  0  0  0  0  0  0  0  0  0
   73.3782   43.7603   63.8965 C   0  0  0  0  0  0  0  0  0  0  0  0
   73.0977   42.6374   64.6887 C   0  0  0  0  0  0  0  0  0  0  0  0
   73.9784   42.2745   65.6759 C   0  0  0  0  0  0  0  0  0  0  0  0
   75.1025   43.0361   65.8408 C   0  0  0  0  0  0  0  0  0  0  0  0
   75.3559   44.1026   65.0782 N   0  0  0  0  0  0  0  0  0  0  0  0
   69.2510   48.0232   56.4193 C   0  0  0  0  0  0  0  0  0  0  0  0
   69.5597   48.1989   55.0089 C   0  0  0  0  0  0  0  0  0  0  0  0
   70.5114   49.0823   54.6168 N   0  0  0  0  0  0  0  0  0  0  0  0
   70.8800   49.2620   53.3698 N   0  0  0  0  0  0  0  0  0  0  0  0
   70.3165   48.5564   52.3777 C   0  0  0  0  0  0  0  0  0  0  0  0
   70.6876   48.7423   51.1618 O   0  0  0  0  0  0  0  0  0  0  0  0
   69.3381   47.6324   52.6686 C   0  0  0  0  0  0  0  0  0  0  0  0
   68.7529   46.9168   51.6488 C   0  0  0  0  0  0  0  0  0  0  0  0
   67.7718   46.0152   51.9807 C   0  0  0  0  0  0  0  0  0  0  0  0
   67.3777   45.8242   53.2892 C   0  0  0  0  0  0  0  0  0  0  0  0
   67.9730   46.5460   54.2941 C   0  0  0  0  0  0  0  0  0  0  0  0
   68.9731   47.4719   54.0143 C   0  0  0  0  0  0  0  0  0  0  0  0
  7  8  2  0
  8  9  1  0
  8 10  1  0
  9  1  1  0
  1  2  2  0
  1  6  1  0
  2  3  1  0
  3  4  2  0
  4  5  1  0
  5 22  1  0
  5  6  2  0
 22 23  1  0
 23 24  2  0
 23 33  1  0
 24 25  1  0
 25 26  1  0
 26 27  2  0
 26 28  1  0
 28 29  1  0
 28 33  2  0
 29 30  2  0
 30 31  1  0
 31 32  2  0
 32 33  1  0
 10 11  1  0
 10 15  1  0
 11 12  1  0
 12 13  1  0
 13 16  1  0
 13 14  1  0
 16 17  2  0
 16 21  1  0
 17 18  1  0
 18 19  2  0
 19 20  1  0
 20 21  2  0
 14 15  1  0
M  END
>  <minimizedAffinity>  (74) 
-9.81683

$$$$
cs_full_output_folder/data/smiles/3294.pdb
     RDKit          3D

 32 36  0  0  0  0  0  0  0  0999 V2000
   71.4294   46.7988   58.7834 C   0  0  0  0  0  0  0  0  0  0  0  0
   70.7186   47.7307   58.0798 C   0  0  0  0  0  0  0  0  0  0  0  0
   69.8061   47.3275   57.1517 C   0  0  0  0  0  0  0  0  0  0  0  0
   69.6272   45.9636   56.9485 C   0  0  0  0  0  0  0  0  0  0  0  0
   70.3189   44.9900   57.6325 C   0  0  0  0  0  0  0  0  0  0  0  0
   71.2415   45.4699   58.5718 C   0  0  0  0  0  0  0  0  0  0  0  0
   71.9280   44.4997   59.2484 F   0  0  0  0  0  0  0  0  0  0  0  0
   76.9827   49.5913   58.2964 N   0  0  0  0  0  0  0  0  0  0  0  0
   76.3269   48.6756   57.5645 C   0  0  0  0  0  0  0  0  0  0  0  0
   75.4922   47.9302   58.3501 C   0  0  0  0  0  0  0  0  0  0  0  0
   75.6746   48.4498   59.6361 C   0  0  0  0  0  0  0  0  0  0  0  0
   76.5630   49.4264   59.5495 N   0  0  0  0  0  0  0  0  0  0  0  0
   74.7646   47.6436   60.5249 C   0  0  0  0  0  0  0  0  0  0  0  0
   73.7725   47.2322   59.5970 N   0  0  0  0  0  0  0  0  0  0  0  0
   72.3961   47.2338   59.7672 C   0  0  0  0  0  0  0  0  0  0  0  0
   71.9222   47.6550   60.8864 O   0  0  0  0  0  0  0  0  0  0  0  0
   74.4835   46.8192   58.4249 C   0  0  0  0  0  0  0  0  0  0  0  0
   79.0798   50.7322   58.8797 C   0  0  0  0  0  0  0  0  0  0  0  0
   77.9528   50.5789   57.8816 C   0  0  0  0  0  0  0  0  0  0  0  0
   78.6183   50.1661   56.5653 C   0  0  0  0  0  0  0  0  0  0  0  0
   68.9762   48.2090   56.3250 C   0  0  0  0  0  0  0  0  0  0  0  0
   69.3709   48.3164   54.9090 C   0  0  0  0  0  0  0  0  0  0  0  0
   70.3256   49.2151   54.5418 N   0  0  0  0  0  0  0  0  0  0  0  0
   70.7477   49.3174   53.2988 N   0  0  0  0  0  0  0  0  0  0  0  0
   70.2830   48.5570   52.3003 C   0  0  0  0  0  0  0  0  0  0  0  0
   70.7161   48.6936   51.1432 O   0  0  0  0  0  0  0  0  0  0  0  0
   69.3159   47.6289   52.6091 C   0  0  0  0  0  0  0  0  0  0  0  0
   68.8092   46.8522   51.5914 C   0  0  0  0  0  0  0  0  0  0  0  0
   67.8224   45.9241   51.8420 C   0  0  0  0  0  0  0  0  0  0  0  0
   67.3780   45.8185   53.1432 C   0  0  0  0  0  0  0  0  0  0  0  0
   67.8625   46.5794   54.1840 C   0  0  0  0  0  0  0  0  0  0  0  0
   68.8584   47.5114   53.9258 C   0  0  0  0  0  0  0  0  0  0  0  0
 18 19  1  0
 19 20  1  0
 19  8  1  0
  8  9  1  0
  8 12  1  0
  9 10  2  0
 10 11  1  0
 10 17  1  0
 11 12  2  0
 11 13  1  0
 13 14  1  0
 14 15  1  0
 14 17  1  0
 15 16  2  0
 15  1  1  0
  1  2  2  0
  1  6  1  0
  2  3  1  0
  3 21  1  0
  3  4  2  0
 21 22  1  0
 22 23  2  0
 22 32  1  0
 23 24  1  0
 24 25  1  0
 25 26  2  0
 25 27  1  0
 27 28  1  0
 27 32  2  0
 28 29  2  0
 29 30  1  0
 30 31  2  0
 31 32  1  0
  4  5  1  0
  5  6  2  0
  6  7  1  0
M  END
>  <minimizedAffinity>  (75) 
-9.81284

$$$$
cs_full_output_folder/data/smiles/6303.pdb
     RDKit          3D

 31 34  0  0  0  0  0  0  0  0999 V2000
   71.3931   47.2176   58.8448 C   0  0  0  0  0  0  0  0  0  0  0  0
   70.5396   47.9326   58.0301 C   0  0  0  0  0  0  0  0  0  0  0  0
   69.6890   47.3040   57.1178 C   0  0  0  0  0  0  0  0  0  0  0  0
   69.7067   45.9443   57.0350 C   0  0  0  0  0  0  0  0  0  0  0  0
   70.5506   45.1898   57.8373 C   0  0  0  0  0  0  0  0  0  0  0  0
   71.3763   45.8395   58.7262 C   0  0  0  0  0  0  0  0  0  0  0  0
   72.2054   45.1357   59.5160 F   0  0  0  0  0  0  0  0  0  0  0  0
   75.8087   49.5298   58.6308 N   0  0  0  0  0  0  0  0  0  0  0  0
   75.1487   48.5491   57.8008 C   0  0  0  0  0  0  0  0  0  0  0  0
   73.6463   48.7956   57.9849 C   0  0  0  0  0  0  0  0  0  0  0  0
   73.3835   48.6478   59.3963 N   0  0  0  0  0  0  0  0  0  0  0  0
   72.2796   47.8739   59.7968 C   0  0  0  0  0  0  0  0  0  0  0  0
   72.0383   47.7355   61.0168 O   0  0  0  0  0  0  0  0  0  0  0  0
   74.2169   49.2692   60.3912 C   0  0  0  0  0  0  0  0  0  0  0  0
   75.6872   49.2674   60.0238 C   0  0  0  0  0  0  0  0  0  0  0  0
   77.5018   49.3368   56.3250 C   0  0  0  0  0  0  0  0  0  0  0  0
   77.4161   49.8450   58.0843 P   0  0  0  0  0  0  0  0  0  0  0  0
   78.5546   48.7398   58.9852 C   0  0  0  0  0  0  0  0  0  0  0  0
   77.8007   51.2770   58.2261 O   0  0  0  0  0  0  0  0  0  0  0  0
   68.8366   48.1557   56.2754 C   0  0  0  0  0  0  0  0  0  0  0  0
   69.2676   48.2433   54.8583 C   0  0  0  0  0  0  0  0  0  0  0  0
   70.1873   49.2006   54.5114 N   0  0  0  0  0  0  0  0  0  0  0  0
   70.5825   49.3656   53.2649 N   0  0  0  0  0  0  0  0  0  0  0  0
   70.1257   48.6221   52.2490 C   0  0  0  0  0  0  0  0  0  0  0  0
   70.5555   48.8444   51.0779 O   0  0  0  0  0  0  0  0  0  0  0  0
   69.1968   47.6324   52.5077 C   0  0  0  0  0  0  0  0  0  0  0  0
   68.7145   46.8424   51.4851 C   0  0  0  0  0  0  0  0  0  0  0  0
   67.8005   45.8527   51.7582 C   0  0  0  0  0  0  0  0  0  0  0  0
   67.4077   45.7019   53.0666 C   0  0  0  0  0  0  0  0  0  0  0  0
   67.8677   46.4731   54.1134 C   0  0  0  0  0  0  0  0  0  0  0  0
   68.7846   47.4676   53.8387 C   0  0  0  0  0  0  0  0  0  0  0  0
 16 17  1  0
 17 18  1  0
 17 19  2  0
 17  8  1  0
  8  9  1  0
  8 15  1  0
  9 10  1  0
 10 11  1  0
 11 12  1  0
 11 14  1  0
 12 13  2  0
 12  1  1  0
  1  2  2  0
  1  6  1  0
  2  3  1  0
  3 20  1  0
  3  4  2  0
 20 21  1  0
 21 22  2  0
 21 31  1  0
 22 23  1  0
 23 24  1  0
 24 25  2  0
 24 26  1  0
 26 27  1  0
 26 31  2  0
 27 28  2  0
 28 29  1  0
 29 30  2  0
 30 31  1  0
  4  5  1  0
  5  6  2  0
  6  7  1  0
 14 15  1  0
M  END
>  <minimizedAffinity>  (76) 
-9.80939

$$$$
cs_full_output_folder/data/smiles/9248.pdb
     RDKit          3D

 30 33  0  0  0  0  0  0  0  0999 V2000
   70.8579   46.1397   58.1569 C   0  0  0  0  0  0  0  0  0  0  0  0
   71.6474   47.0255   58.9108 C   0  0  0  0  0  0  0  0  0  0  0  0
   71.4174   48.3777   58.8557 C   0  0  0  0  0  0  0  0  0  0  0  0
   70.4114   48.8926   58.0632 C   0  0  0  0  0  0  0  0  0  0  0  0
   69.6479   48.0430   57.3333 C   0  0  0  0  0  0  0  0  0  0  0  0
   69.8773   46.6807   57.3874 C   0  0  0  0  0  0  0  0  0  0  0  0
   69.4823   44.1270   59.6975 O   0  0  0  0  0  0  0  0  0  0  0  0
   70.4854   43.7940   59.0323 C   0  0  0  0  0  0  0  0  0  0  0  0
   71.1713   44.7645   58.2736 N   0  0  0  0  0  0  0  0  0  0  0  0
   70.9587   42.3701   59.0405 C   0  0  0  0  0  0  0  0  0  0  0  0
   69.9426   41.4764   58.4427 C   0  0  0  0  0  0  0  0  0  0  0  0
   69.1995   41.9011   57.3599 C   0  0  0  0  0  0  0  0  0  0  0  0
   68.2458   41.1075   56.7687 C   0  0  0  0  0  0  0  0  0  0  0  0
   67.5155   41.5356   55.6979 F   0  0  0  0  0  0  0  0  0  0  0  0
   67.9936   39.8352   57.2473 C   0  0  0  0  0  0  0  0  0  0  0  0
   68.7161   39.3820   58.3244 C   0  0  0  0  0  0  0  0  0  0  0  0
   68.4820   38.1384   58.8039 F   0  0  0  0  0  0  0  0  0  0  0  0
   69.6843   40.1975   58.9177 C   0  0  0  0  0  0  0  0  0  0  0  0
   68.5303   48.4874   56.4262 C   0  0  0  0  0  0  0  0  0  0  0  0
   68.9721   48.6635   55.0390 C   0  0  0  0  0  0  0  0  0  0  0  0
   69.3975   49.9013   54.6471 N   0  0  0  0  0  0  0  0  0  0  0  0
   69.7737   50.1491   53.4074 N   0  0  0  0  0  0  0  0  0  0  0  0
   69.7751   49.2176   52.4185 C   0  0  0  0  0  0  0  0  0  0  0  0
   70.1302   49.4471   51.2441 O   0  0  0  0  0  0  0  0  0  0  0  0
   69.3618   47.9654   52.7529 C   0  0  0  0  0  0  0  0  0  0  0  0
   68.9649   47.7076   54.0714 C   0  0  0  0  0  0  0  0  0  0  0  0
   68.5775   46.3086   54.3261 C   0  0  0  0  0  0  0  0  0  0  0  0
   67.4706   45.9378   53.3875 C   0  0  0  0  0  0  0  0  0  0  0  0
   67.8689   46.2501   51.9651 C   0  0  0  0  0  0  0  0  0  0  0  0
   69.2726   46.8008   51.8376 C   0  0  0  0  0  0  0  0  0  0  0  0
  7  8  2  0
  8 10  1  0
  8  9  1  0
 10 11  1  0
 11 12  2  0
 11 18  1  0
 12 13  1  0
 13 14  1  0
 13 15  2  0
 15 16  1  0
 16 17  1  0
 16 18  2  0
  9  1  1  0
  1  2  2  0
  1  6  1  0
  2  3  1  0
  3  4  2  0
  4  5  1  0
  5 19  1  0
  5  6  2  0
 19 20  1  0
 20 21  2  0
 20 26  1  0
 21 22  1  0
 22 23  1  0
 23 24  2  0
 23 25  1  0
 25 26  2  0
 25 30  1  0
 26 27  1  0
 27 28  1  0
 28 29  1  0
 29 30  1  0
M  END
>  <minimizedAffinity>  (77) 
-9.79974

$$$$
cs_full_output_folder/data/smiles/1473.pdb
     RDKit          3D

 28 30  0  0  0  0  0  0  0  0999 V2000
   68.2486   45.8436   53.9400 C   0  0  0  0  0  0  0  0  0  0  0  0
   67.6159   45.3750   52.8068 C   0  0  0  0  0  0  0  0  0  0  0  0
   67.6822   45.9918   51.5783 C   0  0  0  0  0  0  0  0  0  0  0  0
   68.4317   47.1599   51.4647 C   0  0  0  0  0  0  0  0  0  0  0  0
   69.0846   47.6714   52.5662 C   0  0  0  0  0  0  0  0  0  0  0  0
   68.9774   47.0026   53.7708 C   0  0  0  0  0  0  0  0  0  0  0  0
   68.4210   45.7716   56.2737 O   0  0  0  0  0  0  0  0  0  0  0  0
   68.1446   45.1477   55.2204 C   0  0  0  0  0  0  0  0  0  0  0  0
   67.7474   43.7958   55.3626 N   0  0  0  0  0  0  0  0  0  0  0  0
   67.6622   43.1682   56.6244 N   0  0  0  0  0  0  0  0  0  0  0  0
   67.4522   41.7815   56.7695 C   0  0  0  0  0  0  0  0  0  0  0  0
   67.3452   41.1357   55.6943 O   0  0  0  0  0  0  0  0  0  0  0  0
   67.3515   41.0454   58.0140 C   0  0  0  0  0  0  0  0  0  0  0  0
   66.6107   41.6137   59.0562 C   0  0  0  0  0  0  0  0  0  0  0  0
   66.4455   41.0106   60.2792 C   0  0  0  0  0  0  0  0  0  0  0  0
   67.0170   39.7866   60.5454 C   0  0  0  0  0  0  0  0  0  0  0  0
   67.7464   39.2193   59.5289 C   0  0  0  0  0  0  0  0  0  0  0  0
   67.9164   39.8297   58.2839 C   0  0  0  0  0  0  0  0  0  0  0  0
   68.6469   39.2205   57.3246 F   0  0  0  0  0  0  0  0  0  0  0  0
   70.0211   49.1413   52.3968 S   0  0  0  0  0  0  0  0  0  0  0  0
   71.2926   49.1127   53.1512 O   0  0  0  0  0  0  0  0  0  0  0  0
   70.2878   49.3116   50.9166 O   0  0  0  0  0  0  0  0  0  0  0  0
   69.0032   50.4588   52.8920 N   0  0  0  0  0  0  0  0  0  0  0  0
   68.9812   50.9186   54.2344 C   0  0  0  0  0  0  0  0  0  0  0  0
   69.0701   50.3632   55.4340 C   0  0  0  0  0  0  0  0  0  0  0  0
   68.9411   51.6429   56.0920 C   0  0  0  0  0  0  0  0  0  0  0  0
   68.9226   52.0631   57.3788 F   0  0  0  0  0  0  0  0  0  0  0  0
   68.8504   52.2145   54.9012 C   0  0  0  0  0  0  0  0  0  0  0  0
  7  8  2  0
  8  9  1  0
  8  1  1  0
  9 10  1  0
 10 11  1  0
 11 12  2  0
 11 13  1  0
 13 14  2  0
 13 18  1  0
 14 15  1  0
 15 16  2  0
 16 17  1  0
 17 18  2  0
 18 19  1  0
  1  2  2  0
  1  6  1  0
  2  3  1  0
  3  4  2  0
  4  5  1  0
  5 20  1  0
  5  6  2  0
 20 21  2  0
 20 22  2  0
 20 23  1  0
 23 24  1  0
 24 25  2  0
 24 28  1  0
 25 26  1  0
 26 27  1  0
 26 28  2  0
M  END
>  <minimizedAffinity>  (78) 
-9.79650

$$$$
cs_full_output_folder/data/smiles/957.pdb
     RDKit          3D

 31 35  0  0  0  0  0  0  0  0999 V2000
   71.4461   47.1262   58.7344 C   0  0  0  0  0  0  0  0  0  0  0  0
   71.3990   45.7479   58.6676 C   0  0  0  0  0  0  0  0  0  0  0  0
   70.5182   45.1478   57.7995 C   0  0  0  0  0  0  0  0  0  0  0  0
   69.6751   45.8680   56.9882 C   0  0  0  0  0  0  0  0  0  0  0  0
   69.7166   47.2500   57.0490 C   0  0  0  0  0  0  0  0  0  0  0  0
   70.6117   47.8514   57.9299 C   0  0  0  0  0  0  0  0  0  0  0  0
   71.9516   47.9485   60.8409 O   0  0  0  0  0  0  0  0  0  0  0  0
   72.3769   47.7950   59.6749 C   0  0  0  0  0  0  0  0  0  0  0  0
   73.6620   48.2370   59.2961 N   0  0  0  0  0  0  0  0  0  0  0  0
   74.1842   48.0688   57.9617 C   0  0  0  0  0  0  0  0  0  0  0  0
   74.3952   49.4774   57.4111 C   0  0  0  0  0  0  0  0  0  0  0  0
   74.3534   50.4616   58.4417 N   0  0  0  0  0  0  0  0  0  0  0  0
   75.0595   50.2022   59.7067 C   0  0  0  0  0  0  0  0  0  0  0  0
   74.5249   48.9055   60.2552 C   0  0  0  0  0  0  0  0  0  0  0  0
   73.6656   51.7135   58.3454 C   0  0  0  0  0  0  0  0  0  0  0  0
   72.3887   51.8579   57.8614 C   0  0  0  0  0  0  0  0  0  0  0  0
   71.7414   53.0868   57.7607 C   0  0  0  0  0  0  0  0  0  0  0  0
   72.4117   54.2340   58.1694 C   0  0  0  0  0  0  0  0  0  0  0  0
   73.6830   54.0618   58.6496 C   0  0  0  0  0  0  0  0  0  0  0  0
   74.2864   52.8641   58.7362 N   0  0  0  0  0  0  0  0  0  0  0  0
   68.8145   48.0626   56.1981 C   0  0  0  0  0  0  0  0  0  0  0  0
   69.2778   48.2296   54.8015 C   0  0  0  0  0  0  0  0  0  0  0  0
   70.1575   49.1949   54.4775 N   0  0  0  0  0  0  0  0  0  0  0  0
   70.5516   49.3493   53.2451 N   0  0  0  0  0  0  0  0  0  0  0  0
   70.1317   48.5909   52.2288 C   0  0  0  0  0  0  0  0  0  0  0  0
   70.5113   48.7383   51.0342 O   0  0  0  0  0  0  0  0  0  0  0  0
   69.2272   47.5837   52.5030 C   0  0  0  0  0  0  0  0  0  0  0  0
   68.8018   47.4056   53.7969 C   0  0  0  0  0  0  0  0  0  0  0  0
   67.8399   46.2646   53.7853 C   0  0  0  0  0  0  0  0  0  0  0  0
   67.7677   45.8449   52.3906 C   0  0  0  0  0  0  0  0  0  0  0  0
   68.5557   46.5897   51.6600 C   0  0  0  0  0  0  0  0  0  0  0  0
  7  8  2  0
  8  1  1  0
  8  9  1  0
  1  2  2  0
  1  6  1  0
  2  3  1  0
  3  4  2  0
  4  5  1  0
  5 21  1  0
  5  6  2  0
 21 22  1  0
 22 23  2  0
 22 28  1  0
 23 24  1  0
 24 25  1  0
 25 26  2  0
 25 27  1  0
 27 28  2  0
 27 31  1  0
 28 29  1  0
 29 30  1  0
 30 31  2  0
  9 10  1  0
  9 14  1  0
 10 11  1  0
 11 12  1  0
 12 15  1  0
 12 13  1  0
 15 16  2  0
 15 20  1  0
 16 17  1  0
 17 18  2  0
 18 19  1  0
 19 20  2  0
 13 14  1  0
M  END
>  <minimizedAffinity>  (79) 
-9.79305

$$$$
cs_full_output_folder/data/smiles/85.pdb
     RDKit          3D

 29 32  0  0  0  0  0  0  0  0999 V2000
   68.2149   41.5877   56.9974 C   0  0  0  0  0  0  0  0  0  0  0  0
   67.9713   40.2220   57.1600 C   0  0  0  0  0  0  0  0  0  0  0  0
   68.7331   39.5330   58.1106 C   0  0  0  0  0  0  0  0  0  0  0  0
   69.6855   40.1643   58.8591 C   0  0  0  0  0  0  0  0  0  0  0  0
   69.9264   41.5122   58.7019 C   0  0  0  0  0  0  0  0  0  0  0  0
   70.8730   42.1838   59.4400 C   0  0  0  0  0  0  0  0  0  0  0  0
   71.5652   41.6060   60.2860 O   0  0  0  0  0  0  0  0  0  0  0  0
   71.0401   43.5486   59.2129 C   0  0  0  0  0  0  0  0  0  0  0  0
   71.9917   44.2674   59.9420 C   0  0  0  0  0  0  0  0  0  0  0  0
   72.1621   45.6323   59.7168 C   0  0  0  0  0  0  0  0  0  0  0  0
   71.4070   46.2862   58.7879 C   0  0  0  0  0  0  0  0  0  0  0  0
   70.4659   45.5901   58.0631 C   0  0  0  0  0  0  0  0  0  0  0  0
   70.2995   44.2381   58.2858 C   0  0  0  0  0  0  0  0  0  0  0  0
   69.3746   43.5269   57.5789 N   0  0  0  0  0  0  0  0  0  0  0  0
   69.1697   42.2100   57.7548 C   0  0  0  0  0  0  0  0  0  0  0  0
   67.8856   43.6316   55.5557 N   0  0  0  0  0  0  0  0  0  0  0  0
   67.4810   42.3627   56.0039 C   0  0  0  0  0  0  0  0  0  0  0  0
   66.4318   41.8664   55.5218 O   0  0  0  0  0  0  0  0  0  0  0  0
   67.2324   44.4191   54.5931 N   0  0  0  0  0  0  0  0  0  0  0  0
   69.2245   47.8407   53.1457 C   0  0  0  0  0  0  0  0  0  0  0  0
   69.1173   47.5747   54.4804 C   0  0  0  0  0  0  0  0  0  0  0  0
   68.4625   46.4579   54.9321 C   0  0  0  0  0  0  0  0  0  0  0  0
   67.8785   45.5494   54.0310 C   0  0  0  0  0  0  0  0  0  0  0  0
   67.9888   45.8211   52.6996 C   0  0  0  0  0  0  0  0  0  0  0  0
   68.6468   46.9428   52.2497 C   0  0  0  0  0  0  0  0  0  0  0  0
   69.4115   50.7176   53.1808 N   0  0  0  0  0  0  0  0  0  0  0  0
   70.0753   49.2564   52.5899 S   0  0  0  0  0  0  0  0  0  0  0  0
   71.5424   49.1935   52.9673 O   0  0  0  0  0  0  0  0  0  0  0  0
   70.0305   49.3397   51.0769 O   0  0  0  0  0  0  0  0  0  0  0  0
 26 27  1  0
 27 28  2  0
 27 29  2  0
 27 20  1  0
 20 21  2  0
 20 25  1  0
 21 22  1  0
 22 23  2  0
 23 19  1  0
 23 24  1  0
 19 16  1  0
 16 17  1  0
 17 18  2  0
 17  1  1  0
  1  2  2  0
  1 15  1  0
  2  3  1  0
  3  4  2  0
  4  5  1  0
  5  6  1  0
  5 15  2  0
  6  7  2  0
  6  8  1  0
  8  9  1  0
  8 13  2  0
  9 10  2  0
 10 11  1  0
 11 12  2  0
 12 13  1  0
 13 14  1  0
 14 15  1  0
 24 25  2  0
M  END
>  <minimizedAffinity>  (80) 
-9.79171

$$$$
cs_full_output_folder/data/smiles/5376.pdb
     RDKit          3D

 30 33  0  0  0  0  0  0  0  0999 V2000
   68.7700   42.1872   57.1032 C   0  0  0  0  0  0  0  0  0  0  0  0
   69.7083   43.1761   57.2960 C   0  0  0  0  0  0  0  0  0  0  0  0
   70.7456   42.9255   58.1707 C   0  0  0  0  0  0  0  0  0  0  0  0
   70.8968   41.7478   58.8603 C   0  0  0  0  0  0  0  0  0  0  0  0
   69.9654   40.7468   58.6779 C   0  0  0  0  0  0  0  0  0  0  0  0
   70.1392   39.5879   59.4026 C   0  0  0  0  0  0  0  0  0  0  0  0
   69.1748   38.5984   59.2267 C   0  0  0  0  0  0  0  0  0  0  0  0
   68.1227   38.7808   58.3781 C   0  0  0  0  0  0  0  0  0  0  0  0
   67.9795   39.9703   57.6573 C   0  0  0  0  0  0  0  0  0  0  0  0
   68.9094   40.9717   57.8034 C   0  0  0  0  0  0  0  0  0  0  0  0
   67.4249   43.3929   55.4822 N   0  0  0  0  0  0  0  0  0  0  0  0
   67.6778   42.4138   56.1985 C   0  0  0  0  0  0  0  0  0  0  0  0
   67.9171   45.3306   54.0439 C   0  0  0  0  0  0  0  0  0  0  0  0
   67.2049   44.8241   53.1346 O   0  0  0  0  0  0  0  0  0  0  0  0
   68.0287   44.5816   55.2634 N   0  0  0  0  0  0  0  0  0  0  0  0
   70.4048   48.2434   51.0154 N   0  0  0  0  0  0  0  0  0  0  0  0
   69.8105   48.0220   52.2864 C   0  0  0  0  0  0  0  0  0  0  0  0
   69.1668   46.8569   52.5980 C   0  0  0  0  0  0  0  0  0  0  0  0
   68.5694   46.5965   53.8322 C   0  0  0  0  0  0  0  0  0  0  0  0
   68.6625   47.6025   54.7556 C   0  0  0  0  0  0  0  0  0  0  0  0
   69.3108   48.8155   54.4878 C   0  0  0  0  0  0  0  0  0  0  0  0
   69.8731   49.0019   53.2580 C   0  0  0  0  0  0  0  0  0  0  0  0
   70.5390   50.1852   52.9128 O   0  0  0  0  0  0  0  0  0  0  0  0
   71.2875   39.2943   60.2765 C   0  0  0  0  0  0  0  0  0  0  0  0
   72.1874   38.3549   59.7673 N   0  0  0  0  0  0  0  0  0  0  0  0
   72.5964   37.1970   60.4036 C   0  0  0  0  0  0  0  0  0  0  0  0
   71.7808   35.9401   60.1272 C   0  0  0  0  0  0  0  0  0  0  0  0
   71.6153   35.8140   58.6470 C   0  0  0  0  0  0  0  0  0  0  0  0
   72.3195   36.8452   57.8356 C   0  0  0  0  0  0  0  0  0  0  0  0
   72.1623   38.2455   58.3491 C   0  0  0  0  0  0  0  0  0  0  0  0
 16 17  1  0
 17 18  2  0
 17 22  1  0
 18 19  1  0
 19 13  1  0
 19 20  2  0
 13 14  2  0
 13 15  1  0
 15 11  1  0
 11 12  2  0
 12  1  1  0
  1  2  2  0
  1 10  1  0
  2  3  1  0
  3  4  2  0
  4  5  1  0
  5  6  1  0
  5 10  2  0
  6 24  1  0
  6  7  2  0
 24 25  1  0
 25 26  1  0
 25 30  1  0
 26 27  1  0
 27 28  1  0
 28 29  1  0
 29 30  1  0
  7  8  1  0
  8  9  2  0
  9 10  1  0
 20 21  1  0
 21 22  2  0
 22 23  1  0
M  CHG  1  25   1
M  END
>  <minimizedAffinity>  (81) 
-9.78340

$$$$
cs_full_output_folder/data/smiles/292.pdb
     RDKit          3D

 33 37  0  0  0  0  0  0  0  0999 V2000
   71.5849   46.7302   58.9802 C   0  0  0  0  0  0  0  0  0  0  0  0
   70.6627   47.5506   58.3187 C   0  0  0  0  0  0  0  0  0  0  0  0
   69.7646   47.1051   57.3949 C   0  0  0  0  0  0  0  0  0  0  0  0
   69.7992   45.7216   57.1194 C   0  0  0  0  0  0  0  0  0  0  0  0
   70.6804   44.8628   57.7346 C   0  0  0  0  0  0  0  0  0  0  0  0
   71.5572   45.3967   58.6576 C   0  0  0  0  0  0  0  0  0  0  0  0
   72.4348   44.5318   59.2692 F   0  0  0  0  0  0  0  0  0  0  0  0
   75.5828   49.0908   58.0398 N   0  0  0  0  0  0  0  0  0  0  0  0
   76.0601   49.4395   59.3369 C   0  0  0  0  0  0  0  0  0  0  0  0
   76.0583   48.3753   60.3696 C   0  0  0  0  0  0  0  0  0  0  0  0
   74.6660   48.0082   60.8425 C   0  0  0  0  0  0  0  0  0  0  0  0
   73.8953   47.4355   59.7575 N   0  0  0  0  0  0  0  0  0  0  0  0
   72.5140   47.2902   59.9506 C   0  0  0  0  0  0  0  0  0  0  0  0
   72.0151   47.6723   61.0487 O   0  0  0  0  0  0  0  0  0  0  0  0
   74.4652   47.0102   58.4783 C   0  0  0  0  0  0  0  0  0  0  0  0
   74.4920   48.2328   57.6219 C   0  0  0  0  0  0  0  0  0  0  0  0
   75.6171   50.4897   56.2017 N   0  0  0  0  0  0  0  0  0  0  0  0
   76.2455   49.6609   56.9045 C   0  0  0  0  0  0  0  0  0  0  0  0
   77.6199   49.2548   56.6151 C   0  0  0  0  0  0  0  0  0  0  0  0
   78.1650   49.2148   55.2133 C   0  0  0  0  0  0  0  0  0  0  0  0
   78.5894   50.3056   56.1798 C   0  0  0  0  0  0  0  0  0  0  0  0
   68.7866   47.9226   56.6418 C   0  0  0  0  0  0  0  0  0  0  0  0
   69.2667   48.1412   55.2682 C   0  0  0  0  0  0  0  0  0  0  0  0
   70.2222   49.0843   55.0483 N   0  0  0  0  0  0  0  0  0  0  0  0
   70.7406   49.3260   53.8600 N   0  0  0  0  0  0  0  0  0  0  0  0
   70.3751   48.6657   52.7539 C   0  0  0  0  0  0  0  0  0  0  0  0
   70.8733   48.8987   51.6142 O   0  0  0  0  0  0  0  0  0  0  0  0
   69.3986   47.6898   52.9242 C   0  0  0  0  0  0  0  0  0  0  0  0
   68.9811   47.0039   51.7937 C   0  0  0  0  0  0  0  0  0  0  0  0
   68.0052   46.0474   51.8990 C   0  0  0  0  0  0  0  0  0  0  0  0
   67.4725   45.8082   53.1510 C   0  0  0  0  0  0  0  0  0  0  0  0
   67.8719   46.4771   54.2877 C   0  0  0  0  0  0  0  0  0  0  0  0
   68.8564   47.4348   54.1582 C   0  0  0  0  0  0  0  0  0  0  0  0
 17 18  2  0
 18 19  1  0
 18  8  1  0
 19 20  1  0
 19 21  1  0
 20 21  1  0
  8  9  1  0
  8 16  1  0
  9 10  1  0
 10 11  1  0
 11 12  1  0
 12 13  1  0
 12 15  1  0
 13 14  2  0
 13  1  1  0
  1  2  2  0
  1  6  1  0
  2  3  1  0
  3 22  1  0
  3  4  2  0
 22 23  1  0
 23 24  2  0
 23 33  1  0
 24 25  1  0
 25 26  1  0
 26 27  2  0
 26 28  1  0
 28 29  1  0
 28 33  2  0
 29 30  2  0
 30 31  1  0
 31 32  2  0
 32 33  1  0
  4  5  1  0
  5  6  2  0
  6  7  1  0
 15 16  1  0
M  CHG  1  17   1
M  END
>  <minimizedAffinity>  (82) 
-9.78060

$$$$
cs_full_output_folder/data/smiles/7378.pdb
     RDKit          3D

 31 35  0  0  0  0  0  0  0  0999 V2000
   71.0011   44.6868   58.1827 C   0  0  0  0  0  0  0  0  0  0  0  0
   70.0966   45.3249   57.3706 C   0  0  0  0  0  0  0  0  0  0  0  0
   69.8673   46.6881   57.4188 C   0  0  0  0  0  0  0  0  0  0  0  0
   70.5935   47.4042   58.3311 C   0  0  0  0  0  0  0  0  0  0  0  0
   71.5186   46.7562   59.1617 C   0  0  0  0  0  0  0  0  0  0  0  0
   71.7334   45.4059   59.1013 C   0  0  0  0  0  0  0  0  0  0  0  0
   72.6355   44.7721   59.9096 F   0  0  0  0  0  0  0  0  0  0  0  0
   72.1459   42.8231   57.3962 O   0  0  0  0  0  0  0  0  0  0  0  0
   71.1744   43.2404   58.0635 C   0  0  0  0  0  0  0  0  0  0  0  0
   70.2658   42.3257   58.6865 N   0  0  0  0  0  0  0  0  0  0  0  0
   69.1220   42.6573   59.4687 C   0  0  0  0  0  0  0  0  0  0  0  0
   68.9450   43.6925   60.1203 O   0  0  0  0  0  0  0  0  0  0  0  0
   68.1942   41.5061   59.3387 C   0  0  1  0  0  0  0  0  0  0  0  0
   67.7078   41.3821   57.9146 C   0  0  0  0  0  0  0  0  0  0  0  0
   68.1586   40.0643   57.3698 C   0  0  0  0  0  0  0  0  0  0  0  0
   68.4276   39.2846   58.6639 C   0  0  0  0  0  0  0  0  0  0  0  0
   69.1784   40.3448   59.4434 C   0  0  1  0  0  0  0  0  0  0  0  0
   70.3167   40.8971   58.6529 C   0  0  0  0  0  0  0  0  0  0  0  0
   71.1921   40.2273   58.0477 O   0  0  0  0  0  0  0  0  0  0  0  0
   68.8679   47.3435   56.5625 C   0  0  0  0  0  0  0  0  0  0  0  0
   69.3319   47.7550   55.2338 C   0  0  0  0  0  0  0  0  0  0  0  0
   70.2321   48.7794   55.0968 N   0  0  0  0  0  0  0  0  0  0  0  0
   70.6381   49.2149   53.9340 N   0  0  0  0  0  0  0  0  0  0  0  0
   70.2016   48.6841   52.7835 C   0  0  0  0  0  0  0  0  0  0  0  0
   70.5794   49.0883   51.6611 O   0  0  0  0  0  0  0  0  0  0  0  0
   69.2810   47.6321   52.8251 C   0  0  0  0  0  0  0  0  0  0  0  0
   68.8262   47.0589   51.6554 C   0  0  0  0  0  0  0  0  0  0  0  0
   67.9319   46.0113   51.6786 C   0  0  0  0  0  0  0  0  0  0  0  0
   67.5110   45.5574   52.9104 C   0  0  0  0  0  0  0  0  0  0  0  0
   67.9685   46.1336   54.0750 C   0  0  0  0  0  0  0  0  0  0  0  0
   68.8719   47.1951   54.0638 C   0  0  0  0  0  0  0  0  0  0  0  0
  8  9  2  0
  9  1  1  0
  9 10  1  0
  1  2  2  0
  1  6  1  0
  2  3  1  0
  3 20  1  0
  3  4  2  0
 20 21  1  0
 21 22  2  0
 21 31  1  0
 22 23  1  0
 23 24  1  0
 24 25  2  0
 24 26  1  0
 26 27  1  0
 26 31  2  0
 27 28  2  0
 28 29  1  0
 29 30  2  0
 30 31  1  0
  4  5  1  0
  5  6  2  0
  6  7  1  0
 10 11  1  0
 10 18  1  0
 11 12  2  0
 11 13  1  0
 13 14  1  6
 13 17  1  0
 14 15  1  0
 15 16  1  0
 17 16  1  6
 17 18  1  0
 18 19  2  0
M  END
>  <minimizedAffinity>  (83) 
-9.77757

$$$$
cs_full_output_folder/data/smiles/6794.pdb
     RDKit          3D

 31 35  0  0  0  0  0  0  0  0999 V2000
   70.7229   46.5001   58.5076 C   0  0  0  0  0  0  0  0  0  0  0  0
   69.9108   46.9851   57.4969 C   0  0  0  0  0  0  0  0  0  0  0  0
   69.7436   48.3010   57.2342 C   0  0  0  0  0  0  0  0  0  0  0  0
   70.4374   49.2192   58.0350 C   0  0  0  0  0  0  0  0  0  0  0  0
   71.2531   48.7802   59.0468 C   0  0  0  0  0  0  0  0  0  0  0  0
   71.3934   47.4218   59.2802 C   0  0  0  0  0  0  0  0  0  0  0  0
   72.1932   46.9730   60.2720 F   0  0  0  0  0  0  0  0  0  0  0  0
   76.4547   42.7093   60.4031 C   0  0  0  0  0  0  0  0  0  0  0  0
   75.9279   42.4589   59.0120 C   0  0  0  0  0  0  0  0  0  0  0  0
   76.7679   41.7121   58.2442 F   0  0  0  0  0  0  0  0  0  0  0  0
   74.5376   41.8106   59.1367 C   0  0  0  0  0  0  0  0  0  0  0  0
   73.6830   42.7466   58.3994 C   0  0  1  0  0  0  0  0  0  0  0  0
   72.2904   42.9779   58.8631 C   0  0  0  0  0  0  0  0  0  0  0  0
   72.1028   44.3950   58.6251 N   0  0  0  0  0  0  0  0  0  0  0  0
   70.8690   45.0732   58.7611 C   0  0  0  0  0  0  0  0  0  0  0  0
   69.8591   44.4171   59.1141 O   0  0  0  0  0  0  0  0  0  0  0  0
   73.3885   45.0101   58.2274 C   0  0  0  0  0  0  0  0  0  0  0  0
   74.3106   44.0762   58.8871 C   0  0  2  0  0  0  0  0  0  0  0  0
   75.6704   43.8486   58.3972 C   0  0  0  0  0  0  0  0  0  0  0  0
   68.8958   48.8910   56.2019 C   0  0  0  0  0  0  0  0  0  0  0  0
   69.3462   48.7512   54.8221 C   0  0  0  0  0  0  0  0  0  0  0  0
   70.2443   49.6491   54.3010 N   0  0  0  0  0  0  0  0  0  0  0  0
   70.6541   49.6057   53.0487 N   0  0  0  0  0  0  0  0  0  0  0  0
   70.2247   48.6769   52.1773 C   0  0  0  0  0  0  0  0  0  0  0  0
   70.6303   48.6509   50.9743 O   0  0  0  0  0  0  0  0  0  0  0  0
   69.3226   47.7428   52.6352 C   0  0  0  0  0  0  0  0  0  0  0  0
   68.8738   46.7687   51.7728 C   0  0  0  0  0  0  0  0  0  0  0  0
   67.9831   45.8317   52.2502 C   0  0  0  0  0  0  0  0  0  0  0  0
   67.5321   45.8358   53.5411 C   0  0  0  0  0  0  0  0  0  0  0  0
   67.9988   46.8248   54.3814 C   0  0  0  0  0  0  0  0  0  0  0  0
   68.8952   47.7935   53.9537 C   0  0  0  0  0  0  0  0  0  0  0  0
  8  9  1  0
  9 10  1  0
  9 11  1  0
  9 19  1  0
 12 11  1  1
 12 13  1  0
 12 18  1  0
 13 14  1  0
 14 15  1  0
 14 17  1  0
 15 16  2  0
 15  1  1  0
  1  2  2  0
  1  6  1  0
  2  3  1  0
  3 20  1  0
  3  4  2  0
 20 21  1  0
 21 22  2  0
 21 31  1  0
 22 23  1  0
 23 24  1  0
 24 25  2  0
 24 26  1  0
 26 27  1  0
 26 31  2  0
 27 28  2  0
 28 29  1  0
 29 30  2  0
 30 31  1  0
  4  5  1  0
  5  6  2  0
  6  7  1  0
 18 17  1  6
 18 19  1  0
M  END
>  <minimizedAffinity>  (84) 
-9.77690

$$$$
cs_full_output_folder/data/smiles/594.pdb
     RDKit          3D

 31 35  0  0  0  0  0  0  0  0999 V2000
   70.5703   45.9003   58.1682 C   0  0  0  0  0  0  0  0  0  0  0  0
   69.7681   46.5685   57.2852 C   0  0  0  0  0  0  0  0  0  0  0  0
   69.8895   47.9249   57.0981 C   0  0  0  0  0  0  0  0  0  0  0  0
   70.8302   48.6091   57.8113 C   0  0  0  0  0  0  0  0  0  0  0  0
   71.6580   47.9478   58.7175 C   0  0  0  0  0  0  0  0  0  0  0  0
   71.5183   46.5905   58.8887 C   0  0  0  0  0  0  0  0  0  0  0  0
   72.3158   45.9389   59.8028 F   0  0  0  0  0  0  0  0  0  0  0  0
   69.7106   44.1336   59.3518 O   0  0  0  0  0  0  0  0  0  0  0  0
   70.4575   44.4610   58.3432 C   0  0  0  0  0  0  0  0  0  0  0  0
   71.0606   43.3977   57.5596 C   0  0  1  0  0  0  0  0  0  0  0  0
   72.3888   42.9154   58.1200 C   0  0  0  0  0  0  0  0  0  0  0  0
   71.2594   41.9855   57.9008 C   0  0  1  0  0  0  0  0  0  0  0  0
   70.7472   41.3071   59.1255 C   0  0  0  0  0  0  0  0  0  0  0  0
   71.5093   41.3389   60.1584 O   0  0  0  0  0  0  0  0  0  0  0  0
   69.4962   40.6651   59.1562 N   0  0  0  0  0  0  0  0  0  0  0  0
   68.5435   40.5451   58.0947 C   0  0  0  0  0  0  0  0  0  0  0  0
   68.1379   39.0690   58.2279 C   0  0  0  0  0  0  0  0  0  0  0  0
   68.4837   38.6734   59.6479 C   0  0  0  0  0  0  0  0  0  0  0  0
   68.9100   39.9868   60.2819 C   0  0  0  0  0  0  0  0  0  0  0  0
   68.9968   48.6589   56.1610 C   0  0  0  0  0  0  0  0  0  0  0  0
   69.3790   48.5781   54.7554 C   0  0  0  0  0  0  0  0  0  0  0  0
   70.2647   49.4888   54.2918 N   0  0  0  0  0  0  0  0  0  0  0  0
   70.6735   49.5726   53.0599 N   0  0  0  0  0  0  0  0  0  0  0  0
   70.1889   48.6946   52.1675 C   0  0  0  0  0  0  0  0  0  0  0  0
   70.5515   48.7292   50.9505 O   0  0  0  0  0  0  0  0  0  0  0  0
   69.2713   47.7174   52.5517 C   0  0  0  0  0  0  0  0  0  0  0  0
   68.7951   46.8138   51.6091 C   0  0  0  0  0  0  0  0  0  0  0  0
   67.9020   45.8504   52.0088 C   0  0  0  0  0  0  0  0  0  0  0  0
   67.5005   45.8065   53.3412 C   0  0  0  0  0  0  0  0  0  0  0  0
   67.9668   46.6930   54.2708 C   0  0  0  0  0  0  0  0  0  0  0  0
   68.8684   47.6686   53.8698 C   0  0  0  0  0  0  0  0  0  0  0  0
  8  9  2  0
  9  1  1  0
 10  9  1  1
  1  2  2  0
  1  6  1  0
  2  3  1  0
  3 20  1  0
  3  4  2  0
 20 21  1  0
 21 22  2  0
 21 31  1  0
 22 23  1  0
 23 24  1  0
 24 25  2  0
 24 26  1  0
 26 27  1  0
 26 31  2  0
 27 28  2  0
 28 29  1  0
 29 30  2  0
 30 31  1  0
  4  5  1  0
  5  6  2  0
  6  7  1  0
 10 11  1  0
 10 12  1  0
 11 12  1  0
 12 13  1  1
 13 14  2  0
 13 15  1  0
 15 16  1  0
 15 19  1  0
 16 17  1  0
 17 18  1  0
 18 19  1  0
M  END
>  <minimizedAffinity>  (85) 
-9.77605

$$$$
cs_full_output_folder/data/smiles/4789.pdb
     RDKit          3D

 32 36  0  0  0  0  0  0  0  0999 V2000
   71.5038   46.8287   58.9304 C   0  0  0  0  0  0  0  0  0  0  0  0
   70.8083   47.7501   58.1503 C   0  0  0  0  0  0  0  0  0  0  0  0
   69.9314   47.3875   57.1643 C   0  0  0  0  0  0  0  0  0  0  0  0
   69.7805   45.9929   56.9918 C   0  0  0  0  0  0  0  0  0  0  0  0
   70.4373   45.0654   57.7281 C   0  0  0  0  0  0  0  0  0  0  0  0
   70.2053   43.7517   57.4653 F   0  0  0  0  0  0  0  0  0  0  0  0
   71.3111   45.4891   58.7111 C   0  0  0  0  0  0  0  0  0  0  0  0
   71.9581   44.5308   59.4391 F   0  0  0  0  0  0  0  0  0  0  0  0
   71.9942   47.5560   61.1078 O   0  0  0  0  0  0  0  0  0  0  0  0
   72.4289   47.2515   59.9692 C   0  0  0  0  0  0  0  0  0  0  0  0
   73.8508   47.3408   59.7559 N   0  0  0  0  0  0  0  0  0  0  0  0
   74.7400   47.7647   60.8074 C   0  0  0  0  0  0  0  0  0  0  0  0
   75.8930   48.6212   60.3433 C   0  0  0  0  0  0  0  0  0  0  0  0
   76.4359   48.2541   59.0684 N   0  0  0  0  0  0  0  0  0  0  0  0
   75.9366   46.9476   58.6998 C   0  0  0  0  0  0  0  0  0  0  0  0
   74.4315   46.9965   58.4732 C   0  0  0  0  0  0  0  0  0  0  0  0
   76.2976   49.2211   58.0397 C   0  0  0  0  0  0  0  0  0  0  0  0
   77.2844   49.2116   56.9382 C   0  0  0  0  0  0  0  0  0  0  0  0
   78.0866   50.4202   56.6070 C   0  0  0  0  0  0  0  0  0  0  0  0
   77.0913   49.8479   55.6081 C   0  0  0  0  0  0  0  0  0  0  0  0
   69.1592   48.3135   56.2968 C   0  0  0  0  0  0  0  0  0  0  0  0
   69.5143   48.2911   54.8852 C   0  0  0  0  0  0  0  0  0  0  0  0
   70.4899   49.1438   54.4437 N   0  0  0  0  0  0  0  0  0  0  0  0
   70.8670   49.2499   53.1943 N   0  0  0  0  0  0  0  0  0  0  0  0
   70.3001   48.5045   52.2340 C   0  0  0  0  0  0  0  0  0  0  0  0
   70.6950   48.6418   51.0424 O   0  0  0  0  0  0  0  0  0  0  0  0
   69.3068   47.6102   52.5576 C   0  0  0  0  0  0  0  0  0  0  0  0
   68.7369   46.8364   51.5720 C   0  0  0  0  0  0  0  0  0  0  0  0
   67.7554   45.9426   51.9428 C   0  0  0  0  0  0  0  0  0  0  0  0
   67.3728   45.8465   53.2887 C   0  0  0  0  0  0  0  0  0  0  0  0
   67.9733   46.6443   54.2436 C   0  0  0  0  0  0  0  0  0  0  0  0
   68.9385   47.5290   53.8942 C   0  0  0  0  0  0  0  0  0  0  0  0
  9 10  2  0
 10  1  1  0
 10 11  1  0
  1  2  2  0
  1  7  1  0
  2  3  1  0
  3 21  1  0
  3  4  2  0
 21 22  1  0
 22 23  2  0
 22 32  1  0
 23 24  1  0
 24 25  1  0
 25 26  2  0
 25 27  1  0
 27 28  1  0
 27 32  2  0
 28 29  2  0
 29 30  1  0
 30 31  2  0
 31 32  1  0
  4  5  1  0
  5  6  1  0
  5  7  2  0
  7  8  1  0
 11 12  1  0
 11 16  1  0
 12 13  1  0
 13 14  1  0
 14 17  1  0
 14 15  1  0
 17 18  1  0
 18 19  1  0
 18 20  1  0
 19 20  1  0
 15 16  1  0
M  CHG  1  14   1
M  END
>  <minimizedAffinity>  (86) 
-9.77367

$$$$
cs_full_output_folder/data/smiles/2201.pdb
     RDKit          3D

 28 30  0  0  0  0  0  0  0  0999 V2000
   69.6316   48.6184   53.2744 C   0  0  0  0  0  0  0  0  0  0  0  0
   69.2750   48.2026   52.0097 C   0  0  0  0  0  0  0  0  0  0  0  0
   68.6210   47.0035   51.7822 C   0  0  0  0  0  0  0  0  0  0  0  0
   68.3296   46.2177   52.8777 C   0  0  0  0  0  0  0  0  0  0  0  0
   68.6550   46.5678   54.1728 C   0  0  0  0  0  0  0  0  0  0  0  0
   69.3056   47.7744   54.3287 C   0  0  0  0  0  0  0  0  0  0  0  0
   70.4612   50.1473   53.5630 S   0  0  0  0  0  0  0  0  0  0  0  0
   70.1012   51.0559   52.4357 O   0  0  0  0  0  0  0  0  0  0  0  0
   71.9469   49.8878   53.6220 O   0  0  0  0  0  0  0  0  0  0  0  0
   67.4058   50.4731   57.2509 C   0  0  0  0  0  0  0  0  0  0  0  0
   68.0355   51.5507   56.4092 C   0  0  1  0  0  0  0  0  0  0  0  0
   69.1594   52.2441   57.1529 C   0  0  0  0  0  0  0  0  0  0  0  0
   69.9452   53.0620   56.1502 C   0  0  0  0  0  0  0  0  0  0  0  0
   70.6664   52.0913   55.2381 C   0  0  0  0  0  0  0  0  0  0  0  0
   69.9469   50.8720   55.0369 N   0  0  0  0  0  0  0  0  0  0  0  0
   68.5050   51.0308   55.0664 C   0  0  0  0  0  0  0  0  0  0  0  0
   68.3205   45.6947   55.2900 C   0  0  0  0  0  0  0  0  0  0  0  0
   68.3440   46.1923   56.4454 O   0  0  0  0  0  0  0  0  0  0  0  0
   67.9741   44.3420   55.1846 N   0  0  0  0  0  0  0  0  0  0  0  0
   67.6562   43.5199   56.2746 N   0  0  0  0  0  0  0  0  0  0  0  0
   68.5573   42.6660   56.9103 C   0  0  0  0  0  0  0  0  0  0  0  0
   68.2155   41.0733   57.0113 S   0  0  0  0  0  0  0  0  0  0  0  0
   69.8143   43.0940   57.5085 C   0  0  0  0  0  0  0  0  0  0  0  0
   70.9901   42.4110   57.3779 C   0  0  0  0  0  0  0  0  0  0  0  0
   72.1212   42.8984   57.9809 C   0  0  0  0  0  0  0  0  0  0  0  0
   72.0851   44.0653   58.7148 C   0  0  0  0  0  0  0  0  0  0  0  0
   70.8925   44.7326   58.8293 C   0  0  0  0  0  0  0  0  0  0  0  0
   69.8095   44.2256   58.2264 N   0  0  0  0  0  0  0  0  0  0  0  0
 11 10  1  1
 11 12  1  0
 11 16  1  0
 12 13  1  0
 13 14  1  0
 14 15  1  0
 15  7  1  0
 15 16  1  0
  7  8  2  0
  7  9  2  0
  7  1  1  0
  1  2  2  0
  1  6  1  0
  2  3  1  0
  3  4  2  0
  4  5  1  0
  5 17  1  0
  5  6  2  0
 17 18  2  0
 17 19  1  0
 19 20  1  0
 20 21  1  0
 21 22  2  0
 21 23  1  0
 23 24  2  0
 23 28  1  0
 24 25  1  0
 25 26  2  0
 26 27  1  0
 27 28  2  0
M  END
>  <minimizedAffinity>  (87) 
-9.77185

$$$$
cs_full_output_folder/data/smiles/6857.pdb
     RDKit          3D

 31 35  0  0  0  0  0  0  0  0999 V2000
   71.4680   47.2972   58.8216 C   0  0  0  0  0  0  0  0  0  0  0  0
   70.5538   48.0467   58.0607 C   0  0  0  0  0  0  0  0  0  0  0  0
   69.7035   47.4455   57.1749 C   0  0  0  0  0  0  0  0  0  0  0  0
   69.7284   46.0722   57.0121 C   0  0  0  0  0  0  0  0  0  0  0  0
   70.6061   45.3019   57.7354 C   0  0  0  0  0  0  0  0  0  0  0  0
   71.4608   45.9425   58.6298 C   0  0  0  0  0  0  0  0  0  0  0  0
   72.3612   45.2186   59.3748 F   0  0  0  0  0  0  0  0  0  0  0  0
   76.8645   50.4414   57.6108 N   0  0  1  0  0  0  0  0  0  0  0  0
   76.0182   49.4790   56.9393 C   0  0  0  0  0  0  0  0  0  0  0  0
   75.2592   48.7445   58.0054 C   0  0  2  0  0  0  0  0  0  0  0  0
   73.7820   49.0817   57.9805 C   0  0  0  0  0  0  0  0  0  0  0  0
   73.4126   48.8063   59.3515 N   0  0  0  0  0  0  0  0  0  0  0  0
   72.3473   47.9870   59.7717 C   0  0  0  0  0  0  0  0  0  0  0  0
   72.1092   47.8125   60.9930 O   0  0  0  0  0  0  0  0  0  0  0  0
   74.3928   49.5391   60.1261 C   0  0  0  0  0  0  0  0  0  0  0  0
   75.6971   49.3099   59.3391 C   0  0  2  0  0  0  0  0  0  0  0  0
   76.3747   50.5803   58.9644 C   0  0  0  0  0  0  0  0  0  0  0  0
   79.0536   50.9595   56.7376 C   0  0  0  0  0  0  0  0  0  0  0  0
   78.2461   49.9996   57.5850 C   0  0  0  0  0  0  0  0  0  0  0  0
   68.7388   48.2194   56.3540 C   0  0  0  0  0  0  0  0  0  0  0  0
   69.2649   48.2575   54.9678 C   0  0  0  0  0  0  0  0  0  0  0  0
   70.2368   49.1675   54.6857 N   0  0  0  0  0  0  0  0  0  0  0  0
   70.7226   49.3206   53.4775 N   0  0  0  0  0  0  0  0  0  0  0  0
   70.2854   48.5835   52.4519 C   0  0  0  0  0  0  0  0  0  0  0  0
   70.7592   48.7349   51.2711 O   0  0  0  0  0  0  0  0  0  0  0  0
   69.3023   47.6326   52.6325 C   0  0  0  0  0  0  0  0  0  0  0  0
   68.8547   46.8571   51.5744 C   0  0  0  0  0  0  0  0  0  0  0  0
   67.8830   45.9236   51.8626 C   0  0  0  0  0  0  0  0  0  0  0  0
   67.3840   45.7686   53.1289 C   0  0  0  0  0  0  0  0  0  0  0  0
   67.8382   46.5478   54.1722 C   0  0  0  0  0  0  0  0  0  0  0  0
   68.8003   47.4892   53.9363 C   0  0  0  0  0  0  0  0  0  0  0  0
 18 19  1  0
  8 19  1  1
  8  9  1  0
  8 17  1  0
 10  9  1  6
 10 11  1  0
 10 16  1  0
 11 12  1  0
 12 13  1  0
 12 15  1  0
 13 14  2  0
 13  1  1  0
  1  2  2  0
  1  6  1  0
  2  3  1  0
  3 20  1  0
  3  4  2  0
 20 21  1  0
 21 22  2  0
 21 31  1  0
 22 23  1  0
 23 24  1  0
 24 25  2  0
 24 26  1  0
 26 27  1  0
 26 31  2  0
 27 28  2  0
 28 29  1  0
 29 30  2  0
 30 31  1  0
  4  5  1  0
  5  6  2  0
  6  7  1  0
 16 15  1  1
 16 17  1  0
M  CHG  1   8   1
M  END
>  <minimizedAffinity>  (88) 
-9.76502

$$$$
cs_full_output_folder/data/smiles/7856.pdb
     RDKit          3D

 31 34  0  0  0  0  0  0  0  0999 V2000
   71.5960   47.1597   58.7785 C   0  0  0  0  0  0  0  0  0  0  0  0
   70.7239   47.9403   58.0172 C   0  0  0  0  0  0  0  0  0  0  0  0
   69.7903   47.4173   57.1664 C   0  0  0  0  0  0  0  0  0  0  0  0
   69.7172   46.0164   57.0651 C   0  0  0  0  0  0  0  0  0  0  0  0
   70.5592   45.2157   57.7997 C   0  0  0  0  0  0  0  0  0  0  0  0
   71.4843   45.7968   58.6438 C   0  0  0  0  0  0  0  0  0  0  0  0
   72.3095   45.0016   59.3628 F   0  0  0  0  0  0  0  0  0  0  0  0
   76.1438   49.4498   58.1193 C   0  0  0  0  0  0  0  0  0  0  0  0
   76.1474   49.0360   59.5302 C   0  0  0  0  0  0  0  0  0  0  0  0
   74.8200   48.7567   60.1529 C   0  0  0  0  0  0  0  0  0  0  0  0
   73.8817   48.1234   59.2484 N   0  0  0  0  0  0  0  0  0  0  0  0
   72.5622   47.7957   59.6624 C   0  0  0  0  0  0  0  0  0  0  0  0
   72.1830   48.0525   60.8353 O   0  0  0  0  0  0  0  0  0  0  0  0
   74.3425   47.8435   57.9204 C   0  0  0  0  0  0  0  0  0  0  0  0
   74.8666   49.1494   57.3596 C   0  0  0  0  0  0  0  0  0  0  0  0
   77.1874   49.0014   57.3443 O   0  0  0  0  0  0  0  0  0  0  0  0
   78.2484   49.0964   55.1662 C   0  0  0  0  0  0  0  0  0  0  0  0
   77.5366   49.7962   56.2887 C   0  0  0  0  0  0  0  0  0  0  0  0
   78.5049   50.8534   56.8434 C   0  0  0  0  0  0  0  0  0  0  0  0
   68.8603   48.2379   56.3310 C   0  0  0  0  0  0  0  0  0  0  0  0
   69.3519   48.2887   54.9248 C   0  0  0  0  0  0  0  0  0  0  0  0
   70.3179   49.1897   54.5977 N   0  0  0  0  0  0  0  0  0  0  0  0
   70.7955   49.3566   53.3913 N   0  0  0  0  0  0  0  0  0  0  0  0
   70.2959   48.5879   52.4163 C   0  0  0  0  0  0  0  0  0  0  0  0
   70.7202   48.7098   51.2382 O   0  0  0  0  0  0  0  0  0  0  0  0
   69.3131   47.6408   52.6326 C   0  0  0  0  0  0  0  0  0  0  0  0
   68.8363   46.8617   51.6008 C   0  0  0  0  0  0  0  0  0  0  0  0
   67.8762   45.9325   51.8750 C   0  0  0  0  0  0  0  0  0  0  0  0
   67.3993   45.7827   53.1623 C   0  0  0  0  0  0  0  0  0  0  0  0
   67.8718   46.5587   54.1987 C   0  0  0  0  0  0  0  0  0  0  0  0
   68.8380   47.4995   53.9361 C   0  0  0  0  0  0  0  0  0  0  0  0
 17 18  1  0
 18 19  1  0
 18 16  1  0
 16  8  1  0
  8  9  1  0
  8 15  1  0
  9 10  1  0
 10 11  1  0
 11 12  1  0
 11 14  1  0
 12 13  2  0
 12  1  1  0
  1  2  2  0
  1  6  1  0
  2  3  1  0
  3 20  1  0
  3  4  2  0
 20 21  1  0
 21 22  2  0
 21 31  1  0
 22 23  1  0
 23 24  1  0
 24 25  2  0
 24 26  1  0
 26 27  1  0
 26 31  2  0
 27 28  2  0
 28 29  1  0
 29 30  2  0
 30 31  1  0
  4  5  1  0
  5  6  2  0
  6  7  1  0
 14 15  1  0
M  END
>  <minimizedAffinity>  (89) 
-9.76220

$$$$
cs_full_output_folder/data/smiles/5113.pdb
     RDKit          3D

 31 34  0  0  0  0  0  0  0  0999 V2000
   71.5255   47.3137   58.9598 C   0  0  0  0  0  0  0  0  0  0  0  0
   70.5820   47.9667   58.1956 C   0  0  0  0  0  0  0  0  0  0  0  0
   69.7880   47.3082   57.3042 C   0  0  0  0  0  0  0  0  0  0  0  0
   69.9801   45.9196   57.2024 C   0  0  0  0  0  0  0  0  0  0  0  0
   70.9182   45.2489   57.9586 C   0  0  0  0  0  0  0  0  0  0  0  0
   71.7013   45.9529   58.8483 C   0  0  0  0  0  0  0  0  0  0  0  0
   72.6460   45.3250   59.6193 F   0  0  0  0  0  0  0  0  0  0  0  0
   72.2651   47.8205   61.1334 O   0  0  0  0  0  0  0  0  0  0  0  0
   72.3675   48.0752   59.9151 C   0  0  0  0  0  0  0  0  0  0  0  0
   73.2747   49.0730   59.4769 N   0  0  0  0  0  0  0  0  0  0  0  0
   74.0312   49.7289   60.5131 C   0  0  0  0  0  0  0  0  0  0  0  0
   75.3077   50.3371   59.9374 C   0  0  0  0  0  0  0  0  0  0  0  0
   76.0036   49.3320   59.0829 C   0  0  0  0  0  0  0  0  0  0  0  0
   75.7093   49.5130   57.6436 N   0  0  2  0  0  0  0  0  0  0  0  0
   74.5517   48.6879   57.4074 C   0  0  0  0  0  0  0  0  0  0  0  0
   73.3673   49.3554   58.0661 C   0  0  0  0  0  0  0  0  0  0  0  0
   76.8981   49.1055   56.9685 C   0  0  0  0  0  0  0  0  0  0  0  0
   77.2638   49.8282   55.7317 C   0  0  0  0  0  0  0  0  0  0  0  0
   77.4477   49.0885   54.5977 O   0  0  0  0  0  0  0  0  0  0  0  0
   68.7468   47.9621   56.4529 C   0  0  0  0  0  0  0  0  0  0  0  0
   69.1393   48.1869   55.0667 C   0  0  0  0  0  0  0  0  0  0  0  0
   70.0144   49.2035   54.7614 N   0  0  0  0  0  0  0  0  0  0  0  0
   70.4466   49.4305   53.5415 N   0  0  0  0  0  0  0  0  0  0  0  0
   70.0697   48.6896   52.4934 C   0  0  0  0  0  0  0  0  0  0  0  0
   70.4899   48.9125   51.3178 O   0  0  0  0  0  0  0  0  0  0  0  0
   69.1901   47.6429   52.6910 C   0  0  0  0  0  0  0  0  0  0  0  0
   68.7827   46.8859   51.6147 C   0  0  0  0  0  0  0  0  0  0  0  0
   67.8911   45.8572   51.8199 C   0  0  0  0  0  0  0  0  0  0  0  0
   67.4430   45.6311   53.1097 C   0  0  0  0  0  0  0  0  0  0  0  0
   67.8622   46.3992   54.1743 C   0  0  0  0  0  0  0  0  0  0  0  0
   68.7506   47.4280   53.9937 C   0  0  0  0  0  0  0  0  0  0  0  0
  8  9  2  0
  9  1  1  0
  9 10  1  0
  1  2  2  0
  1  6  1  0
  2  3  1  0
  3 20  1  0
  3  4  2  0
 20 21  1  0
 21 22  2  0
 21 31  1  0
 22 23  1  0
 23 24  1  0
 24 25  2  0
 24 26  1  0
 26 27  1  0
 26 31  2  0
 27 28  2  0
 28 29  1  0
 29 30  2  0
 30 31  1  0
  4  5  1  0
  5  6  2  0
  6  7  1  0
 10 11  1  0
 10 16  1  0
 11 12  1  0
 12 13  1  0
 13 14  1  0
 14 17  1  6
 14 15  1  0
 17 18  1  0
 18 19  1  0
 15 16  1  0
M  CHG  1  14   1
M  END
>  <minimizedAffinity>  (90) 
-9.76198

$$$$
cs_full_output_folder/data/smiles/4414.pdb
     RDKit          3D

 26 28  0  0  0  0  0  0  0  0999 V2000
   68.2313   44.4789   55.8726 N   0  0  0  0  0  0  0  0  0  0  0  0
   68.7701   43.6047   56.8151 C   0  0  0  0  0  0  0  0  0  0  0  0
   69.5463   44.0934   57.7013 O   0  0  0  0  0  0  0  0  0  0  0  0
   68.5573   42.1680   56.9277 C   0  0  0  0  0  0  0  0  0  0  0  0
   67.7638   41.2988   56.2257 C   0  0  0  0  0  0  0  0  0  0  0  0
   67.9642   40.0494   56.7116 N   0  0  0  0  0  0  0  0  0  0  0  0
   68.8415   40.0555   57.6875 N   0  0  0  0  0  0  0  0  0  0  0  0
   69.2241   41.3449   57.8448 C   0  0  0  0  0  0  0  0  0  0  0  0
   70.4682   41.9301   59.1399 Br  0  0  0  0  0  0  0  0  0  0  0  0
   69.3460   38.9393   58.4470 C   0  0  0  0  0  0  0  0  0  0  0  0
   70.5709   38.3747   58.1886 C   0  0  0  0  0  0  0  0  0  0  0  0
   71.0496   37.2910   58.8986 C   0  0  0  0  0  0  0  0  0  0  0  0
   70.2797   36.7334   59.9206 C   0  0  0  0  0  0  0  0  0  0  0  0
   70.8864   35.3460   60.8223 Cl  0  0  0  0  0  0  0  0  0  0  0  0
   69.0562   37.2880   60.1879 C   0  0  0  0  0  0  0  0  0  0  0  0
   68.5865   38.3876   59.4538 C   0  0  0  0  0  0  0  0  0  0  0  0
   68.4856   45.9276   55.8355 C   0  0  0  0  0  0  0  0  0  0  0  0
   69.3573   47.6815   52.5743 C   0  0  0  0  0  0  0  0  0  0  0  0
   68.6015   46.9551   51.6757 C   0  0  0  0  0  0  0  0  0  0  0  0
   67.8333   45.9179   52.1326 C   0  0  0  0  0  0  0  0  0  0  0  0
   67.8159   45.6019   53.4837 C   0  0  0  0  0  0  0  0  0  0  0  0
   68.5690   46.3262   54.3878 C   0  0  0  0  0  0  0  0  0  0  0  0
   69.3395   47.3638   53.9310 C   0  0  0  0  0  0  0  0  0  0  0  0
   69.7392   49.6323   51.0374 N   0  0  0  0  0  0  0  0  0  0  0  0
   70.1643   48.7890   52.0831 C   0  0  0  0  0  0  0  0  0  0  0  0
   71.3029   49.0252   52.6044 O   0  0  0  0  0  0  0  0  0  0  0  0
 24 25  1  0
 25 26  2  0
 25 18  1  0
 18 19  2  0
 18 23  1  0
 19 20  1  0
 20 21  2  0
 21 22  1  0
 22 17  1  0
 22 23  2  0
 17  1  1  0
  1  2  1  0
  2  3  2  0
  2  4  1  0
  4  5  1  0
  4  8  2  0
  5  6  2  0
  6  7  1  0
  7 10  1  0
  7  8  1  0
 10 11  2  0
 10 16  1  0
 11 12  1  0
 12 13  2  0
 13 14  1  0
 13 15  1  0
 15 16  2  0
  8  9  1  0
M  END
>  <minimizedAffinity>  (91) 
-9.76100

$$$$
cs_full_output_folder/data/smiles/80.pdb
     RDKit          3D

 29 31  0  0  0  0  0  0  0  0999 V2000
   68.2967   45.9860   53.9157 C   0  0  0  0  0  0  0  0  0  0  0  0
   69.0284   47.1825   53.9417 C   0  0  0  0  0  0  0  0  0  0  0  0
   69.2374   47.9844   52.8658 C   0  0  0  0  0  0  0  0  0  0  0  0
   68.6927   47.5969   51.6651 C   0  0  0  0  0  0  0  0  0  0  0  0
   67.9654   46.4366   51.5671 C   0  0  0  0  0  0  0  0  0  0  0  0
   67.7754   45.6420   52.7020 C   0  0  0  0  0  0  0  0  0  0  0  0
   67.0529   44.5017   52.5770 F   0  0  0  0  0  0  0  0  0  0  0  0
   67.7874   43.8837   55.2869 N   0  0  0  0  0  0  0  0  0  0  0  0
   68.1545   45.2288   55.1458 C   0  0  0  0  0  0  0  0  0  0  0  0
   68.3847   45.8381   56.2360 O   0  0  0  0  0  0  0  0  0  0  0  0
   67.4330   41.1896   55.5183 O   0  0  0  0  0  0  0  0  0  0  0  0
   67.4877   41.8207   56.6183 C   0  0  0  0  0  0  0  0  0  0  0  0
   67.6707   43.2177   56.5182 N   0  0  0  0  0  0  0  0  0  0  0  0
   67.3627   41.0989   57.8981 C   0  0  0  0  0  0  0  0  0  0  0  0
   68.0032   39.9051   58.1385 C   0  0  0  0  0  0  0  0  0  0  0  0
   67.8688   39.2480   59.3516 C   0  0  0  0  0  0  0  0  0  0  0  0
   67.0887   39.7610   60.3641 C   0  0  0  0  0  0  0  0  0  0  0  0
   66.4467   40.9574   60.1245 C   0  0  0  0  0  0  0  0  0  0  0  0
   65.4258   41.6874   61.3701 Cl  0  0  0  0  0  0  0  0  0  0  0  0
   66.5845   41.6068   58.9168 C   0  0  0  0  0  0  0  0  0  0  0  0
   70.1727   49.4516   53.0460 S   0  0  0  0  0  0  0  0  0  0  0  0
   69.7847   50.3847   51.9119 O   0  0  0  0  0  0  0  0  0  0  0  0
   71.6478   49.1883   53.0207 O   0  0  0  0  0  0  0  0  0  0  0  0
   69.6947   50.2286   54.5105 N   0  0  0  0  0  0  0  0  0  0  0  0
   68.8027   51.3021   54.2000 C   0  0  0  0  0  0  0  0  0  0  0  0
   68.8756   52.4187   55.2177 C   0  0  0  0  0  0  0  0  0  0  0  0
   70.1417   52.9406   55.3509 O   0  0  0  0  0  0  0  0  0  0  0  0
   71.1633   52.0587   55.1478 C   0  0  0  0  0  0  0  0  0  0  0  0
   70.8034   50.6178   55.3279 C   0  0  0  0  0  0  0  0  0  0  0  0
 11 12  2  0
 12 13  1  0
 12 14  1  0
 13  8  1  0
  8  9  1  0
  9 10  2  0
  9  1  1  0
  1  2  2  0
  1  6  1  0
  2  3  1  0
  3 21  1  0
  3  4  2  0
 21 22  2  0
 21 23  2  0
 21 24  1  0
 24 25  1  0
 24 29  1  0
 25 26  1  0
 26 27  1  0
 27 28  1  0
 28 29  1  0
  4  5  1  0
  5  6  2  0
  6  7  1  0
 14 15  2  0
 14 20  1  0
 15 16  1  0
 16 17  2  0
 17 18  1  0
 18 19  1  0
 18 20  2  0
M  END
>  <minimizedAffinity>  (92) 
-9.75272

$$$$
cs_full_output_folder/data/smiles/5184.pdb
     RDKit          3D

 30 33  0  0  0  0  0  0  0  0999 V2000
   68.6336   46.7267   54.7326 C   0  0  0  0  0  0  0  0  0  0  0  0
   69.0972   47.8517   54.0384 C   0  0  0  0  0  0  0  0  0  0  0  0
   69.0880   47.9156   52.6395 C   0  0  0  0  0  0  0  0  0  0  0  0
   68.6130   46.8509   51.9281 C   0  0  0  0  0  0  0  0  0  0  0  0
   68.1502   45.7339   52.5853 C   0  0  0  0  0  0  0  0  0  0  0  0
   68.1656   45.6860   53.9865 C   0  0  0  0  0  0  0  0  0  0  0  0
   67.6539   44.5542   54.5192 F   0  0  0  0  0  0  0  0  0  0  0  0
   68.7207   46.7376   56.1925 C   0  0  0  0  0  0  0  0  0  0  0  0
   69.1348   45.6350   56.7235 O   0  0  0  0  0  0  0  0  0  0  0  0
   67.1920   47.9080   57.4461 O   0  0  0  0  0  0  0  0  0  0  0  0
   68.4008   47.8128   57.0674 C   0  0  0  0  0  0  0  0  0  0  0  0
   69.3192   48.8066   57.5659 C   0  0  0  0  0  0  0  0  0  0  0  0
   68.9763   50.0156   58.1311 C   0  0  0  0  0  0  0  0  0  0  0  0
   69.9407   50.9277   58.5880 C   0  0  0  0  0  0  0  0  0  0  0  0
   71.2745   50.6523   58.4904 C   0  0  0  0  0  0  0  0  0  0  0  0
   72.2334   51.5217   58.9265 F   0  0  0  0  0  0  0  0  0  0  0  0
   71.6233   49.4503   57.9272 C   0  0  0  0  0  0  0  0  0  0  0  0
   70.6963   48.5411   57.4730 C   0  0  0  0  0  0  0  0  0  0  0  0
   69.6378   49.1753   52.0597 C   0  0  0  0  0  0  0  0  0  0  0  0
   70.4566   49.9102   53.0229 C   0  0  0  0  0  0  0  0  0  0  0  0
   71.7877   49.5884   53.1367 N   0  0  0  0  0  0  0  0  0  0  0  0
   72.5863   50.1690   54.0064 N   0  0  0  0  0  0  0  0  0  0  0  0
   72.1629   51.1198   54.8491 C   0  0  0  0  0  0  0  0  0  0  0  0
   72.9156   51.6803   55.6847 O   0  0  0  0  0  0  0  0  0  0  0  0
   70.8332   51.5162   54.8110 C   0  0  0  0  0  0  0  0  0  0  0  0
   70.3729   52.4994   55.6571 C   0  0  0  0  0  0  0  0  0  0  0  0
   69.0544   52.8696   55.5750 C   0  0  0  0  0  0  0  0  0  0  0  0
   68.2329   52.2534   54.6559 C   0  0  0  0  0  0  0  0  0  0  0  0
   68.6835   51.2761   53.8143 C   0  0  0  0  0  0  0  0  0  0  0  0
   70.0005   50.8830   53.8755 C   0  0  0  0  0  0  0  0  0  0  0  0
 10 11  2  0
 11  8  1  0
 11 12  1  0
  8  9  2  0
  8  1  1  0
  1  2  2  0
  1  6  1  0
  2  3  1  0
  3 19  1  0
  3  4  2  0
 19 20  1  0
 20 21  2  0
 20 30  1  0
 21 22  1  0
 22 23  1  0
 23 24  2  0
 23 25  1  0
 25 26  1  0
 25 30  2  0
 26 27  2  0
 27 28  1  0
 28 29  2  0
 29 30  1  0
  4  5  1  0
  5  6  2  0
  6  7  1  0
 12 13  2  0
 12 18  1  0
 13 14  1  0
 14 15  2  0
 15 16  1  0
 15 17  1  0
 17 18  2  0
M  END
>  <minimizedAffinity>  (93) 
-9.75220

$$$$
cs_full_output_folder/data/smiles/553.pdb
     RDKit          3D

 33 37  0  0  0  0  0  0  0  0999 V2000
   71.3017   46.8317   58.8273 C   0  0  0  0  0  0  0  0  0  0  0  0
   70.5601   47.6852   58.0572 C   0  0  0  0  0  0  0  0  0  0  0  0
   69.6985   47.1898   57.0647 C   0  0  0  0  0  0  0  0  0  0  0  0
   69.6471   45.8278   56.9190 C   0  0  0  0  0  0  0  0  0  0  0  0
   70.3956   44.9368   57.6933 C   0  0  0  0  0  0  0  0  0  0  0  0
   71.2284   45.4446   58.6545 C   0  0  0  0  0  0  0  0  0  0  0  0
   71.9987   44.6734   59.4603 F   0  0  0  0  0  0  0  0  0  0  0  0
   71.8630   47.2692   61.0542 O   0  0  0  0  0  0  0  0  0  0  0  0
   72.2036   47.3703   59.8701 C   0  0  0  0  0  0  0  0  0  0  0  0
   73.4323   47.9871   59.4929 N   0  0  0  0  0  0  0  0  0  0  0  0
   74.2274   48.4548   60.5921 C   0  0  0  0  0  0  0  0  0  0  0  0
   74.8836   49.7753   60.3744 C   0  0  0  0  0  0  0  0  0  0  0  0
   73.9539   50.7880   59.7220 C   0  0  0  0  0  0  0  0  0  0  0  0
   73.7923   50.5270   58.3144 N   0  0  0  0  0  0  0  0  0  0  0  0
   73.0638   51.3707   57.4669 C   0  0  0  0  0  0  0  0  0  0  0  0
   73.0384   51.0006   56.2244 O   0  0  0  0  0  0  0  0  0  0  0  0
   74.3997   49.3461   57.6661 C   0  0  0  0  0  0  0  0  0  0  0  0
   73.7248   48.0694   58.0856 C   0  0  0  0  0  0  0  0  0  0  0  0
   72.3324   52.5901   57.7375 C   0  0  0  0  0  0  0  0  0  0  0  0
   73.2253   53.8744   57.5844 C   0  0  0  0  0  0  0  0  0  0  0  0
   71.9642   53.6687   56.8569 C   0  0  0  0  0  0  0  0  0  0  0  0
   68.9164   48.1737   56.2899 C   0  0  0  0  0  0  0  0  0  0  0  0
   69.2842   48.2865   54.8716 C   0  0  0  0  0  0  0  0  0  0  0  0
   70.2011   49.2423   54.5124 N   0  0  0  0  0  0  0  0  0  0  0  0
   70.6092   49.3923   53.2698 N   0  0  0  0  0  0  0  0  0  0  0  0
   70.1787   48.6430   52.2532 C   0  0  0  0  0  0  0  0  0  0  0  0
   70.5790   48.8008   51.0819 O   0  0  0  0  0  0  0  0  0  0  0  0
   69.2587   47.6663   52.5407 C   0  0  0  0  0  0  0  0  0  0  0  0
   68.7554   46.8536   51.5357 C   0  0  0  0  0  0  0  0  0  0  0  0
   67.8530   45.9149   51.8239 N   0  0  0  0  0  0  0  0  0  0  0  0
   67.4210   45.7436   53.0731 C   0  0  0  0  0  0  0  0  0  0  0  0
   67.9095   46.5450   54.0991 C   0  0  0  0  0  0  0  0  0  0  0  0
   68.8329   47.5108   53.8404 C   0  0  0  0  0  0  0  0  0  0  0  0
  8  9  2  0
  9  1  1  0
  9 10  1  0
  1  2  2  0
  1  6  1  0
  2  3  1  0
  3 22  1  0
  3  4  2  0
 22 23  1  0
 23 24  2  0
 23 33  1  0
 24 25  1  0
 25 26  1  0
 26 27  2  0
 26 28  1  0
 28 29  1  0
 28 33  2  0
 29 30  2  0
 30 31  1  0
 31 32  2  0
 32 33  1  0
  4  5  1  0
  5  6  2  0
  6  7  1  0
 10 11  1  0
 10 18  1  0
 11 12  1  0
 12 13  1  0
 13 14  1  0
 14 15  1  0
 14 17  1  0
 15 16  2  0
 15 19  1  0
 19 20  1  0
 19 21  1  0
 20 21  1  0
 17 18  1  0
M  END
>  <minimizedAffinity>  (94) 
-9.74774

$$$$
cs_full_output_folder/data/smiles/607.pdb
     RDKit          3D

 28 30  0  0  0  0  0  0  0  0999 V2000
   68.3783   45.9996   54.0593 C   0  0  0  0  0  0  0  0  0  0  0  0
   67.8405   45.5776   52.8604 C   0  0  0  0  0  0  0  0  0  0  0  0
   67.9892   46.3209   51.6921 C   0  0  0  0  0  0  0  0  0  0  0  0
   68.6840   47.5122   51.6883 C   0  0  0  0  0  0  0  0  0  0  0  0
   69.2275   47.9472   52.8791 C   0  0  0  0  0  0  0  0  0  0  0  0
   69.0681   47.1974   54.0268 C   0  0  0  0  0  0  0  0  0  0  0  0
   67.8031   43.9015   55.3731 N   0  0  0  0  0  0  0  0  0  0  0  0
   68.2414   45.2480   55.3037 C   0  0  0  0  0  0  0  0  0  0  0  0
   68.5233   45.8059   56.3820 O   0  0  0  0  0  0  0  0  0  0  0  0
   67.5039   41.2272   55.4694 O   0  0  0  0  0  0  0  0  0  0  0  0
   67.5249   41.7899   56.6018 C   0  0  0  0  0  0  0  0  0  0  0  0
   67.6823   43.2018   56.5863 N   0  0  0  0  0  0  0  0  0  0  0  0
   67.3945   41.0097   57.8257 C   0  0  0  0  0  0  0  0  0  0  0  0
   67.9965   39.8044   58.0223 C   0  0  0  0  0  0  0  0  0  0  0  0
   67.8335   39.1018   59.2192 C   0  0  0  0  0  0  0  0  0  0  0  0
   67.0556   39.6087   60.2450 C   0  0  0  0  0  0  0  0  0  0  0  0
   66.4495   40.8210   60.0481 C   0  0  0  0  0  0  0  0  0  0  0  0
   65.4616   41.4783   61.3336 Cl  0  0  0  0  0  0  0  0  0  0  0  0
   66.6204   41.5074   58.8524 C   0  0  0  0  0  0  0  0  0  0  0  0
   70.1204   49.4445   52.9588 S   0  0  0  0  0  0  0  0  0  0  0  0
   69.7557   50.2829   51.7643 O   0  0  0  0  0  0  0  0  0  0  0  0
   71.5934   49.1008   52.9205 O   0  0  0  0  0  0  0  0  0  0  0  0
   69.8100   50.3433   54.3638 N   0  0  0  0  0  0  0  0  0  0  0  0
   68.6747   51.2167   54.2656 C   0  0  0  0  0  0  0  0  0  0  0  0
   68.3205   51.7635   55.6306 C   0  0  0  0  0  0  0  0  0  0  0  0
   69.5196   52.3656   56.3237 C   0  0  0  0  0  0  0  0  0  0  0  0
   70.7095   52.3932   55.3802 C   0  0  0  0  0  0  0  0  0  0  0  0
   70.9633   50.9600   54.9454 C   0  0  0  0  0  0  0  0  0  0  0  0
 10 11  2  0
 11 12  1  0
 11 13  1  0
 12  7  1  0
  7  8  1  0
  8  9  2  0
  8  1  1  0
  1  2  2  0
  1  6  1  0
  2  3  1  0
  3  4  2  0
  4  5  1  0
  5 20  1  0
  5  6  2  0
 20 21  2  0
 20 22  2  0
 20 23  1  0
 23 24  1  0
 23 28  1  0
 24 25  1  0
 25 26  1  0
 26 27  1  0
 27 28  1  0
 13 14  2  0
 13 19  1  0
 14 15  1  0
 15 16  2  0
 16 17  1  0
 17 18  1  0
 17 19  2  0
M  END
>  <minimizedAffinity>  (95) 
-9.74200

$$$$
cs_full_output_folder/data/smiles/2396.pdb
     RDKit          3D

 27 28  0  0  0  0  0  0  0  0999 V2000
   69.8048   49.1851   52.5712 S   0  0  0  0  0  0  0  0  0  0  0  0
   69.6075   49.1943   51.0705 O   0  0  0  0  0  0  0  0  0  0  0  0
   71.3059   49.1389   52.8345 O   0  0  0  0  0  0  0  0  0  0  0  0
   69.1123   47.7305   53.2242 C   0  0  0  0  0  0  0  0  0  0  0  0
   68.4436   46.8185   52.4132 C   0  0  0  0  0  0  0  0  0  0  0  0
   68.3054   47.0290   51.0763 F   0  0  0  0  0  0  0  0  0  0  0  0
   67.8926   45.6652   52.9297 C   0  0  0  0  0  0  0  0  0  0  0  0
   67.2400   44.7798   52.1218 F   0  0  0  0  0  0  0  0  0  0  0  0
   67.9847   45.3712   54.2749 C   0  0  0  0  0  0  0  0  0  0  0  0
   67.4358   44.2316   54.7542 F   0  0  0  0  0  0  0  0  0  0  0  0
   68.6524   46.2763   55.0967 C   0  0  0  0  0  0  0  0  0  0  0  0
   68.7306   45.9718   56.4022 F   0  0  0  0  0  0  0  0  0  0  0  0
   69.1974   47.4262   54.5671 C   0  0  0  0  0  0  0  0  0  0  0  0
   69.8370   48.2619   55.4472 F   0  0  0  0  0  0  0  0  0  0  0  0
   69.2356   50.6344   53.2650 N   0  0  0  0  0  0  0  0  0  0  0  0
   72.0877   51.6290   55.4792 C   0  0  0  0  0  0  0  0  0  0  0  0
   71.2960   50.9852   54.5624 C   0  0  0  0  0  0  0  0  0  0  0  0
   70.0139   51.3547   54.2032 C   0  0  0  0  0  0  0  0  0  0  0  0
   69.4837   52.4815   54.8310 C   0  0  0  0  0  0  0  0  0  0  0  0
   68.2316   52.8710   54.5040 F   0  0  0  0  0  0  0  0  0  0  0  0
   70.2263   53.1706   55.7578 C   0  0  0  0  0  0  0  0  0  0  0  0
   71.4921   52.7547   56.0711 C   0  0  0  0  0  0  0  0  0  0  0  0
   72.2361   53.4296   56.9872 F   0  0  0  0  0  0  0  0  0  0  0  0
   75.7013   50.2852   55.5512 C   0  0  0  0  0  0  0  0  0  0  0  0
   74.3393   50.6238   55.0202 C   0  0  0  0  0  0  0  0  0  0  0  0
   74.1044   50.3189   53.8411 O   0  0  0  0  0  0  0  0  0  0  0  0
   73.4018   51.2557   55.8497 N   0  0  0  0  0  0  0  0  0  0  0  0
 24 25  1  0
 25 26  2  0
 25 27  1  0
 27 16  1  0
 16 17  2  0
 16 22  1  0
 17 18  1  0
 18 15  1  0
 18 19  2  0
 15  1  1  0
  1  2  2  0
  1  3  2  0
  1  4  1  0
  4  5  2  0
  4 13  1  0
  5  6  1  0
  5  7  1  0
  7  8  1  0
  7  9  2  0
  9 10  1  0
  9 11  1  0
 11 12  1  0
 11 13  2  0
 13 14  1  0
 19 20  1  0
 19 21  1  0
 21 22  2  0
 22 23  1  0
M  END
>  <minimizedAffinity>  (96) 
-9.73764

$$$$
cs_full_output_folder/data/smiles/807.pdb
     RDKit          3D

 31 35  0  0  0  0  0  0  0  0999 V2000
   71.4778   47.3247   58.9726 C   0  0  0  0  0  0  0  0  0  0  0  0
   71.4893   45.9579   58.8208 C   0  0  0  0  0  0  0  0  0  0  0  0
   70.6672   45.3743   57.8804 C   0  0  0  0  0  0  0  0  0  0  0  0
   69.8401   46.1308   57.0949 C   0  0  0  0  0  0  0  0  0  0  0  0
   69.7923   47.5276   57.2131 C   0  0  0  0  0  0  0  0  0  0  0  0
   70.6213   48.0673   58.1545 C   0  0  0  0  0  0  0  0  0  0  0  0
   72.2015   47.7533   61.1716 O   0  0  0  0  0  0  0  0  0  0  0  0
   72.3435   47.9754   59.9410 C   0  0  0  0  0  0  0  0  0  0  0  0
   73.3462   48.8563   59.5055 N   0  0  0  0  0  0  0  0  0  0  0  0
   74.3237   49.6162   60.2695 C   0  0  0  0  0  0  0  0  0  0  0  0
   74.5302   50.8912   59.4707 C   0  0  0  0  0  0  0  0  0  0  0  0
   73.7848   50.6460   58.2692 N   0  0  0  0  0  0  0  0  0  0  0  0
   73.6371   49.2244   58.1275 C   0  0  0  0  0  0  0  0  0  0  0  0
   73.2792   51.6219   57.3948 C   0  0  0  0  0  0  0  0  0  0  0  0
   72.3916   51.3278   56.3658 C   0  0  0  0  0  0  0  0  0  0  0  0
   71.8902   52.2873   55.5203 C   0  0  0  0  0  0  0  0  0  0  0  0
   72.2760   53.6032   55.6893 C   0  0  0  0  0  0  0  0  0  0  0  0
   73.1549   53.8926   56.7081 C   0  0  0  0  0  0  0  0  0  0  0  0
   73.6332   52.9264   57.5251 N   0  0  0  0  0  0  0  0  0  0  0  0
   68.9005   48.3033   56.3314 C   0  0  0  0  0  0  0  0  0  0  0  0
   69.3433   48.3207   54.9535 C   0  0  0  0  0  0  0  0  0  0  0  0
   70.3071   49.2031   54.5781 N   0  0  0  0  0  0  0  0  0  0  0  0
   70.7641   49.3366   53.3609 N   0  0  0  0  0  0  0  0  0  0  0  0
   70.2987   48.5851   52.3514 C   0  0  0  0  0  0  0  0  0  0  0  0
   70.7286   48.6992   51.1565 O   0  0  0  0  0  0  0  0  0  0  0  0
   69.3200   47.6682   52.6581 C   0  0  0  0  0  0  0  0  0  0  0  0
   68.8266   46.8461   51.6423 C   0  0  0  0  0  0  0  0  0  0  0  0
   67.8764   45.9133   51.9353 C   0  0  0  0  0  0  0  0  0  0  0  0
   67.4018   45.7833   53.2387 C   0  0  0  0  0  0  0  0  0  0  0  0
   67.8722   46.5815   54.2505 C   0  0  0  0  0  0  0  0  0  0  0  0
   68.8305   47.5205   53.9485 C   0  0  0  0  0  0  0  0  0  0  0  0
  7  8  2  0
  8  1  1  0
  8  9  1  0
  1  2  2  0
  1  6  1  0
  2  3  1  0
  3  4  2  0
  4  5  1  0
  5 20  1  0
  5  6  2  0
 20 21  1  0
 21 22  2  0
 21 31  1  0
 22 23  1  0
 23 24  1  0
 24 25  2  0
 24 26  1  0
 26 27  1  0
 26 31  2  0
 27 28  2  0
 28 29  1  0
 29 30  2  0
 30 31  1  0
  9 10  1  0
  9 13  1  0
 10 11  1  0
 11 12  1  0
 12 14  1  0
 12 13  1  0
 14 15  2  0
 14 19  1  0
 15 16  1  0
 16 17  2  0
 17 18  1  0
 18 19  2  0
M  END
>  <minimizedAffinity>  (97) 
-9.73675

$$$$
cs_full_output_folder/data/smiles/533.pdb
     RDKit          3D

 28 30  0  0  0  0  0  0  0  0999 V2000
   69.2326   47.9423   52.9771 C   0  0  0  0  0  0  0  0  0  0  0  0
   68.6128   47.4939   51.8325 C   0  0  0  0  0  0  0  0  0  0  0  0
   67.8821   46.3078   51.8208 C   0  0  0  0  0  0  0  0  0  0  0  0
   67.7670   45.5581   52.9623 C   0  0  0  0  0  0  0  0  0  0  0  0
   68.3816   45.9905   54.1187 C   0  0  0  0  0  0  0  0  0  0  0  0
   69.1012   47.1638   54.1215 C   0  0  0  0  0  0  0  0  0  0  0  0
   70.1276   49.4356   52.9227 S   0  0  0  0  0  0  0  0  0  0  0  0
   71.6122   49.1376   52.9481 O   0  0  0  0  0  0  0  0  0  0  0  0
   69.8686   50.1236   51.6103 O   0  0  0  0  0  0  0  0  0  0  0  0
   68.4551   49.4709   57.6564 C   0  0  0  0  0  0  0  0  0  0  0  0
   68.5787   50.1922   56.3460 C   0  0  1  0  0  0  0  0  0  0  0  0
   68.8046   51.6867   56.5410 C   0  0  0  0  0  0  0  0  0  0  0  0
   68.5307   52.3243   55.1984 C   0  0  0  0  0  0  0  0  0  0  0  0
   68.7709   51.3952   54.0491 C   0  0  0  0  0  0  0  0  0  0  0  0
   69.7186   50.3825   54.2645 N   0  0  0  0  0  0  0  0  0  0  0  0
   69.7398   49.7087   55.5080 C   0  0  0  0  0  0  0  0  0  0  0  0
   68.2497   45.1873   55.3257 C   0  0  0  0  0  0  0  0  0  0  0  0
   68.5609   45.6444   56.4683 O   0  0  0  0  0  0  0  0  0  0  0  0
   67.7688   43.8513   55.3200 N   0  0  0  0  0  0  0  0  0  0  0  0
   67.6655   43.1294   56.5161 N   0  0  0  0  0  0  0  0  0  0  0  0
   67.5065   41.7272   56.5698 C   0  0  0  0  0  0  0  0  0  0  0  0
   67.4591   41.1275   55.4682 O   0  0  0  0  0  0  0  0  0  0  0  0
   67.3984   40.9606   57.8041 C   0  0  0  0  0  0  0  0  0  0  0  0
   66.6876   41.3868   58.8956 C   0  0  0  0  0  0  0  0  0  0  0  0
   66.6142   40.6229   60.0417 C   0  0  0  0  0  0  0  0  0  0  0  0
   67.2472   39.4046   60.1422 C   0  0  0  0  0  0  0  0  0  0  0  0
   67.9635   38.9583   59.0644 C   0  0  0  0  0  0  0  0  0  0  0  0
   68.0269   39.7360   57.9230 C   0  0  0  0  0  0  0  0  0  0  0  0
 11 10  1  1
 11 12  1  0
 11 16  1  0
 12 13  1  0
 13 14  1  0
 14 15  1  0
 15  7  1  0
 15 16  1  0
  7  8  2  0
  7  9  2  0
  7  1  1  0
  1  2  2  0
  1  6  1  0
  2  3  1  0
  3  4  2  0
  4  5  1  0
  5 17  1  0
  5  6  2  0
 17 18  2  0
 17 19  1  0
 19 20  1  0
 20 21  1  0
 21 22  2  0
 21 23  1  0
 23 24  2  0
 23 28  1  0
 24 25  1  0
 25 26  2  0
 26 27  1  0
 27 28  2  0
M  END
>  <minimizedAffinity>  (98) 
-9.73658

$$$$
cs_full_output_folder/data/smiles/6332.pdb
     RDKit          3D

 33 38  0  0  0  0  0  0  0  0999 V2000
   71.2425   46.5385   58.7645 C   0  0  0  0  0  0  0  0  0  0  0  0
   70.4332   47.3188   57.9777 C   0  0  0  0  0  0  0  0  0  0  0  0
   69.5591   46.8083   57.0080 C   0  0  0  0  0  0  0  0  0  0  0  0
   69.5296   45.4511   56.8563 C   0  0  0  0  0  0  0  0  0  0  0  0
   70.3373   44.6132   57.6373 C   0  0  0  0  0  0  0  0  0  0  0  0
   71.1807   45.1676   58.5781 C   0  0  0  0  0  0  0  0  0  0  0  0
   71.9794   44.3801   59.3529 F   0  0  0  0  0  0  0  0  0  0  0  0
   71.6682   47.2877   60.9228 O   0  0  0  0  0  0  0  0  0  0  0  0
   72.1391   47.0788   59.7570 C   0  0  0  0  0  0  0  0  0  0  0  0
   73.4899   47.3912   59.5396 N   0  0  0  0  0  0  0  0  0  0  0  0
   74.4851   47.9314   60.4428 C   0  0  0  0  0  0  0  0  0  0  0  0
   75.0826   49.0379   59.6442 C   0  0  1  0  0  0  0  0  0  0  0  0
   76.5772   49.1966   59.8495 C   0  0  0  0  0  0  0  0  0  0  0  0
   77.0901   49.2692   58.5323 N   0  0  1  0  0  0  0  0  0  0  0  0
   76.2644   48.5580   57.6379 C   0  0  0  0  0  0  0  0  0  0  0  0
   74.8719   48.6251   58.2155 C   0  0  1  0  0  0  0  0  0  0  0  0
   74.2278   47.2304   58.2767 C   0  0  0  0  0  0  0  0  0  0  0  0
   77.7529   50.4281   58.1130 C   0  0  0  0  0  0  0  0  0  0  0  0
   78.1761   50.5431   56.6986 C   0  0  0  0  0  0  0  0  0  0  0  0
   79.2668   49.8101   56.0601 C   0  0  0  0  0  0  0  0  0  0  0  0
   79.5547   51.1996   56.4868 C   0  0  0  0  0  0  0  0  0  0  0  0
   68.7625   47.7896   56.2138 C   0  0  0  0  0  0  0  0  0  0  0  0
   69.2283   47.9836   54.8445 C   0  0  0  0  0  0  0  0  0  0  0  0
   70.1670   48.9336   54.6140 N   0  0  0  0  0  0  0  0  0  0  0  0
   70.6158   49.2084   53.4295 N   0  0  0  0  0  0  0  0  0  0  0  0
   70.1819   48.5693   52.3295 C   0  0  0  0  0  0  0  0  0  0  0  0
   70.6352   48.8579   51.2007 O   0  0  0  0  0  0  0  0  0  0  0  0
   69.2275   47.5932   52.5102 C   0  0  0  0  0  0  0  0  0  0  0  0
   68.7439   46.8875   51.4252 C   0  0  0  0  0  0  0  0  0  0  0  0
   67.8004   45.8960   51.5456 C   0  0  0  0  0  0  0  0  0  0  0  0
   67.3246   45.6032   52.8073 C   0  0  0  0  0  0  0  0  0  0  0  0
   67.7907   46.2945   53.9186 C   0  0  0  0  0  0  0  0  0  0  0  0
   68.7311   47.2821   53.7800 C   0  0  0  0  0  0  0  0  0  0  0  0
  8  9  2  0
  9  1  1  0
  9 10  1  0
  1  2  2  0
  1  6  1  0
  2  3  1  0
  3 22  1  0
  3  4  2  0
 22 23  1  0
 23 24  2  0
 23 33  1  0
 24 25  1  0
 25 26  1  0
 26 27  2  0
 26 28  1  0
 28 29  1  0
 28 33  2  0
 29 30  2  0
 30 31  1  0
 31 32  2  0
 32 33  1  0
  4  5  1  0
  5  6  2  0
  6  7  1  0
 10 11  1  0
 10 17  1  0
 12 11  1  1
 12 13  1  0
 12 16  1  0
 13 14  1  0
 14 18  1  6
 14 15  1  0
 18 19  1  0
 19 20  1  0
 19 21  1  0
 20 21  1  0
 16 15  1  6
 16 17  1  0
M  CHG  1  14   1
M  END
>  <minimizedAffinity>  (99) 
-9.73473

$$$$
cs_full_output_folder/data/smiles/7783.pdb
     RDKit          3D

 30 34  0  0  0  0  0  0  0  0999 V2000
   71.3140   46.6551   58.8044 C   0  0  0  0  0  0  0  0  0  0  0  0
   70.4612   47.4196   58.0416 C   0  0  0  0  0  0  0  0  0  0  0  0
   69.6179   46.8543   57.0980 C   0  0  0  0  0  0  0  0  0  0  0  0
   69.6221   45.4929   56.9050 C   0  0  0  0  0  0  0  0  0  0  0  0
   70.4779   44.6921   57.6669 C   0  0  0  0  0  0  0  0  0  0  0  0
   71.3145   45.2959   58.6098 C   0  0  0  0  0  0  0  0  0  0  0  0
   72.1275   44.4738   59.3233 F   0  0  0  0  0  0  0  0  0  0  0  0
   71.7393   47.3218   60.9843 O   0  0  0  0  0  0  0  0  0  0  0  0
   72.1992   47.2302   59.7930 C   0  0  0  0  0  0  0  0  0  0  0  0
   73.5034   47.6733   59.4833 N   0  0  0  0  0  0  0  0  0  0  0  0
   74.4481   48.2555   60.3985 C   0  0  0  0  0  0  0  0  0  0  0  0
   75.2395   49.2312   59.5129 C   0  0  2  0  0  0  0  0  0  0  0  0
   74.7027   50.5943   59.7737 C   0  0  0  0  0  0  0  0  0  0  0  0
   73.6839   50.9512   58.6834 C   0  0  0  0  0  0  0  0  0  0  0  0
   74.4665   51.0104   57.4627 N   0  0  0  0  0  0  0  0  0  0  0  0
   74.7934   49.6818   57.0687 C   0  0  0  0  0  0  0  0  0  0  0  0
   75.1455   48.7321   58.1367 C   0  0  2  0  0  0  0  0  0  0  0  0
   74.1409   47.6299   58.1960 C   0  0  0  0  0  0  0  0  0  0  0  0
   68.7091   47.6844   56.2865 C   0  0  0  0  0  0  0  0  0  0  0  0
   69.2612   48.0145   54.9507 C   0  0  0  0  0  0  0  0  0  0  0  0
   70.2040   48.9503   54.7537 N   0  0  0  0  0  0  0  0  0  0  0  0
   70.6485   49.1879   53.5222 N   0  0  0  0  0  0  0  0  0  0  0  0
   70.2020   48.5358   52.4401 C   0  0  0  0  0  0  0  0  0  0  0  0
   70.6639   48.8073   51.3003 O   0  0  0  0  0  0  0  0  0  0  0  0
   69.2286   47.5570   52.5756 C   0  0  0  0  0  0  0  0  0  0  0  0
   68.7414   46.8613   51.4879 C   0  0  0  0  0  0  0  0  0  0  0  0
   67.7748   45.8989   51.6677 C   0  0  0  0  0  0  0  0  0  0  0  0
   67.3218   45.6604   52.9483 C   0  0  0  0  0  0  0  0  0  0  0  0
   67.8092   46.3564   54.0316 C   0  0  0  0  0  0  0  0  0  0  0  0
   68.7786   47.3253   53.8727 C   0  0  0  0  0  0  0  0  0  0  0  0
  8  9  2  0
  9  1  1  0
  9 10  1  0
  1  2  2  0
  1  6  1  0
  2  3  1  0
  3 19  1  0
  3  4  2  0
 19 20  1  0
 20 21  2  0
 20 30  1  0
 21 22  1  0
 22 23  1  0
 23 24  2  0
 23 25  1  0
 25 26  1  0
 25 30  2  0
 26 27  2  0
 27 28  1  0
 28 29  2  0
 29 30  1  0
  4  5  1  0
  5  6  2  0
  6  7  1  0
 10 11  1  0
 10 18  1  0
 12 11  1  1
 12 13  1  0
 12 17  1  0
 13 14  1  0
 14 15  1  0
 15 16  1  0
 17 16  1  6
 17 18  1  0
M  CHG  1  15   1
M  END
>  <minimizedAffinity>  (100) 
-9.73309

$$$$
cs_full_output_folder/data/smiles/564.pdb
     RDKit          3D

 32 36  0  0  0  0  0  0  0  0999 V2000
   70.6235   45.8162   58.3256 C   0  0  0  0  0  0  0  0  0  0  0  0
   69.7938   46.5016   57.4272 C   0  0  0  0  0  0  0  0  0  0  0  0
   69.9052   47.8292   57.1621 C   0  0  0  0  0  0  0  0  0  0  0  0
   70.9286   48.5142   57.8520 C   0  0  0  0  0  0  0  0  0  0  0  0
   71.7702   47.8983   58.7407 C   0  0  0  0  0  0  0  0  0  0  0  0
   71.5963   46.5271   58.9653 C   0  0  0  0  0  0  0  0  0  0  0  0
   72.4580   45.9909   59.8532 F   0  0  0  0  0  0  0  0  0  0  0  0
   69.7086   44.0592   59.5585 O   0  0  0  0  0  0  0  0  0  0  0  0
   70.4332   44.4110   58.5572 C   0  0  0  0  0  0  0  0  0  0  0  0
   70.9804   43.2980   57.7672 C   0  0  2  0  0  0  0  0  0  0  0  0
   70.3105   41.9896   57.9271 C   0  0  0  0  0  0  0  0  0  0  0  0
   71.2927   40.9698   58.4803 C   0  0  0  0  0  0  0  0  0  0  0  0
   71.9987   41.6565   59.6275 C   0  0  0  0  0  0  0  0  0  0  0  0
   73.0031   42.5470   58.9902 N   0  0  0  0  0  0  0  0  0  0  0  0
   74.2889   42.5645   59.5541 C   0  0  0  0  0  0  0  0  0  0  0  0
   74.4610   41.7994   60.5880 O   0  0  0  0  0  0  0  0  0  0  0  0
   72.5116   43.2584   57.8644 C   0  0  0  0  0  0  0  0  0  0  0  0
   75.4683   43.3125   59.1521 C   0  0  0  0  0  0  0  0  0  0  0  0
   76.4135   42.5559   58.1915 C   0  0  0  0  0  0  0  0  0  0  0  0
   76.8451   43.0843   59.5446 C   0  0  0  0  0  0  0  0  0  0  0  0
   69.0346   48.5990   56.2242 C   0  0  0  0  0  0  0  0  0  0  0  0
   69.4660   48.5509   54.8266 C   0  0  0  0  0  0  0  0  0  0  0  0
   70.3683   49.4607   54.3661 N   0  0  0  0  0  0  0  0  0  0  0  0
   70.7167   49.5032   53.0937 N   0  0  0  0  0  0  0  0  0  0  0  0
   70.2163   48.6686   52.1843 C   0  0  0  0  0  0  0  0  0  0  0  0
   70.5343   48.6895   50.9528 O   0  0  0  0  0  0  0  0  0  0  0  0
   69.2987   47.7160   52.5656 C   0  0  0  0  0  0  0  0  0  0  0  0
   68.7812   46.8237   51.6365 C   0  0  0  0  0  0  0  0  0  0  0  0
   67.8907   45.8859   52.0873 C   0  0  0  0  0  0  0  0  0  0  0  0
   67.5290   45.8361   53.4105 C   0  0  0  0  0  0  0  0  0  0  0  0
   68.0407   46.7195   54.3300 C   0  0  0  0  0  0  0  0  0  0  0  0
   68.9309   47.6736   53.9240 C   0  0  0  0  0  0  0  0  0  0  0  0
  8  9  2  0
  9  1  1  0
 10  9  1  1
  1  2  2  0
  1  6  1  0
  2  3  1  0
  3 21  1  0
  3  4  2  0
 21 22  1  0
 22 23  2  0
 22 32  1  0
 23 24  1  0
 24 25  1  0
 25 26  2  0
 25 27  1  0
 27 28  1  0
 27 32  2  0
 28 29  2  0
 29 30  1  0
 30 31  2  0
 31 32  1  0
  4  5  1  0
  5  6  2  0
  6  7  1  0
 10 11  1  0
 10 17  1  0
 11 12  1  0
 12 13  1  0
 13 14  1  0
 14 15  1  0
 14 17  1  0
 15 16  2  0
 15 18  1  0
 18 19  1  0
 18 20  1  0
 19 20  1  0
M  END
>  <minimizedAffinity>  (101) 
-9.73105

$$$$
cs_full_output_folder/data/smiles/1508.pdb
     RDKit          3D

 28 29  0  0  0  0  0  0  0  0999 V2000
   70.4872   44.7086   58.6025 C   0  0  0  0  0  0  0  0  0  0  0  0
   71.7271   45.3834   59.5437 S   0  0  0  0  0  0  0  0  0  0  0  0
   71.2428   42.3328   58.0904 C   0  0  0  0  0  0  0  0  0  0  0  0
   72.1754   42.6753   57.3489 O   0  0  0  0  0  0  0  0  0  0  0  0
   70.4464   43.3268   58.6763 N   0  0  0  0  0  0  0  0  0  0  0  0
   71.3399   38.6194   58.7216 C   0  0  0  0  0  0  0  0  0  0  0  0
   70.0538   38.8484   58.6305 C   0  0  0  0  0  0  0  0  0  0  0  0
   69.8549   40.2632   58.3824 C   0  0  0  0  0  0  0  0  0  0  0  0
   71.0090   40.8877   58.3251 C   0  0  0  0  0  0  0  0  0  0  0  0
   72.0612   39.8921   58.5487 C   0  0  0  0  0  0  0  0  0  0  0  0
   72.0234   37.3083   58.9716 C   0  0  0  0  0  0  0  0  0  0  0  0
   73.1186   37.5387   59.9604 C   0  0  0  0  0  0  0  0  0  0  0  0
   71.0388   36.3435   59.6375 C   0  0  0  0  0  0  0  0  0  0  0  0
   72.5155   35.1703   57.7521 C   0  0  0  0  0  0  0  0  0  0  0  0
   72.4346   36.6762   57.6893 C   0  0  0  0  0  0  0  0  0  0  0  0
   69.7571   45.6351   57.9059 N   0  0  0  0  0  0  0  0  0  0  0  0
   69.7485   45.8334   56.5346 N   0  0  0  0  0  0  0  0  0  0  0  0
   68.6983   46.6001   55.9023 C   0  0  0  0  0  0  0  0  0  0  0  0
   67.8010   47.0791   56.6274 O   0  0  0  0  0  0  0  0  0  0  0  0
   68.7120   46.7920   54.4688 C   0  0  0  0  0  0  0  0  0  0  0  0
   67.9505   45.8891   53.7141 C   0  0  0  0  0  0  0  0  0  0  0  0
   67.8566   45.9324   52.3517 C   0  0  0  0  0  0  0  0  0  0  0  0
   68.5354   46.9012   51.6729 C   0  0  0  0  0  0  0  0  0  0  0  0
   69.2935   47.8044   52.3856 C   0  0  0  0  0  0  0  0  0  0  0  0
   69.3801   47.7474   53.7779 C   0  0  0  0  0  0  0  0  0  0  0  0
   70.0017   48.8132   51.6965 N   0  0  0  0  0  0  0  0  0  0  0  0
   70.7464   48.5419   50.7457 O   0  0  0  0  0  0  0  0  0  0  0  0
   69.8903   50.1289   52.0569 O   0  0  0  0  0  0  0  0  0  0  0  0
 14 15  1  0
 15 11  1  0
 11 12  1  0
 11 13  1  0
 11  6  1  0
  6  7  2  0
  6 10  1  0
  7  8  1  0
  8  9  2  0
  9  3  1  0
  9 10  1  0
  3  4  2  0
  3  5  1  0
  5  1  1  0
  1  2  2  0
  1 16  1  0
 16 17  1  0
 17 18  1  0
 18 19  2  0
 18 20  1  0
 20 21  2  0
 20 25  1  0
 21 22  1  0
 22 23  2  0
 23 24  1  0
 24 26  1  0
 24 25  2  0
 26 27  2  0
 26 28  1  0
M  CHG  2  26   1  28  -1
M  END
>  <minimizedAffinity>  (102) 
-9.72476

$$$$
cs_full_output_folder/data/smiles/6048.pdb
     RDKit          3D

 30 34  0  0  0  0  0  0  0  0999 V2000
   71.4869   47.1033   58.7285 C   0  0  0  0  0  0  0  0  0  0  0  0
   70.6809   47.8893   57.9705 C   0  0  0  0  0  0  0  0  0  0  0  0
   69.7567   47.3508   57.0752 C   0  0  0  0  0  0  0  0  0  0  0  0
   69.6898   45.9928   56.9855 C   0  0  0  0  0  0  0  0  0  0  0  0
   70.5074   45.1740   57.7518 C   0  0  0  0  0  0  0  0  0  0  0  0
   71.4163   45.7192   58.6336 C   0  0  0  0  0  0  0  0  0  0  0  0
   72.2151   44.9324   59.3819 F   0  0  0  0  0  0  0  0  0  0  0  0
   78.0522   50.6536   57.1436 C   0  0  0  0  0  0  0  0  0  0  0  0
   76.6709   50.3966   57.5859 N   0  0  0  0  0  0  0  0  0  0  0  0
   76.2300   49.2167   56.8991 C   0  0  0  0  0  0  0  0  0  0  0  0
   75.4492   48.4717   57.9126 C   0  0  0  0  0  0  0  0  0  0  0  0
   75.7130   48.9625   59.0985 C   0  0  0  0  0  0  0  0  0  0  0  0
   76.6958   50.0816   58.9913 C   0  0  0  0  0  0  0  0  0  0  0  0
   74.9232   48.2245   60.1599 C   0  0  0  0  0  0  0  0  0  0  0  0
   73.8317   47.7303   59.3499 N   0  0  0  0  0  0  0  0  0  0  0  0
   72.4619   47.6312   59.6805 C   0  0  0  0  0  0  0  0  0  0  0  0
   72.0114   47.9884   60.7984 O   0  0  0  0  0  0  0  0  0  0  0  0
   74.4561   47.3493   58.1133 C   0  0  0  0  0  0  0  0  0  0  0  0
   68.8943   48.3192   56.3100 C   0  0  0  0  0  0  0  0  0  0  0  0
   69.3226   48.4501   54.9071 C   0  0  0  0  0  0  0  0  0  0  0  0
   70.2382   49.3834   54.5362 N   0  0  0  0  0  0  0  0  0  0  0  0
   70.6609   49.4660   53.2952 N   0  0  0  0  0  0  0  0  0  0  0  0
   70.2496   48.6736   52.3151 C   0  0  0  0  0  0  0  0  0  0  0  0
   70.6314   48.7262   51.1306 O   0  0  0  0  0  0  0  0  0  0  0  0
   69.3059   47.6898   52.6187 C   0  0  0  0  0  0  0  0  0  0  0  0
   68.8287   46.8477   51.6402 C   0  0  0  0  0  0  0  0  0  0  0  0
   67.8867   45.9018   51.9737 C   0  0  0  0  0  0  0  0  0  0  0  0
   67.4000   45.7633   53.2508 C   0  0  0  0  0  0  0  0  0  0  0  0
   67.9087   46.6340   54.2113 C   0  0  0  0  0  0  0  0  0  0  0  0
   68.8591   47.6034   53.9326 C   0  0  0  0  0  0  0  0  0  0  0  0
  8  9  1  0
  9 10  1  0
  9 13  1  0
 10 11  1  0
 11 12  2  0
 11 18  1  0
 12 13  1  0
 12 14  1  0
 14 15  1  0
 15 16  1  0
 15 18  1  0
 16 17  2  0
 16  1  1  0
  1  2  2  0
  1  6  1  0
  2  3  1  0
  3 19  1  0
  3  4  2  0
 19 20  1  0
 20 21  2  0
 20 30  1  0
 21 22  1  0
 22 23  1  0
 23 24  2  0
 23 25  1  0
 25 26  1  0
 25 30  2  0
 26 27  2  0
 27 28  1  0
 28 29  2  0
 29 30  1  0
  4  5  1  0
  5  6  2  0
  6  7  1  0
M  CHG  1   9   1
M  END
>  <minimizedAffinity>  (103) 
-9.72190

$$$$
cs_full_output_folder/data/smiles/1931.pdb
     RDKit          3D

 29 31  0  0  0  0  0  0  0  0999 V2000
   69.2649   47.9668   52.9771 C   0  0  0  0  0  0  0  0  0  0  0  0
   68.6853   47.5044   51.8167 C   0  0  0  0  0  0  0  0  0  0  0  0
   67.9766   46.3123   51.8422 C   0  0  0  0  0  0  0  0  0  0  0  0
   67.8544   45.5957   53.0214 C   0  0  0  0  0  0  0  0  0  0  0  0
   68.4297   46.0457   54.1950 C   0  0  0  0  0  0  0  0  0  0  0  0
   69.1214   47.2246   54.1361 C   0  0  0  0  0  0  0  0  0  0  0  0
   70.1566   49.4635   52.9527 S   0  0  0  0  0  0  0  0  0  0  0  0
   71.6159   49.1243   52.9173 O   0  0  0  0  0  0  0  0  0  0  0  0
   69.7617   50.2023   51.6997 O   0  0  0  0  0  0  0  0  0  0  0  0
   71.2392   51.2705   56.8889 C   0  0  0  0  0  0  0  0  0  0  0  0
   70.9047   52.1622   55.7228 C   0  0  2  0  0  0  0  0  0  0  0  0
   69.5473   52.8051   55.8766 C   0  0  0  0  0  0  0  0  0  0  0  0
   68.6802   52.5445   54.6711 C   0  0  0  0  0  0  0  0  0  0  0  0
   68.5914   51.0669   54.3484 C   0  0  0  0  0  0  0  0  0  0  0  0
   69.8771   50.4166   54.3572 N   0  0  0  0  0  0  0  0  0  0  0  0
   70.9408   51.4066   54.4229 C   0  0  0  0  0  0  0  0  0  0  0  0
   68.2912   45.2853   55.4147 C   0  0  0  0  0  0  0  0  0  0  0  0
   68.5381   45.8655   56.5236 O   0  0  0  0  0  0  0  0  0  0  0  0
   67.8956   43.9251   55.4479 N   0  0  0  0  0  0  0  0  0  0  0  0
   67.7732   43.2180   56.6638 N   0  0  0  0  0  0  0  0  0  0  0  0
   67.5443   41.8214   56.6041 C   0  0  0  0  0  0  0  0  0  0  0  0
   67.4580   41.2543   55.4745 O   0  0  0  0  0  0  0  0  0  0  0  0
   67.4022   40.9986   57.8599 C   0  0  0  0  0  0  0  0  0  0  0  0
   68.6848   40.3136   58.1639 C   0  0  0  0  0  0  0  0  0  0  0  0
   68.6984   38.9672   58.4812 C   0  0  0  0  0  0  0  0  0  0  0  0
   69.8975   38.3227   58.7660 C   0  0  0  0  0  0  0  0  0  0  0  0
   71.0869   39.0295   58.7345 C   0  0  0  0  0  0  0  0  0  0  0  0
   71.0340   40.3642   58.4170 C   0  0  0  0  0  0  0  0  0  0  0  0
   69.8544   40.9647   58.1433 N   0  0  0  0  0  0  0  0  0  0  0  0
 11 10  1  1
 11 12  1  0
 11 16  1  0
 12 13  1  0
 13 14  1  0
 14 15  1  0
 15  7  1  0
 15 16  1  0
  7  8  2  0
  7  9  2  0
  7  1  1  0
  1  2  2  0
  1  6  1  0
  2  3  1  0
  3  4  2  0
  4  5  1  0
  5 17  1  0
  5  6  2  0
 17 18  2  0
 17 19  1  0
 19 20  1  0
 20 21  1  0
 21 22  2  0
 21 23  1  0
 23 24  1  0
 24 25  2  0
 24 29  1  0
 25 26  1  0
 26 27  2  0
 27 28  1  0
 28 29  2  0
M  END
>  <minimizedAffinity>  (104) 
-9.72141

$$$$
cs_full_output_folder/data/smiles/478.pdb
     RDKit          3D

 28 30  0  0  0  0  0  0  0  0999 V2000
   68.4332   45.9264   54.2511 C   0  0  0  0  0  0  0  0  0  0  0  0
   67.8721   45.5424   53.0337 C   0  0  0  0  0  0  0  0  0  0  0  0
   68.0128   46.3081   51.8954 C   0  0  0  0  0  0  0  0  0  0  0  0
   68.7225   47.4909   51.9341 C   0  0  0  0  0  0  0  0  0  0  0  0
   69.2901   47.9002   53.1193 C   0  0  0  0  0  0  0  0  0  0  0  0
   69.1293   47.1168   54.2224 C   0  0  0  0  0  0  0  0  0  0  0  0
   67.8195   43.7862   55.4565 N   0  0  0  0  0  0  0  0  0  0  0  0
   68.2772   45.1091   55.4488 C   0  0  0  0  0  0  0  0  0  0  0  0
   68.5749   45.6340   56.5521 O   0  0  0  0  0  0  0  0  0  0  0  0
   67.5487   41.0615   55.4504 O   0  0  0  0  0  0  0  0  0  0  0  0
   67.5334   41.6129   56.6025 C   0  0  0  0  0  0  0  0  0  0  0  0
   67.6715   43.0055   56.6162 N   0  0  0  0  0  0  0  0  0  0  0  0
   67.3805   40.8167   57.8131 C   0  0  0  0  0  0  0  0  0  0  0  0
   66.6304   41.1991   58.8940 C   0  0  0  0  0  0  0  0  0  0  0  0
   66.5135   40.4115   60.0232 C   0  0  0  0  0  0  0  0  0  0  0  0
   67.1562   39.1970   60.1011 C   0  0  0  0  0  0  0  0  0  0  0  0
   67.9088   38.7949   59.0384 C   0  0  0  0  0  0  0  0  0  0  0  0
   68.0241   39.5890   57.9069 C   0  0  0  0  0  0  0  0  0  0  0  0
   70.1792   49.4066   53.1129 S   0  0  0  0  0  0  0  0  0  0  0  0
   71.6462   49.1853   52.9550 O   0  0  0  0  0  0  0  0  0  0  0  0
   69.7058   50.1726   51.8860 O   0  0  0  0  0  0  0  0  0  0  0  0
   69.7932   50.3785   54.4784 N   0  0  0  0  0  0  0  0  0  0  0  0
   70.6447   50.1309   55.6000 C   0  0  0  0  0  0  0  0  0  0  0  0
   70.7150   51.2551   56.5814 C   0  0  0  0  0  0  0  0  0  0  0  0
   69.3895   51.7581   57.0403 C   0  0  0  0  0  0  0  0  0  0  0  0
   68.3042   51.6809   56.0150 C   0  0  0  0  0  0  0  0  0  0  0  0
   68.6105   52.4372   54.7617 C   0  0  0  0  0  0  0  0  0  0  0  0
   69.7595   51.7469   54.0566 C   0  0  0  0  0  0  0  0  0  0  0  0
 10 11  2  0
 11 12  1  0
 11 13  1  0
 12  7  1  0
  7  8  1  0
  8  9  2  0
  8  1  1  0
  1  2  2  0
  1  6  1  0
  2  3  1  0
  3  4  2  0
  4  5  1  0
  5 19  1  0
  5  6  2  0
 19 20  2  0
 19 21  2  0
 19 22  1  0
 22 23  1  0
 22 28  1  0
 23 24  1  0
 24 25  1  0
 25 26  1  0
 26 27  1  0
 27 28  1  0
 13 14  2  0
 13 18  1  0
 14 15  1  0
 15 16  2  0
 16 17  1  0
 17 18  2  0
M  END
>  <minimizedAffinity>  (105) 
-9.71573

$$$$
cs_full_output_folder/data/smiles/8099.pdb
     RDKit          3D

 31 35  0  0  0  0  0  0  0  0999 V2000
   71.4986   47.3045   58.8182 C   0  0  0  0  0  0  0  0  0  0  0  0
   70.6352   48.0012   58.0042 C   0  0  0  0  0  0  0  0  0  0  0  0
   69.7531   47.3523   57.1238 C   0  0  0  0  0  0  0  0  0  0  0  0
   69.7615   46.0004   57.0830 C   0  0  0  0  0  0  0  0  0  0  0  0
   70.6208   45.2584   57.8906 C   0  0  0  0  0  0  0  0  0  0  0  0
   71.4815   45.9272   58.7519 C   0  0  0  0  0  0  0  0  0  0  0  0
   72.3372   45.2498   59.5584 F   0  0  0  0  0  0  0  0  0  0  0  0
   75.5424   48.7723   58.6332 C   0  0  0  0  0  0  0  0  0  0  0  0
   74.2336   48.6678   57.9494 C   0  0  0  0  0  0  0  0  0  0  0  0
   73.6205   48.5421   59.2485 N   0  0  0  0  0  0  0  0  0  0  0  0
   72.4303   47.9674   59.7441 C   0  0  0  0  0  0  0  0  0  0  0  0
   72.1192   47.9937   60.9569 O   0  0  0  0  0  0  0  0  0  0  0  0
   74.7482   49.2567   59.7913 C   0  0  0  0  0  0  0  0  0  0  0  0
   78.1264   49.1856   59.6614 O   0  0  0  0  0  0  0  0  0  0  0  0
   77.8545   49.8271   58.6210 C   0  0  0  0  0  0  0  0  0  0  0  0
   76.5430   49.6237   58.0914 N   0  0  0  0  0  0  0  0  0  0  0  0
   78.8249   50.7508   57.9572 C   0  0  0  0  0  0  0  0  0  0  0  0
   79.6251   50.1471   56.7850 C   0  0  0  0  0  0  0  0  0  0  0  0
   78.5862   51.1807   56.5589 C   0  0  0  0  0  0  0  0  0  0  0  0
   68.9095   48.2639   56.3054 C   0  0  0  0  0  0  0  0  0  0  0  0
   69.2879   48.2792   54.9006 C   0  0  0  0  0  0  0  0  0  0  0  0
   70.2091   49.2148   54.5156 N   0  0  0  0  0  0  0  0  0  0  0  0
   70.6168   49.3649   53.2869 N   0  0  0  0  0  0  0  0  0  0  0  0
   70.1738   48.6128   52.2612 C   0  0  0  0  0  0  0  0  0  0  0  0
   70.5837   48.7789   51.0794 O   0  0  0  0  0  0  0  0  0  0  0  0
   69.2436   47.6445   52.5620 C   0  0  0  0  0  0  0  0  0  0  0  0
   68.7409   46.8212   51.5715 C   0  0  0  0  0  0  0  0  0  0  0  0
   67.8184   45.8535   51.8991 C   0  0  0  0  0  0  0  0  0  0  0  0
   67.3970   45.7087   53.2160 C   0  0  0  0  0  0  0  0  0  0  0  0
   67.8907   46.5227   54.2116 C   0  0  0  0  0  0  0  0  0  0  0  0
   68.8088   47.4882   53.8863 C   0  0  0  0  0  0  0  0  0  0  0  0
 14 15  2  0
 15 16  1  0
 15 17  1  0
 16  8  1  0
  8  9  1  0
  8 13  1  0
  9 10  1  0
 10 11  1  0
 10 13  1  0
 11 12  2  0
 11  1  1  0
  1  2  2  0
  1  6  1  0
  2  3  1  0
  3 20  1  0
  3  4  2  0
 20 21  1  0
 21 22  2  0
 21 31  1  0
 22 23  1  0
 23 24  1  0
 24 25  2  0
 24 26  1  0
 26 27  1  0
 26 31  2  0
 27 28  2  0
 28 29  1  0
 29 30  2  0
 30 31  1  0
  4  5  1  0
  5  6  2  0
  6  7  1  0
 17 18  1  0
 17 19  1  0
 18 19  1  0
M  END
>  <minimizedAffinity>  (106) 
-9.69896

$$$$
cs_full_output_folder/data/smiles/4224.pdb
     RDKit          3D

 29 31  0  0  0  0  0  0  0  0999 V2000
   69.1262   47.8488   52.7505 C   0  0  0  0  0  0  0  0  0  0  0  0
   68.4775   47.3111   51.6589 C   0  0  0  0  0  0  0  0  0  0  0  0
   67.7788   46.1234   51.7271 C   0  0  0  0  0  0  0  0  0  0  0  0
   67.7428   45.4693   52.9417 C   0  0  0  0  0  0  0  0  0  0  0  0
   68.3721   45.9533   54.0768 C   0  0  0  0  0  0  0  0  0  0  0  0
   69.0509   47.1433   53.9351 C   0  0  0  0  0  0  0  0  0  0  0  0
   70.0104   49.3513   52.6644 S   0  0  0  0  0  0  0  0  0  0  0  0
   71.4745   49.0101   52.7703 O   0  0  0  0  0  0  0  0  0  0  0  0
   69.8060   49.9594   51.3063 O   0  0  0  0  0  0  0  0  0  0  0  0
   68.6297   50.7554   56.0497 C   0  0  0  0  0  0  0  0  0  0  0  0
   69.6304   49.9306   55.2225 C   0  0  2  0  0  0  0  0  0  0  0  0
   70.9546   49.9326   55.9235 C   0  0  0  0  0  0  0  0  0  0  0  0
   71.9323   50.9392   55.4251 C   0  0  0  0  0  0  0  0  0  0  0  0
   71.3554   52.0590   54.6222 C   0  0  0  0  0  0  0  0  0  0  0  0
   70.1895   51.7326   53.7686 C   0  0  0  0  0  0  0  0  0  0  0  0
   69.6289   50.4358   53.9139 N   0  0  0  0  0  0  0  0  0  0  0  0
   68.2987   45.2147   55.3375 C   0  0  0  0  0  0  0  0  0  0  0  0
   68.6176   45.8195   56.4015 O   0  0  0  0  0  0  0  0  0  0  0  0
   67.8999   43.8795   55.4670 N   0  0  0  0  0  0  0  0  0  0  0  0
   67.8361   43.1869   56.6876 N   0  0  0  0  0  0  0  0  0  0  0  0
   67.6946   41.7816   56.7114 C   0  0  0  0  0  0  0  0  0  0  0  0
   67.6299   41.1795   55.6131 O   0  0  0  0  0  0  0  0  0  0  0  0
   67.6198   40.9829   57.9537 C   0  0  0  0  0  0  0  0  0  0  0  0
   68.8813   40.2754   58.2441 C   0  0  0  0  0  0  0  0  0  0  0  0
   70.1131   40.8912   58.2184 C   0  0  0  0  0  0  0  0  0  0  0  0
   71.2846   40.2182   58.4931 C   0  0  0  0  0  0  0  0  0  0  0  0
   71.2196   38.8673   58.8070 C   0  0  0  0  0  0  0  0  0  0  0  0
   69.9990   38.2273   58.8397 C   0  0  0  0  0  0  0  0  0  0  0  0
   68.8332   38.9352   58.5576 C   0  0  0  0  0  0  0  0  0  0  0  0
 11 10  1  1
 11 12  1  0
 11 16  1  0
 12 13  1  0
 13 14  1  0
 14 15  1  0
 15 16  1  0
 16  7  1  0
  7  8  2  0
  7  9  2  0
  7  1  1  0
  1  2  2  0
  1  6  1  0
  2  3  1  0
  3  4  2  0
  4  5  1  0
  5 17  1  0
  5  6  2  0
 17 18  2  0
 17 19  1  0
 19 20  1  0
 20 21  1  0
 21 22  2  0
 21 23  1  0
 23 24  1  0
 24 25  2  0
 24 29  1  0
 25 26  1  0
 26 27  2  0
 27 28  1  0
 28 29  2  0
M  END
>  <minimizedAffinity>  (107) 
-9.69875

$$$$
cs_full_output_folder/data/smiles/2454.pdb
     RDKit          3D

 33 36  0  0  0  0  0  0  0  0999 V2000
   71.0334   45.9504   58.4177 C   0  0  0  0  0  0  0  0  0  0  0  0
   71.7271   46.9402   59.0248 C   0  0  0  0  0  0  0  0  0  0  0  0
   71.3340   48.2586   58.8212 C   0  0  0  0  0  0  0  0  0  0  0  0
   70.2540   48.5296   58.0101 C   0  0  0  0  0  0  0  0  0  0  0  0
   69.5241   47.5214   57.3744 C   0  0  0  0  0  0  0  0  0  0  0  0
   69.9290   46.2435   57.5912 C   0  0  0  0  0  0  0  0  0  0  0  0
   69.4684   44.0881   59.7311 O   0  0  0  0  0  0  0  0  0  0  0  0
   70.5575   43.6388   59.2329 C   0  0  0  0  0  0  0  0  0  0  0  0
   71.3570   44.5734   58.5631 N   0  0  0  0  0  0  0  0  0  0  0  0
   70.8419   42.2283   59.4121 C   0  0  0  0  0  0  0  0  0  0  0  0
   71.0512   41.7616   60.5806 O   0  0  0  0  0  0  0  0  0  0  0  0
   70.9099   41.2865   58.3682 N   0  0  0  0  0  0  0  0  0  0  0  0
   71.1813   39.9083   58.5213 C   0  0  0  0  0  0  0  0  0  0  0  0
   72.4700   39.4623   58.6912 C   0  0  0  0  0  0  0  0  0  0  0  0
   72.7731   38.1166   58.8426 C   0  0  0  0  0  0  0  0  0  0  0  0
   71.7595   37.1815   58.8218 C   0  0  0  0  0  0  0  0  0  0  0  0
   70.4570   37.6290   58.6489 C   0  0  0  0  0  0  0  0  0  0  0  0
   70.1736   38.9822   58.5003 C   0  0  0  0  0  0  0  0  0  0  0  0
   68.8126   39.4656   58.3183 C   0  0  0  0  0  0  0  0  0  0  0  0
   68.1989   39.8582   59.3564 O   0  0  0  0  0  0  0  0  0  0  0  0
   68.1829   39.5129   57.1020 O   0  0  0  0  0  0  0  0  0  0  0  0
   68.3797   47.9379   56.5359 C   0  0  0  0  0  0  0  0  0  0  0  0
   68.8028   48.3813   55.2082 C   0  0  0  0  0  0  0  0  0  0  0  0
   69.2034   49.6784   55.0296 N   0  0  0  0  0  0  0  0  0  0  0  0
   69.6474   50.1319   53.8725 N   0  0  0  0  0  0  0  0  0  0  0  0
   69.7282   49.3284   52.7995 C   0  0  0  0  0  0  0  0  0  0  0  0
   70.1488   49.7398   51.6845 O   0  0  0  0  0  0  0  0  0  0  0  0
   69.3449   48.0128   52.8911 C   0  0  0  0  0  0  0  0  0  0  0  0
   68.8773   47.5657   54.1341 C   0  0  0  0  0  0  0  0  0  0  0  0
   68.4327   46.1733   54.1905 C   0  0  0  0  0  0  0  0  0  0  0  0
   67.5355   45.8999   52.9907 C   0  0  0  0  0  0  0  0  0  0  0  0
   68.1028   46.3289   51.6874 C   0  0  0  0  0  0  0  0  0  0  0  0
   69.4059   47.0427   51.7879 C   0  0  0  0  0  0  0  0  0  0  0  0
  7  8  2  0
  8  9  1  0
  8 10  1  0
  9  1  1  0
  1  2  2  0
  1  6  1  0
  2  3  1  0
  3  4  2  0
  4  5  1  0
  5 22  1  0
  5  6  2  0
 22 23  1  0
 23 24  2  0
 23 29  1  0
 24 25  1  0
 25 26  1  0
 26 27  2  0
 26 28  1  0
 28 29  2  0
 28 33  1  0
 29 30  1  0
 30 31  1  0
 31 32  1  0
 32 33  1  0
 10 11  2  0
 10 12  1  0
 12 13  1  0
 13 14  2  0
 13 18  1  0
 14 15  1  0
 15 16  2  0
 16 17  1  0
 17 18  2  0
 18 19  1  0
 19 20  2  0
 19 21  1  0
M  END
>  <minimizedAffinity>  (108) 
-9.69787

$$$$
cs_full_output_folder/data/smiles/5102.pdb
     RDKit          3D

 29 32  0  0  0  0  0  0  0  0999 V2000
   71.3404   46.8569   58.8568 C   0  0  0  0  0  0  0  0  0  0  0  0
   70.4659   47.6837   58.1404 C   0  0  0  0  0  0  0  0  0  0  0  0
   69.6292   47.2101   57.1791 C   0  0  0  0  0  0  0  0  0  0  0  0
   69.6991   45.8217   56.9483 C   0  0  0  0  0  0  0  0  0  0  0  0
   70.5500   45.0018   57.6422 C   0  0  0  0  0  0  0  0  0  0  0  0
   71.3713   45.5279   58.5988 C   0  0  0  0  0  0  0  0  0  0  0  0
   72.2432   44.7693   59.3275 F   0  0  0  0  0  0  0  0  0  0  0  0
   71.8896   47.2486   61.0722 O   0  0  0  0  0  0  0  0  0  0  0  0
   72.1781   47.5034   59.8586 C   0  0  0  0  0  0  0  0  0  0  0  0
   73.2514   48.3649   59.5073 N   0  0  0  0  0  0  0  0  0  0  0  0
   73.4319   48.5261   58.0768 C   0  0  0  0  0  0  0  0  0  0  0  0
   74.7933   49.0967   57.7510 C   0  0  0  0  0  0  0  0  0  0  0  0
   74.7488   50.4746   58.2174 N   0  0  0  0  0  0  0  0  0  0  0  0
   74.7767   50.8931   59.4143 C   0  0  0  0  0  0  0  0  0  0  0  0
   74.8616   50.0760   60.6506 C   0  0  0  0  0  0  0  0  0  0  0  0
   73.9610   48.9161   60.5961 C   0  0  0  0  0  0  0  0  0  0  0  0
   73.7713   48.1616   62.0504 S   0  0  0  0  0  0  0  0  0  0  0  0
   68.6790   48.0117   56.3737 C   0  0  0  0  0  0  0  0  0  0  0  0
   69.2099   48.1289   55.0091 C   0  0  0  0  0  0  0  0  0  0  0  0
   70.1825   49.0586   54.7653 N   0  0  0  0  0  0  0  0  0  0  0  0
   70.6547   49.2509   53.5618 N   0  0  0  0  0  0  0  0  0  0  0  0
   70.2318   48.5659   52.4965 C   0  0  0  0  0  0  0  0  0  0  0  0
   70.7111   48.7750   51.3322 O   0  0  0  0  0  0  0  0  0  0  0  0
   69.2557   47.6096   52.6553 C   0  0  0  0  0  0  0  0  0  0  0  0
   68.8179   46.8739   51.5652 C   0  0  0  0  0  0  0  0  0  0  0  0
   67.8541   45.9184   51.7999 C   0  0  0  0  0  0  0  0  0  0  0  0
   67.3515   45.7059   53.0634 C   0  0  0  0  0  0  0  0  0  0  0  0
   67.7933   46.4418   54.1347 C   0  0  0  0  0  0  0  0  0  0  0  0
   68.7511   47.4050   53.9488 C   0  0  0  0  0  0  0  0  0  0  0  0
  8  9  2  0
  9  1  1  0
  9 10  1  0
  1  2  2  0
  1  6  1  0
  2  3  1  0
  3 18  1  0
  3  4  2  0
 18 19  1  0
 19 20  2  0
 19 29  1  0
 20 21  1  0
 21 22  1  0
 22 23  2  0
 22 24  1  0
 24 25  1  0
 24 29  2  0
 25 26  2  0
 26 27  1  0
 27 28  2  0
 28 29  1  0
  4  5  1  0
  5  6  2  0
  6  7  1  0
 10 11  1  0
 10 16  1  0
 11 12  1  0
 12 13  1  0
 13 14  2  0
 14 15  1  0
 15 16  1  0
 16 17  2  0
M  END
>  <minimizedAffinity>  (109) 
-9.69743

$$$$
cs_full_output_folder/data/smiles/648.pdb
     RDKit          3D

 28 30  0  0  0  0  0  0  0  0999 V2000
   68.4922   46.1668   54.1727 C   0  0  0  0  0  0  0  0  0  0  0  0
   68.0729   45.7383   52.9318 C   0  0  0  0  0  0  0  0  0  0  0  0
   68.2553   46.5274   51.7896 C   0  0  0  0  0  0  0  0  0  0  0  0
   68.8672   47.7579   51.9093 C   0  0  0  0  0  0  0  0  0  0  0  0
   69.3009   48.2200   53.1341 C   0  0  0  0  0  0  0  0  0  0  0  0
   69.0971   47.4051   54.2247 C   0  0  0  0  0  0  0  0  0  0  0  0
   67.9052   44.0078   55.3791 N   0  0  0  0  0  0  0  0  0  0  0  0
   68.3148   45.3600   55.3923 C   0  0  0  0  0  0  0  0  0  0  0  0
   68.5364   45.8963   56.5021 O   0  0  0  0  0  0  0  0  0  0  0  0
   67.4676   41.8551   56.5409 C   0  0  0  0  0  0  0  0  0  0  0  0
   67.3795   41.3113   55.4097 O   0  0  0  0  0  0  0  0  0  0  0  0
   67.7388   43.2506   56.5475 N   0  0  0  0  0  0  0  0  0  0  0  0
   66.7336   38.9652   61.3957 C   0  0  0  0  0  0  0  0  0  0  0  0
   66.9623   39.6674   60.1058 C   0  0  0  0  0  0  0  0  0  0  0  0
   67.7228   39.1188   59.0865 C   0  0  0  0  0  0  0  0  0  0  0  0
   67.8795   39.8485   57.9210 C   0  0  0  0  0  0  0  0  0  0  0  0
   67.2975   41.0848   57.7796 C   0  0  0  0  0  0  0  0  0  0  0  0
   66.5739   41.5620   58.8004 N   0  0  0  0  0  0  0  0  0  0  0  0
   66.3859   40.9071   59.9478 C   0  0  0  0  0  0  0  0  0  0  0  0
   70.0837   49.7916   53.2936 S   0  0  0  0  0  0  0  0  0  0  0  0
   69.9070   50.6085   52.0711 O   0  0  0  0  0  0  0  0  0  0  0  0
   71.5510   49.5452   53.5421 O   0  0  0  0  0  0  0  0  0  0  0  0
   69.4369   50.5615   54.6757 N   0  0  0  0  0  0  0  0  0  0  0  0
   70.3293   50.4491   55.8003 C   0  0  0  0  0  0  0  0  0  0  0  0
   69.5858   50.7203   57.1008 C   0  0  0  0  0  0  0  0  0  0  0  0
   68.4956   51.7225   56.7994 C   0  0  0  0  0  0  0  0  0  0  0  0
   69.0307   52.6659   55.7389 C   0  0  0  0  0  0  0  0  0  0  0  0
   69.0419   51.9285   54.4165 C   0  0  0  0  0  0  0  0  0  0  0  0
 13 14  1  0
 14 15  2  0
 14 19  1  0
 15 16  1  0
 16 17  2  0
 17 10  1  0
 17 18  1  0
 10 11  2  0
 10 12  1  0
 12  7  1  0
  7  8  1  0
  8  9  2  0
  8  1  1  0
  1  2  2  0
  1  6  1  0
  2  3  1  0
  3  4  2  0
  4  5  1  0
  5 20  1  0
  5  6  2  0
 20 21  2  0
 20 22  2  0
 20 23  1  0
 23 24  1  0
 23 28  1  0
 24 25  1  0
 25 26  1  0
 26 27  1  0
 27 28  1  0
 18 19  2  0
M  END
>  <minimizedAffinity>  (110) 
-9.68686

$$$$
cs_full_output_folder/data/smiles/1560.pdb
     RDKit          3D

 33 37  0  0  0  0  0  0  0  0999 V2000
   71.4889   47.0030   58.8901 C   0  0  0  0  0  0  0  0  0  0  0  0
   70.5430   47.7224   58.1424 C   0  0  0  0  0  0  0  0  0  0  0  0
   69.7416   47.1507   57.1955 C   0  0  0  0  0  0  0  0  0  0  0  0
   69.8846   45.7788   56.9766 C   0  0  0  0  0  0  0  0  0  0  0  0
   70.7842   45.0407   57.6730 C   0  0  0  0  0  0  0  0  0  0  0  0
   71.5776   45.6562   58.6233 C   0  0  0  0  0  0  0  0  0  0  0  0
   72.4762   44.9265   59.3237 F   0  0  0  0  0  0  0  0  0  0  0  0
   75.6349   49.7591   57.8309 N   0  0  0  0  0  0  0  0  0  0  0  0
   76.3193   49.7680   59.0890 C   0  0  0  0  0  0  0  0  0  0  0  0
   75.8045   48.7864   60.0964 C   0  0  0  0  0  0  0  0  0  0  0  0
   74.3494   48.9460   60.4311 C   0  0  0  0  0  0  0  0  0  0  0  0
   73.5078   48.2846   59.4626 N   0  0  0  0  0  0  0  0  0  0  0  0
   72.3154   47.6678   59.8893 C   0  0  0  0  0  0  0  0  0  0  0  0
   71.9527   47.6727   61.0720 O   0  0  0  0  0  0  0  0  0  0  0  0
   73.8261   48.2214   58.0313 C   0  0  0  0  0  0  0  0  0  0  0  0
   74.1843   49.6421   57.6351 C   0  0  0  0  0  0  0  0  0  0  0  0
   75.8133   50.5959   55.6738 N   0  0  0  0  0  0  0  0  0  0  0  0
   76.3217   49.8706   56.6118 C   0  0  0  0  0  0  0  0  0  0  0  0
   77.6207   49.1645   56.3999 C   0  0  0  0  0  0  0  0  0  0  0  0
   78.2862   49.1367   55.0973 C   0  0  0  0  0  0  0  0  0  0  0  0
   78.8325   50.0190   56.1697 C   0  0  0  0  0  0  0  0  0  0  0  0
   68.7691   47.9296   56.3918 C   0  0  0  0  0  0  0  0  0  0  0  0
   69.1876   48.1022   55.0431 C   0  0  0  0  0  0  0  0  0  0  0  0
   70.1840   48.9969   54.7662 N   0  0  0  0  0  0  0  0  0  0  0  0
   70.6706   49.1784   53.5517 N   0  0  0  0  0  0  0  0  0  0  0  0
   70.2290   48.5004   52.4829 C   0  0  0  0  0  0  0  0  0  0  0  0
   70.6822   48.6628   51.3276 O   0  0  0  0  0  0  0  0  0  0  0  0
   69.2313   47.5836   52.6647 C   0  0  0  0  0  0  0  0  0  0  0  0
   68.7036   46.8585   51.5927 C   0  0  0  0  0  0  0  0  0  0  0  0
   67.6861   45.9789   51.8551 C   0  0  0  0  0  0  0  0  0  0  0  0
   67.2183   45.8225   53.0966 N   0  0  0  0  0  0  0  0  0  0  0  0
   67.7053   46.5004   54.1333 C   0  0  0  0  0  0  0  0  0  0  0  0
   68.7255   47.3974   53.9433 C   0  0  0  0  0  0  0  0  0  0  0  0
 17 18  2  0
 18 19  1  0
 18  8  1  0
 19 20  1  0
 19 21  1  0
 20 21  1  0
  8  9  1  0
  8 16  1  0
  9 10  1  0
 10 11  1  0
 11 12  1  0
 12 13  1  0
 12 15  1  0
 13 14  2  0
 13  1  1  0
  1  2  2  0
  1  6  1  0
  2  3  1  0
  3 22  1  0
  3  4  2  0
 22 23  1  0
 23 24  2  0
 23 33  1  0
 24 25  1  0
 25 26  1  0
 26 27  2  0
 26 28  1  0
 28 29  1  0
 28 33  2  0
 29 30  2  0
 30 31  1  0
 31 32  2  0
 32 33  1  0
  4  5  1  0
  5  6  2  0
  6  7  1  0
 15 16  1  0
M  CHG  1  17   1
M  END
>  <minimizedAffinity>  (111) 
-9.68625

$$$$
cs_full_output_folder/data/smiles/595.pdb
     RDKit          3D

 28 29  0  0  0  0  0  0  0  0999 V2000
   70.8779   45.2068   58.7491 C   0  0  0  0  0  0  0  0  0  0  0  0
   71.7899   46.3250   59.4989 S   0  0  0  0  0  0  0  0  0  0  0  0
   70.2654   42.7935   58.6178 C   0  0  0  0  0  0  0  0  0  0  0  0
   69.0706   43.1364   58.5138 O   0  0  0  0  0  0  0  0  0  0  0  0
   71.2341   43.8108   58.7402 N   0  0  0  0  0  0  0  0  0  0  0  0
   71.1554   38.6007   58.5920 C   0  0  0  0  0  0  0  0  0  0  0  0
   72.1739   39.5287   58.5894 C   0  0  0  0  0  0  0  0  0  0  0  0
   71.9123   40.9043   58.5979 C   0  0  0  0  0  0  0  0  0  0  0  0
   70.6234   41.3876   58.6083 C   0  0  0  0  0  0  0  0  0  0  0  0
   69.6115   40.4310   58.6108 C   0  0  0  0  0  0  0  0  0  0  0  0
   69.8636   39.0777   58.6024 C   0  0  0  0  0  0  0  0  0  0  0  0
   71.4312   37.1445   58.5834 C   0  0  0  0  0  0  0  0  0  0  0  0
   73.6300   36.1118   59.1793 C   0  0  0  0  0  0  0  0  0  0  0  0
   72.8462   36.8456   58.1457 C   0  0  0  0  0  0  0  0  0  0  0  0
   72.7941   35.9881   56.8970 C   0  0  0  0  0  0  0  0  0  0  0  0
   69.6992   45.6073   58.0833 N   0  0  0  0  0  0  0  0  0  0  0  0
   69.7122   45.7528   56.6721 N   0  0  0  0  0  0  0  0  0  0  0  0
   68.7669   46.5714   56.0087 C   0  0  0  0  0  0  0  0  0  0  0  0
   67.9232   47.1532   56.7567 O   0  0  0  0  0  0  0  0  0  0  0  0
   68.7163   46.7706   54.5661 C   0  0  0  0  0  0  0  0  0  0  0  0
   67.9532   45.9044   53.7968 C   0  0  0  0  0  0  0  0  0  0  0  0
   67.8648   46.0423   52.4139 C   0  0  0  0  0  0  0  0  0  0  0  0
   68.5352   47.0493   51.7742 C   0  0  0  0  0  0  0  0  0  0  0  0
   69.2908   47.9078   52.5344 C   0  0  0  0  0  0  0  0  0  0  0  0
   69.3731   47.7617   53.9115 C   0  0  0  0  0  0  0  0  0  0  0  0
   70.0072   48.9720   51.9185 N   0  0  0  0  0  0  0  0  0  0  0  0
   70.6116   48.7616   50.8487 O   0  0  0  0  0  0  0  0  0  0  0  0
   70.0620   50.2327   52.4615 O   0  0  0  0  0  0  0  0  0  0  0  0
 13 14  1  0
 14 15  1  0
 14 12  1  0
 12  6  1  0
  6  7  2  0
  6 11  1  0
  7  8  1  0
  8  9  2  0
  9  3  1  0
  9 10  1  0
  3  4  2  0
  3  5  1  0
  5  1  1  0
  1  2  2  0
  1 16  1  0
 16 17  1  0
 17 18  1  0
 18 19  2  0
 18 20  1  0
 20 21  2  0
 20 25  1  0
 21 22  1  0
 22 23  2  0
 23 24  1  0
 24 26  1  0
 24 25  2  0
 26 27  2  0
 26 28  1  0
 10 11  2  0
M  CHG  2  26   1  28  -1
M  END
>  <minimizedAffinity>  (112) 
-9.66930

$$$$
cs_full_output_folder/data/smiles/82.pdb
     RDKit          3D

 29 32  0  0  0  0  0  0  0  0999 V2000
   68.4929   45.9404   54.3381 C   0  0  0  0  0  0  0  0  0  0  0  0
   67.7795   45.3215   53.3330 C   0  0  0  0  0  0  0  0  0  0  0  0
   67.6933   45.8886   52.0627 C   0  0  0  0  0  0  0  0  0  0  0  0
   68.3381   47.0837   51.8323 C   0  0  0  0  0  0  0  0  0  0  0  0
   69.0608   47.7346   52.8107 C   0  0  0  0  0  0  0  0  0  0  0  0
   69.1079   47.1152   54.0572 C   0  0  0  0  0  0  0  0  0  0  0  0
   68.5312   46.1011   56.6693 O   0  0  0  0  0  0  0  0  0  0  0  0
   68.5763   45.3396   55.6603 C   0  0  0  0  0  0  0  0  0  0  0  0
   68.7047   43.9616   55.9324 N   0  0  0  0  0  0  0  0  0  0  0  0
   68.7805   43.4374   57.2327 N   0  0  0  0  0  0  0  0  0  0  0  0
   68.3694   42.2871   57.5609 C   0  0  0  0  0  0  0  0  0  0  0  0
   67.7444   41.3115   56.6283 C   0  0  0  0  0  0  0  0  0  0  0  0
   68.1668   40.0109   57.2692 C   0  0  0  0  0  0  0  0  0  0  0  0
   68.2939   40.3317   58.7091 C   0  0  0  0  0  0  0  0  0  0  0  0
   68.3114   39.5385   59.8663 C   0  0  0  0  0  0  0  0  0  0  0  0
   68.4466   40.0782   61.1220 C   0  0  0  0  0  0  0  0  0  0  0  0
   68.5726   41.4353   61.2915 C   0  0  0  0  0  0  0  0  0  0  0  0
   68.5565   42.2200   60.1636 C   0  0  0  0  0  0  0  0  0  0  0  0
   68.6798   43.5972   60.2799 O   0  0  0  0  0  0  0  0  0  0  0  0
   68.4202   41.6835   58.9015 C   0  0  0  0  0  0  0  0  0  0  0  0
   69.8489   49.2301   52.4668 S   0  0  0  0  0  0  0  0  0  0  0  0
   71.2985   49.0758   52.8906 O   0  0  0  0  0  0  0  0  0  0  0  0
   69.9486   49.4388   50.9611 O   0  0  0  0  0  0  0  0  0  0  0  0
   69.2773   50.5742   53.2934 N   0  0  0  0  0  0  0  0  0  0  0  0
   69.9411   51.0277   54.4369 C   0  0  0  0  0  0  0  0  0  0  0  0
   69.3015   52.3497   54.8675 C   0  0  0  0  0  0  0  0  0  0  0  0
   68.4104   52.0193   56.0325 C   0  0  0  0  0  0  0  0  0  0  0  0
   68.7615   50.6566   56.5172 C   0  0  0  0  0  0  0  0  0  0  0  0
   69.8766   50.1634   55.6498 C   0  0  0  0  0  0  0  0  0  0  0  0
  7  8  2  0
  8  9  1  0
  8  1  1  0
  9 10  1  0
 10 11  2  0
 11 12  1  0
 11 20  1  0
 12 13  1  0
 13 14  1  0
 14 15  1  0
 14 20  2  0
 15 16  2  0
 16 17  1  0
 17 18  2  0
 18 19  1  0
 18 20  1  0
  1  2  2  0
  1  6  1  0
  2  3  1  0
  3  4  2  0
  4  5  1  0
  5 21  1  0
  5  6  2  0
 21 22  2  0
 21 23  2  0
 21 24  1  0
 24 25  1  0
 25 26  1  0
 25 29  1  0
 26 27  1  0
 27 28  1  0
 28 29  1  0
M  END
>  <minimizedAffinity>  (113) 
-9.66498

$$$$
cs_full_output_folder/data/smiles/7590.pdb
     RDKit          3D

 32 35  0  0  0  0  0  0  0  0999 V2000
   71.4575   47.2685   58.9586 C   0  0  0  0  0  0  0  0  0  0  0  0
   70.5955   47.9820   58.1490 C   0  0  0  0  0  0  0  0  0  0  0  0
   69.7726   47.4384   57.1967 C   0  0  0  0  0  0  0  0  0  0  0  0
   69.8598   46.0367   57.0850 C   0  0  0  0  0  0  0  0  0  0  0  0
   70.7031   45.2818   57.8676 C   0  0  0  0  0  0  0  0  0  0  0  0
   71.5047   45.9052   58.8092 C   0  0  0  0  0  0  0  0  0  0  0  0
   72.3474   45.1760   59.5951 F   0  0  0  0  0  0  0  0  0  0  0  0
   76.8476   49.2222   58.0291 C   0  0  0  0  0  0  0  0  0  0  0  0
   77.8413   48.7551   58.6912 O   0  0  0  0  0  0  0  0  0  0  0  0
   75.6726   49.6394   58.6687 N   0  0  0  0  0  0  0  0  0  0  0  0
   75.5439   49.5536   60.1068 C   0  0  0  0  0  0  0  0  0  0  0  0
   74.0721   49.5588   60.5081 C   0  0  0  0  0  0  0  0  0  0  0  0
   73.2587   48.9033   59.5214 N   0  0  0  0  0  0  0  0  0  0  0  0
   72.3027   47.9501   59.9633 C   0  0  0  0  0  0  0  0  0  0  0  0
   72.1236   47.6454   61.1502 O   0  0  0  0  0  0  0  0  0  0  0  0
   73.4169   49.2049   58.1300 C   0  0  0  0  0  0  0  0  0  0  0  0
   74.5502   50.1623   57.9458 C   0  0  0  0  0  0  0  0  0  0  0  0
   77.0365   49.2859   56.5494 C   0  0  0  0  0  0  0  0  0  0  0  0
   79.3120   49.0571   55.5283 C   0  0  0  0  0  0  0  0  0  0  0  0
   78.3133   49.9929   56.1769 C   0  0  0  0  0  0  0  0  0  0  0  0
   68.8468   48.1932   56.3127 C   0  0  0  0  0  0  0  0  0  0  0  0
   69.2666   48.2938   54.9119 C   0  0  0  0  0  0  0  0  0  0  0  0
   70.1619   49.2580   54.5276 N   0  0  0  0  0  0  0  0  0  0  0  0
   70.5627   49.4386   53.2882 N   0  0  0  0  0  0  0  0  0  0  0  0
   70.1385   48.6978   52.2579 C   0  0  0  0  0  0  0  0  0  0  0  0
   70.4965   48.8435   51.0798 O   0  0  0  0  0  0  0  0  0  0  0  0
   69.2178   47.6872   52.5744 C   0  0  0  0  0  0  0  0  0  0  0  0
   68.7342   46.8631   51.5702 C   0  0  0  0  0  0  0  0  0  0  0  0
   67.8438   45.8544   51.8267 C   0  0  0  0  0  0  0  0  0  0  0  0
   67.4477   45.6937   53.1389 C   0  0  0  0  0  0  0  0  0  0  0  0
   67.9172   46.5004   54.1476 C   0  0  0  0  0  0  0  0  0  0  0  0
   68.8006   47.4988   53.8716 C   0  0  0  0  0  0  0  0  0  0  0  0
 19 20  1  0
 20 18  1  0
 18  8  1  0
  8  9  2  0
  8 10  1  0
 10 11  1  0
 10 17  1  0
 11 12  1  0
 12 13  1  0
 13 14  1  0
 13 16  1  0
 14 15  2  0
 14  1  1  0
  1  2  2  0
  1  6  1  0
  2  3  1  0
  3 21  1  0
  3  4  2  0
 21 22  1  0
 22 23  2  0
 22 32  1  0
 23 24  1  0
 24 25  1  0
 25 26  2  0
 25 27  1  0
 27 28  1  0
 27 32  2  0
 28 29  2  0
 29 30  1  0
 30 31  2  0
 31 32  1  0
  4  5  1  0
  5  6  2  0
  6  7  1  0
 16 17  1  0
M  END
>  <minimizedAffinity>  (114) 
-9.66480

$$$$
cs_full_output_folder/data/smiles/1410.pdb
     RDKit          3D

 32 36  0  0  0  0  0  0  0  0999 V2000
   71.4358   46.9212   58.9382 C   0  0  0  0  0  0  0  0  0  0  0  0
   71.4702   45.5329   58.7518 C   0  0  0  0  0  0  0  0  0  0  0  0
   70.6475   44.9227   57.8356 C   0  0  0  0  0  0  0  0  0  0  0  0
   69.7644   45.6597   57.0758 C   0  0  0  0  0  0  0  0  0  0  0  0
   69.7058   47.0192   57.2365 C   0  0  0  0  0  0  0  0  0  0  0  0
   70.5421   47.6171   58.1626 C   0  0  0  0  0  0  0  0  0  0  0  0
   72.0097   47.5877   61.0981 O   0  0  0  0  0  0  0  0  0  0  0  0
   72.3470   47.5355   59.9003 C   0  0  0  0  0  0  0  0  0  0  0  0
   73.5929   48.0660   59.4971 N   0  0  0  0  0  0  0  0  0  0  0  0
   74.4821   48.6930   60.4689 C   0  0  0  0  0  0  0  0  0  0  0  0
   74.8429   50.1066   60.0409 C   0  0  0  0  0  0  0  0  0  0  0  0
   74.4055   50.2499   58.6665 N   0  0  0  0  0  0  0  0  0  0  0  0
   74.8575   49.2124   57.7532 C   0  0  0  0  0  0  0  0  0  0  0  0
   74.0165   47.9902   58.0904 C   0  0  0  0  0  0  0  0  0  0  0  0
   73.5827   51.3381   58.2695 C   0  0  0  0  0  0  0  0  0  0  0  0
   72.3909   51.1446   57.7267 C   0  0  0  0  0  0  0  0  0  0  0  0
   71.4695   52.1557   57.2844 C   0  0  0  0  0  0  0  0  0  0  0  0
   71.5634   53.4223   57.5606 C   0  0  0  0  0  0  0  0  0  0  0  0
   73.0536   53.8993   57.9814 S   0  0  0  0  0  0  0  0  0  0  0  0
   74.0141   52.6708   58.4455 N   0  0  0  0  0  0  0  0  0  0  0  0
   68.7757   47.8148   56.3979 C   0  0  0  0  0  0  0  0  0  0  0  0
   69.2244   48.0070   55.0076 C   0  0  0  0  0  0  0  0  0  0  0  0
   70.1691   48.9693   54.7669 N   0  0  0  0  0  0  0  0  0  0  0  0
   70.6405   49.2359   53.5682 N   0  0  0  0  0  0  0  0  0  0  0  0
   70.2250   48.5772   52.4791 C   0  0  0  0  0  0  0  0  0  0  0  0
   70.6782   48.8362   51.3436 O   0  0  0  0  0  0  0  0  0  0  0  0
   69.2665   47.5915   52.6706 C   0  0  0  0  0  0  0  0  0  0  0  0
   68.7965   46.8687   51.5856 C   0  0  0  0  0  0  0  0  0  0  0  0
   67.8541   45.8910   51.7821 C   0  0  0  0  0  0  0  0  0  0  0  0
   67.3601   45.6138   53.0552 C   0  0  0  0  0  0  0  0  0  0  0  0
   67.8064   46.3145   54.1523 C   0  0  0  0  0  0  0  0  0  0  0  0
   68.7616   47.3027   53.9438 C   0  0  0  0  0  0  0  0  0  0  0  0
  7  8  2  0
  8  1  1  0
  8  9  1  0
  1  2  2  0
  1  6  1  0
  2  3  1  0
  3  4  2  0
  4  5  1  0
  5 21  1  0
  5  6  2  0
 21 22  1  0
 22 23  2  0
 22 32  1  0
 23 24  1  0
 24 25  1  0
 25 26  2  0
 25 27  1  0
 27 28  1  0
 27 32  2  0
 28 29  2  0
 29 30  1  0
 30 31  2  0
 31 32  1  0
  9 10  1  0
  9 14  1  0
 10 11  1  0
 11 12  1  0
 12 15  1  0
 12 13  1  0
 15 16  2  0
 15 20  1  0
 16 17  1  0
 17 18  2  0
 18 19  2  0
 19 20  2  0
 13 14  1  0
M  END
>  <minimizedAffinity>  (115) 
-9.65816

$$$$
cs_full_output_folder/data/smiles/1381.pdb
     RDKit          3D

 33 37  0  0  0  0  0  0  0  0999 V2000
   71.5680   46.6799   59.0295 C   0  0  0  0  0  0  0  0  0  0  0  0
   71.6564   45.3265   58.7968 C   0  0  0  0  0  0  0  0  0  0  0  0
   70.8229   44.7432   57.8828 C   0  0  0  0  0  0  0  0  0  0  0  0
   69.8830   45.4705   57.1763 C   0  0  0  0  0  0  0  0  0  0  0  0
   69.7764   46.8186   57.3913 C   0  0  0  0  0  0  0  0  0  0  0  0
   70.6136   47.4079   58.3093 C   0  0  0  0  0  0  0  0  0  0  0  0
   70.5307   48.7434   58.5437 F   0  0  0  0  0  0  0  0  0  0  0  0
   76.2976   48.7434   59.1321 N   0  0  0  0  0  0  0  0  0  0  0  0
   76.7776   47.3873   58.9574 C   0  0  0  0  0  0  0  0  0  0  0  0
   75.6451   46.4347   58.6617 C   0  0  0  0  0  0  0  0  0  0  0  0
   74.3599   47.2108   58.4644 C   0  0  0  0  0  0  0  0  0  0  0  0
   73.8043   47.6130   59.7458 N   0  0  0  0  0  0  0  0  0  0  0  0
   72.4332   47.3380   59.9908 C   0  0  0  0  0  0  0  0  0  0  0  0
   71.9498   47.6844   61.0951 O   0  0  0  0  0  0  0  0  0  0  0  0
   74.5359   48.2714   60.7888 C   0  0  0  0  0  0  0  0  0  0  0  0
   75.5556   49.2499   60.2504 C   0  0  0  0  0  0  0  0  0  0  0  0
   75.6679   50.4571   57.6743 N   0  0  0  0  0  0  0  0  0  0  0  0
   76.5966   49.6662   58.0798 C   0  0  0  0  0  0  0  0  0  0  0  0
   77.9117   49.7484   57.4457 C   0  0  0  0  0  0  0  0  0  0  0  0
   78.4140   50.9262   56.7409 C   0  0  0  0  0  0  0  0  0  0  0  0
   78.8992   50.6630   58.1645 C   0  0  0  0  0  0  0  0  0  0  0  0
   68.7761   47.6150   56.6447 C   0  0  0  0  0  0  0  0  0  0  0  0
   69.3453   48.0250   55.3500 C   0  0  0  0  0  0  0  0  0  0  0  0
   70.2777   48.9827   55.1996 N   0  0  0  0  0  0  0  0  0  0  0  0
   70.7607   49.3164   53.9995 N   0  0  0  0  0  0  0  0  0  0  0  0
   70.3236   48.6948   52.8871 C   0  0  0  0  0  0  0  0  0  0  0  0
   70.7675   48.9947   51.7388 O   0  0  0  0  0  0  0  0  0  0  0  0
   69.3659   47.6982   52.9550 C   0  0  0  0  0  0  0  0  0  0  0  0
   68.9090   47.0529   51.8079 C   0  0  0  0  0  0  0  0  0  0  0  0
   67.9524   46.0631   51.9108 C   0  0  0  0  0  0  0  0  0  0  0  0
   67.4824   45.7502   53.1663 C   0  0  0  0  0  0  0  0  0  0  0  0
   67.9294   46.3871   54.3153 C   0  0  0  0  0  0  0  0  0  0  0  0
   68.8831   47.3750   54.2156 C   0  0  0  0  0  0  0  0  0  0  0  0
 17 18  2  0
 18 19  1  0
 18  8  1  0
 19 20  1  0
 19 21  1  0
 20 21  1  0
  8  9  1  0
  8 16  1  0
  9 10  1  0
 10 11  1  0
 11 12  1  0
 12 13  1  0
 12 15  1  0
 13 14  2  0
 13  1  1  0
  1  2  2  0
  1  6  1  0
  2  3  1  0
  3  4  2  0
  4  5  1  0
  5 22  1  0
  5  6  2  0
 22 23  1  0
 23 24  2  0
 23 33  1  0
 24 25  1  0
 25 26  1  0
 26 27  2  0
 26 28  1  0
 28 29  1  0
 28 33  2  0
 29 30  2  0
 30 31  1  0
 31 32  2  0
 32 33  1  0
  6  7  1  0
 15 16  1  0
M  CHG  1  17   1
M  END
>  <minimizedAffinity>  (116) 
-9.65727

$$$$
cs_full_output_folder/data/smiles/115.pdb
     RDKit          3D

 27 28  0  0  0  0  0  0  0  0999 V2000
   70.0597   49.1681   52.5781 S   0  0  0  0  0  0  0  0  0  0  0  0
   70.1042   49.0077   51.0671 O   0  0  0  0  0  0  0  0  0  0  0  0
   71.5083   49.2392   53.0308 O   0  0  0  0  0  0  0  0  0  0  0  0
   69.2781   47.7739   53.2182 C   0  0  0  0  0  0  0  0  0  0  0  0
   68.6393   46.8666   52.3971 C   0  0  0  0  0  0  0  0  0  0  0  0
   68.6128   47.0581   51.0386 F   0  0  0  0  0  0  0  0  0  0  0  0
   68.0149   45.7528   52.9142 C   0  0  0  0  0  0  0  0  0  0  0  0
   67.4003   44.8855   52.0859 F   0  0  0  0  0  0  0  0  0  0  0  0
   68.0040   45.4996   54.2730 C   0  0  0  0  0  0  0  0  0  0  0  0
   67.3856   44.4021   54.7458 F   0  0  0  0  0  0  0  0  0  0  0  0
   68.6455   46.4128   55.0824 C   0  0  0  0  0  0  0  0  0  0  0  0
   68.6406   46.1735   56.4245 F   0  0  0  0  0  0  0  0  0  0  0  0
   69.2725   47.5277   54.5881 C   0  0  0  0  0  0  0  0  0  0  0  0
   69.8879   48.3898   55.4524 F   0  0  0  0  0  0  0  0  0  0  0  0
   69.3544   50.6640   52.9526 N   0  0  0  0  0  0  0  0  0  0  0  0
   71.6526   52.4717   55.3060 C   0  0  0  0  0  0  0  0  0  0  0  0
   71.1879   51.6521   54.2816 C   0  0  0  0  0  0  0  0  0  0  0  0
   69.8586   51.5022   53.9656 C   0  0  0  0  0  0  0  0  0  0  0  0
   68.8979   52.2044   54.7049 C   0  0  0  0  0  0  0  0  0  0  0  0
   69.3350   53.0196   55.7219 C   0  0  0  0  0  0  0  0  0  0  0  0
   70.6904   53.1538   56.0198 C   0  0  0  0  0  0  0  0  0  0  0  0
   75.3776   52.8616   54.9826 N   0  0  0  0  0  0  0  0  0  0  0  0
   74.0258   52.7469   54.5823 C   0  0  0  0  0  0  0  0  0  0  0  0
   73.6528   52.7714   53.3806 O   0  0  0  0  0  0  0  0  0  0  0  0
   73.0404   52.5949   55.5950 N   0  0  0  0  0  0  0  0  0  0  0  0
   71.0863   53.9827   57.0482 O   0  0  0  0  0  0  0  0  0  0  0  0
   71.7699   53.5216   58.0809 O   0  0  0  0  0  0  0  0  0  0  0  0
 22 23  1  0
 23 24  2  0
 23 25  1  0
 25 16  1  0
 16 17  2  0
 16 21  1  0
 17 18  1  0
 18 15  1  0
 18 19  2  0
 15  1  1  0
  1  2  2  0
  1  3  2  0
  1  4  1  0
  4  5  2  0
  4 13  1  0
  5  6  1  0
  5  7  1  0
  7  8  1  0
  7  9  2  0
  9 10  1  0
  9 11  1  0
 11 12  1  0
 11 13  2  0
 13 14  1  0
 19 20  1  0
 20 21  2  0
 21 26  1  0
 26 27  1  0
M  END
>  <minimizedAffinity>  (117) 
-9.65533

$$$$
cs_full_output_folder/data/smiles/7745.pdb
     RDKit          3D

 30 34  0  0  0  0  0  0  0  0999 V2000
   71.4163   47.5241   58.8223 C   0  0  0  0  0  0  0  0  0  0  0  0
   70.5432   48.2360   58.0382 C   0  0  0  0  0  0  0  0  0  0  0  0
   69.6739   47.6512   57.1631 C   0  0  0  0  0  0  0  0  0  0  0  0
   69.7232   46.2517   57.1074 C   0  0  0  0  0  0  0  0  0  0  0  0
   70.5863   45.5138   57.8810 C   0  0  0  0  0  0  0  0  0  0  0  0
   71.4364   46.1584   58.7425 C   0  0  0  0  0  0  0  0  0  0  0  0
   72.2703   45.3854   59.4845 F   0  0  0  0  0  0  0  0  0  0  0  0
   76.0798   49.5769   55.7488 C   0  0  0  0  0  0  0  0  0  0  0  0
   76.0351   50.0268   57.1199 N   0  0  0  0  0  0  0  0  0  0  0  0
   77.0466   50.7001   57.8544 N   0  0  0  0  0  0  0  0  0  0  0  0
   76.8402   50.1976   59.1770 C   0  0  0  0  0  0  0  0  0  0  0  0
   75.3804   49.9723   59.2490 C   0  0  0  0  0  0  0  0  0  0  0  0
   74.9364   49.8742   58.0148 C   0  0  0  0  0  0  0  0  0  0  0  0
   73.4560   49.6336   58.0136 C   0  0  0  0  0  0  0  0  0  0  0  0
   73.2716   49.1311   59.3485 N   0  0  0  0  0  0  0  0  0  0  0  0
   72.3445   48.1616   59.7550 C   0  0  0  0  0  0  0  0  0  0  0  0
   72.2983   47.8202   60.9613 O   0  0  0  0  0  0  0  0  0  0  0  0
   74.2166   49.8153   60.1775 C   0  0  0  0  0  0  0  0  0  0  0  0
   68.7163   48.3012   56.2667 C   0  0  0  0  0  0  0  0  0  0  0  0
   69.1908   48.3635   54.8628 C   0  0  0  0  0  0  0  0  0  0  0  0
   70.0985   49.3261   54.5028 N   0  0  0  0  0  0  0  0  0  0  0  0
   70.5308   49.4618   53.2628 N   0  0  0  0  0  0  0  0  0  0  0  0
   70.1122   48.6718   52.2801 C   0  0  0  0  0  0  0  0  0  0  0  0
   70.5447   48.8246   51.0908 O   0  0  0  0  0  0  0  0  0  0  0  0
   69.1970   47.6657   52.5332 C   0  0  0  0  0  0  0  0  0  0  0  0
   68.7655   46.8335   51.5223 C   0  0  0  0  0  0  0  0  0  0  0  0
   67.8625   45.8313   51.8026 C   0  0  0  0  0  0  0  0  0  0  0  0
   67.4180   45.6935   53.0963 C   0  0  0  0  0  0  0  0  0  0  0  0
   67.8637   46.5433   54.1059 C   0  0  0  0  0  0  0  0  0  0  0  0
   68.7580   47.5461   53.8538 C   0  0  0  0  0  0  0  0  0  0  0  0
  8  9  1  0
  9 10  1  0
  9 13  1  0
 10 11  1  0
 11 12  1  0
 12 13  2  0
 12 18  1  0
 13 14  1  0
 14 15  1  0
 15 16  1  0
 15 18  1  0
 16 17  2  0
 16  1  1  0
  1  2  2  0
  1  6  1  0
  2  3  1  0
  3 19  1  0
  3  4  2  0
 19 20  1  0
 20 21  2  0
 20 30  1  0
 21 22  1  0
 22 23  1  0
 23 24  2  0
 23 25  1  0
 25 26  1  0
 25 30  2  0
 26 27  2  0
 27 28  1  0
 28 29  2  0
 29 30  1  0
  4  5  1  0
  5  6  2  0
  6  7  1  0
M  END
>  <minimizedAffinity>  (118) 
-9.65471

$$$$
cs_full_output_folder/data/smiles/2250.pdb
     RDKit          3D

 30 34  0  0  0  0  0  0  0  0999 V2000
   71.4685   47.4337   58.8445 C   0  0  0  0  0  0  0  0  0  0  0  0
   70.5641   48.0838   58.0261 C   0  0  0  0  0  0  0  0  0  0  0  0
   69.7142   47.4797   57.1455 C   0  0  0  0  0  0  0  0  0  0  0  0
   69.8211   46.0716   57.1174 C   0  0  0  0  0  0  0  0  0  0  0  0
   70.6926   45.3765   57.8999 C   0  0  0  0  0  0  0  0  0  0  0  0
   71.5230   46.0575   58.7704 C   0  0  0  0  0  0  0  0  0  0  0  0
   72.3972   45.3820   59.5564 F   0  0  0  0  0  0  0  0  0  0  0  0
   76.1937   49.9067   55.6407 C   0  0  0  0  0  0  0  0  0  0  0  0
   76.1079   50.0168   57.0951 N   0  0  0  0  0  0  0  0  0  0  0  0
   77.1347   50.4090   57.8565 N   0  0  0  0  0  0  0  0  0  0  0  0
   76.7522   50.4132   59.1489 C   0  0  0  0  0  0  0  0  0  0  0  0
   75.4253   50.0034   59.1875 C   0  0  0  0  0  0  0  0  0  0  0  0
   75.0538   49.7625   57.8843 C   0  0  0  0  0  0  0  0  0  0  0  0
   73.6396   49.3239   57.9202 C   0  0  0  0  0  0  0  0  0  0  0  0
   73.3539   49.0023   59.2992 N   0  0  0  0  0  0  0  0  0  0  0  0
   72.3462   48.1275   59.7620 C   0  0  0  0  0  0  0  0  0  0  0  0
   72.2152   47.9542   60.9969 O   0  0  0  0  0  0  0  0  0  0  0  0
   74.2939   49.7396   60.1053 C   0  0  0  0  0  0  0  0  0  0  0  0
   68.7345   48.1563   56.2612 C   0  0  0  0  0  0  0  0  0  0  0  0
   69.1475   48.3260   54.8755 C   0  0  0  0  0  0  0  0  0  0  0  0
   70.0351   49.3099   54.5256 N   0  0  0  0  0  0  0  0  0  0  0  0
   70.4866   49.4722   53.3078 N   0  0  0  0  0  0  0  0  0  0  0  0
   70.1095   48.6785   52.3024 C   0  0  0  0  0  0  0  0  0  0  0  0
   70.5584   48.8456   51.1142 O   0  0  0  0  0  0  0  0  0  0  0  0
   69.2188   47.6630   52.5591 C   0  0  0  0  0  0  0  0  0  0  0  0
   68.8114   46.8544   51.5217 C   0  0  0  0  0  0  0  0  0  0  0  0
   67.9065   45.8534   51.7719 C   0  0  0  0  0  0  0  0  0  0  0  0
   67.4190   45.6714   53.0449 C   0  0  0  0  0  0  0  0  0  0  0  0
   67.8347   46.4844   54.0634 C   0  0  0  0  0  0  0  0  0  0  0  0
   68.7385   47.4945   53.8600 C   0  0  0  0  0  0  0  0  0  0  0  0
  8  9  1  0
  9 10  1  0
  9 13  2  0
 10 11  1  0
 11 12  2  0
 12 13  1  0
 12 18  1  0
 13 14  1  0
 14 15  1  0
 15 16  1  0
 15 18  1  0
 16 17  2  0
 16  1  1  0
  1  2  2  0
  1  6  1  0
  2  3  1  0
  3 19  1  0
  3  4  2  0
 19 20  1  0
 20 21  2  0
 20 30  1  0
 21 22  1  0
 22 23  1  0
 23 24  2  0
 23 25  1  0
 25 26  1  0
 25 30  2  0
 26 27  2  0
 27 28  1  0
 28 29  2  0
 29 30  1  0
  4  5  1  0
  5  6  2  0
  6  7  1  0
M  CHG  1   9   1
M  END
>  <minimizedAffinity>  (119) 
-9.65275

$$$$
cs_full_output_folder/data/smiles/97.pdb
     RDKit          3D

 31 33  0  0  0  0  0  0  0  0999 V2000
   67.7263   45.5801   52.6570 C   0  0  0  0  0  0  0  0  0  0  0  0
   68.5036   46.7846   53.0423 C   0  0  0  0  0  0  0  0  0  0  0  0
   68.9152   47.6745   52.0521 C   0  0  0  0  0  0  0  0  0  0  0  0
   69.6412   48.8058   52.3711 C   0  0  0  0  0  0  0  0  0  0  0  0
   69.9560   49.0400   53.7001 C   0  0  0  0  0  0  0  0  0  0  0  0
   69.5299   48.1358   54.6544 C   0  0  0  0  0  0  0  0  0  0  0  0
   68.8160   47.0163   54.3682 C   0  0  0  0  0  0  0  0  0  0  0  0
   70.9221   50.4464   54.0760 S   0  0  0  0  0  0  0  0  0  0  0  0
   72.3912   50.0642   53.9181 O   0  0  0  0  0  0  0  0  0  0  0  0
   70.6354   51.5865   53.1590 O   0  0  0  0  0  0  0  0  0  0  0  0
   70.7462   50.9025   55.7459 N   0  0  0  0  0  0  0  0  0  0  0  0
   69.4879   50.8087   56.4135 C   0  0  0  0  0  0  0  0  0  0  0  0
   69.4124   49.8588   57.4213 C   0  0  0  0  0  0  0  0  0  0  0  0
   68.2166   49.6923   58.0819 C   0  0  0  0  0  0  0  0  0  0  0  0
   67.1107   50.4673   57.7369 C   0  0  0  0  0  0  0  0  0  0  0  0
   67.2009   51.4039   56.7401 C   0  0  0  0  0  0  0  0  0  0  0  0
   68.3852   51.5781   56.0758 C   0  0  0  0  0  0  0  0  0  0  0  0
   68.4989   52.4816   55.1039 F   0  0  0  0  0  0  0  0  0  0  0  0
   68.3935   46.0803   55.3864 C   0  0  0  0  0  0  0  0  0  0  0  0
   68.0281   46.4961   56.5419 O   0  0  0  0  0  0  0  0  0  0  0  0
   68.3413   44.6639   55.2221 N   0  0  0  0  0  0  0  0  0  0  0  0
   67.9141   43.7985   56.2635 N   0  0  0  0  0  0  0  0  0  0  0  0
   68.8331   43.0485   57.0423 C   0  0  0  0  0  0  0  0  0  0  0  0
   70.0521   43.1851   56.7764 O   0  0  0  0  0  0  0  0  0  0  0  0
   68.4296   42.1449   58.1077 C   0  0  0  0  0  0  0  0  0  0  0  0
   67.8631   40.9119   57.9250 C   0  0  0  0  0  0  0  0  0  0  0  0
   67.5225   40.0874   58.9823 C   0  0  0  0  0  0  0  0  0  0  0  0
   67.7360   40.4641   60.3032 C   0  0  0  0  0  0  0  0  0  0  0  0
   68.3096   41.7148   60.4984 C   0  0  0  0  0  0  0  0  0  0  0  0
   68.6439   42.5237   59.4378 C   0  0  0  0  0  0  0  0  0  0  0  0
   69.2116   43.7617   59.6871 O   0  0  0  0  0  0  0  0  0  0  0  0
  1  2  1  0
  2  3  2  0
  2  7  1  0
  3  4  1  0
  4  5  2  0
  5  8  1  0
  5  6  1  0
  8  9  2  0
  8 10  2  0
  8 11  1  0
 11 12  1  0
 12 13  2  0
 12 17  1  0
 13 14  1  0
 14 15  2  0
 15 16  1  0
 16 17  2  0
 17 18  1  0
  6  7  2  0
  7 19  1  0
 19 20  2  0
 19 21  1  0
 21 22  1  0
 22 23  1  0
 23 24  2  0
 23 25  1  0
 25 26  2  0
 25 30  1  0
 26 27  1  0
 27 28  2  0
 28 29  1  0
 29 30  2  0
 30 31  1  0
M  END
>  <minimizedAffinity>  (120) 
-9.65232

$$$$
cs_full_output_folder/data/smiles/1312.pdb
     RDKit          3D

 33 37  0  0  0  0  0  0  0  0999 V2000
   71.3993   46.7116   58.9800 C   0  0  0  0  0  0  0  0  0  0  0  0
   70.4733   47.4070   58.2380 C   0  0  0  0  0  0  0  0  0  0  0  0
   69.6822   46.7971   57.2533 C   0  0  0  0  0  0  0  0  0  0  0  0
   69.8490   45.4587   57.0348 C   0  0  0  0  0  0  0  0  0  0  0  0
   70.7945   44.7512   57.7937 C   0  0  0  0  0  0  0  0  0  0  0  0
   71.5574   45.3782   58.7546 C   0  0  0  0  0  0  0  0  0  0  0  0
   72.4566   44.6752   59.4670 F   0  0  0  0  0  0  0  0  0  0  0  0
   71.8865   47.1952   61.1805 O   0  0  0  0  0  0  0  0  0  0  0  0
   72.1620   47.4602   59.9827 C   0  0  0  0  0  0  0  0  0  0  0  0
   73.1418   48.4159   59.5880 N   0  0  0  0  0  0  0  0  0  0  0  0
   73.7276   48.9968   60.7720 C   0  0  0  0  0  0  0  0  0  0  0  0
   75.0181   49.7005   60.5705 C   0  0  0  0  0  0  0  0  0  0  0  0
   75.0886   50.6465   59.4230 C   0  0  0  0  0  0  0  0  0  0  0  0
   73.8089   51.1830   59.1408 N   0  0  0  0  0  0  0  0  0  0  0  0
   73.2367   50.9767   57.9755 N   0  0  0  0  0  0  0  0  0  0  0  0
   72.6835   49.7662   57.5856 C   0  0  0  0  0  0  0  0  0  0  0  0
   73.2434   48.5064   58.1534 C   0  0  0  0  0  0  0  0  0  0  0  0
   73.2103   51.9417   56.9468 C   0  0  0  0  0  0  0  0  0  0  0  0
   72.8014   53.3138   57.2827 C   0  0  0  0  0  0  0  0  0  0  0  0
   73.5623   54.2819   58.0478 C   0  0  0  0  0  0  0  0  0  0  0  0
   73.5396   54.4279   56.5330 C   0  0  0  0  0  0  0  0  0  0  0  0
   68.6944   47.6181   56.5269 C   0  0  0  0  0  0  0  0  0  0  0  0
   69.1740   47.9609   55.1685 C   0  0  0  0  0  0  0  0  0  0  0  0
   70.1113   48.9543   55.0523 N   0  0  0  0  0  0  0  0  0  0  0  0
   70.6202   49.2722   53.8861 N   0  0  0  0  0  0  0  0  0  0  0  0
   70.2633   48.6594   52.7500 C   0  0  0  0  0  0  0  0  0  0  0  0
   70.7732   48.9869   51.6293 O   0  0  0  0  0  0  0  0  0  0  0  0
   69.3251   47.6563   52.8170 C   0  0  0  0  0  0  0  0  0  0  0  0
   68.9295   47.0184   51.6464 C   0  0  0  0  0  0  0  0  0  0  0  0
   67.9774   46.0293   51.7347 C   0  0  0  0  0  0  0  0  0  0  0  0
   67.4148   45.6665   52.9464 C   0  0  0  0  0  0  0  0  0  0  0  0
   67.8077   46.3008   54.1128 C   0  0  0  0  0  0  0  0  0  0  0  0
   68.7716   47.3023   54.0403 C   0  0  0  0  0  0  0  0  0  0  0  0
  8  9  2  0
  9  1  1  0
  9 10  1  0
  1  2  2  0
  1  6  1  0
  2  3  1  0
  3 22  1  0
  3  4  2  0
 22 23  1  0
 23 24  2  0
 23 33  1  0
 24 25  1  0
 25 26  1  0
 26 27  2  0
 26 28  1  0
 28 29  1  0
 28 33  2  0
 29 30  2  0
 30 31  1  0
 31 32  2  0
 32 33  1  0
  4  5  1  0
  5  6  2  0
  6  7  1  0
 10 11  1  0
 10 17  1  0
 11 12  1  0
 12 13  1  0
 13 14  1  0
 14 15  1  0
 15 18  1  0
 15 16  1  0
 18 19  1  0
 19 20  1  0
 19 21  1  0
 20 21  1  0
 16 17  1  0
M  END
>  <minimizedAffinity>  (121) 
-9.64692

$$$$
cs_full_output_folder/data/smiles/9159.pdb
     RDKit          3D

 33 36  0  0  0  0  0  0  0  0999 V2000
   71.5043   46.8683   58.8893 C   0  0  0  0  0  0  0  0  0  0  0  0
   70.5893   47.5954   58.1156 C   0  0  0  0  0  0  0  0  0  0  0  0
   69.7472   47.0095   57.2335 C   0  0  0  0  0  0  0  0  0  0  0  0
   69.7649   45.6159   57.0595 C   0  0  0  0  0  0  0  0  0  0  0  0
   70.6562   44.8985   57.8118 C   0  0  0  0  0  0  0  0  0  0  0  0
   71.5069   45.5062   58.7059 C   0  0  0  0  0  0  0  0  0  0  0  0
   72.3725   44.7243   59.4237 F   0  0  0  0  0  0  0  0  0  0  0  0
   74.6971   50.0270   58.2544 N   0  0  0  0  0  0  0  0  0  0  0  0
   75.7916   50.2060   59.1769 C   0  0  0  0  0  0  0  0  0  0  0  0
   75.8721   48.9468   60.0182 C   0  0  0  0  0  0  0  0  0  0  0  0
   74.5270   48.5023   60.5097 C   0  0  0  0  0  0  0  0  0  0  0  0
   73.7260   47.8789   59.4706 N   0  0  0  0  0  0  0  0  0  0  0  0
   72.4074   47.5086   59.8318 C   0  0  0  0  0  0  0  0  0  0  0  0
   72.0202   47.7452   61.0006 O   0  0  0  0  0  0  0  0  0  0  0  0
   74.1834   47.6232   58.1154 C   0  0  0  0  0  0  0  0  0  0  0  0
   74.5062   48.9002   57.3660 C   0  0  0  0  0  0  0  0  0  0  0  0
   72.5134   50.7003   57.7027 C   0  0  0  0  0  0  0  0  0  0  0  0
   73.6917   51.0295   58.1815 C   0  0  0  0  0  0  0  0  0  0  0  0
   73.9076   52.3658   58.6002 N   0  0  0  0  0  0  0  0  0  0  0  0
   70.0989   51.1459   58.1176 C   0  0  0  0  0  0  0  0  0  0  0  0
   71.4274   51.7047   57.6011 C   0  0  0  0  0  0  0  0  0  0  0  0
   68.7694   47.7601   56.4345 C   0  0  0  0  0  0  0  0  0  0  0  0
   69.2576   47.9925   55.1019 C   0  0  0  0  0  0  0  0  0  0  0  0
   70.2084   48.9474   54.8844 N   0  0  0  0  0  0  0  0  0  0  0  0
   70.6656   49.2296   53.6912 N   0  0  0  0  0  0  0  0  0  0  0  0
   70.2351   48.6025   52.5914 C   0  0  0  0  0  0  0  0  0  0  0  0
   70.6646   48.8631   51.4364 O   0  0  0  0  0  0  0  0  0  0  0  0
   69.2810   47.6300   52.7454 C   0  0  0  0  0  0  0  0  0  0  0  0
   68.8230   46.9423   51.6496 C   0  0  0  0  0  0  0  0  0  0  0  0
   67.8852   45.9539   51.7865 C   0  0  0  0  0  0  0  0  0  0  0  0
   67.4074   45.6606   53.0497 C   0  0  0  0  0  0  0  0  0  0  0  0
   67.8423   46.3302   54.1741 C   0  0  0  0  0  0  0  0  0  0  0  0
   68.7857   47.3207   54.0102 C   0  0  0  0  0  0  0  0  0  0  0  0
 20 21  1  0
 21 17  1  0
 17 18  2  0
 18 19  1  0
 18  8  1  0
  8  9  1  0
  8 16  1  0
  9 10  1  0
 10 11  1  0
 11 12  1  0
 12 13  1  0
 12 15  1  0
 13 14  2  0
 13  1  1  0
  1  2  2  0
  1  6  1  0
  2  3  1  0
  3 22  1  0
  3  4  2  0
 22 23  1  0
 23 24  2  0
 23 33  1  0
 24 25  1  0
 25 26  1  0
 26 27  2  0
 26 28  1  0
 28 29  1  0
 28 33  2  0
 29 30  2  0
 30 31  1  0
 31 32  2  0
 32 33  1  0
  4  5  1  0
  5  6  2  0
  6  7  1  0
 15 16  1  0
M  END
>  <minimizedAffinity>  (122) 
-9.64688

$$$$
cs_full_output_folder/data/smiles/1657.pdb
     RDKit          3D

 28 30  0  0  0  0  0  0  0  0999 V2000
   68.2375   45.8238   53.9120 C   0  0  0  0  0  0  0  0  0  0  0  0
   67.6530   45.3383   52.7676 C   0  0  0  0  0  0  0  0  0  0  0  0
   67.7558   46.0242   51.5740 C   0  0  0  0  0  0  0  0  0  0  0  0
   68.4563   47.2256   51.5028 C   0  0  0  0  0  0  0  0  0  0  0  0
   69.0528   47.7318   52.6424 C   0  0  0  0  0  0  0  0  0  0  0  0
   68.9248   47.0131   53.8164 C   0  0  0  0  0  0  0  0  0  0  0  0
   67.7571   43.7795   55.3456 N   0  0  0  0  0  0  0  0  0  0  0  0
   68.1569   45.1318   55.1949 C   0  0  0  0  0  0  0  0  0  0  0  0
   68.4521   45.7365   56.2557 O   0  0  0  0  0  0  0  0  0  0  0  0
   67.4811   41.7096   56.6264 C   0  0  0  0  0  0  0  0  0  0  0  0
   67.3840   41.1244   55.5137 O   0  0  0  0  0  0  0  0  0  0  0  0
   67.6793   43.1167   56.5800 N   0  0  0  0  0  0  0  0  0  0  0  0
   65.8315   41.0503   61.2815 C   0  0  0  0  0  0  0  0  0  0  0  0
   66.6121   40.6052   60.0976 C   0  0  0  0  0  0  0  0  0  0  0  0
   67.2847   39.3918   60.1923 C   0  0  0  0  0  0  0  0  0  0  0  0
   68.0073   38.9624   59.1161 C   0  0  0  0  0  0  0  0  0  0  0  0
   68.0519   39.7402   57.9688 C   0  0  0  0  0  0  0  0  0  0  0  0
   67.3896   40.9451   57.8650 C   0  0  0  0  0  0  0  0  0  0  0  0
   66.6737   41.3596   58.9433 C   0  0  0  0  0  0  0  0  0  0  0  0
   69.9513   49.2427   52.6120 S   0  0  0  0  0  0  0  0  0  0  0  0
   69.8326   49.7780   51.1933 O   0  0  0  0  0  0  0  0  0  0  0  0
   71.3930   48.9312   52.8281 O   0  0  0  0  0  0  0  0  0  0  0  0
   69.3139   50.4064   53.6573 N   0  0  0  0  0  0  0  0  0  0  0  0
   69.0652   49.9848   54.9924 C   0  0  0  0  0  0  0  0  0  0  0  0
   70.2949   49.8795   55.8563 C   0  0  0  0  0  0  0  0  0  0  0  0
   70.8517   51.2722   56.0236 C   0  0  0  0  0  0  0  0  0  0  0  0
   70.2666   52.2196   55.0136 C   0  0  0  0  0  0  0  0  0  0  0  0
   70.1066   51.5896   53.6494 C   0  0  0  0  0  0  0  0  0  0  0  0
 13 14  1  0
 14 15  2  0
 14 19  1  0
 15 16  1  0
 16 17  2  0
 17 18  1  0
 18 10  1  0
 18 19  2  0
 10 11  2  0
 10 12  1  0
 12  7  1  0
  7  8  1  0
  8  9  2  0
  8  1  1  0
  1  2  2  0
  1  6  1  0
  2  3  1  0
  3  4  2  0
  4  5  1  0
  5 20  1  0
  5  6  2  0
 20 21  2  0
 20 22  2  0
 20 23  1  0
 23 24  1  0
 23 28  1  0
 24 25  1  0
 25 26  1  0
 26 27  1  0
 27 28  1  0
M  END
>  <minimizedAffinity>  (123) 
-9.64137

$$$$
cs_full_output_folder/data/smiles/8070.pdb
     RDKit          3D

 32 37  0  0  0  0  0  0  0  0999 V2000
   71.3481   46.7390   58.7561 C   0  0  0  0  0  0  0  0  0  0  0  0
   70.4655   47.5228   58.0110 C   0  0  0  0  0  0  0  0  0  0  0  0
   69.5987   46.9917   57.1138 C   0  0  0  0  0  0  0  0  0  0  0  0
   69.5604   45.6038   56.9025 C   0  0  0  0  0  0  0  0  0  0  0  0
   70.4159   44.8220   57.6218 C   0  0  0  0  0  0  0  0  0  0  0  0
   71.2887   45.3818   58.5279 C   0  0  0  0  0  0  0  0  0  0  0  0
   72.1352   44.6004   59.2372 F   0  0  0  0  0  0  0  0  0  0  0  0
   71.7949   47.7624   60.7933 O   0  0  0  0  0  0  0  0  0  0  0  0
   72.2681   47.3442   59.7091 C   0  0  0  0  0  0  0  0  0  0  0  0
   73.6573   47.4767   59.4586 N   0  0  0  0  0  0  0  0  0  0  0  0
   74.8709   47.9775   60.0712 C   0  0  0  0  0  0  0  0  0  0  0  0
   75.4078   48.1684   58.7034 C   0  0  0  0  0  0  0  0  0  0  0  0
   76.8400   48.0823   58.4292 C   0  0  0  0  0  0  0  0  0  0  0  0
   76.7843   49.4262   57.8676 N   0  0  0  0  0  0  0  0  0  0  0  0
   75.3271   49.4887   58.0684 C   0  0  0  0  0  0  0  0  0  0  0  0
   74.4857   47.0888   58.3036 C   0  0  0  0  0  0  0  0  0  0  0  0
   77.0602   49.5268   56.4719 C   0  0  0  0  0  0  0  0  0  0  0  0
   78.1164   50.5245   56.1113 C   0  0  0  0  0  0  0  0  0  0  0  0
   79.5005   49.8880   55.9398 C   0  0  0  0  0  0  0  0  0  0  0  0
   79.2300   50.8573   57.0344 C   0  0  0  0  0  0  0  0  0  0  0  0
   68.6595   47.8177   56.2956 C   0  0  0  0  0  0  0  0  0  0  0  0
   69.1937   48.0084   54.9313 C   0  0  0  0  0  0  0  0  0  0  0  0
   70.1609   48.9406   54.7102 N   0  0  0  0  0  0  0  0  0  0  0  0
   70.6283   49.1800   53.5173 N   0  0  0  0  0  0  0  0  0  0  0  0
   70.2053   48.5419   52.4241 C   0  0  0  0  0  0  0  0  0  0  0  0
   70.6509   48.7699   51.2802 O   0  0  0  0  0  0  0  0  0  0  0  0
   69.2255   47.5821   52.5822 C   0  0  0  0  0  0  0  0  0  0  0  0
   68.7885   46.9069   51.4772 C   0  0  0  0  0  0  0  0  0  0  0  0
   67.8149   45.9195   51.5757 C   0  0  0  0  0  0  0  0  0  0  0  0
   67.3300   45.6730   52.8406 C   0  0  0  0  0  0  0  0  0  0  0  0
   67.7673   46.3538   53.9713 C   0  0  0  0  0  0  0  0  0  0  0  0
   68.7258   47.3247   53.8484 C   0  0  0  0  0  0  0  0  0  0  0  0
  8  9  2  0
  9  1  1  0
  9 10  1  0
  1  2  2  0
  1  6  1  0
  2  3  1  0
  3 21  1  0
  3  4  2  0
 21 22  1  0
 22 23  2  0
 22 32  1  0
 23 24  1  0
 24 25  1  0
 25 26  2  0
 25 27  1  0
 27 28  1  0
 27 32  2  0
 28 29  2  0
 29 30  1  0
 30 31  2  0
 31 32  1  0
  4  5  1  0
  5  6  2  0
  6  7  1  0
 10 11  1  0
 10 16  1  0
 11 12  1  0
 12 13  1  0
 12 15  1  0
 12 16  1  0
 13 14  1  0
 14 17  1  0
 14 15  1  0
 17 18  1  0
 18 19  1  0
 18 20  1  0
 19 20  1  0
M  CHG  1  14   1
M  END
>  <minimizedAffinity>  (124) 
-9.63312

$$$$
cs_full_output_folder/data/smiles/7564.pdb
     RDKit          3D

 31 35  0  0  0  0  0  0  0  0999 V2000
   72.0260   47.6546   58.3686 C   0  0  0  0  0  0  0  0  0  0  0  0
   71.1666   48.3262   57.5640 C   0  0  0  0  0  0  0  0  0  0  0  0
   69.9425   47.8112   57.1043 C   0  0  0  0  0  0  0  0  0  0  0  0
   69.6445   46.5423   57.5222 C   0  0  0  0  0  0  0  0  0  0  0  0
   70.5021   45.8191   58.3506 C   0  0  0  0  0  0  0  0  0  0  0  0
   71.7001   46.3778   58.7764 C   0  0  0  0  0  0  0  0  0  0  0  0
   72.5130   45.6512   59.5790 F   0  0  0  0  0  0  0  0  0  0  0  0
   76.4697   50.9167   55.8464 O   0  0  0  0  0  0  0  0  0  0  0  0
   76.9459   50.0167   56.6699 C   0  0  0  0  0  0  0  0  0  0  0  0
   75.9496   49.1890   57.2121 N   0  0  0  0  0  0  0  0  0  0  0  0
   74.5660   49.4202   56.7616 C   0  0  0  0  0  0  0  0  0  0  0  0
   73.8017   49.9018   58.0035 C   0  0  0  0  0  0  0  0  0  0  0  0
   73.5727   48.3307   58.9426 P   0  0  0  0  0  0  0  0  0  0  0  0
   73.5306   48.6129   60.5960 O   0  0  0  0  0  0  0  0  0  0  0  0
   74.9942   47.3168   58.4866 C   0  0  0  0  0  0  0  0  0  0  0  0
   76.2145   48.1731   58.1724 C   0  0  0  0  0  0  0  0  0  0  0  0
   78.3807   50.0496   56.8603 C   0  0  0  0  0  0  0  0  0  0  0  0
   79.0326   50.7894   58.0067 C   0  0  0  0  0  0  0  0  0  0  0  0
   79.2824   51.1950   56.5930 C   0  0  0  0  0  0  0  0  0  0  0  0
   69.0807   48.6134   56.2037 C   0  0  0  0  0  0  0  0  0  0  0  0
   69.4570   48.5813   54.7910 C   0  0  0  0  0  0  0  0  0  0  0  0
   70.3448   49.5127   54.3012 N   0  0  0  0  0  0  0  0  0  0  0  0
   70.6998   49.5798   53.0451 N   0  0  0  0  0  0  0  0  0  0  0  0
   70.1931   48.7105   52.1535 C   0  0  0  0  0  0  0  0  0  0  0  0
   70.5068   48.7385   50.9299 O   0  0  0  0  0  0  0  0  0  0  0  0
   69.2935   47.7357   52.5480 C   0  0  0  0  0  0  0  0  0  0  0  0
   68.7692   46.8312   51.6688 C   0  0  0  0  0  0  0  0  0  0  0  0
   67.8846   45.8644   52.0998 C   0  0  0  0  0  0  0  0  0  0  0  0
   67.5008   45.7787   53.4275 C   0  0  0  0  0  0  0  0  0  0  0  0
   68.0647   46.7281   54.2872 C   0  0  0  0  0  0  0  0  0  0  0  0
   68.9392   47.6974   53.9017 C   0  0  0  0  0  0  0  0  0  0  0  0
  8  9  2  0
  9 17  1  0
  9 10  1  0
 17 18  1  0
 17 19  1  0
 18 19  1  0
 10 11  1  0
 10 16  1  0
 11 12  1  0
 12 13  1  0
 13 14  1  0
 13  1  1  0
 13 15  1  0
  1  2  2  0
  1  6  1  0
  2  3  1  0
  3 20  1  0
  3  4  2  0
 20 21  1  0
 21 22  2  0
 21 31  1  0
 22 23  1  0
 23 24  1  0
 24 25  2  0
 24 26  1  0
 26 27  1  0
 26 31  2  0
 27 28  2  0
 28 29  1  0
 29 30  2  0
 30 31  1  0
  4  5  1  0
  5  6  2  0
  6  7  1  0
 15 16  1  0
M  CHG  1  13   1
M  END
>  <minimizedAffinity>  (125) 
-9.62920

$$$$
cs_full_output_folder/data/smiles/5884.pdb
     RDKit          3D

 32 35  0  0  0  0  0  0  0  0999 V2000
   71.3976   46.8487   58.8307 C   0  0  0  0  0  0  0  0  0  0  0  0
   70.6487   47.7406   58.1096 C   0  0  0  0  0  0  0  0  0  0  0  0
   69.7429   47.3221   57.1934 C   0  0  0  0  0  0  0  0  0  0  0  0
   69.5839   45.9526   56.9950 C   0  0  0  0  0  0  0  0  0  0  0  0
   70.3118   45.0178   57.6936 C   0  0  0  0  0  0  0  0  0  0  0  0
   71.2177   45.4994   58.6107 C   0  0  0  0  0  0  0  0  0  0  0  0
   71.9658   44.6033   59.3312 F   0  0  0  0  0  0  0  0  0  0  0  0
   76.0773   49.8880   57.9943 C   0  0  0  0  0  0  0  0  0  0  0  0
   76.3805   50.8958   58.6746 O   0  0  0  0  0  0  0  0  0  0  0  0
   75.5732   48.7424   58.6650 N   0  0  0  0  0  0  0  0  0  0  0  0
   75.2212   47.6107   57.8354 C   0  0  0  0  0  0  0  0  0  0  0  0
   74.4449   46.5396   58.5538 C   0  0  0  0  0  0  0  0  0  0  0  0
   73.7770   47.1676   59.6817 N   0  0  0  0  0  0  0  0  0  0  0  0
   72.3904   47.3159   59.8250 C   0  0  0  0  0  0  0  0  0  0  0  0
   71.9310   47.8730   60.8468 O   0  0  0  0  0  0  0  0  0  0  0  0
   74.6718   47.6687   60.7069 C   0  0  0  0  0  0  0  0  0  0  0  0
   75.4529   48.7845   60.0869 C   0  0  0  0  0  0  0  0  0  0  0  0
   78.7158   49.7421   56.7852 C   0  0  0  0  0  0  0  0  0  0  0  0
   77.4457   49.8793   56.0164 C   0  0  0  0  0  0  0  0  0  0  0  0
   76.2585   49.9451   56.5548 C   0  0  0  0  0  0  0  0  0  0  0  0
   68.8806   48.2000   56.3409 C   0  0  0  0  0  0  0  0  0  0  0  0
   69.3713   48.2651   54.9425 C   0  0  0  0  0  0  0  0  0  0  0  0
   70.3511   49.1612   54.6032 N   0  0  0  0  0  0  0  0  0  0  0  0
   70.7919   49.2993   53.3701 N   0  0  0  0  0  0  0  0  0  0  0  0
   70.2981   48.5579   52.3644 C   0  0  0  0  0  0  0  0  0  0  0  0
   70.7246   48.6973   51.1891 O   0  0  0  0  0  0  0  0  0  0  0  0
   69.3024   47.6185   52.5949 C   0  0  0  0  0  0  0  0  0  0  0  0
   68.7931   46.8382   51.5815 C   0  0  0  0  0  0  0  0  0  0  0  0
   67.8220   45.9027   51.8370 C   0  0  0  0  0  0  0  0  0  0  0  0
   67.3700   45.7655   53.1303 C   0  0  0  0  0  0  0  0  0  0  0  0
   67.8912   46.5566   54.1380 C   0  0  0  0  0  0  0  0  0  0  0  0
   68.8670   47.5077   53.9184 C   0  0  0  0  0  0  0  0  0  0  0  0
 18 19  1  0
 19 20  2  0
 20  8  1  0
  8  9  2  0
  8 10  1  0
 10 11  1  0
 10 17  1  0
 11 12  1  0
 12 13  1  0
 13 14  1  0
 13 16  1  0
 14 15  2  0
 14  1  1  0
  1  2  2  0
  1  6  1  0
  2  3  1  0
  3 21  1  0
  3  4  2  0
 21 22  1  0
 22 23  2  0
 22 32  1  0
 23 24  1  0
 24 25  1  0
 25 26  2  0
 25 27  1  0
 27 28  1  0
 27 32  2  0
 28 29  2  0
 29 30  1  0
 30 31  2  0
 31 32  1  0
  4  5  1  0
  5  6  2  0
  6  7  1  0
 16 17  1  0
M  END
>  <minimizedAffinity>  (126) 
-9.62919

$$$$
cs_full_output_folder/data/smiles/6082.pdb
     RDKit          3D

 31 35  0  0  0  0  0  0  0  0999 V2000
   71.5390   47.2497   58.9842 C   0  0  0  0  0  0  0  0  0  0  0  0
   70.7077   48.0525   58.2015 C   0  0  0  0  0  0  0  0  0  0  0  0
   69.8646   47.5292   57.2590 C   0  0  0  0  0  0  0  0  0  0  0  0
   69.8916   46.1289   57.1296 C   0  0  0  0  0  0  0  0  0  0  0  0
   70.7117   45.3412   57.9016 C   0  0  0  0  0  0  0  0  0  0  0  0
   71.5543   45.8813   58.8456 C   0  0  0  0  0  0  0  0  0  0  0  0
   72.3699   45.0909   59.6133 F   0  0  0  0  0  0  0  0  0  0  0  0
   72.1374   47.6459   61.1848 O   0  0  0  0  0  0  0  0  0  0  0  0
   72.4104   47.8809   59.9733 C   0  0  0  0  0  0  0  0  0  0  0  0
   73.5004   48.7108   59.6232 N   0  0  0  0  0  0  0  0  0  0  0  0
   74.4976   49.4440   60.3790 C   0  0  0  0  0  0  0  0  0  0  0  0
   75.4530   49.1249   59.2240 C   0  0  0  0  0  0  0  0  0  0  0  0
   74.1420   49.2144   58.4281 C   0  0  0  0  0  0  0  0  0  0  0  0
   76.4384   50.2170   58.9241 C   0  0  0  0  0  0  0  0  0  0  0  0
   77.7761   49.7647   58.7204 N   0  0  0  0  0  0  0  0  0  0  0  0
   77.9433   48.8253   57.6432 C   0  0  0  0  0  0  0  0  0  0  0  0
   79.2198   49.2658   56.9121 C   0  0  0  0  0  0  0  0  0  0  0  0
   79.0812   50.7843   57.0536 C   0  0  0  0  0  0  0  0  0  0  0  0
   78.6351   50.8866   58.4965 C   0  0  0  0  0  0  0  0  0  0  0  0
   68.9310   48.2937   56.3930 C   0  0  0  0  0  0  0  0  0  0  0  0
   69.3548   48.3761   54.9808 C   0  0  0  0  0  0  0  0  0  0  0  0
   70.3159   49.2851   54.6319 N   0  0  0  0  0  0  0  0  0  0  0  0
   70.7688   49.3812   53.4023 N   0  0  0  0  0  0  0  0  0  0  0  0
   70.3198   48.5976   52.4137 C   0  0  0  0  0  0  0  0  0  0  0  0
   70.7545   48.6879   51.2356 O   0  0  0  0  0  0  0  0  0  0  0  0
   69.3504   47.6550   52.6776 C   0  0  0  0  0  0  0  0  0  0  0  0
   68.8829   46.8585   51.6551 C   0  0  0  0  0  0  0  0  0  0  0  0
   67.9034   45.9398   51.9671 C   0  0  0  0  0  0  0  0  0  0  0  0
   67.4148   45.8257   53.2470 C   0  0  0  0  0  0  0  0  0  0  0  0
   67.8939   46.6280   54.2505 C   0  0  0  0  0  0  0  0  0  0  0  0
   68.8752   47.5625   53.9913 C   0  0  0  0  0  0  0  0  0  0  0  0
  8  9  2  0
  9  1  1  0
  9 10  1  0
  1  2  2  0
  1  6  1  0
  2  3  1  0
  3 20  1  0
  3  4  2  0
 20 21  1  0
 21 22  2  0
 21 31  1  0
 22 23  1  0
 23 24  1  0
 24 25  2  0
 24 26  1  0
 26 27  1  0
 26 31  2  0
 27 28  2  0
 28 29  1  0
 29 30  2  0
 30 31  1  0
  4  5  1  0
  5  6  2  0
  6  7  1  0
 10 11  1  0
 10 13  1  0
 11 12  1  0
 12 14  1  0
 12 13  1  0
 14 15  1  0
 15 16  1  0
 15 19  1  0
 16 17  1  0
 17 18  1  0
 18 19  1  0
M  CHG  1  15   1
M  END
>  <minimizedAffinity>  (127) 
-9.62887

$$$$
cs_full_output_folder/data/smiles/1372.pdb
     RDKit          3D

 30 33  0  0  0  0  0  0  0  0999 V2000
   71.2952   46.3455   58.8108 C   0  0  0  0  0  0  0  0  0  0  0  0
   70.6324   47.3002   58.0708 C   0  0  0  0  0  0  0  0  0  0  0  0
   69.7250   46.9666   57.0421 C   0  0  0  0  0  0  0  0  0  0  0  0
   69.4823   45.6552   56.7554 C   0  0  0  0  0  0  0  0  0  0  0  0
   70.1534   44.6766   57.5061 C   0  0  0  0  0  0  0  0  0  0  0  0
   71.0346   45.0249   58.5059 C   0  0  0  0  0  0  0  0  0  0  0  0
   71.6523   44.0406   59.1953 F   0  0  0  0  0  0  0  0  0  0  0  0
   74.9786   51.4109   59.6733 C   0  0  0  0  0  0  0  0  0  0  0  0
   75.1751   50.2647   58.7413 C   0  0  0  0  0  0  0  0  0  0  0  0
   75.3722   50.5201   57.5374 O   0  0  0  0  0  0  0  0  0  0  0  0
   75.1461   48.9190   59.1768 N   0  0  0  0  0  0  0  0  0  0  0  0
   75.3316   47.8141   58.2567 C   0  0  0  0  0  0  0  0  0  0  0  0
   74.3049   46.7247   58.4166 C   0  0  0  0  0  0  0  0  0  0  0  0
   73.6228   46.8955   59.6782 N   0  0  0  0  0  0  0  0  0  0  0  0
   72.2303   46.7200   59.8664 C   0  0  0  0  0  0  0  0  0  0  0  0
   71.6897   46.8845   61.0139 O   0  0  0  0  0  0  0  0  0  0  0  0
   74.4276   47.2702   60.8244 C   0  0  0  0  0  0  0  0  0  0  0  0
   74.9197   48.6844   60.6075 C   0  0  0  0  0  0  0  0  0  0  0  0
   69.0709   48.0650   56.2864 C   0  0  0  0  0  0  0  0  0  0  0  0
   69.4793   48.1480   54.8738 C   0  0  0  0  0  0  0  0  0  0  0  0
   70.4657   49.0353   54.5211 N   0  0  0  0  0  0  0  0  0  0  0  0
   70.8376   49.2018   53.2719 N   0  0  0  0  0  0  0  0  0  0  0  0
   70.2803   48.5174   52.2491 C   0  0  0  0  0  0  0  0  0  0  0  0
   70.6753   48.7173   51.0563 O   0  0  0  0  0  0  0  0  0  0  0  0
   69.2842   47.6073   52.5238 C   0  0  0  0  0  0  0  0  0  0  0  0
   68.7123   46.8862   51.4964 C   0  0  0  0  0  0  0  0  0  0  0  0
   67.7367   45.9738   51.7960 C   0  0  0  0  0  0  0  0  0  0  0  0
   67.3554   45.8077   53.1275 C   0  0  0  0  0  0  0  0  0  0  0  0
   67.9389   46.5376   54.1349 C   0  0  0  0  0  0  0  0  0  0  0  0
   68.9038   47.4452   53.8569 C   0  0  0  0  0  0  0  0  0  0  0  0
  8  9  1  0
  9 10  2  0
  9 11  1  0
 11 12  1  0
 11 18  1  0
 12 13  1  0
 13 14  1  0
 14 15  1  0
 14 17  1  0
 15 16  2  0
 15  1  1  0
  1  2  2  0
  1  6  1  0
  2  3  1  0
  3 19  1  0
  3  4  2  0
 19 20  1  0
 20 21  2  0
 20 30  1  0
 21 22  1  0
 22 23  1  0
 23 24  2  0
 23 25  1  0
 25 26  1  0
 25 30  2  0
 26 27  2  0
 27 28  1  0
 28 29  2  0
 29 30  1  0
  4  5  1  0
  5  6  2  0
  6  7  1  0
 17 18  1  0
M  END
>  <minimizedAffinity>  (128) 
-9.62807

$$$$
cs_full_output_folder/data/smiles/1166.pdb
     RDKit          3D

 27 28  0  0  0  0  0  0  0  0999 V2000
   69.7707   49.0804   52.5796 S   0  0  0  0  0  0  0  0  0  0  0  0
   69.4558   49.1335   51.0900 O   0  0  0  0  0  0  0  0  0  0  0  0
   71.3021   49.0380   52.6313 O   0  0  0  0  0  0  0  0  0  0  0  0
   69.0836   47.6523   53.2391 C   0  0  0  0  0  0  0  0  0  0  0  0
   69.1359   47.3621   54.5839 C   0  0  0  0  0  0  0  0  0  0  0  0
   69.7531   48.1798   55.4740 F   0  0  0  0  0  0  0  0  0  0  0  0
   68.5433   46.1967   55.0792 C   0  0  0  0  0  0  0  0  0  0  0  0
   68.6071   45.9152   56.4695 N   0  0  0  0  0  0  0  0  0  0  0  0
   67.9041   45.3345   54.2153 C   0  0  0  0  0  0  0  0  0  0  0  0
   67.3313   44.2112   54.6832 F   0  0  0  0  0  0  0  0  0  0  0  0
   67.8445   45.6075   52.8812 C   0  0  0  0  0  0  0  0  0  0  0  0
   67.2136   44.7660   51.9965 F   0  0  0  0  0  0  0  0  0  0  0  0
   68.4350   46.7612   52.4183 C   0  0  0  0  0  0  0  0  0  0  0  0
   68.3576   47.0035   51.0879 F   0  0  0  0  0  0  0  0  0  0  0  0
   69.3153   50.5499   53.2788 N   0  0  0  0  0  0  0  0  0  0  0  0
   71.3472   52.8276   56.1909 C   0  0  0  0  0  0  0  0  0  0  0  0
   69.9977   53.0579   55.8594 C   0  0  0  0  0  0  0  0  0  0  0  0
   69.3418   52.3138   54.9207 C   0  0  0  0  0  0  0  0  0  0  0  0
   70.0003   51.2972   54.2607 C   0  0  0  0  0  0  0  0  0  0  0  0
   71.3413   51.0740   54.5962 C   0  0  0  0  0  0  0  0  0  0  0  0
   72.0410   51.7830   55.5206 C   0  0  0  0  0  0  0  0  0  0  0  0
   73.3964   51.5617   55.8619 N   0  0  0  0  0  0  0  0  0  0  0  0
   74.3817   50.9353   55.1005 C   0  0  0  0  0  0  0  0  0  0  0  0
   75.7398   50.7643   55.5508 N   0  0  0  0  0  0  0  0  0  0  0  0
   74.1153   50.4875   53.9698 O   0  0  0  0  0  0  0  0  0  0  0  0
   72.5770   54.1831   58.0049 C   0  0  0  0  0  0  0  0  0  0  0  0
   71.9643   53.5336   57.0783 O   0  0  0  0  0  0  0  0  0  0  0  0
 26 27  1  0
 27 16  1  0
 16 17  2  0
 16 21  1  0
 17 18  1  0
 18 19  2  0
 19 15  1  0
 19 20  1  0
 15  1  1  0
  1  2  2  0
  1  3  2  0
  1  4  1  0
  4  5  2  0
  4 13  1  0
  5  6  1  0
  5  7  1  0
  7  8  1  0
  7  9  2  0
  9 10  1  0
  9 11  1  0
 11 12  1  0
 11 13  2  0
 13 14  1  0
 20 21  2  0
 21 22  1  0
 22 23  1  0
 23 24  1  0
 23 25  2  0
M  END
>  <minimizedAffinity>  (129) 
-9.62726

$$$$
cs_full_output_folder/data/smiles/1243.pdb
     RDKit          3D

 27 28  0  0  0  0  0  0  0  0999 V2000
   69.9532   49.1557   52.5919 S   0  0  0  0  0  0  0  0  0  0  0  0
   69.9836   49.1063   51.0839 O   0  0  0  0  0  0  0  0  0  0  0  0
   71.3704   49.1597   53.0781 O   0  0  0  0  0  0  0  0  0  0  0  0
   69.1746   47.7132   53.2290 C   0  0  0  0  0  0  0  0  0  0  0  0
   69.1585   47.4582   54.5799 C   0  0  0  0  0  0  0  0  0  0  0  0
   69.7393   48.2877   55.4800 F   0  0  0  0  0  0  0  0  0  0  0  0
   68.5390   46.3171   55.0996 C   0  0  0  0  0  0  0  0  0  0  0  0
   68.5228   46.0629   56.4499 O   0  0  0  0  0  0  0  0  0  0  0  0
   67.9434   45.4555   54.1979 C   0  0  0  0  0  0  0  0  0  0  0  0
   67.3333   44.3393   54.6673 F   0  0  0  0  0  0  0  0  0  0  0  0
   67.9589   45.7063   52.8582 C   0  0  0  0  0  0  0  0  0  0  0  0
   67.3795   44.8726   51.9409 F   0  0  0  0  0  0  0  0  0  0  0  0
   68.5705   46.8312   52.3573 C   0  0  0  0  0  0  0  0  0  0  0  0
   68.5874   47.0865   51.0053 F   0  0  0  0  0  0  0  0  0  0  0  0
   69.1839   50.5908   53.1089 N   0  0  0  0  0  0  0  0  0  0  0  0
   71.1243   53.1843   55.8589 C   0  0  0  0  0  0  0  0  0  0  0  0
   69.7493   53.0867   55.7777 C   0  0  0  0  0  0  0  0  0  0  0  0
   69.0948   52.2586   54.8987 C   0  0  0  0  0  0  0  0  0  0  0  0
   69.8428   51.4603   54.0282 C   0  0  0  0  0  0  0  0  0  0  0  0
   71.2132   51.5694   54.1225 C   0  0  0  0  0  0  0  0  0  0  0  0
   71.8688   52.4039   55.0091 C   0  0  0  0  0  0  0  0  0  0  0  0
   73.3111   52.4576   55.0420 N   0  0  0  0  0  0  0  0  0  0  0  0
   74.0579   51.2952   55.3412 C   0  0  0  0  0  0  0  0  0  0  0  0
   75.4775   51.2625   55.3942 N   0  0  0  0  0  0  0  0  0  0  0  0
   73.4018   50.2385   55.5713 O   0  0  0  0  0  0  0  0  0  0  0  0
   72.2589   53.5772   57.9968 C   0  0  0  0  0  0  0  0  0  0  0  0
   71.7736   54.0174   56.7448 O   0  0  0  0  0  0  0  0  0  0  0  0
 26 27  1  0
 27 16  1  0
 16 17  2  0
 16 21  1  0
 17 18  1  0
 18 19  2  0
 19 15  1  0
 19 20  1  0
 15  1  1  0
  1  2  2  0
  1  3  2  0
  1  4  1  0
  4  5  2  0
  4 13  1  0
  5  6  1  0
  5  7  1  0
  7  8  1  0
  7  9  2  0
  9 10  1  0
  9 11  1  0
 11 12  1  0
 11 13  2  0
 13 14  1  0
 20 21  2  0
 21 22  1  0
 22 23  1  0
 23 24  1  0
 23 25  2  0
M  END
>  <minimizedAffinity>  (130) 
-9.62368

$$$$
cs_full_output_folder/data/smiles/84.pdb
     RDKit          3D

 33 36  0  0  0  0  0  0  0  0999 V2000
   72.4162   41.4566   58.7021 C   0  0  0  0  0  0  0  0  0  0  0  0
   71.8771   42.1560   57.6437 C   0  0  0  0  0  0  0  0  0  0  0  0
   71.7406   43.5175   57.6395 C   0  0  0  0  0  0  0  0  0  0  0  0
   72.1498   44.2962   58.7312 C   0  0  0  0  0  0  0  0  0  0  0  0
   72.6882   43.6060   59.7904 C   0  0  0  0  0  0  0  0  0  0  0  0
   72.8193   42.2143   59.7747 C   0  0  0  0  0  0  0  0  0  0  0  0
   73.1212   44.3773   60.9526 C   0  0  0  0  0  0  0  0  0  0  0  0
   73.6179   43.7154   61.9216 O   0  0  0  0  0  0  0  0  0  0  0  0
   72.9878   45.7871   60.9860 N   0  0  0  0  0  0  0  0  0  0  0  0
   73.4100   46.4754   62.1022 O   0  0  0  0  0  0  0  0  0  0  0  0
   72.4308   46.4656   59.8856 C   0  0  0  0  0  0  0  0  0  0  0  0
   72.3372   47.7254   60.0043 O   0  0  0  0  0  0  0  0  0  0  0  0
   71.9863   45.7658   58.6810 C   0  0  2  0  0  0  0  0  0  0  0  0
   70.3172   39.6227   58.5633 O   0  0  0  0  0  0  0  0  0  0  0  0
   71.4750   39.1370   58.6214 C   0  0  0  0  0  0  0  0  0  0  0  0
   72.5512   40.0409   58.6927 N   0  0  0  0  0  0  0  0  0  0  0  0
   71.6004   37.6860   58.6105 C   0  0  0  0  0  0  0  0  0  0  0  0
   72.3208   37.0434   57.6240 C   0  0  0  0  0  0  0  0  0  0  0  0
   72.4845   35.6865   57.5458 C   0  0  0  0  0  0  0  0  0  0  0  0
   71.8876   34.9175   58.5218 C   0  0  0  0  0  0  0  0  0  0  0  0
   71.1547   35.5084   59.5336 C   0  0  0  0  0  0  0  0  0  0  0  0
   71.0187   36.8813   59.5679 C   0  0  0  0  0  0  0  0  0  0  0  0
   70.5983   46.1476   58.2823 C   0  0  0  0  0  0  0  0  0  0  0  0
   69.6301   45.7062   58.9479 O   0  0  0  0  0  0  0  0  0  0  0  0
   70.3326   46.9887   57.1809 N   0  0  0  0  0  0  0  0  0  0  0  0
   69.0059   47.3829   56.7659 C   0  0  0  0  0  0  0  0  0  0  0  0
   68.7900   47.1056   55.3382 C   0  0  0  0  0  0  0  0  0  0  0  0
   69.1965   48.0791   54.4244 C   0  0  0  0  0  0  0  0  0  0  0  0
   69.0511   47.9206   53.0731 C   0  0  0  0  0  0  0  0  0  0  0  0
   68.4861   46.7697   52.5613 C   0  0  0  0  0  0  0  0  0  0  0  0
   68.3338   46.5960   51.2253 F   0  0  0  0  0  0  0  0  0  0  0  0
   68.0881   45.8154   53.4694 C   0  0  0  0  0  0  0  0  0  0  0  0
   68.2347   45.9752   54.8262 C   0  0  0  0  0  0  0  0  0  0  0  0
 14 15  2  0
 15 16  1  0
 15 17  1  0
 16  1  1  0
  1  2  2  0
  1  6  1  0
  2  3  1  0
  3  4  2  0
  4  5  1  0
  4 13  1  0
  5  6  2  0
  5  7  1  0
  7  8  2  0
  7  9  1  0
  9 10  1  0
  9 11  1  0
 11 12  2  0
 11 13  1  0
 13 23  1  1
 23 24  2  0
 23 25  1  0
 25 26  1  0
 26 27  1  0
 27 28  2  0
 27 33  1  0
 28 29  1  0
 29 30  2  0
 30 31  1  0
 30 32  1  0
 32 33  2  0
 17 18  2  0
 17 22  1  0
 18 19  1  0
 19 20  2  0
 20 21  1  0
 21 22  2  0
M  END
>  <minimizedAffinity>  (131) 
-9.62123

$$$$
cs_full_output_folder/data/smiles/8113.pdb
     RDKit          3D

 30 33  0  0  0  0  0  0  0  0999 V2000
   71.4203   46.7583   58.9119 C   0  0  0  0  0  0  0  0  0  0  0  0
   70.7999   47.6915   58.1201 C   0  0  0  0  0  0  0  0  0  0  0  0
   69.9128   47.3765   57.0828 C   0  0  0  0  0  0  0  0  0  0  0  0
   69.6718   46.0438   56.8733 C   0  0  0  0  0  0  0  0  0  0  0  0
   70.2850   45.0554   57.6617 C   0  0  0  0  0  0  0  0  0  0  0  0
   71.1476   45.4279   58.6669 C   0  0  0  0  0  0  0  0  0  0  0  0
   71.7482   44.4859   59.4362 F   0  0  0  0  0  0  0  0  0  0  0  0
   74.3089   51.0372   57.7807 O   0  0  0  0  0  0  0  0  0  0  0  0
   74.7573   50.6202   58.8807 C   0  0  0  0  0  0  0  0  0  0  0  0
   74.9232   51.4584   59.9703 O   0  0  0  0  0  0  0  0  0  0  0  0
   75.0952   49.2492   58.9824 N   0  0  0  0  0  0  0  0  0  0  0  0
   74.9348   48.3389   57.8579 C   0  0  0  0  0  0  0  0  0  0  0  0
   74.3036   47.0682   58.4048 C   0  0  0  0  0  0  0  0  0  0  0  0
   73.7285   47.3048   59.7156 N   0  0  0  0  0  0  0  0  0  0  0  0
   72.3469   47.1607   59.9871 C   0  0  0  0  0  0  0  0  0  0  0  0
   71.8743   47.3673   61.1270 O   0  0  0  0  0  0  0  0  0  0  0  0
   74.6364   47.7074   60.7620 C   0  0  0  0  0  0  0  0  0  0  0  0
   75.6161   48.7076   60.2161 C   0  0  0  0  0  0  0  0  0  0  0  0
   69.2937   48.4231   56.2622 C   0  0  0  0  0  0  0  0  0  0  0  0
   69.6606   48.3921   54.8275 C   0  0  0  0  0  0  0  0  0  0  0  0
   70.6843   49.1343   54.3670 N   0  0  0  0  0  0  0  0  0  0  0  0
   70.9906   49.1429   53.0937 N   0  0  0  0  0  0  0  0  0  0  0  0
   70.3307   48.4348   52.1640 C   0  0  0  0  0  0  0  0  0  0  0  0
   70.6546   48.4700   50.9446 O   0  0  0  0  0  0  0  0  0  0  0  0
   69.2623   47.6458   52.5679 C   0  0  0  0  0  0  0  0  0  0  0  0
   68.9575   47.6497   53.9098 C   0  0  0  0  0  0  0  0  0  0  0  0
   67.8210   46.7540   54.3287 C   0  0  0  0  0  0  0  0  0  0  0  0
   68.0227   45.4786   53.4844 C   0  0  0  0  0  0  0  0  0  0  0  0
   67.5799   45.8789   52.0957 C   0  0  0  0  0  0  0  0  0  0  0  0
   68.5341   46.8841   51.5349 C   0  0  0  0  0  0  0  0  0  0  0  0
  8  9  2  0
  9 10  1  0
  9 11  1  0
 11 12  1  0
 11 18  1  0
 12 13  1  0
 13 14  1  0
 14 15  1  0
 14 17  1  0
 15 16  2  0
 15  1  1  0
  1  2  2  0
  1  6  1  0
  2  3  1  0
  3 19  1  0
  3  4  2  0
 19 20  1  0
 20 21  2  0
 20 26  1  0
 21 22  1  0
 22 23  1  0
 23 24  2  0
 23 25  1  0
 25 26  2  0
 25 30  1  0
 26 27  1  0
 27 28  1  0
 28 29  1  0
 29 30  1  0
  4  5  1  0
  5  6  2  0
  6  7  1  0
 17 18  1  0
M  END
>  <minimizedAffinity>  (132) 
-9.61857

$$$$
cs_full_output_folder/data/smiles/1442.pdb
     RDKit          3D

 30 32  0  0  0  0  0  0  0  0999 V2000
   67.4576   45.0460   52.9096 C   0  0  0  0  0  0  0  0  0  0  0  0
   68.2582   46.3010   53.1371 C   0  0  0  0  0  0  0  0  0  0  0  0
   68.5071   47.1686   52.0668 C   0  0  0  0  0  0  0  0  0  0  0  0
   69.2292   48.3323   52.2209 C   0  0  0  0  0  0  0  0  0  0  0  0
   69.7379   48.6810   53.4461 C   0  0  0  0  0  0  0  0  0  0  0  0
   69.4850   47.8185   54.4783 C   0  0  0  0  0  0  0  0  0  0  0  0
   68.7523   46.6350   54.3415 C   0  0  0  0  0  0  0  0  0  0  0  0
   70.6138   50.1845   53.7426 S   0  0  0  0  0  0  0  0  0  0  0  0
   72.0797   49.8236   53.5019 O   0  0  0  0  0  0  0  0  0  0  0  0
   70.2603   51.2086   52.7154 O   0  0  0  0  0  0  0  0  0  0  0  0
   70.4455   50.7264   55.3527 N   0  0  0  0  0  0  0  0  0  0  0  0
   69.2570   50.6521   56.1431 C   0  0  0  0  0  0  0  0  0  0  0  0
   69.1995   49.7642   57.2144 C   0  0  0  0  0  0  0  0  0  0  0  0
   68.0936   49.6873   58.0118 C   0  0  0  0  0  0  0  0  0  0  0  0
   66.9888   50.4942   57.7801 C   0  0  0  0  0  0  0  0  0  0  0  0
   67.0478   51.3686   56.7262 C   0  0  0  0  0  0  0  0  0  0  0  0
   68.1831   51.4505   55.9021 C   0  0  0  0  0  0  0  0  0  0  0  0
   68.2010   52.3354   54.8644 F   0  0  0  0  0  0  0  0  0  0  0  0
   68.5441   45.8497   55.5526 C   0  0  0  0  0  0  0  0  0  0  0  0
   68.5132   46.3834   56.7124 O   0  0  0  0  0  0  0  0  0  0  0  0
   68.3740   44.4455   55.5240 N   0  0  0  0  0  0  0  0  0  0  0  0
   68.2234   43.6241   56.6684 N   0  0  0  0  0  0  0  0  0  0  0  0
   67.6340   42.3441   56.5394 C   0  0  0  0  0  0  0  0  0  0  0  0
   67.2861   42.0638   55.3201 O   0  0  0  0  0  0  0  0  0  0  0  0
   67.3912   41.3692   57.5744 C   0  0  0  0  0  0  0  0  0  0  0  0
   68.0787   40.1352   57.5444 C   0  0  0  0  0  0  0  0  0  0  0  0
   67.8727   39.1737   58.5302 C   0  0  0  0  0  0  0  0  0  0  0  0
   66.9939   39.4054   59.5569 C   0  0  0  0  0  0  0  0  0  0  0  0
   66.3484   40.5831   59.5717 N   0  0  0  0  0  0  0  0  0  0  0  0
   66.5299   41.5296   58.6279 C   0  0  0  0  0  0  0  0  0  0  0  0
  1  2  1  0
  2  3  2  0
  2  7  1  0
  3  4  1  0
  4  5  2  0
  5  8  1  0
  5  6  1  0
  8  9  2  0
  8 10  2  0
  8 11  1  0
 11 12  1  0
 12 13  2  0
 12 17  1  0
 13 14  1  0
 14 15  2  0
 15 16  1  0
 16 17  2  0
 17 18  1  0
  6  7  2  0
  7 19  1  0
 19 20  2  0
 19 21  1  0
 21 22  1  0
 22 23  1  0
 23 24  2  0
 23 25  1  0
 25 26  2  0
 25 30  1  0
 26 27  1  0
 27 28  2  0
 28 29  1  0
 29 30  2  0
M  END
>  <minimizedAffinity>  (133) 
-9.61716

$$$$
cs_full_output_folder/data/smiles/6466.pdb
     RDKit          3D

 32 36  0  0  0  0  0  0  0  0999 V2000
   71.6608   47.0409   59.0121 C   0  0  0  0  0  0  0  0  0  0  0  0
   70.6982   47.7521   58.2927 C   0  0  0  0  0  0  0  0  0  0  0  0
   69.8319   47.1855   57.4312 C   0  0  0  0  0  0  0  0  0  0  0  0
   69.9376   45.7944   57.2755 C   0  0  0  0  0  0  0  0  0  0  0  0
   70.8648   45.0438   57.9564 C   0  0  0  0  0  0  0  0  0  0  0  0
   71.7190   45.6788   58.8201 C   0  0  0  0  0  0  0  0  0  0  0  0
   72.6427   44.9188   59.4959 F   0  0  0  0  0  0  0  0  0  0  0  0
   72.3289   47.8780   61.1401 O   0  0  0  0  0  0  0  0  0  0  0  0
   72.5640   47.7316   59.9254 C   0  0  0  0  0  0  0  0  0  0  0  0
   73.7921   48.2764   59.4121 N   0  0  0  0  0  0  0  0  0  0  0  0
   74.0827   48.1234   58.0421 C   0  0  0  0  0  0  0  0  0  0  0  0
   75.0865   48.8469   57.5198 C   0  0  0  0  0  0  0  0  0  0  0  0
   75.8289   49.7333   58.3222 N   0  0  0  0  0  0  0  0  0  0  0  0
   77.1301   50.1358   58.0898 C   0  0  0  0  0  0  0  0  0  0  0  0
   77.6578   50.9940   58.9577 O   0  0  0  0  0  0  0  0  0  0  0  0
   75.1286   50.2576   59.5443 C   0  0  0  0  0  0  0  0  0  0  0  0
   74.7184   48.9743   60.2750 C   0  0  0  0  0  0  0  0  0  0  0  0
   78.0477   49.7604   57.0222 C   0  0  0  0  0  0  0  0  0  0  0  0
   79.4842   49.4765   57.2411 C   0  0  0  0  0  0  0  0  0  0  0  0
   79.0615   50.7291   56.5656 C   0  0  0  0  0  0  0  0  0  0  0  0
   68.7726   47.8385   56.6329 C   0  0  0  0  0  0  0  0  0  0  0  0
   69.2378   48.0960   55.2889 C   0  0  0  0  0  0  0  0  0  0  0  0
   70.1795   49.0659   55.0860 N   0  0  0  0  0  0  0  0  0  0  0  0
   70.6868   49.3342   53.9074 N   0  0  0  0  0  0  0  0  0  0  0  0
   70.3104   48.6661   52.8013 C   0  0  0  0  0  0  0  0  0  0  0  0
   70.8233   48.9505   51.6680 O   0  0  0  0  0  0  0  0  0  0  0  0
   69.3739   47.6822   52.9163 C   0  0  0  0  0  0  0  0  0  0  0  0
   68.9693   47.0002   51.7897 C   0  0  0  0  0  0  0  0  0  0  0  0
   68.0129   46.0218   51.9232 C   0  0  0  0  0  0  0  0  0  0  0  0
   67.4653   45.7226   53.1398 C   0  0  0  0  0  0  0  0  0  0  0  0
   67.8976   46.4313   54.2479 C   0  0  0  0  0  0  0  0  0  0  0  0
   68.8473   47.4117   54.1684 C   0  0  0  0  0  0  0  0  0  0  0  0
  8  9  2  0
  9  1  1  0
  9 10  1  0
  1  2  2  0
  1  6  1  0
  2  3  1  0
  3 21  1  0
  3  4  2  0
 21 22  1  0
 22 23  2  0
 22 32  1  0
 23 24  1  0
 24 25  1  0
 25 26  2  0
 25 27  1  0
 27 28  1  0
 27 32  2  0
 28 29  2  0
 29 30  1  0
 30 31  2  0
 31 32  1  0
  4  5  1  0
  5  6  2  0
  6  7  1  0
 10 11  1  0
 10 17  1  0
 11 12  2  0
 12 13  1  0
 13 14  1  0
 13 16  1  0
 14 15  2  0
 14 18  1  0
 18 19  1  0
 18 20  1  0
 19 20  1  0
 16 17  1  0
M  END
>  <minimizedAffinity>  (134) 
-9.61582

$$$$
cs_full_output_folder/data/smiles/8457.pdb
     RDKit          3D

 30 33  0  0  0  0  0  0  0  0999 V2000
   71.4876   46.8003   58.9262 C   0  0  0  0  0  0  0  0  0  0  0  0
   70.7186   47.6709   58.1657 C   0  0  0  0  0  0  0  0  0  0  0  0
   69.8151   47.2850   57.2105 C   0  0  0  0  0  0  0  0  0  0  0  0
   69.6796   45.9094   57.0117 C   0  0  0  0  0  0  0  0  0  0  0  0
   70.4199   45.0091   57.7426 C   0  0  0  0  0  0  0  0  0  0  0  0
   71.3191   45.4525   58.6944 C   0  0  0  0  0  0  0  0  0  0  0  0
   72.0725   44.5887   59.4378 F   0  0  0  0  0  0  0  0  0  0  0  0
   75.8427   48.8445   58.4798 C   0  0  0  0  0  0  0  0  0  0  0  0
   75.4030   49.1350   59.8806 C   0  0  0  0  0  0  0  0  0  0  0  0
   74.7848   47.9081   60.5442 C   0  0  0  0  0  0  0  0  0  0  0  0
   73.8039   47.4028   59.6119 N   0  0  0  0  0  0  0  0  0  0  0  0
   72.4247   47.3185   59.9193 C   0  0  0  0  0  0  0  0  0  0  0  0
   72.0054   47.6810   61.0260 O   0  0  0  0  0  0  0  0  0  0  0  0
   74.2797   46.9735   58.3169 C   0  0  0  0  0  0  0  0  0  0  0  0
   74.7644   48.2477   57.6187 C   0  0  0  0  0  0  0  0  0  0  0  0
   77.0635   50.8682   58.4808 O   0  0  0  0  0  0  0  0  0  0  0  0
   76.2495   50.1476   57.8740 C   0  0  0  0  0  0  0  0  0  0  0  0
   75.7176   50.5170   56.6641 O   0  0  0  0  0  0  0  0  0  0  0  0
   68.9864   48.1482   56.3683 C   0  0  0  0  0  0  0  0  0  0  0  0
   69.4039   48.2156   54.9475 C   0  0  0  0  0  0  0  0  0  0  0  0
   70.3709   49.1184   54.5835 N   0  0  0  0  0  0  0  0  0  0  0  0
   70.7821   49.2837   53.3470 N   0  0  0  0  0  0  0  0  0  0  0  0
   70.2904   48.5782   52.3183 C   0  0  0  0  0  0  0  0  0  0  0  0
   70.6806   48.7316   51.1271 O   0  0  0  0  0  0  0  0  0  0  0  0
   69.3144   47.6476   52.6019 C   0  0  0  0  0  0  0  0  0  0  0  0
   68.7851   46.8872   51.5692 C   0  0  0  0  0  0  0  0  0  0  0  0
   67.8213   45.9552   51.8757 C   0  0  0  0  0  0  0  0  0  0  0  0
   67.3957   45.7878   53.1855 C   0  0  0  0  0  0  0  0  0  0  0  0
   67.9248   46.5475   54.2096 C   0  0  0  0  0  0  0  0  0  0  0  0
   68.8773   47.4732   53.9190 C   0  0  0  0  0  0  0  0  0  0  0  0
 16 17  2  0
 17 18  1  0
 17  8  1  0
  8  9  1  0
  8 15  1  0
  9 10  1  0
 10 11  1  0
 11 12  1  0
 11 14  1  0
 12 13  2  0
 12  1  1  0
  1  2  2  0
  1  6  1  0
  2  3  1  0
  3 19  1  0
  3  4  2  0
 19 20  1  0
 20 21  2  0
 20 30  1  0
 21 22  1  0
 22 23  1  0
 23 24  2  0
 23 25  1  0
 25 26  1  0
 25 30  2  0
 26 27  2  0
 27 28  1  0
 28 29  2  0
 29 30  1  0
  4  5  1  0
  5  6  2  0
  6  7  1  0
 14 15  1  0
M  END
>  <minimizedAffinity>  (135) 
-9.61140

$$$$
cs_full_output_folder/data/smiles/3163.pdb
     RDKit          3D

 31 33  0  0  0  0  0  0  0  0999 V2000
   71.3303   43.6275   57.9254 C   0  0  0  0  0  0  0  0  0  0  0  0
   72.0708   44.6591   58.4582 C   0  0  0  0  0  0  0  0  0  0  0  0
   71.6417   45.9872   58.4369 C   0  0  0  0  0  0  0  0  0  0  0  0
   70.4385   46.3236   57.8712 C   0  0  0  0  0  0  0  0  0  0  0  0
   69.6897   45.2697   57.3305 C   0  0  0  0  0  0  0  0  0  0  0  0
   70.1203   43.9596   57.3560 C   0  0  0  0  0  0  0  0  0  0  0  0
   72.9269   41.9878   57.4101 O   0  0  0  0  0  0  0  0  0  0  0  0
   71.8365   42.2600   57.9805 C   0  0  0  0  0  0  0  0  0  0  0  0
   71.1924   41.1859   58.6359 N   0  0  0  0  0  0  0  0  0  0  0  0
   71.6908   39.8805   58.6801 N   0  0  0  0  0  0  0  0  0  0  0  0
   70.8704   38.7641   58.3653 C   0  0  0  0  0  0  0  0  0  0  0  0
   69.6807   39.0186   58.0473 O   0  0  0  0  0  0  0  0  0  0  0  0
   71.3556   37.3900   58.4001 C   0  0  0  0  0  0  0  0  0  0  0  0
   72.2502   36.8827   57.5096 C   0  0  0  0  0  0  0  0  0  0  0  0
   72.6980   35.5606   57.5675 C   0  0  0  0  0  0  0  0  0  0  0  0
   72.2228   34.7269   58.5620 C   0  0  0  0  0  0  0  0  0  0  0  0
   71.3155   35.2320   59.4704 C   0  0  0  0  0  0  0  0  0  0  0  0
   70.8855   36.5453   59.3932 C   0  0  0  0  0  0  0  0  0  0  0  0
   69.9713   36.9751   60.3459 O   0  0  0  0  0  0  0  0  0  0  0  0
   69.9429   47.6542   57.8007 N   0  0  0  0  0  0  0  0  0  0  0  0
   68.6504   48.2026   56.8413 S   0  0  0  0  0  0  0  0  0  0  0  0
   68.4834   49.6905   57.0365 O   0  0  0  0  0  0  0  0  0  0  0  0
   67.3646   47.5817   57.3595 O   0  0  0  0  0  0  0  0  0  0  0  0
   68.7468   47.7933   55.1606 C   0  0  0  0  0  0  0  0  0  0  0  0
   69.4795   48.5158   54.2478 C   0  0  0  0  0  0  0  0  0  0  0  0
   69.4941   48.1141   52.9367 C   0  0  0  0  0  0  0  0  0  0  0  0
   68.7998   47.0005   52.4756 C   0  0  0  0  0  0  0  0  0  0  0  0
   68.8657   46.6682   51.1613 F   0  0  0  0  0  0  0  0  0  0  0  0
   68.0750   46.2939   53.4017 C   0  0  0  0  0  0  0  0  0  0  0  0
   67.3891   45.1987   52.9591 F   0  0  0  0  0  0  0  0  0  0  0  0
   68.0555   46.6898   54.7147 C   0  0  0  0  0  0  0  0  0  0  0  0
  7  8  2  0
  8  9  1  0
  8  1  1  0
  9 10  1  0
 10 11  1  0
 11 12  2  0
 11 13  1  0
 13 14  2  0
 13 18  1  0
 14 15  1  0
 15 16  2  0
 16 17  1  0
 17 18  2  0
 18 19  1  0
  1  2  2  0
  1  6  1  0
  2  3  1  0
  3  4  2  0
  4 20  1  0
  4  5  1  0
 20 21  1  0
 21 22  2  0
 21 23  2  0
 21 24  1  0
 24 25  2  0
 24 31  1  0
 25 26  1  0
 26 27  2  0
 27 28  1  0
 27 29  1  0
 29 30  1  0
 29 31  2  0
  5  6  2  0
M  END
>  <minimizedAffinity>  (136) 
-9.60637

$$$$
cs_full_output_folder/data/smiles/2033.pdb
     RDKit          3D

 26 27  0  0  0  0  0  0  0  0999 V2000
   69.8950   49.2368   52.6409 S   0  0  0  0  0  0  0  0  0  0  0  0
   69.9121   49.1605   51.1550 O   0  0  0  0  0  0  0  0  0  0  0  0
   71.3489   49.2828   53.0874 O   0  0  0  0  0  0  0  0  0  0  0  0
   69.1789   47.7892   53.2705 C   0  0  0  0  0  0  0  0  0  0  0  0
   69.2407   47.5277   54.6176 C   0  0  0  0  0  0  0  0  0  0  0  0
   69.8607   48.4108   55.4150 F   0  0  0  0  0  0  0  0  0  0  0  0
   68.6668   46.3728   55.1072 C   0  0  0  0  0  0  0  0  0  0  0  0
   68.7408   46.1377   56.4383 F   0  0  0  0  0  0  0  0  0  0  0  0
   68.0325   45.4794   54.2490 C   0  0  0  0  0  0  0  0  0  0  0  0
   67.4846   44.3596   54.7863 F   0  0  0  0  0  0  0  0  0  0  0  0
   67.9800   45.7567   52.9076 C   0  0  0  0  0  0  0  0  0  0  0  0
   67.3561   44.8711   52.0970 F   0  0  0  0  0  0  0  0  0  0  0  0
   68.5585   46.9245   52.4006 C   0  0  0  0  0  0  0  0  0  0  0  0
   68.4595   47.1163   51.0724 F   0  0  0  0  0  0  0  0  0  0  0  0
   69.1215   50.6654   53.1475 N   0  0  0  0  0  0  0  0  0  0  0  0
   71.4417   52.7847   55.0857 C   0  0  0  0  0  0  0  0  0  0  0  0
   70.9699   51.9459   54.1035 C   0  0  0  0  0  0  0  0  0  0  0  0
   69.6643   51.5368   54.1428 C   0  0  0  0  0  0  0  0  0  0  0  0
   68.8470   51.9741   55.1644 C   0  0  0  0  0  0  0  0  0  0  0  0
   69.3298   52.8142   56.1421 C   0  0  0  0  0  0  0  0  0  0  0  0
   70.6297   53.2294   56.1165 C   0  0  0  0  0  0  0  0  0  0  0  0
   71.1873   54.0704   57.0588 O   0  0  0  0  0  0  0  0  0  0  0  0
   73.7948   52.6166   53.5803 N   0  0  0  0  0  0  0  0  0  0  0  0
   73.1065   53.2910   55.0160 S   0  0  0  0  0  0  0  0  0  0  0  0
   73.2320   54.7871   55.0376 O   0  0  0  0  0  0  0  0  0  0  0  0
   73.8305   52.7582   56.2125 O   0  0  0  0  0  0  0  0  0  0  0  0
 23 24  1  0
 24 25  2  0
 24 26  2  0
 24 16  1  0
 16 17  2  0
 16 21  1  0
 17 18  1  0
 18 15  1  0
 18 19  2  0
 15  1  1  0
  1  2  2  0
  1  3  2  0
  1  4  1  0
  4  5  2  0
  4 13  1  0
  5  6  1  0
  5  7  1  0
  7  8  1  0
  7  9  2  0
  9 10  1  0
  9 11  1  0
 11 12  1  0
 11 13  2  0
 13 14  1  0
 19 20  1  0
 20 21  2  0
 21 22  1  0
M  END
>  <minimizedAffinity>  (137) 
-9.60252

$$$$
cs_full_output_folder/data/smiles/2976.pdb
     RDKit          3D

 31 34  0  0  0  0  0  0  0  0999 V2000
   71.0943   45.1757   58.6657 C   0  0  0  0  0  0  0  0  0  0  0  0
   71.9958   46.0075   59.3446 C   0  0  0  0  0  0  0  0  0  0  0  0
   71.9534   47.3823   59.2585 C   0  0  0  0  0  0  0  0  0  0  0  0
   71.0051   48.0112   58.4864 C   0  0  0  0  0  0  0  0  0  0  0  0
   70.1114   47.2071   57.8119 C   0  0  0  0  0  0  0  0  0  0  0  0
   70.1638   45.8061   57.9070 C   0  0  0  0  0  0  0  0  0  0  0  0
   72.1455   42.9110   58.2268 C   0  0  0  0  0  0  0  0  0  0  0  0
   72.9575   43.4089   57.4073 O   0  0  0  0  0  0  0  0  0  0  0  0
   71.2388   43.7847   58.8387 N   0  0  0  0  0  0  0  0  0  0  0  0
   72.0860   38.6859   58.9767 C   0  0  0  0  0  0  0  0  0  0  0  0
   73.2343   39.4092   59.2102 C   0  0  0  0  0  0  0  0  0  0  0  0
   73.2771   40.7888   58.9735 C   0  0  0  0  0  0  0  0  0  0  0  0
   72.1830   41.4652   58.5024 C   0  0  0  0  0  0  0  0  0  0  0  0
   71.0428   40.7268   58.2735 C   0  0  0  0  0  0  0  0  0  0  0  0
   70.9845   39.3613   58.5030 C   0  0  0  0  0  0  0  0  0  0  0  0
   72.0378   34.8808   58.5714 C   0  0  0  0  0  0  0  0  0  0  0  0
   72.1947   36.3069   58.1920 C   0  0  0  0  0  0  0  0  0  0  0  0
   72.5077   36.7068   57.0483 O   0  0  0  0  0  0  0  0  0  0  0  0
   71.9722   37.2950   59.1944 N   0  0  0  0  0  0  0  0  0  0  0  0
   69.0823   47.8678   56.9989 C   0  0  0  0  0  0  0  0  0  0  0  0
   68.7454   47.1396   55.7373 C   0  0  0  0  0  0  0  0  0  0  0  0
   68.0789   45.9482   55.8110 N   0  0  0  0  0  0  0  0  0  0  0  0
   67.7407   45.2681   54.7448 N   0  0  0  0  0  0  0  0  0  0  0  0
   68.0220   45.6876   53.5023 C   0  0  0  0  0  0  0  0  0  0  0  0
   67.6963   45.0335   52.4793 O   0  0  0  0  0  0  0  0  0  0  0  0
   68.6902   46.8799   53.3827 C   0  0  0  0  0  0  0  0  0  0  0  0
   69.0442   47.5884   54.4827 C   0  0  0  0  0  0  0  0  0  0  0  0
   69.7823   48.8648   54.3360 C   0  0  0  0  0  0  0  0  0  0  0  0
   70.5048   48.9512   53.0038 C   0  0  0  0  0  0  0  0  0  0  0  0
   69.4929   48.7437   51.9199 C   0  0  0  0  0  0  0  0  0  0  0  0
   68.9972   47.3310   51.9826 C   0  0  0  0  0  0  0  0  0  0  0  0
 16 17  1  0
 17 18  2  0
 17 19  1  0
 19 10  1  0
 10 11  2  0
 10 15  1  0
 11 12  1  0
 12 13  2  0
 13  7  1  0
 13 14  1  0
  7  8  2  0
  7  9  1  0
  9  1  1  0
  1  2  2  0
  1  6  1  0
  2  3  1  0
  3  4  2  0
  4  5  1  0
  5 20  1  0
  5  6  2  0
 20 21  1  0
 21 22  2  0
 21 27  1  0
 22 23  1  0
 23 24  1  0
 24 25  2  0
 24 26  1  0
 26 27  2  0
 26 31  1  0
 27 28  1  0
 28 29  1  0
 29 30  1  0
 30 31  1  0
 14 15  2  0
M  END
>  <minimizedAffinity>  (138) 
-9.59998

$$$$
cs_full_output_folder/data/smiles/5510.pdb
     RDKit          3D

 31 34  0  0  0  0  0  0  0  0999 V2000
   69.3877   37.9076   59.6657 O   0  0  0  0  0  0  0  0  0  0  0  0
   70.6348   37.9674   59.5408 C   0  0  0  0  0  0  0  0  0  0  0  0
   71.3769   39.0367   60.0855 N   0  0  0  0  0  0  0  0  0  0  0  0
   72.8106   39.1259   59.9545 C   0  0  0  0  0  0  0  0  0  0  0  0
   73.2780   40.5641   59.8686 C   0  0  0  0  0  0  0  0  0  0  0  0
   72.2288   41.4760   59.5033 N   0  0  0  0  0  0  0  0  0  0  0  0
   72.4409   42.4193   58.4756 C   0  0  0  0  0  0  0  0  0  0  0  0
   73.5723   42.4285   57.8984 O   0  0  0  0  0  0  0  0  0  0  0  0
   70.9673   41.4343   60.1754 C   0  0  0  0  0  0  0  0  0  0  0  0
   70.6791   40.0886   60.8047 C   0  0  0  0  0  0  0  0  0  0  0  0
   71.3304   36.9150   58.8218 C   0  0  0  0  0  0  0  0  0  0  0  0
   71.3281   35.6390   59.3745 C   0  0  0  0  0  0  0  0  0  0  0  0
   71.9783   34.6401   58.7079 C   0  0  0  0  0  0  0  0  0  0  0  0
   72.6152   34.9079   57.5208 C   0  0  0  0  0  0  0  0  0  0  0  0
   72.6175   36.1738   56.9724 C   0  0  0  0  0  0  0  0  0  0  0  0
   71.9715   37.1924   57.6235 C   0  0  0  0  0  0  0  0  0  0  0  0
   71.4759   43.3897   58.0119 C   0  0  0  0  0  0  0  0  0  0  0  0
   71.6734   44.7300   58.1766 C   0  0  0  0  0  0  0  0  0  0  0  0
   70.7053   45.6297   57.7128 C   0  0  0  0  0  0  0  0  0  0  0  0
   69.5643   45.2243   57.0966 C   0  0  0  0  0  0  0  0  0  0  0  0
   69.4189   43.8679   56.9577 N   0  0  0  0  0  0  0  0  0  0  0  0
   70.3181   42.9806   57.3872 C   0  0  0  0  0  0  0  0  0  0  0  0
   68.5602   46.0811   56.5911 N   0  0  0  0  0  0  0  0  0  0  0  0
   68.7152   47.2840   55.8463 C   0  0  0  0  0  0  0  0  0  0  0  0
   68.6168   47.0595   54.3800 C   0  0  0  0  0  0  0  0  0  0  0  0
   69.3227   47.9215   53.5401 C   0  0  0  0  0  0  0  0  0  0  0  0
   69.3215   47.7861   52.1779 C   0  0  0  0  0  0  0  0  0  0  0  0
   68.5869   46.7526   51.6538 C   0  0  0  0  0  0  0  0  0  0  0  0
   67.8739   45.8745   52.4412 C   0  0  0  0  0  0  0  0  0  0  0  0
   67.1616   44.8683   51.9028 F   0  0  0  0  0  0  0  0  0  0  0  0
   67.8967   46.0410   53.8249 C   0  0  0  0  0  0  0  0  0  0  0  0
  1  2  2  0
  2 11  1  0
  2  3  1  0
 11 12  2  0
 11 16  1  0
 12 13  1  0
 13 14  2  0
 14 15  1  0
 15 16  2  0
  3  4  1  0
  3 10  1  0
  4  5  1  0
  5  6  1  0
  6  7  1  0
  6  9  1  0
  7  8  2  0
  7 17  1  0
 17 18  2  0
 17 22  1  0
 18 19  1  0
 19 20  2  0
 20 23  1  0
 20 21  1  0
 23 24  1  0
 24 25  1  0
 25 26  2  0
 25 31  1  0
 26 27  1  0
 27 28  2  0
 28 29  1  0
 29 30  1  0
 29 31  2  0
 21 22  2  0
  9 10  1  0
M  END
>  <minimizedAffinity>  (139) 
-9.59988

$$$$
cs_full_output_folder/data/smiles/3065.pdb
     RDKit          3D

 32 36  0  0  0  0  0  0  0  0999 V2000
   70.5141   49.0516   58.3726 C   0  0  0  0  0  0  0  0  0  0  0  0
   70.1917   48.1780   57.3480 C   0  0  0  0  0  0  0  0  0  0  0  0
   69.1111   48.3436   56.5176 C   0  0  0  0  0  0  0  0  0  0  0  0
   68.3181   49.4783   56.7575 C   0  0  0  0  0  0  0  0  0  0  0  0
   68.6141   50.3683   57.7700 C   0  0  0  0  0  0  0  0  0  0  0  0
   69.7167   50.1542   58.5829 C   0  0  0  0  0  0  0  0  0  0  0  0
   70.0199   51.0173   59.5795 F   0  0  0  0  0  0  0  0  0  0  0  0
   68.7241   47.4443   55.4535 C   0  0  0  0  0  0  0  0  0  0  0  0
   68.0130   46.3432   55.8042 N   0  0  0  0  0  0  0  0  0  0  0  0
   67.6026   45.4392   54.9334 N   0  0  0  0  0  0  0  0  0  0  0  0
   67.8953   45.6048   53.6414 C   0  0  0  0  0  0  0  0  0  0  0  0
   67.4828   44.7153   52.8326 O   0  0  0  0  0  0  0  0  0  0  0  0
   68.6122   46.6813   53.1628 C   0  0  0  0  0  0  0  0  0  0  0  0
   68.9224   46.8438   51.8335 C   0  0  0  0  0  0  0  0  0  0  0  0
   69.6536   47.9339   51.4280 C   0  0  0  0  0  0  0  0  0  0  0  0
   70.0711   48.8581   52.3579 C   0  0  0  0  0  0  0  0  0  0  0  0
   69.7581   48.6973   53.7031 C   0  0  0  0  0  0  0  0  0  0  0  0
   69.0252   47.6121   54.1260 C   0  0  0  0  0  0  0  0  0  0  0  0
   75.0916   49.4402   57.1263 N   0  0  0  0  0  0  0  0  0  0  0  0
   75.1237   48.2042   57.8475 C   0  0  0  0  0  0  0  0  0  0  0  0
   75.0949   48.3595   59.3430 C   0  0  0  0  0  0  0  0  0  0  0  0
   73.9450   49.1493   59.8583 C   0  0  0  0  0  0  0  0  0  0  0  0
   72.9123   49.4244   58.9188 N   0  0  0  0  0  0  0  0  0  0  0  0
   71.6605   48.8553   59.2385 C   0  0  0  0  0  0  0  0  0  0  0  0
   71.5210   48.1687   60.2827 O   0  0  0  0  0  0  0  0  0  0  0  0
   72.8977   50.1894   57.6720 C   0  0  0  0  0  0  0  0  0  0  0  0
   74.3355   50.6195   57.4279 C   0  0  0  0  0  0  0  0  0  0  0  0
   75.3160   49.6411   54.6907 N   0  0  0  0  0  0  0  0  0  0  0  0
   75.9029   49.5037   55.9792 C   0  0  0  0  0  0  0  0  0  0  0  0
   77.2120   49.4371   56.0850 C   0  0  0  0  0  0  0  0  0  0  0  0
   78.4832   49.3110   56.8887 C   0  0  0  0  0  0  0  0  0  0  0  0
   78.5724   49.4297   55.4630 C   0  0  0  0  0  0  0  0  0  0  0  0
 28 29  1  0
 29 30  2  0
 29 19  1  0
 30 31  1  0
 30 32  1  0
 31 32  1  0
 19 20  1  0
 19 27  1  0
 20 21  1  0
 21 22  1  0
 22 23  1  0
 23 24  1  0
 23 26  1  0
 24 25  2  0
 24  1  1  0
  1  2  2  0
  1  6  1  0
  2  3  1  0
  3  8  1  0
  3  4  2  0
  8  9  2  0
  8 18  1  0
  9 10  1  0
 10 11  1  0
 11 12  2  0
 11 13  1  0
 13 14  1  0
 13 18  2  0
 14 15  2  0
 15 16  1  0
 16 17  2  0
 17 18  1  0
  4  5  1  0
  5  6  2  0
  6  7  1  0
 26 27  1  0
M  END
>  <minimizedAffinity>  (140) 
-9.59690

$$$$
cs_full_output_folder/data/smiles/243.pdb
     RDKit          3D

 28 29  0  0  0  0  0  0  0  0999 V2000
   69.6432   43.4463   57.5321 C   0  0  0  0  0  0  0  0  0  0  0  0
   70.5543   44.6187   58.1974 S   0  0  0  0  0  0  0  0  0  0  0  0
   70.0960   42.1081   57.6470 N   0  0  0  0  0  0  0  0  0  0  0  0
   70.1924   41.4123   58.9101 C   0  0  1  0  0  0  0  0  0  0  0  0
   68.8931   41.2089   59.3749 O   0  0  0  0  0  0  0  0  0  0  0  0
   72.0303   37.5352   58.4814 C   0  0  0  0  0  0  0  0  0  0  0  0
   72.7597   38.6877   58.6872 C   0  0  0  0  0  0  0  0  0  0  0  0
   72.1913   39.9343   58.8275 C   0  0  0  0  0  0  0  0  0  0  0  0
   70.8238   40.0756   58.7636 C   0  0  0  0  0  0  0  0  0  0  0  0
   70.0799   38.9320   58.5572 C   0  0  0  0  0  0  0  0  0  0  0  0
   70.6603   37.6870   58.4192 C   0  0  0  0  0  0  0  0  0  0  0  0
   74.0697   36.1992   58.9902 C   0  0  0  0  0  0  0  0  0  0  0  0
   72.7028   36.2227   58.3394 C   0  0  0  0  0  0  0  0  0  0  0  0
   71.8839   35.1088   58.9704 C   0  0  0  0  0  0  0  0  0  0  0  0
   72.8178   35.9143   56.8553 C   0  0  0  0  0  0  0  0  0  0  0  0
   68.4456   43.7903   56.8691 N   0  0  0  0  0  0  0  0  0  0  0  0
   68.4989   44.2447   55.5506 N   0  0  0  0  0  0  0  0  0  0  0  0
   68.3327   45.6056   55.2064 C   0  0  0  0  0  0  0  0  0  0  0  0
   68.1310   46.4026   56.1676 O   0  0  0  0  0  0  0  0  0  0  0  0
   68.3811   46.1111   53.8488 C   0  0  0  0  0  0  0  0  0  0  0  0
   67.6299   45.5849   52.8308 C   0  0  0  0  0  0  0  0  0  0  0  0
   67.6898   46.0829   51.5375 C   0  0  0  0  0  0  0  0  0  0  0  0
   68.5137   47.1281   51.2445 C   0  0  0  0  0  0  0  0  0  0  0  0
   69.2841   47.6790   52.2520 C   0  0  0  0  0  0  0  0  0  0  0  0
   69.2093   47.1661   53.5367 C   0  0  0  0  0  0  0  0  0  0  0  0
   70.1453   48.7603   51.9789 N   0  0  0  0  0  0  0  0  0  0  0  0
   69.9151   49.5101   51.0283 O   0  0  0  0  0  0  0  0  0  0  0  0
   71.2347   48.9807   52.7632 O   0  0  0  0  0  0  0  0  0  0  0  0
 12 13  1  0
 13 14  1  0
 13 15  1  0
 13  6  1  0
  6  7  2  0
  6 11  1  0
  7  8  1  0
  8  9  2  0
  9  4  1  0
  9 10  1  0
  4  5  1  6
  4  3  1  0
  3  1  1  0
  1  2  2  0
  1 16  1  0
 16 17  1  0
 17 18  1  0
 18 19  2  0
 18 20  1  0
 20 21  2  0
 20 25  1  0
 21 22  1  0
 22 23  2  0
 23 24  1  0
 24 26  1  0
 24 25  2  0
 26 27  2  0
 26 28  1  0
 10 11  2  0
M  CHG  2  26   1  28  -1
M  END
>  <minimizedAffinity>  (141) 
-9.59594

$$$$
cs_full_output_folder/data/smiles/1079.pdb
     RDKit          3D

 27 28  0  0  0  0  0  0  0  0999 V2000
   69.9698   49.2450   52.5437 S   0  0  0  0  0  0  0  0  0  0  0  0
   71.4175   49.2113   52.9336 O   0  0  0  0  0  0  0  0  0  0  0  0
   69.9065   49.2597   51.0428 O   0  0  0  0  0  0  0  0  0  0  0  0
   69.2022   47.7874   53.1743 C   0  0  0  0  0  0  0  0  0  0  0  0
   68.5704   46.8778   52.3520 C   0  0  0  0  0  0  0  0  0  0  0  0
   68.5277   47.1057   50.9649 O   0  0  0  0  0  0  0  0  0  0  0  0
   67.9660   45.7299   52.8390 C   0  0  0  0  0  0  0  0  0  0  0  0
   67.3632   44.8780   51.9793 F   0  0  0  0  0  0  0  0  0  0  0  0
   67.9758   45.4570   54.1810 C   0  0  0  0  0  0  0  0  0  0  0  0
   67.3886   44.3376   54.6790 F   0  0  0  0  0  0  0  0  0  0  0  0
   68.6076   46.3652   55.0093 C   0  0  0  0  0  0  0  0  0  0  0  0
   68.6437   46.1400   56.3351 F   0  0  0  0  0  0  0  0  0  0  0  0
   69.2113   47.5085   54.5279 C   0  0  0  0  0  0  0  0  0  0  0  0
   69.8293   48.3891   55.3800 F   0  0  0  0  0  0  0  0  0  0  0  0
   69.2772   50.6664   53.2161 N   0  0  0  0  0  0  0  0  0  0  0  0
   71.2312   53.2579   55.8990 C   0  0  0  0  0  0  0  0  0  0  0  0
   69.8567   53.2167   55.8117 C   0  0  0  0  0  0  0  0  0  0  0  0
   69.1792   52.3860   54.9494 C   0  0  0  0  0  0  0  0  0  0  0  0
   69.9341   51.5418   54.1199 C   0  0  0  0  0  0  0  0  0  0  0  0
   71.3099   51.5630   54.1873 C   0  0  0  0  0  0  0  0  0  0  0  0
   71.9494   52.4214   55.0775 C   0  0  0  0  0  0  0  0  0  0  0  0
   73.3634   52.3970   55.1001 N   0  0  0  0  0  0  0  0  0  0  0  0
   74.1254   51.2488   55.3944 C   0  0  0  0  0  0  0  0  0  0  0  0
   75.5463   51.2320   55.4151 N   0  0  0  0  0  0  0  0  0  0  0  0
   73.5016   50.1857   55.6504 O   0  0  0  0  0  0  0  0  0  0  0  0
   72.2934   53.5686   58.0265 C   0  0  0  0  0  0  0  0  0  0  0  0
   71.9248   54.0872   56.7619 O   0  0  0  0  0  0  0  0  0  0  0  0
 26 27  1  0
 27 16  1  0
 16 17  2  0
 16 21  1  0
 17 18  1  0
 18 19  2  0
 19 15  1  0
 19 20  1  0
 15  1  1  0
  1  2  2  0
  1  3  2  0
  1  4  1  0
  4  5  2  0
  4 13  1  0
  5  6  1  0
  5  7  1  0
  7  8  1  0
  7  9  2  0
  9 10  1  0
  9 11  1  0
 11 12  1  0
 11 13  2  0
 13 14  1  0
 20 21  2  0
 21 22  1  0
 22 23  1  0
 23 24  1  0
 23 25  2  0
M  END
>  <minimizedAffinity>  (142) 
-9.59433

$$$$
cs_full_output_folder/data/smiles/708.pdb
     RDKit          3D

 27 28  0  0  0  0  0  0  0  0999 V2000
   69.7707   49.1661   52.5979 S   0  0  0  0  0  0  0  0  0  0  0  0
   69.6227   49.3125   51.0977 O   0  0  0  0  0  0  0  0  0  0  0  0
   71.2665   49.0437   52.9052 O   0  0  0  0  0  0  0  0  0  0  0  0
   69.0542   47.6855   53.1582 C   0  0  0  0  0  0  0  0  0  0  0  0
   69.0857   47.3895   54.5245 C   0  0  0  0  0  0  0  0  0  0  0  0
   69.6955   48.2512   55.3744 F   0  0  0  0  0  0  0  0  0  0  0  0
   68.5076   46.2390   55.0139 C   0  0  0  0  0  0  0  0  0  0  0  0
   68.5366   45.9415   56.3760 O   0  0  0  0  0  0  0  0  0  0  0  0
   67.8777   45.3390   54.1791 C   0  0  0  0  0  0  0  0  0  0  0  0
   67.3030   44.1992   54.6487 F   0  0  0  0  0  0  0  0  0  0  0  0
   67.8316   45.6071   52.8179 C   0  0  0  0  0  0  0  0  0  0  0  0
   67.2101   44.7242   51.9693 F   0  0  0  0  0  0  0  0  0  0  0  0
   68.4166   46.7606   52.3609 C   0  0  0  0  0  0  0  0  0  0  0  0
   68.3704   47.0212   51.0316 F   0  0  0  0  0  0  0  0  0  0  0  0
   69.2128   50.5551   53.4139 N   0  0  0  0  0  0  0  0  0  0  0  0
   71.3617   53.2622   55.8812 C   0  0  0  0  0  0  0  0  0  0  0  0
   69.9864   53.2501   55.8203 C   0  0  0  0  0  0  0  0  0  0  0  0
   69.2747   52.3797   55.0335 C   0  0  0  0  0  0  0  0  0  0  0  0
   69.9465   51.4347   54.2336 C   0  0  0  0  0  0  0  0  0  0  0  0
   71.3218   51.4432   54.2927 C   0  0  0  0  0  0  0  0  0  0  0  0
   72.0243   52.3423   55.1032 C   0  0  0  0  0  0  0  0  0  0  0  0
   73.4380   52.3012   55.1195 N   0  0  0  0  0  0  0  0  0  0  0  0
   74.1920   51.1504   55.4532 C   0  0  0  0  0  0  0  0  0  0  0  0
   75.6174   51.1392   55.4602 N   0  0  0  0  0  0  0  0  0  0  0  0
   73.5487   50.1084   55.7505 O   0  0  0  0  0  0  0  0  0  0  0  0
   72.4359   53.7900   58.0098 C   0  0  0  0  0  0  0  0  0  0  0  0
   72.0688   54.1488   56.6808 O   0  0  0  0  0  0  0  0  0  0  0  0
 26 27  1  0
 27 16  1  0
 16 17  2  0
 16 21  1  0
 17 18  1  0
 18 19  2  0
 19 15  1  0
 19 20  1  0
 15  1  1  0
  1  2  2  0
  1  3  2  0
  1  4  1  0
  4  5  2  0
  4 13  1  0
  5  6  1  0
  5  7  1  0
  7  8  1  0
  7  9  2  0
  9 10  1  0
  9 11  1  0
 11 12  1  0
 11 13  2  0
 13 14  1  0
 20 21  2  0
 21 22  1  0
 22 23  1  0
 23 24  1  0
 23 25  2  0
M  END
>  <minimizedAffinity>  (143) 
-9.59357

$$$$
cs_full_output_folder/data/smiles/1218.pdb
     RDKit          3D

 27 29  0  0  0  0  0  0  0  0999 V2000
   66.6281   41.8326   55.9545 C   0  0  0  0  0  0  0  0  0  0  0  0
   67.7931   41.3532   56.7467 C   0  0  0  0  0  0  0  0  0  0  0  0
   68.0280   40.0810   57.1493 N   0  0  0  0  0  0  0  0  0  0  0  0
   69.1547   40.0338   57.8297 N   0  0  0  0  0  0  0  0  0  0  0  0
   69.6699   41.3059   57.8734 C   0  0  0  0  0  0  0  0  0  0  0  0
   70.9304   41.6514   58.5430 C   0  0  0  0  0  0  0  0  0  0  0  0
   68.8426   42.1616   57.2043 C   0  0  0  0  0  0  0  0  0  0  0  0
   69.7556   38.8939   58.4249 C   0  0  0  0  0  0  0  0  0  0  0  0
   69.2231   38.2997   59.5517 C   0  0  0  0  0  0  0  0  0  0  0  0
   69.8219   37.1945   60.1093 C   0  0  0  0  0  0  0  0  0  0  0  0
   70.9601   36.6771   59.5389 C   0  0  0  0  0  0  0  0  0  0  0  0
   71.7584   35.1424   60.3434 Br  0  0  0  0  0  0  0  0  0  0  0  0
   71.5185   37.2435   58.4146 C   0  0  0  0  0  0  0  0  0  0  0  0
   70.8983   38.3517   57.8752 C   0  0  0  0  0  0  0  0  0  0  0  0
   68.9216   43.5763   56.9528 C   0  0  0  0  0  0  0  0  0  0  0  0
   69.6145   44.3070   57.7523 O   0  0  0  0  0  0  0  0  0  0  0  0
   68.3223   44.3110   55.9071 N   0  0  0  0  0  0  0  0  0  0  0  0
   68.4335   45.7354   55.6973 C   0  0  0  0  0  0  0  0  0  0  0  0
   68.4653   46.1226   54.2590 C   0  0  0  0  0  0  0  0  0  0  0  0
   67.7713   45.4937   53.2697 C   0  0  0  0  0  0  0  0  0  0  0  0
   67.8457   45.9214   51.9462 C   0  0  0  0  0  0  0  0  0  0  0  0
   68.6148   46.9875   51.5714 C   0  0  0  0  0  0  0  0  0  0  0  0
   69.3276   47.6411   52.5557 C   0  0  0  0  0  0  0  0  0  0  0  0
   69.2493   47.2160   53.8557 C   0  0  0  0  0  0  0  0  0  0  0  0
   70.1634   48.7791   52.2217 C   0  0  0  0  0  0  0  0  0  0  0  0
   69.6028   49.9193   51.5893 N   0  0  0  0  0  0  0  0  0  0  0  0
   71.4036   48.8087   52.4716 O   0  0  0  0  0  0  0  0  0  0  0  0
  1  2  1  0
  2  3  2  0
  2  7  1  0
  3  4  1  0
  4  8  1  0
  4  5  1  0
  8  9  2  0
  8 14  1  0
  9 10  1  0
 10 11  2  0
 11 12  1  0
 11 13  1  0
 13 14  2  0
  5  6  1  0
  5  7  2  0
  7 15  1  0
 15 16  2  0
 15 17  1  0
 17 18  1  0
 18 19  1  0
 19 20  2  0
 19 24  1  0
 20 21  1  0
 21 22  2  0
 22 23  1  0
 23 25  1  0
 23 24  2  0
 25 26  1  0
 25 27  2  0
M  END
>  <minimizedAffinity>  (144) 
-9.58816

$$$$
cs_full_output_folder/data/smiles/2127.pdb
     RDKit          3D

 27 29  0  0  0  0  0  0  0  0999 V2000
   69.5790   46.9796   57.5070 S   0  0  0  0  0  0  0  0  0  0  0  0
   69.4770   46.4481   58.9346 O   0  0  0  0  0  0  0  0  0  0  0  0
   71.0096   46.7773   57.0914 O   0  0  0  0  0  0  0  0  0  0  0  0
   69.1966   48.6787   57.4750 C   0  0  0  0  0  0  0  0  0  0  0  0
   70.2001   49.6021   57.3374 C   0  0  0  0  0  0  0  0  0  0  0  0
   71.4843   49.2053   57.2521 F   0  0  0  0  0  0  0  0  0  0  0  0
   69.9379   50.9714   57.2948 C   0  0  0  0  0  0  0  0  0  0  0  0
   70.9508   51.8525   57.1589 F   0  0  0  0  0  0  0  0  0  0  0  0
   68.6225   51.3855   57.3953 C   0  0  0  0  0  0  0  0  0  0  0  0
   68.3151   52.7043   57.3589 F   0  0  0  0  0  0  0  0  0  0  0  0
   67.5899   50.4838   57.5346 C   0  0  0  0  0  0  0  0  0  0  0  0
   66.3034   50.8961   57.6324 F   0  0  0  0  0  0  0  0  0  0  0  0
   67.8948   49.1175   57.5728 C   0  0  0  0  0  0  0  0  0  0  0  0
   66.9053   48.1946   57.7091 F   0  0  0  0  0  0  0  0  0  0  0  0
   68.4856   46.1221   56.5010 N   0  0  0  0  0  0  0  0  0  0  0  0
   69.6725   48.5791   52.3984 C   0  0  0  0  0  0  0  0  0  0  0  0
   69.3793   48.2376   51.1105 N   0  0  0  0  0  0  0  0  0  0  0  0
   68.7052   47.1102   51.1232 N   0  0  0  0  0  0  0  0  0  0  0  0
   68.5335   46.6769   52.3778 C   0  0  0  0  0  0  0  0  0  0  0  0
   67.9131   45.5768   52.9184 C   0  0  0  0  0  0  0  0  0  0  0  0
   67.8834   45.3689   54.2815 C   0  0  0  0  0  0  0  0  0  0  0  0
   68.5004   46.3042   55.0951 C   0  0  0  0  0  0  0  0  0  0  0  0
   69.1260   47.4102   54.5821 C   0  0  0  0  0  0  0  0  0  0  0  0
   69.1469   47.6055   53.2144 C   0  0  0  0  0  0  0  0  0  0  0  0
   71.5709   49.6148   53.6012 N   0  0  0  0  0  0  0  0  0  0  0  0
   70.4033   49.7499   52.8381 C   0  0  0  0  0  0  0  0  0  0  0  0
   69.9870   50.8833   52.5320 O   0  0  0  0  0  0  0  0  0  0  0  0
 25 26  1  0
 26 27  2  0
 26 16  1  0
 16 17  2  0
 16 24  1  0
 17 18  1  0
 18 19  1  0
 19 20  1  0
 19 24  2  0
 20 21  2  0
 21 22  1  0
 22 15  1  0
 22 23  2  0
 15  1  1  0
  1  2  2  0
  1  3  2  0
  1  4  1  0
  4  5  2  0
  4 13  1  0
  5  6  1  0
  5  7  1  0
  7  8  1  0
  7  9  2  0
  9 10  1  0
  9 11  1  0
 11 12  1  0
 11 13  2  0
 13 14  1  0
 23 24  1  0
M  END
>  <minimizedAffinity>  (145) 
-9.58677

$$$$
cs_full_output_folder/data/smiles/89.pdb
     RDKit          3D

 33 36  0  0  0  0  0  0  0  0999 V2000
   70.8122   44.5019   59.0660 C   0  0  0  0  0  0  0  0  0  0  0  0
   70.8039   45.8303   58.9069 C   0  0  0  0  0  0  0  0  0  0  0  0
   71.5177   46.5988   59.7492 N   0  0  0  0  0  0  0  0  0  0  0  0
   71.5034   47.9414   59.5800 C   0  0  0  0  0  0  0  0  0  0  0  0
   72.1589   48.6988   60.3478 O   0  0  0  0  0  0  0  0  0  0  0  0
   70.7769   48.5458   58.5648 C   0  0  0  0  0  0  0  0  0  0  0  0
   70.7518   49.8577   58.3837 C   0  0  0  0  0  0  0  0  0  0  0  0
   70.0620   47.7798   57.7192 N   0  0  0  0  0  0  0  0  0  0  0  0
   70.0854   46.4454   57.9014 C   0  0  0  0  0  0  0  0  0  0  0  0
   69.4263   45.7179   57.1247 O   0  0  0  0  0  0  0  0  0  0  0  0
   69.9779   50.4726   57.3066 C   0  0  0  0  0  0  0  0  0  0  0  0
   69.0334   51.4307   57.4757 C   0  0  0  0  0  0  0  0  0  0  0  0
   68.3690   51.9318   56.3548 C   0  0  0  0  0  0  0  0  0  0  0  0
   68.6429   51.4813   55.0786 C   0  0  0  0  0  0  0  0  0  0  0  0
   69.6056   50.5049   54.9138 C   0  0  0  0  0  0  0  0  0  0  0  0
   70.2534   50.0204   56.0313 C   0  0  0  0  0  0  0  0  0  0  0  0
   69.9269   49.9946   53.5549 C   0  0  0  0  0  0  0  0  0  0  0  0
   69.3197   48.6674   53.2972 C   0  0  0  0  0  0  0  0  0  0  0  0
   68.7585   47.9303   54.3052 C   0  0  0  0  0  0  0  0  0  0  0  0
   68.2012   46.7063   54.0542 C   0  0  0  0  0  0  0  0  0  0  0  0
   68.1851   46.1668   52.7674 C   0  0  0  0  0  0  0  0  0  0  0  0
   67.6332   44.9548   52.5218 F   0  0  0  0  0  0  0  0  0  0  0  0
   68.7432   46.8908   51.7473 C   0  0  0  0  0  0  0  0  0  0  0  0
   69.3065   48.1342   52.0147 C   0  0  0  0  0  0  0  0  0  0  0  0
   72.8015   43.2856   59.9490 C   0  0  0  0  0  0  0  0  0  0  0  0
   73.1227   42.7758   61.1519 N   0  0  0  0  0  0  0  0  0  0  0  0
   72.1405   42.9952   62.0103 C   0  0  0  0  0  0  0  0  0  0  0  0
   71.1485   43.6598   61.3717 N   0  0  0  0  0  0  0  0  0  0  0  0
   71.5568   43.8356   60.1118 C   0  0  0  0  0  0  0  0  0  0  0  0
   74.2087   44.5255   58.3150 C   0  0  0  0  0  0  0  0  0  0  0  0
   73.6837   43.2054   58.7855 C   0  0  0  0  0  0  0  0  0  0  0  0
   74.8585   42.2865   59.0179 C   0  0  0  0  0  0  0  0  0  0  0  0
   72.8801   42.5898   57.6421 C   0  0  0  0  0  0  0  0  0  0  0  0
 30 31  1  0
 31 32  1  0
 31 33  1  0
 31 25  1  0
 25 26  1  0
 25 29  2  0
 26 27  1  0
 27 28  2  0
 28 29  1  0
 29  1  1  0
  1  2  2  0
  2  3  1  0
  2  9  1  0
  3  4  1  0
  4  5  2  0
  4  6  1  0
  6  7  2  0
  6  8  1  0
  7 11  1  0
 11 12  2  0
 11 16  1  0
 12 13  1  0
 13 14  2  0
 14 15  1  0
 15 17  1  0
 15 16  2  0
 17 18  1  0
 18 19  2  0
 18 24  1  0
 19 20  1  0
 20 21  2  0
 21 22  1  0
 21 23  1  0
 23 24  2  0
  8  9  1  0
  9 10  2  0
M  CHG  1  28   1
M  END
>  <minimizedAffinity>  (146) 
-9.58653

$$$$
cs_full_output_folder/data/smiles/3791.pdb
     RDKit          3D

 29 31  0  0  0  0  0  0  0  0999 V2000
   69.3622   48.1394   53.3267 C   0  0  0  0  0  0  0  0  0  0  0  0
   68.8635   47.7560   52.1009 C   0  0  0  0  0  0  0  0  0  0  0  0
   68.1900   46.5586   51.9745 C   0  0  0  0  0  0  0  0  0  0  0  0
   67.9872   45.7074   53.0406 C   0  0  0  0  0  0  0  0  0  0  0  0
   68.4766   46.0781   54.2624 C   0  0  0  0  0  0  0  0  0  0  0  0
   69.1556   47.2849   54.3862 C   0  0  0  0  0  0  0  0  0  0  0  0
   70.2149   49.6599   53.4703 S   0  0  0  0  0  0  0  0  0  0  0  0
   69.7735   50.6495   52.4546 O   0  0  0  0  0  0  0  0  0  0  0  0
   71.6781   49.3699   53.1913 O   0  0  0  0  0  0  0  0  0  0  0  0
   68.2796   51.7194   54.3327 C   0  0  0  0  0  0  0  0  0  0  0  0
   69.4545   51.4827   55.2410 C   0  0  1  0  0  0  0  0  0  0  0  0
   69.0278   51.5587   56.7152 C   0  0  0  0  0  0  0  0  0  0  0  0
   70.3036   51.6097   57.5241 C   0  0  0  0  0  0  0  0  0  0  0  0
   71.1019   50.3417   57.2273 C   0  0  0  0  0  0  0  0  0  0  0  0
   71.4000   50.3187   55.7266 C   0  0  0  0  0  0  0  0  0  0  0  0
   70.1066   50.2363   55.0713 N   0  0  0  0  0  0  0  0  0  0  0  0
   68.3319   45.2672   55.4642 C   0  0  0  0  0  0  0  0  0  0  0  0
   68.6352   45.7339   56.5993 O   0  0  0  0  0  0  0  0  0  0  0  0
   67.8529   43.9310   55.4598 N   0  0  0  0  0  0  0  0  0  0  0  0
   67.7263   43.1750   56.6554 N   0  0  0  0  0  0  0  0  0  0  0  0
   67.5903   41.7660   56.6422 C   0  0  0  0  0  0  0  0  0  0  0  0
   67.5949   41.2634   55.4610 O   0  0  0  0  0  0  0  0  0  0  0  0
   67.4549   40.8942   57.7746 C   0  0  0  0  0  0  0  0  0  0  0  0
   68.0980   39.6517   57.6893 C   0  0  0  0  0  0  0  0  0  0  0  0
   68.0614   38.7186   58.6823 C   0  0  0  0  0  0  0  0  0  0  0  0
   67.3689   38.9715   59.8408 C   0  0  0  0  0  0  0  0  0  0  0  0
   66.7333   40.1884   59.9350 C   0  0  0  0  0  0  0  0  0  0  0  0
   66.7731   41.1339   58.9248 C   0  0  0  0  0  0  0  0  0  0  0  0
   66.1185   42.3231   59.0841 O   0  0  0  0  0  0  0  0  0  0  0  0
 11 10  1  6
 11 12  1  0
 11 16  1  0
 12 13  1  0
 13 14  1  0
 14 15  1  0
 15 16  1  0
 16  7  1  0
  7  8  2  0
  7  9  2  0
  7  1  1  0
  1  2  2  0
  1  6  1  0
  2  3  1  0
  3  4  2  0
  4  5  1  0
  5 17  1  0
  5  6  2  0
 17 18  2  0
 17 19  1  0
 19 20  1  0
 20 21  1  0
 21 22  2  0
 21 23  1  0
 23 24  2  0
 23 28  1  0
 24 25  1  0
 25 26  2  0
 26 27  1  0
 27 28  2  0
 28 29  1  0
M  END
>  <minimizedAffinity>  (147) 
-9.58179

$$$$
cs_full_output_folder/data/smiles/90.pdb
     RDKit          3D

 31 34  0  0  0  0  0  0  0  0999 V2000
   71.4354   47.3502   58.7153 C   0  0  0  0  0  0  0  0  0  0  0  0
   71.4402   45.9481   58.6068 C   0  0  0  0  0  0  0  0  0  0  0  0
   70.5816   45.2638   57.7838 C   0  0  0  0  0  0  0  0  0  0  0  0
   69.6708   45.9862   57.0296 C   0  0  0  0  0  0  0  0  0  0  0  0
   69.6639   47.3566   57.1340 C   0  0  0  0  0  0  0  0  0  0  0  0
   70.5261   48.0295   57.9577 C   0  0  0  0  0  0  0  0  0  0  0  0
   74.6907   50.8752   58.7402 N   0  0  0  0  0  0  0  0  0  0  0  0
   74.5637   50.5903   60.1168 C   0  0  0  0  0  0  0  0  0  0  0  0
   74.4532   49.1067   60.3609 C   0  0  0  0  0  0  0  0  0  0  0  0
   73.6206   48.5382   59.2942 N   0  0  0  0  0  0  0  0  0  0  0  0
   72.3907   47.9324   59.6204 C   0  0  0  0  0  0  0  0  0  0  0  0
   72.0972   47.9041   60.8703 O   0  0  0  0  0  0  0  0  0  0  0  0
   74.1553   48.6316   57.9626 C   0  0  0  0  0  0  0  0  0  0  0  0
   75.1256   49.7975   57.9252 C   0  0  0  0  0  0  0  0  0  0  0  0
   73.6570   51.9817   58.0260 S   0  0  0  0  0  0  0  0  0  0  0  0
   74.0694   53.3742   58.5087 O   0  0  0  0  0  0  0  0  0  0  0  0
   73.8649   52.0115   56.5319 O   0  0  0  0  0  0  0  0  0  0  0  0
   71.0913   51.5916   57.1412 C   0  0  0  0  0  0  0  0  0  0  0  0
   71.9514   51.8248   58.3543 C   0  0  0  0  0  0  0  0  0  0  0  0
   68.6907   48.1115   56.3073 C   0  0  0  0  0  0  0  0  0  0  0  0
   69.2468   48.2205   54.9402 C   0  0  0  0  0  0  0  0  0  0  0  0
   70.2115   49.1201   54.6399 N   0  0  0  0  0  0  0  0  0  0  0  0
   70.7012   49.2861   53.4150 N   0  0  0  0  0  0  0  0  0  0  0  0
   70.2539   48.5543   52.3999 C   0  0  0  0  0  0  0  0  0  0  0  0
   70.7465   48.7444   51.2522 O   0  0  0  0  0  0  0  0  0  0  0  0
   69.2643   47.6048   52.6181 C   0  0  0  0  0  0  0  0  0  0  0  0
   68.8304   46.8475   51.5620 C   0  0  0  0  0  0  0  0  0  0  0  0
   67.8665   45.8897   51.7566 C   0  0  0  0  0  0  0  0  0  0  0  0
   67.3696   45.7273   53.0254 C   0  0  0  0  0  0  0  0  0  0  0  0
   67.8090   46.4990   54.1080 C   0  0  0  0  0  0  0  0  0  0  0  0
   68.7675   47.4478   53.9006 C   0  0  0  0  0  0  0  0  0  0  0  0
 18 19  1  0
 19 15  1  0
 15 16  2  0
 15 17  2  0
 15  7  1  0
  7  8  1  0
  7 14  1  0
  8  9  1  0
  9 10  1  0
 10 11  1  0
 10 13  1  0
 11 12  2  0
 11  1  1  0
  1  2  2  0
  1  6  1  0
  2  3  1  0
  3  4  2  0
  4  5  1  0
  5 20  1  0
  5  6  2  0
 20 21  1  0
 21 22  2  0
 21 31  1  0
 22 23  1  0
 23 24  1  0
 24 25  2  0
 24 26  1  0
 26 27  1  0
 26 31  2  0
 27 28  2  0
 28 29  1  0
 29 30  2  0
 30 31  1  0
 13 14  1  0
M  END
>  <minimizedAffinity>  (148) 
-9.57859

$$$$
cs_full_output_folder/data/smiles/6123.pdb
     RDKit          3D

 30 34  0  0  0  0  0  0  0  0999 V2000
   68.3618   50.7586   56.6328 C   0  0  0  0  0  0  0  0  0  0  0  0
   69.0078   49.5769   56.3585 C   0  0  0  0  0  0  0  0  0  0  0  0
   68.5511   48.3409   56.8369 C   0  0  0  0  0  0  0  0  0  0  0  0
   67.4225   48.3419   57.5980 C   0  0  0  0  0  0  0  0  0  0  0  0
   66.7343   49.5068   57.9023 C   0  0  0  0  0  0  0  0  0  0  0  0
   67.2148   50.6943   57.4161 C   0  0  0  0  0  0  0  0  0  0  0  0
   66.5466   51.8393   57.7092 F   0  0  0  0  0  0  0  0  0  0  0  0
   68.1685   52.6218   55.2415 O   0  0  0  0  0  0  0  0  0  0  0  0
   68.8415   52.0425   56.1310 C   0  0  0  0  0  0  0  0  0  0  0  0
   70.0224   52.6849   56.5817 N   0  0  0  0  0  0  0  0  0  0  0  0
   70.7641   53.9011   56.3151 C   0  0  0  0  0  0  0  0  0  0  0  0
   72.0193   53.1214   56.6533 C   0  0  0  0  0  0  0  0  0  0  0  0
   72.4897   52.3316   55.4794 C   0  0  0  0  0  0  0  0  0  0  0  0
   73.8205   52.7590   54.9526 C   0  0  0  0  0  0  0  0  0  0  0  0
   73.8812   54.2076   55.0253 N   0  0  0  0  0  0  0  0  0  0  0  0
   73.9187   54.6761   56.3823 C   0  0  0  0  0  0  0  0  0  0  0  0
   73.1091   53.8695   57.3426 C   0  0  0  0  0  0  0  0  0  0  0  0
   71.0668   52.3784   57.5726 C   0  0  0  0  0  0  0  0  0  0  0  0
   69.3447   47.1346   56.4357 C   0  0  0  0  0  0  0  0  0  0  0  0
   68.7653   46.4840   55.2168 C   0  0  0  0  0  0  0  0  0  0  0  0
   67.9668   45.3774   55.3976 N   0  0  0  0  0  0  0  0  0  0  0  0
   67.4047   44.8349   54.3411 N   0  0  0  0  0  0  0  0  0  0  0  0
   67.5797   45.3172   53.0979 C   0  0  0  0  0  0  0  0  0  0  0  0
   67.0191   44.7673   52.0928 O   0  0  0  0  0  0  0  0  0  0  0  0
   68.3695   46.4220   52.8518 C   0  0  0  0  0  0  0  0  0  0  0  0
   68.5715   46.9181   51.5903 C   0  0  0  0  0  0  0  0  0  0  0  0
   69.3914   48.0157   51.4437 C   0  0  0  0  0  0  0  0  0  0  0  0
   69.9989   48.6085   52.5274 C   0  0  0  0  0  0  0  0  0  0  0  0
   69.8003   48.1183   53.7914 C   0  0  0  0  0  0  0  0  0  0  0  0
   68.9786   47.0160   53.9699 C   0  0  0  0  0  0  0  0  0  0  0  0
  8  9  2  0
  9  1  1  0
  9 10  1  0
  1  2  2  0
  1  6  1  0
  2  3  1  0
  3 19  1  0
  3  4  2  0
 19 20  1  0
 20 21  2  0
 20 30  1  0
 21 22  1  0
 22 23  1  0
 23 24  2  0
 23 25  1  0
 25 26  1  0
 25 30  2  0
 26 27  2  0
 27 28  1  0
 28 29  2  0
 29 30  1  0
  4  5  1  0
  5  6  2  0
  6  7  1  0
 10 11  1  0
 10 18  1  0
 11 12  1  0
 12 13  1  0
 12 17  1  0
 12 18  1  0
 13 14  1  0
 14 15  1  0
 15 16  1  0
 16 17  1  0
M  CHG  1  15   1
M  END
>  <minimizedAffinity>  (149) 
-9.57505

$$$$
cs_full_output_folder/data/smiles/3306.pdb
     RDKit          3D

 30 34  0  0  0  0  0  0  0  0999 V2000
   70.7350   46.1759   58.4904 C   0  0  0  0  0  0  0  0  0  0  0  0
   69.8835   46.6909   57.5615 C   0  0  0  0  0  0  0  0  0  0  0  0
   69.8982   48.0745   57.3430 C   0  0  0  0  0  0  0  0  0  0  0  0
   70.7435   48.8799   58.0433 C   0  0  0  0  0  0  0  0  0  0  0  0
   71.6092   48.3326   58.9917 C   0  0  0  0  0  0  0  0  0  0  0  0
   71.5985   46.9777   59.2097 C   0  0  0  0  0  0  0  0  0  0  0  0
   72.4152   46.3740   60.1195 F   0  0  0  0  0  0  0  0  0  0  0  0
   69.7289   44.2249   59.2808 O   0  0  0  0  0  0  0  0  0  0  0  0
   70.7164   44.7376   58.7169 C   0  0  0  0  0  0  0  0  0  0  0  0
   71.7915   43.9331   58.3085 N   0  0  0  0  0  0  0  0  0  0  0  0
   71.9171   42.5029   58.4627 C   0  0  0  0  0  0  0  0  0  0  0  0
   73.4049   42.3756   58.6849 C   0  0  0  0  0  0  0  0  0  0  0  0
   74.1793   41.3859   59.2547 C   0  0  0  0  0  0  0  0  0  0  0  0
   75.5447   41.5469   59.3277 C   0  0  0  0  0  0  0  0  0  0  0  0
   76.1498   42.6838   58.8394 C   0  0  0  0  0  0  0  0  0  0  0  0
   75.3917   43.6392   58.2880 N   0  0  0  0  0  0  0  0  0  0  0  0
   74.0382   43.4972   58.2063 C   0  0  0  0  0  0  0  0  0  0  0  0
   72.9888   44.3840   57.6497 C   0  0  0  0  0  0  0  0  0  0  0  0
   68.9509   48.6637   56.3468 C   0  0  0  0  0  0  0  0  0  0  0  0
   69.3879   48.5354   54.9567 C   0  0  0  0  0  0  0  0  0  0  0  0
   70.3482   49.4045   54.5183 N   0  0  0  0  0  0  0  0  0  0  0  0
   70.8115   49.4452   53.2989 N   0  0  0  0  0  0  0  0  0  0  0  0
   70.3319   48.5853   52.3890 C   0  0  0  0  0  0  0  0  0  0  0  0
   70.7696   48.6131   51.2045 O   0  0  0  0  0  0  0  0  0  0  0  0
   69.3616   47.6628   52.7162 C   0  0  0  0  0  0  0  0  0  0  0  0
   68.8754   46.7734   51.7955 C   0  0  0  0  0  0  0  0  0  0  0  0
   67.9194   45.8560   52.1475 C   0  0  0  0  0  0  0  0  0  0  0  0
   67.4749   45.8683   53.4621 C   0  0  0  0  0  0  0  0  0  0  0  0
   67.9564   46.7573   54.3985 C   0  0  0  0  0  0  0  0  0  0  0  0
   68.8995   47.6607   54.0379 C   0  0  0  0  0  0  0  0  0  0  0  0
  8  9  2  0
  9  1  1  0
  9 10  1  0
  1  2  2  0
  1  6  1  0
  2  3  1  0
  3 19  1  0
  3  4  2  0
 19 20  1  0
 20 21  2  0
 20 30  1  0
 21 22  1  0
 22 23  1  0
 23 24  2  0
 23 25  1  0
 25 26  1  0
 25 30  2  0
 26 27  2  0
 27 28  1  0
 28 29  2  0
 29 30  1  0
  4  5  1  0
  5  6  2  0
  6  7  1  0
 10 11  1  0
 10 18  1  0
 11 12  1  0
 12 13  1  0
 12 17  2  0
 13 14  2  0
 14 15  1  0
 15 16  2  0
 16 17  1  0
 17 18  1  0
M  END
>  <minimizedAffinity>  (150) 
-9.57420

$$$$
cs_full_output_folder/data/smiles/2767.pdb
     RDKit          3D

 30 33  0  0  0  0  0  0  0  0999 V2000
   71.3285   46.9623   58.8597 C   0  0  0  0  0  0  0  0  0  0  0  0
   70.5664   47.8305   58.1155 C   0  0  0  0  0  0  0  0  0  0  0  0
   69.7270   47.3077   57.1247 C   0  0  0  0  0  0  0  0  0  0  0  0
   69.7092   45.9542   56.9466 C   0  0  0  0  0  0  0  0  0  0  0  0
   70.4860   45.0690   57.7051 C   0  0  0  0  0  0  0  0  0  0  0  0
   71.3053   45.6001   58.6758 C   0  0  0  0  0  0  0  0  0  0  0  0
   72.0570   44.7405   59.4091 F   0  0  0  0  0  0  0  0  0  0  0  0
   75.2669   50.1989   58.9062 C   0  0  0  0  0  0  0  0  0  0  0  0
   74.0397   49.8764   58.0464 C   0  0  0  0  0  0  0  0  0  0  0  0
   73.8055   48.3941   58.2532 C   0  0  0  0  0  0  0  0  0  0  0  0
   73.3990   48.2185   59.6217 N   0  0  0  0  0  0  0  0  0  0  0  0
   72.1948   47.5243   59.8837 C   0  0  0  0  0  0  0  0  0  0  0  0
   71.8301   47.3717   61.0894 O   0  0  0  0  0  0  0  0  0  0  0  0
   74.2355   48.7442   60.6645 C   0  0  0  0  0  0  0  0  0  0  0  0
   74.8480   50.0651   60.3498 C   0  0  0  0  0  0  0  0  0  0  0  0
   76.1787   49.1743   58.6541 O   0  0  0  0  0  0  0  0  0  0  0  0
   78.0914   50.6367   58.5118 C   0  0  0  0  0  0  0  0  0  0  0  0
   77.2432   49.5656   57.8747 C   0  0  0  0  0  0  0  0  0  0  0  0
   68.9142   48.2043   56.2826 C   0  0  0  0  0  0  0  0  0  0  0  0
   69.3432   48.3071   54.8862 C   0  0  0  0  0  0  0  0  0  0  0  0
   70.2485   49.2277   54.4695 N   0  0  0  0  0  0  0  0  0  0  0  0
   70.6412   49.3980   53.2414 N   0  0  0  0  0  0  0  0  0  0  0  0
   70.1676   48.6526   52.2507 C   0  0  0  0  0  0  0  0  0  0  0  0
   70.5505   48.8245   51.0705 O   0  0  0  0  0  0  0  0  0  0  0  0
   69.2336   47.6833   52.5959 C   0  0  0  0  0  0  0  0  0  0  0  0
   68.7631   46.9095   51.5543 C   0  0  0  0  0  0  0  0  0  0  0  0
   67.8439   45.9084   51.7846 C   0  0  0  0  0  0  0  0  0  0  0  0
   67.4355   45.7345   53.0850 C   0  0  0  0  0  0  0  0  0  0  0  0
   67.9095   46.5133   54.1365 C   0  0  0  0  0  0  0  0  0  0  0  0
   68.8171   47.5041   53.9109 C   0  0  0  0  0  0  0  0  0  0  0  0
 17 18  1  0
 18 16  1  0
 16  8  1  0
  8  9  1  0
  8 15  1  0
  9 10  1  0
 10 11  1  0
 11 12  1  0
 11 14  1  0
 12 13  2  0
 12  1  1  0
  1  2  2  0
  1  6  1  0
  2  3  1  0
  3 19  1  0
  3  4  2  0
 19 20  1  0
 20 21  2  0
 20 30  1  0
 21 22  1  0
 22 23  1  0
 23 24  2  0
 23 25  1  0
 25 26  1  0
 25 30  2  0
 26 27  2  0
 27 28  1  0
 28 29  2  0
 29 30  1  0
  4  5  1  0
  5  6  2  0
  6  7  1  0
 14 15  1  0
M  END
>  <minimizedAffinity>  (151) 
-9.57369

$$$$
cs_full_output_folder/data/smiles/8579.pdb
     RDKit          3D

 33 37  0  0  0  0  0  0  0  0999 V2000
   71.8756   47.4360   58.8041 C   0  0  0  0  0  0  0  0  0  0  0  0
   70.7598   47.8065   58.1053 C   0  0  0  0  0  0  0  0  0  0  0  0
   70.7552   48.8155   57.1283 C   0  0  0  0  0  0  0  0  0  0  0  0
   71.9661   49.4187   56.9179 C   0  0  0  0  0  0  0  0  0  0  0  0
   73.1042   49.0599   57.6129 C   0  0  0  0  0  0  0  0  0  0  0  0
   73.0673   48.0705   58.5576 C   0  0  0  0  0  0  0  0  0  0  0  0
   74.2165   47.7402   59.2277 F   0  0  0  0  0  0  0  0  0  0  0  0
   70.1709   42.8009   58.9909 C   0  0  0  0  0  0  0  0  0  0  0  0
   70.2682   43.7459   58.1168 C   0  0  0  0  0  0  0  0  0  0  0  0
   69.3534   44.1388   57.1341 N   0  0  0  0  0  0  0  0  0  0  0  0
   71.5612   44.5501   58.1628 C   0  0  0  0  0  0  0  0  0  0  0  0
   71.6174   45.0259   59.5153 N   0  0  0  0  0  0  0  0  0  0  0  0
   71.7651   46.3807   59.7890 C   0  0  0  0  0  0  0  0  0  0  0  0
   71.8089   46.7596   61.0081 O   0  0  0  0  0  0  0  0  0  0  0  0
   71.5126   44.0438   60.5631 C   0  0  0  0  0  0  0  0  0  0  0  0
   71.3925   42.6370   59.9383 C   0  0  0  0  0  0  0  0  0  0  0  0
   68.0291   42.6351   59.7162 N   0  0  0  0  0  0  0  0  0  0  0  0
   69.0626   41.9208   59.1435 C   0  0  0  0  0  0  0  0  0  0  0  0
   68.7110   40.5515   58.9228 C   0  0  0  0  0  0  0  0  0  0  0  0
   68.2803   39.9391   57.6462 C   0  0  0  0  0  0  0  0  0  0  0  0
   69.4818   39.4093   58.3840 C   0  0  0  0  0  0  0  0  0  0  0  0
   69.5117   49.1827   56.4334 C   0  0  0  0  0  0  0  0  0  0  0  0
   69.7110   49.0602   54.9750 C   0  0  0  0  0  0  0  0  0  0  0  0
   70.3908   50.0272   54.2946 N   0  0  0  0  0  0  0  0  0  0  0  0
   70.5640   50.0126   53.0056 N   0  0  0  0  0  0  0  0  0  0  0  0
   70.0613   49.0112   52.2700 C   0  0  0  0  0  0  0  0  0  0  0  0
   70.2167   48.9815   51.0261 O   0  0  0  0  0  0  0  0  0  0  0  0
   69.3667   48.0003   52.8753 C   0  0  0  0  0  0  0  0  0  0  0  0
   68.8657   46.9704   52.1272 C   0  0  0  0  0  0  0  0  0  0  0  0
   68.1717   45.9297   52.7280 C   0  0  0  0  0  0  0  0  0  0  0  0
   67.9911   45.9440   54.1054 C   0  0  0  0  0  0  0  0  0  0  0  0
   68.4958   46.9826   54.8543 C   0  0  0  0  0  0  0  0  0  0  0  0
   69.1871   48.0252   54.2651 C   0  0  0  0  0  0  0  0  0  0  0  0
 17 18  2  0
 18  8  1  0
 18 19  1  0
  8  9  2  0
  8 16  1  0
  9 10  1  0
  9 11  1  0
 11 12  1  0
 12 13  1  0
 12 15  1  0
 13 14  2  0
 13  1  1  0
  1  2  2  0
  1  6  1  0
  2  3  1  0
  3 22  1  0
  3  4  2  0
 22 23  1  0
 23 24  2  0
 23 33  1  0
 24 25  1  0
 25 26  1  0
 26 27  2  0
 26 28  1  0
 28 29  1  0
 28 33  2  0
 29 30  2  0
 30 31  1  0
 31 32  2  0
 32 33  1  0
  4  5  1  0
  5  6  2  0
  6  7  1  0
 15 16  1  0
 19 20  1  0
 19 21  1  0
 20 21  1  0
M  END
>  <minimizedAffinity>  (152) 
-9.57277

$$$$
cs_full_output_folder/data/smiles/1635.pdb
     RDKit          3D

 28 29  0  0  0  0  0  0  0  0999 V2000
   70.7744   45.8888   58.6414 C   0  0  0  0  0  0  0  0  0  0  0  0
   71.7759   46.8687   59.4547 S   0  0  0  0  0  0  0  0  0  0  0  0
   70.2563   43.4839   59.0405 C   0  0  0  0  0  0  0  0  0  0  0  0
   69.2438   43.8170   59.7045 O   0  0  0  0  0  0  0  0  0  0  0  0
   71.0771   44.4855   58.4726 N   0  0  0  0  0  0  0  0  0  0  0  0
   70.9490   39.2993   58.5925 C   0  0  0  0  0  0  0  0  0  0  0  0
   71.9943   40.1704   58.4953 C   0  0  0  0  0  0  0  0  0  0  0  0
   71.7790   41.5255   58.6386 C   0  0  0  0  0  0  0  0  0  0  0  0
   70.5464   42.0748   58.8801 C   0  0  0  0  0  0  0  0  0  0  0  0
   69.4903   41.1567   58.9749 C   0  0  0  0  0  0  0  0  0  0  0  0
   69.6891   39.8035   58.8341 C   0  0  0  0  0  0  0  0  0  0  0  0
   71.0880   37.8300   58.4521 C   0  0  2  0  0  0  0  0  0  0  0  0
   70.4890   37.1863   59.6851 C   0  0  0  0  0  0  0  0  0  0  0  0
   72.6052   36.2716   57.3572 C   0  0  0  0  0  0  0  0  0  0  0  0
   72.5295   37.3959   58.3737 C   0  0  0  0  0  0  0  0  0  0  0  0
   69.5825   46.4166   58.0866 N   0  0  0  0  0  0  0  0  0  0  0  0
   69.5765   46.8891   56.7521 N   0  0  0  0  0  0  0  0  0  0  0  0
   68.8349   46.2263   55.7392 C   0  0  0  0  0  0  0  0  0  0  0  0
   68.1848   45.2046   56.0750 O   0  0  0  0  0  0  0  0  0  0  0  0
   68.8124   46.6898   54.3625 C   0  0  0  0  0  0  0  0  0  0  0  0
   68.1713   45.8943   53.4159 C   0  0  0  0  0  0  0  0  0  0  0  0
   68.0750   46.2061   52.0958 C   0  0  0  0  0  0  0  0  0  0  0  0
   68.6438   47.3843   51.6449 C   0  0  0  0  0  0  0  0  0  0  0  0
   69.2875   48.1970   52.5522 C   0  0  0  0  0  0  0  0  0  0  0  0
   69.3705   47.8494   53.9059 C   0  0  0  0  0  0  0  0  0  0  0  0
   69.8702   49.4018   52.0923 N   0  0  0  0  0  0  0  0  0  0  0  0
   70.5240   50.0926   52.8763 O   0  0  0  0  0  0  0  0  0  0  0  0
   69.7243   49.8174   50.7969 O   0  0  0  0  0  0  0  0  0  0  0  0
 14 15  1  0
 15 12  1  0
 12 13  1  1
 12  6  1  0
  6  7  2  0
  6 11  1  0
  7  8  1  0
  8  9  2  0
  9  3  1  0
  9 10  1  0
  3  4  2  0
  3  5  1  0
  5  1  1  0
  1  2  2  0
  1 16  1  0
 16 17  1  0
 17 18  1  0
 18 19  2  0
 18 20  1  0
 20 21  2  0
 20 25  1  0
 21 22  1  0
 22 23  2  0
 23 24  1  0
 24 26  1  0
 24 25  2  0
 26 27  2  0
 26 28  1  0
 10 11  2  0
M  CHG  2  26   1  28  -1
M  END
>  <minimizedAffinity>  (153) 
-9.56597

$$$$
cs_full_output_folder/data/smiles/9201.pdb
     RDKit          3D

 27 29  0  0  0  0  0  0  0  0999 V2000
   70.6928   46.5793   58.4142 C   0  0  0  0  0  0  0  0  0  0  0  0
   69.8782   47.1404   57.4292 C   0  0  0  0  0  0  0  0  0  0  0  0
   69.7808   48.4738   57.1626 C   0  0  0  0  0  0  0  0  0  0  0  0
   70.5703   49.3273   57.9529 C   0  0  0  0  0  0  0  0  0  0  0  0
   71.3831   48.8252   58.9291 C   0  0  0  0  0  0  0  0  0  0  0  0
   71.4437   47.4344   59.1608 C   0  0  0  0  0  0  0  0  0  0  0  0
   72.2572   47.0388   60.1408 F   0  0  0  0  0  0  0  0  0  0  0  0
   71.8077   44.5166   58.2293 O   0  0  0  0  0  0  0  0  0  0  0  0
   70.7391   45.1394   58.6135 C   0  0  0  0  0  0  0  0  0  0  0  0
   69.7572   44.3289   59.1779 N   0  0  0  0  0  0  0  0  0  0  0  0
   69.9769   42.8775   59.2931 C   0  0  0  0  0  0  0  0  0  0  0  0
   69.2928   42.1533   58.1967 C   0  0  0  0  0  0  0  0  0  0  0  0
   69.7741   40.9267   57.8531 F   0  0  0  0  0  0  0  0  0  0  0  0
   68.2816   42.6133   57.5589 N   0  0  0  0  0  0  0  0  0  0  0  0
   67.4601   41.6406   56.1764 Br  0  0  0  0  0  0  0  0  0  0  0  0
   68.9262   49.1141   56.1391 C   0  0  0  0  0  0  0  0  0  0  0  0
   69.3621   48.9156   54.7522 C   0  0  0  0  0  0  0  0  0  0  0  0
   70.2328   49.8049   54.1892 N   0  0  0  0  0  0  0  0  0  0  0  0
   70.6247   49.7112   52.9347 N   0  0  0  0  0  0  0  0  0  0  0  0
   70.2047   48.7405   52.1085 C   0  0  0  0  0  0  0  0  0  0  0  0
   70.5727   48.6430   50.9098 O   0  0  0  0  0  0  0  0  0  0  0  0
   69.3211   47.7992   52.6063 C   0  0  0  0  0  0  0  0  0  0  0  0
   68.8691   46.7716   51.8053 C   0  0  0  0  0  0  0  0  0  0  0  0
   68.0017   45.8274   52.3061 C   0  0  0  0  0  0  0  0  0  0  0  0
   67.5975   45.9242   53.6110 C   0  0  0  0  0  0  0  0  0  0  0  0
   68.0484   46.9458   54.4009 C   0  0  0  0  0  0  0  0  0  0  0  0
   68.9121   47.9049   53.9322 C   0  0  0  0  0  0  0  0  0  0  0  0
  8  9  2  0
  9 10  1  0
  9  1  1  0
 10 11  1  0
 11 12  1  0
 12 13  1  0
 12 14  2  0
 14 15  1  0
  1  2  2  0
  1  6  1  0
  2  3  1  0
  3 16  1  0
  3  4  2  0
 16 17  1  0
 17 18  2  0
 17 27  1  0
 18 19  1  0
 19 20  1  0
 20 21  2  0
 20 22  1  0
 22 23  1  0
 22 27  2  0
 23 24  2  0
 24 25  1  0
 25 26  2  0
 26 27  1  0
  4  5  1  0
  5  6  2  0
  6  7  1  0
M  END
>  <minimizedAffinity>  (154) 
-9.56300

$$$$
cs_full_output_folder/data/smiles/9226.pdb
     RDKit          3D

 25 27  0  0  0  0  0  0  0  0999 V2000
   68.3898   43.7420   56.2060 N   0  0  0  0  0  0  0  0  0  0  0  0
   68.1056   42.4973   56.4669 C   0  0  0  0  0  0  0  0  0  0  0  0
   67.0816   41.6642   55.8659 C   0  0  0  0  0  0  0  0  0  0  0  0
   66.2349   42.0543   54.9982 O   0  0  0  0  0  0  0  0  0  0  0  0
   67.2152   40.3741   56.4249 N   0  0  0  0  0  0  0  0  0  0  0  0
   68.2982   40.3391   57.3761 C   0  0  0  0  0  0  0  0  0  0  0  0
   68.8125   39.3221   58.1516 C   0  0  0  0  0  0  0  0  0  0  0  0
   69.9108   39.5420   59.0068 C   0  0  0  0  0  0  0  0  0  0  0  0
   70.4062   40.8157   59.0011 C   0  0  0  0  0  0  0  0  0  0  0  0
   69.8802   41.8472   58.2115 C   0  0  0  0  0  0  0  0  0  0  0  0
   68.8216   41.6092   57.3952 C   0  0  0  0  0  0  0  0  0  0  0  0
   70.4144   38.4162   59.7689 C   0  0  0  0  0  0  0  0  0  0  0  0
   71.2354   37.5161   59.3914 C   0  0  0  0  0  0  0  0  0  0  0  0
   72.1098   37.2888   57.7397 Br  0  0  0  0  0  0  0  0  0  0  0  0
   67.5978   44.3670   55.1950 N   0  0  0  0  0  0  0  0  0  0  0  0
   69.2276   47.8764   53.4332 C   0  0  0  0  0  0  0  0  0  0  0  0
   69.2463   47.6781   54.8217 C   0  0  0  0  0  0  0  0  0  0  0  0
   68.6963   46.5500   55.3889 C   0  0  0  0  0  0  0  0  0  0  0  0
   68.1100   45.5798   54.6034 C   0  0  0  0  0  0  0  0  0  0  0  0
   68.0828   45.7634   53.2479 C   0  0  0  0  0  0  0  0  0  0  0  0
   68.6366   46.9050   52.6553 C   0  0  0  0  0  0  0  0  0  0  0  0
   69.8591   49.4548   51.1022 N   0  0  0  0  0  0  0  0  0  0  0  0
   70.0078   49.3046   52.7923 S   0  0  0  0  0  0  0  0  0  0  0  0
   71.4668   49.3380   53.1836 O   0  0  0  0  0  0  0  0  0  0  0  0
   69.3844   50.5503   53.4153 O   0  0  0  0  0  0  0  0  0  0  0  0
 22 23  1  0
 23 24  2  0
 23 25  2  0
 23 16  1  0
 16 17  2  0
 16 21  1  0
 17 18  1  0
 18 19  2  0
 19 15  1  0
 19 20  1  0
 15  1  1  0
  1  2  2  0
  2  3  1  0
  2 11  1  0
  3  4  2  0
  3  5  1  0
  5  6  1  0
  6  7  1  0
  6 11  2  0
  7  8  2  0
  8 12  1  0
  8  9  1  0
 12 13  2  0
 13 14  1  0
  9 10  2  0
 10 11  1  0
 20 21  2  0
M  END
>  <minimizedAffinity>  (155) 
-9.56104

$$$$
cs_full_output_folder/data/smiles/668.pdb
     RDKit          3D

 28 30  0  0  0  0  0  0  0  0999 V2000
   68.4495   46.0234   54.1987 C   0  0  0  0  0  0  0  0  0  0  0  0
   67.9028   45.5658   53.0185 C   0  0  0  0  0  0  0  0  0  0  0  0
   68.0299   46.2885   51.8315 C   0  0  0  0  0  0  0  0  0  0  0  0
   68.7141   47.4892   51.8154 C   0  0  0  0  0  0  0  0  0  0  0  0
   69.2665   47.9574   52.9955 C   0  0  0  0  0  0  0  0  0  0  0  0
   69.1232   47.2181   54.1574 C   0  0  0  0  0  0  0  0  0  0  0  0
   67.8400   43.8944   55.4392 N   0  0  0  0  0  0  0  0  0  0  0  0
   68.2910   45.2363   55.4168 C   0  0  0  0  0  0  0  0  0  0  0  0
   68.5582   45.7292   56.5570 O   0  0  0  0  0  0  0  0  0  0  0  0
   67.5946   41.1376   55.5192 O   0  0  0  0  0  0  0  0  0  0  0  0
   67.5627   41.7339   56.6254 C   0  0  0  0  0  0  0  0  0  0  0  0
   67.6871   43.1408   56.5928 N   0  0  0  0  0  0  0  0  0  0  0  0
   67.4018   40.9395   57.8413 C   0  0  0  0  0  0  0  0  0  0  0  0
   66.5735   41.3173   58.8766 C   0  0  0  0  0  0  0  0  0  0  0  0
   66.4522   40.5257   60.0214 C   0  0  0  0  0  0  0  0  0  0  0  0
   67.1447   39.3438   60.1698 C   0  0  0  0  0  0  0  0  0  0  0  0
   67.9735   38.9667   59.1341 C   0  0  0  0  0  0  0  0  0  0  0  0
   68.6856   37.7984   59.2330 F   0  0  0  0  0  0  0  0  0  0  0  0
   68.0905   39.7503   58.0065 C   0  0  0  0  0  0  0  0  0  0  0  0
   70.1327   49.4800   52.9821 S   0  0  0  0  0  0  0  0  0  0  0  0
   69.7263   50.2335   51.7519 O   0  0  0  0  0  0  0  0  0  0  0  0
   71.5996   49.1463   52.9573 O   0  0  0  0  0  0  0  0  0  0  0  0
   69.7774   50.3984   54.4165 N   0  0  0  0  0  0  0  0  0  0  0  0
   69.1524   51.6212   53.9590 C   0  0  0  0  0  0  0  0  0  0  0  0
   68.9066   52.6032   55.0519 C   0  0  0  0  0  0  0  0  0  0  0  0
   69.3361   52.1518   56.4044 C   0  0  0  0  0  0  0  0  0  0  0  0
   70.5825   51.3388   56.4568 C   0  0  0  0  0  0  0  0  0  0  0  0
   70.9706   50.7482   55.1249 C   0  0  0  0  0  0  0  0  0  0  0  0
 10 11  2  0
 11 12  1  0
 11 13  1  0
 12  7  1  0
  7  8  1  0
  8  9  2  0
  8  1  1  0
  1  2  2  0
  1  6  1  0
  2  3  1  0
  3  4  2  0
  4  5  1  0
  5 20  1  0
  5  6  2  0
 20 21  2  0
 20 22  2  0
 20 23  1  0
 23 24  1  0
 23 28  1  0
 24 25  1  0
 25 26  1  0
 26 27  1  0
 27 28  1  0
 13 14  2  0
 13 19  1  0
 14 15  1  0
 15 16  2  0
 16 17  1  0
 17 18  1  0
 17 19  2  0
M  END
>  <minimizedAffinity>  (156) 
-9.56060

$$$$
cs_full_output_folder/data/smiles/2952.pdb
     RDKit          3D

 32 36  0  0  0  0  0  0  0  0999 V2000
   71.5189   47.1039   58.9562 C   0  0  0  0  0  0  0  0  0  0  0  0
   71.5170   45.7272   58.8368 C   0  0  0  0  0  0  0  0  0  0  0  0
   70.6904   45.1190   57.9021 C   0  0  0  0  0  0  0  0  0  0  0  0
   69.8735   45.8731   57.0917 C   0  0  0  0  0  0  0  0  0  0  0  0
   69.8726   47.2343   57.2072 C   0  0  0  0  0  0  0  0  0  0  0  0
   70.6991   47.8160   58.1389 C   0  0  0  0  0  0  0  0  0  0  0  0
   75.3290   46.0113   59.3342 N   0  0  0  0  0  0  0  0  0  0  0  0
   75.1683   46.2844   60.7364 C   0  0  0  0  0  0  0  0  0  0  0  0
   75.5909   47.6954   61.0975 C   0  0  0  0  0  0  0  0  0  0  0  0
   74.4282   48.6524   60.8595 C   0  0  0  0  0  0  0  0  0  0  0  0
   73.7162   48.1026   59.7023 N   0  0  0  0  0  0  0  0  0  0  0  0
   72.4046   47.6814   59.9617 C   0  0  0  0  0  0  0  0  0  0  0  0
   71.9269   47.7923   61.1210 O   0  0  0  0  0  0  0  0  0  0  0  0
   74.2702   47.9912   58.3898 C   0  0  0  0  0  0  0  0  0  0  0  0
   74.7898   46.6151   58.1548 C   0  0  0  0  0  0  0  0  0  0  0  0
   77.5937   45.1512   59.0954 N   0  0  0  0  0  0  0  0  0  0  0  0
   76.2053   44.9042   59.0239 C   0  0  0  0  0  0  0  0  0  0  0  0
   75.6776   43.7262   58.6903 C   0  0  0  0  0  0  0  0  0  0  0  0
   76.0052   42.3261   58.2947 C   0  0  0  0  0  0  0  0  0  0  0  0
   74.6009   42.7909   58.4253 C   0  0  0  0  0  0  0  0  0  0  0  0
   68.9808   48.1429   56.3697 C   0  0  0  0  0  0  0  0  0  0  0  0
   69.4377   48.2307   54.9803 C   0  0  0  0  0  0  0  0  0  0  0  0
   70.3996   49.1442   54.6225 N   0  0  0  0  0  0  0  0  0  0  0  0
   70.7875   49.2868   53.3763 N   0  0  0  0  0  0  0  0  0  0  0  0
   70.2969   48.5723   52.3623 C   0  0  0  0  0  0  0  0  0  0  0  0
   70.6770   48.7199   51.1758 O   0  0  0  0  0  0  0  0  0  0  0  0
   69.3218   47.6319   52.6684 C   0  0  0  0  0  0  0  0  0  0  0  0
   68.7992   46.8647   51.6462 C   0  0  0  0  0  0  0  0  0  0  0  0
   67.8451   45.9247   51.9496 C   0  0  0  0  0  0  0  0  0  0  0  0
   67.4233   45.7545   53.2480 C   0  0  0  0  0  0  0  0  0  0  0  0
   67.9281   46.5041   54.2674 C   0  0  0  0  0  0  0  0  0  0  0  0
   68.8945   47.4639   53.9852 C   0  0  0  0  0  0  0  0  0  0  0  0
 16 17  1  0
 17 18  2  0
 17  7  1  0
 18 19  1  0
 18 20  1  0
 19 20  1  0
  7  8  1  0
  7 15  1  0
  8  9  1  0
  9 10  1  0
 10 11  1  0
 11 12  1  0
 11 14  1  0
 12 13  2  0
 12  1  1  0
  1  2  2  0
  1  6  1  0
  2  3  1  0
  3  4  2  0
  4  5  1  0
  5 21  1  0
  5  6  2  0
 21 22  1  0
 22 23  2  0
 22 32  1  0
 23 24  1  0
 24 25  1  0
 25 26  2  0
 25 27  1  0
 27 28  1  0
 27 32  2  0
 28 29  2  0
 29 30  1  0
 30 31  2  0
 31 32  1  0
 14 15  1  0
M  END
>  <minimizedAffinity>  (157) 
-9.55763

$$$$
cs_full_output_folder/data/smiles/442.pdb
     RDKit          3D

 27 28  0  0  0  0  0  0  0  0999 V2000
   69.8828   49.1708   52.5871 S   0  0  0  0  0  0  0  0  0  0  0  0
   69.8273   49.0389   51.0764 O   0  0  0  0  0  0  0  0  0  0  0  0
   71.3651   49.1416   52.9282 O   0  0  0  0  0  0  0  0  0  0  0  0
   69.1721   47.7579   53.2592 C   0  0  0  0  0  0  0  0  0  0  0  0
   69.2666   47.5092   54.6066 C   0  0  0  0  0  0  0  0  0  0  0  0
   69.9376   48.4167   55.3487 F   0  0  0  0  0  0  0  0  0  0  0  0
   68.7008   46.3754   55.1762 C   0  0  0  0  0  0  0  0  0  0  0  0
   68.8167   46.1659   56.5078 F   0  0  0  0  0  0  0  0  0  0  0  0
   68.0307   45.4971   54.3347 C   0  0  0  0  0  0  0  0  0  0  0  0
   67.4672   44.3842   54.8565 F   0  0  0  0  0  0  0  0  0  0  0  0
   67.9195   45.7213   52.9779 C   0  0  0  0  0  0  0  0  0  0  0  0
   67.2570   44.8397   52.1914 F   0  0  0  0  0  0  0  0  0  0  0  0
   68.4978   46.8663   52.4395 C   0  0  0  0  0  0  0  0  0  0  0  0
   68.3792   47.0723   51.1003 F   0  0  0  0  0  0  0  0  0  0  0  0
   69.1475   50.6295   53.0252 N   0  0  0  0  0  0  0  0  0  0  0  0
   70.6005   53.1828   56.0470 C   0  0  0  0  0  0  0  0  0  0  0  0
   69.2524   52.9206   55.9422 C   0  0  0  0  0  0  0  0  0  0  0  0
   68.7553   52.0881   54.9617 C   0  0  0  0  0  0  0  0  0  0  0  0
   69.6132   51.5030   54.0637 C   0  0  0  0  0  0  0  0  0  0  0  0
   70.9699   51.7904   54.1999 C   0  0  0  0  0  0  0  0  0  0  0  0
   71.5077   52.6021   55.1476 C   0  0  0  0  0  0  0  0  0  0  0  0
   72.8618   52.9370   55.3448 N   0  0  0  0  0  0  0  0  0  0  0  0
   73.9863   52.3264   54.7367 C   0  0  0  0  0  0  0  0  0  0  0  0
   75.3297   52.7748   55.0328 N   0  0  0  0  0  0  0  0  0  0  0  0
   73.8086   51.3828   53.9301 O   0  0  0  0  0  0  0  0  0  0  0  0
   71.8135   53.5434   58.0681 N   0  0  0  0  0  0  0  0  0  0  0  0
   71.0310   54.0272   57.0532 O   0  0  0  0  0  0  0  0  0  0  0  0
 26 27  1  0
 27 16  1  0
 16 17  2  0
 16 21  1  0
 17 18  1  0
 18 19  2  0
 19 15  1  0
 19 20  1  0
 15  1  1  0
  1  2  2  0
  1  3  2  0
  1  4  1  0
  4  5  2  0
  4 13  1  0
  5  6  1  0
  5  7  1  0
  7  8  1  0
  7  9  2  0
  9 10  1  0
  9 11  1  0
 11 12  1  0
 11 13  2  0
 13 14  1  0
 20 21  2  0
 21 22  1  0
 22 23  1  0
 23 24  1  0
 23 25  2  0
M  END
>  <minimizedAffinity>  (158) 
-9.55501

$$$$
cs_full_output_folder/data/smiles/820.pdb
     RDKit          3D

 27 28  0  0  0  0  0  0  0  0999 V2000
   69.8953   49.2243   52.6139 S   0  0  0  0  0  0  0  0  0  0  0  0
   71.3830   49.2375   52.9560 O   0  0  0  0  0  0  0  0  0  0  0  0
   69.8217   49.2270   51.0942 O   0  0  0  0  0  0  0  0  0  0  0  0
   69.1491   47.7696   53.1589 C   0  0  0  0  0  0  0  0  0  0  0  0
   68.4925   46.8600   52.3469 C   0  0  0  0  0  0  0  0  0  0  0  0
   68.4313   47.1340   51.0204 F   0  0  0  0  0  0  0  0  0  0  0  0
   67.9212   45.7231   52.8510 C   0  0  0  0  0  0  0  0  0  0  0  0
   67.2865   44.8531   52.0346 F   0  0  0  0  0  0  0  0  0  0  0  0
   67.9709   45.4245   54.1964 C   0  0  0  0  0  0  0  0  0  0  0  0
   67.3915   44.2850   54.6547 F   0  0  0  0  0  0  0  0  0  0  0  0
   68.6216   46.3188   55.0256 C   0  0  0  0  0  0  0  0  0  0  0  0
   68.6586   46.0050   56.3459 F   0  0  0  0  0  0  0  0  0  0  0  0
   69.1990   47.4662   54.5247 C   0  0  0  0  0  0  0  0  0  0  0  0
   69.8228   48.3044   55.3836 F   0  0  0  0  0  0  0  0  0  0  0  0
   69.1829   50.6797   53.1429 N   0  0  0  0  0  0  0  0  0  0  0  0
   71.7905   52.4491   55.2350 C   0  0  0  0  0  0  0  0  0  0  0  0
   71.1571   51.6204   54.2895 C   0  0  0  0  0  0  0  0  0  0  0  0
   69.8164   51.4976   54.1146 C   0  0  0  0  0  0  0  0  0  0  0  0
   68.9917   52.2724   54.9544 C   0  0  0  0  0  0  0  0  0  0  0  0
   69.5488   53.0978   55.8934 C   0  0  0  0  0  0  0  0  0  0  0  0
   70.9409   53.1744   56.0208 C   0  0  0  0  0  0  0  0  0  0  0  0
   75.4448   51.4838   55.4305 N   0  0  0  0  0  0  0  0  0  0  0  0
   74.0124   51.2868   55.3885 C   0  0  0  0  0  0  0  0  0  0  0  0
   73.5347   50.1425   55.4282 O   0  0  0  0  0  0  0  0  0  0  0  0
   73.2018   52.4181   55.3031 N   0  0  0  0  0  0  0  0  0  0  0  0
   71.4253   54.0207   56.9911 O   0  0  0  0  0  0  0  0  0  0  0  0
   72.1014   53.5864   58.0406 O   0  0  0  0  0  0  0  0  0  0  0  0
 22 23  1  0
 23 24  2  0
 23 25  1  0
 25 16  1  0
 16 17  2  0
 16 21  1  0
 17 18  1  0
 18 15  1  0
 18 19  2  0
 15  1  1  0
  1  2  2  0
  1  3  2  0
  1  4  1  0
  4  5  2  0
  4 13  1  0
  5  6  1  0
  5  7  1  0
  7  8  1  0
  7  9  2  0
  9 10  1  0
  9 11  1  0
 11 12  1  0
 11 13  2  0
 13 14  1  0
 19 20  1  0
 20 21  2  0
 21 26  1  0
 26 27  1  0
M  END
>  <minimizedAffinity>  (159) 
-9.54726

$$$$
cs_full_output_folder/data/smiles/8899.pdb
     RDKit          3D

 31 35  0  0  0  0  0  0  0  0999 V2000
   71.4326   46.9295   58.8363 C   0  0  0  0  0  0  0  0  0  0  0  0
   70.6642   47.7510   58.0597 C   0  0  0  0  0  0  0  0  0  0  0  0
   69.7453   47.2885   57.1099 C   0  0  0  0  0  0  0  0  0  0  0  0
   69.6479   45.9272   56.9901 C   0  0  0  0  0  0  0  0  0  0  0  0
   70.3929   45.0450   57.7434 C   0  0  0  0  0  0  0  0  0  0  0  0
   71.2812   45.5735   58.6613 C   0  0  0  0  0  0  0  0  0  0  0  0
   72.0395   44.7475   59.4285 F   0  0  0  0  0  0  0  0  0  0  0  0
   77.4599   50.0579   56.9204 C   0  0  0  0  0  0  0  0  0  0  0  0
   77.3882   49.1958   58.1553 C   0  0  0  0  0  0  0  0  0  0  0  0
   78.3995   49.2225   58.9392 O   0  0  0  0  0  0  0  0  0  0  0  0
   76.2714   48.4030   58.4361 N   0  0  0  0  0  0  0  0  0  0  0  0
   75.0559   48.2442   57.6832 C   0  0  0  0  0  0  0  0  0  0  0  0
   74.3751   47.0188   58.2759 C   0  0  1  0  0  0  0  0  0  0  0  0
   75.6043   46.2918   58.8477 C   0  0  0  0  0  0  0  0  0  0  0  0
   76.1152   47.5506   59.5839 C   0  0  2  0  0  0  0  0  0  0  0  0
   74.8614   47.8899   60.3548 C   0  0  0  0  0  0  0  0  0  0  0  0
   73.7461   47.4372   59.5038 N   0  0  0  0  0  0  0  0  0  0  0  0
   72.3785   47.4150   59.8149 C   0  0  0  0  0  0  0  0  0  0  0  0
   71.9953   47.8165   60.9383 O   0  0  0  0  0  0  0  0  0  0  0  0
   68.9743   48.2658   56.2974 C   0  0  0  0  0  0  0  0  0  0  0  0
   69.3595   48.3035   54.8762 C   0  0  0  0  0  0  0  0  0  0  0  0
   70.2883   49.2444   54.4995 N   0  0  0  0  0  0  0  0  0  0  0  0
   70.6584   49.3744   53.2600 N   0  0  0  0  0  0  0  0  0  0  0  0
   70.1935   48.6344   52.2490 C   0  0  0  0  0  0  0  0  0  0  0  0
   70.5644   48.7775   51.0598 O   0  0  0  0  0  0  0  0  0  0  0  0
   69.2612   47.6677   52.5330 C   0  0  0  0  0  0  0  0  0  0  0  0
   68.7335   46.8480   51.5519 C   0  0  0  0  0  0  0  0  0  0  0  0
   67.8196   45.8965   51.8908 C   0  0  0  0  0  0  0  0  0  0  0  0
   67.4218   45.7462   53.1934 C   0  0  0  0  0  0  0  0  0  0  0  0
   67.9460   46.5654   54.1856 C   0  0  0  0  0  0  0  0  0  0  0  0
   68.8600   47.5231   53.8659 C   0  0  0  0  0  0  0  0  0  0  0  0
  8  9  1  0
  9 10  2  0
  9 11  1  0
 11 12  1  0
 11 15  1  0
 13 12  1  6
 13 14  1  0
 13 17  1  0
 14 15  1  0
 15 16  1  1
 16 17  1  0
 17 18  1  0
 18 19  2  0
 18  1  1  0
  1  2  2  0
  1  6  1  0
  2  3  1  0
  3 20  1  0
  3  4  2  0
 20 21  1  0
 21 22  2  0
 21 31  1  0
 22 23  1  0
 23 24  1  0
 24 25  2  0
 24 26  1  0
 26 27  1  0
 26 31  2  0
 27 28  2  0
 28 29  1  0
 29 30  2  0
 30 31  1  0
  4  5  1  0
  5  6  2  0
  6  7  1  0
M  END
>  <minimizedAffinity>  (160) 
-9.54409

$$$$
cs_full_output_folder/data/smiles/8077.pdb
     RDKit          3D

 27 28  0  0  0  0  0  0  0  0999 V2000
   68.3081   42.4094   56.9229 C   0  0  0  0  0  0  0  0  0  0  0  0
   66.9348   42.1116   55.9931 S   0  0  0  0  0  0  0  0  0  0  0  0
   68.4891   39.9690   57.5822 C   0  0  0  0  0  0  0  0  0  0  0  0
   67.8549   39.5746   56.5747 O   0  0  0  0  0  0  0  0  0  0  0  0
   68.6940   41.3522   57.7253 N   0  0  0  0  0  0  0  0  0  0  0  0
   69.7078   36.8939   60.3375 C   0  0  0  0  0  0  0  0  0  0  0  0
   70.5918   37.3994   59.4286 C   0  0  0  0  0  0  0  0  0  0  0  0
   70.2130   38.4021   58.5276 C   0  0  0  0  0  0  0  0  0  0  0  0
   68.9464   38.9341   58.4984 C   0  0  0  0  0  0  0  0  0  0  0  0
   68.0598   38.3983   59.4393 C   0  0  0  0  0  0  0  0  0  0  0  0
   68.4236   37.4168   60.3234 C   0  0  0  0  0  0  0  0  0  0  0  0
   71.1182   36.3553   62.6013 C   0  0  0  0  0  0  0  0  0  0  0  0
   70.1323   35.6200   61.5323 S   0  0  0  0  0  0  0  0  0  0  0  0
   71.2025   34.3882   60.7078 C   0  0  0  0  0  0  0  0  0  0  0  0
   68.9323   43.7033   56.6813 C   0  0  0  0  0  0  0  0  0  0  0  0
   68.5460   44.6692   56.0957 N   0  0  0  0  0  0  0  0  0  0  0  0
   68.3310   45.8339   55.5110 C   0  0  0  0  0  0  0  0  0  0  0  0
   67.9707   46.8552   56.2474 O   0  0  0  0  0  0  0  0  0  0  0  0
   68.4255   46.2215   54.0918 C   0  0  0  0  0  0  0  0  0  0  0  0
   67.6718   45.5903   53.1264 C   0  0  0  0  0  0  0  0  0  0  0  0
   67.7185   45.9434   51.7941 C   0  0  0  0  0  0  0  0  0  0  0  0
   68.5770   46.9883   51.4579 C   0  0  0  0  0  0  0  0  0  0  0  0
   69.3516   47.6524   52.3815 C   0  0  0  0  0  0  0  0  0  0  0  0
   69.2498   47.2351   53.7152 C   0  0  0  0  0  0  0  0  0  0  0  0
   70.2129   48.7182   52.0319 N   0  0  0  0  0  0  0  0  0  0  0  0
   69.9844   49.3824   51.0140 O   0  0  0  0  0  0  0  0  0  0  0  0
   71.3024   49.0373   52.7898 O   0  0  0  0  0  0  0  0  0  0  0  0
 13 12  2  0
 13 14  1  6
 13  6  1  0
  6  7  2  0
  6 11  1  0
  7  8  1  0
  8  9  2  0
  9  3  1  0
  9 10  1  0
  3  4  2  0
  3  5  1  0
  5  1  1  0
  1  2  2  0
  1 15  1  0
 15 16  2  0
 16 17  1  0
 17 18  2  0
 17 19  1  0
 19 20  2  0
 19 24  1  0
 20 21  1  0
 21 22  2  0
 22 23  1  0
 23 25  1  0
 23 24  2  0
 25 26  2  0
 25 27  1  0
 10 11  2  0
M  CHG  2  25   1  27  -1
M  END
>  <minimizedAffinity>  (161) 
-9.54320

$$$$
cs_full_output_folder/data/smiles/315.pdb
     RDKit          3D

 30 33  0  0  0  0  0  0  0  0999 V2000
   70.7262   45.7876   58.2865 C   0  0  0  0  0  0  0  0  0  0  0  0
   71.8654   46.4086   58.8202 C   0  0  0  0  0  0  0  0  0  0  0  0
   72.1209   47.7380   58.5571 C   0  0  0  0  0  0  0  0  0  0  0  0
   71.2774   48.4821   57.7741 C   0  0  0  0  0  0  0  0  0  0  0  0
   70.1295   47.8961   57.2247 C   0  0  0  0  0  0  0  0  0  0  0  0
   69.9182   46.5731   57.5151 C   0  0  0  0  0  0  0  0  0  0  0  0
   70.9603   43.3052   57.7997 N   0  0  0  0  0  0  0  0  0  0  0  0
   70.4731   44.3787   58.5735 C   0  0  0  0  0  0  0  0  0  0  0  0
   69.7590   44.0894   59.5980 O   0  0  0  0  0  0  0  0  0  0  0  0
   70.5888   39.1363   58.5057 C   0  0  0  0  0  0  0  0  0  0  0  0
   71.7779   39.8120   58.6565 C   0  0  0  0  0  0  0  0  0  0  0  0
   71.8599   41.1687   58.4163 C   0  0  0  0  0  0  0  0  0  0  0  0
   70.7604   41.9233   58.0140 C   0  0  0  0  0  0  0  0  0  0  0  0
   69.6012   41.2167   57.8760 C   0  0  0  0  0  0  0  0  0  0  0  0
   69.4901   39.8614   58.1086 C   0  0  0  0  0  0  0  0  0  0  0  0
   68.3051   39.2048   57.9565 F   0  0  0  0  0  0  0  0  0  0  0  0
   71.5593   36.8841   58.5722 C   0  0  0  0  0  0  0  0  0  0  0  0
   70.4610   37.7755   58.7361 O   0  0  0  0  0  0  0  0  0  0  0  0
   69.2472   48.7557   56.3974 C   0  0  0  0  0  0  0  0  0  0  0  0
   69.5359   48.7215   54.9614 C   0  0  0  0  0  0  0  0  0  0  0  0
   70.3606   49.6886   54.4424 N   0  0  0  0  0  0  0  0  0  0  0  0
   70.6817   49.7183   53.1652 N   0  0  0  0  0  0  0  0  0  0  0  0
   70.2090   48.7972   52.3235 C   0  0  0  0  0  0  0  0  0  0  0  0
   70.5236   48.8363   51.1086 O   0  0  0  0  0  0  0  0  0  0  0  0
   69.3666   47.7937   52.8064 C   0  0  0  0  0  0  0  0  0  0  0  0
   69.0312   47.7642   54.1432 C   0  0  0  0  0  0  0  0  0  0  0  0
   68.1327   46.7306   54.6990 C   0  0  0  0  0  0  0  0  0  0  0  0
   67.2681   46.2529   53.5194 C   0  0  0  0  0  0  0  0  0  0  0  0
   68.2446   45.6541   52.4973 C   0  0  0  0  0  0  0  0  0  0  0  0
   68.8864   46.8183   51.8042 C   0  0  0  0  0  0  0  0  0  0  0  0
 17 18  1  0
 18 10  1  0
 10 11  2  0
 10 15  1  0
 11 12  1  0
 12 13  2  0
 13  7  1  0
 13 14  1  0
  7  8  1  0
  8  9  2  0
  8  1  1  0
  1  2  2  0
  1  6  1  0
  2  3  1  0
  3  4  2  0
  4  5  1  0
  5 19  1  0
  5  6  2  0
 19 20  1  0
 20 21  2  0
 20 26  1  0
 21 22  1  0
 22 23  1  0
 23 24  2  0
 23 25  1  0
 25 26  2  0
 25 30  1  0
 26 27  1  0
 27 28  1  0
 28 29  1  0
 29 30  1  0
 14 15  2  0
 15 16  1  0
M  END
>  <minimizedAffinity>  (162) 
-9.53669

$$$$
cs_full_output_folder/data/smiles/686.pdb
     RDKit          3D

 32 35  0  0  0  0  0  0  0  0999 V2000
   71.0251   45.5336   57.9710 C   0  0  0  0  0  0  0  0  0  0  0  0
   71.8792   46.4166   58.6699 C   0  0  0  0  0  0  0  0  0  0  0  0
   71.7575   47.7759   58.6216 C   0  0  0  0  0  0  0  0  0  0  0  0
   70.7641   48.3420   57.8653 C   0  0  0  0  0  0  0  0  0  0  0  0
   69.8731   47.5350   57.1401 C   0  0  0  0  0  0  0  0  0  0  0  0
   70.0597   46.1826   57.2378 C   0  0  0  0  0  0  0  0  0  0  0  0
   68.5833   41.4635   58.6943 N   0  0  0  0  0  0  0  0  0  0  0  0
   68.3791   41.8105   57.3315 C   0  0  0  0  0  0  0  0  0  0  0  0
   69.0616   43.2060   57.1461 C   0  0  0  0  0  0  0  0  0  0  0  0
   70.3798   43.0858   57.7461 N   0  0  0  0  0  0  0  0  0  0  0  0
   71.2266   44.1157   58.0897 C   0  0  0  0  0  0  0  0  0  0  0  0
   72.3646   43.7596   58.6000 O   0  0  0  0  0  0  0  0  0  0  0  0
   70.8452   41.6986   58.0299 C   0  0  0  0  0  0  0  0  0  0  0  0
   69.8869   41.0742   59.0465 C   0  0  0  0  0  0  0  0  0  0  0  0
   66.3601   40.1181   59.9841 C   0  0  0  0  0  0  0  0  0  0  0  0
   67.3442   41.4267   59.6694 S   0  0  0  0  0  0  0  0  0  0  0  0
   66.5676   42.2433   59.0481 O   0  0  0  0  0  0  0  0  0  0  0  0
   68.0187   40.3352   60.1200 H   0  0  0  0  0  0  0  0  0  0  0  0
   67.3916   42.5974   61.1166 C   0  0  0  0  0  0  0  0  0  0  0  0
   67.9868   43.6081   60.8526 O   0  0  0  0  0  0  0  0  0  0  0  0
   68.7849   48.1968   56.3481 C   0  0  0  0  0  0  0  0  0  0  0  0
   69.1601   48.3515   54.9423 C   0  0  0  0  0  0  0  0  0  0  0  0
   70.0345   49.3519   54.5903 N   0  0  0  0  0  0  0  0  0  0  0  0
   70.4668   49.5023   53.3611 N   0  0  0  0  0  0  0  0  0  0  0  0
   70.1151   48.7178   52.3294 C   0  0  0  0  0  0  0  0  0  0  0  0
   70.5312   48.8642   51.1668 O   0  0  0  0  0  0  0  0  0  0  0  0
   69.2245   47.6807   52.6244 C   0  0  0  0  0  0  0  0  0  0  0  0
   68.8255   46.8586   51.5735 C   0  0  0  0  0  0  0  0  0  0  0  0
   67.9356   45.8476   51.8494 C   0  0  0  0  0  0  0  0  0  0  0  0
   67.4781   45.6954   53.1593 C   0  0  0  0  0  0  0  0  0  0  0  0
   67.8820   46.5167   54.1892 C   0  0  0  0  0  0  0  0  0  0  0  0
   68.7756   47.5300   53.9181 C   0  0  0  0  0  0  0  0  0  0  0  0
 15 16  1  0
 16 17  2  0
 16 19  1  0
 16  7  1  0
 16 18  1  0
 19 20  2  0
  7  8  1  0
  7 14  1  0
  8  9  1  0
  9 10  1  0
 10 11  1  0
 10 13  1  0
 11 12  2  0
 11  1  1  0
  1  2  2  0
  1  6  1  0
  2  3  1  0
  3  4  2  0
  4  5  1  0
  5 21  1  0
  5  6  2  0
 21 22  1  0
 22 23  2  0
 22 32  1  0
 23 24  1  0
 24 25  1  0
 25 26  2  0
 25 27  1  0
 27 28  1  0
 27 32  2  0
 28 29  2  0
 29 30  1  0
 30 31  2  0
 31 32  1  0
 13 14  1  0
M  END
>  <minimizedAffinity>  (163) 
-9.53560

$$$$
cs_full_output_folder/data/smiles/6702.pdb
     RDKit          3D

 31 34  0  0  0  0  0  0  0  0999 V2000
   70.8533   45.8077   58.1046 C   0  0  0  0  0  0  0  0  0  0  0  0
   71.5760   46.6723   58.8674 C   0  0  0  0  0  0  0  0  0  0  0  0
   71.3432   48.0483   58.8642 C   0  0  0  0  0  0  0  0  0  0  0  0
   70.3400   48.5459   58.0545 C   0  0  0  0  0  0  0  0  0  0  0  0
   69.5851   47.7226   57.2689 C   0  0  0  0  0  0  0  0  0  0  0  0
   69.8557   46.3642   57.3084 C   0  0  0  0  0  0  0  0  0  0  0  0
   70.3183   43.4274   58.7748 C   0  0  0  0  0  0  0  0  0  0  0  0
   69.3999   43.8236   59.5539 O   0  0  0  0  0  0  0  0  0  0  0  0
   71.0286   44.4205   58.0625 N   0  0  0  0  0  0  0  0  0  0  0  0
   70.9550   39.2104   58.4110 C   0  0  0  0  0  0  0  0  0  0  0  0
   72.0135   40.0707   58.5763 C   0  0  0  0  0  0  0  0  0  0  0  0
   71.8351   41.4370   58.6975 C   0  0  0  0  0  0  0  0  0  0  0  0
   70.5874   41.9797   58.6564 C   0  0  0  0  0  0  0  0  0  0  0  0
   69.5055   41.1368   58.4907 C   0  0  0  0  0  0  0  0  0  0  0  0
   69.6818   39.7745   58.3697 C   0  0  0  0  0  0  0  0  0  0  0  0
   71.4496   35.4550   59.2525 C   0  0  0  0  0  0  0  0  0  0  0  0
   71.2680   36.9227   59.3874 C   0  0  0  0  0  0  0  0  0  0  0  0
   71.2364   37.4063   60.5426 O   0  0  0  0  0  0  0  0  0  0  0  0
   71.1295   37.8031   58.2841 N   0  0  0  0  0  0  0  0  0  0  0  0
   68.5119   48.1813   56.3688 C   0  0  0  0  0  0  0  0  0  0  0  0
   68.9747   48.4335   54.9823 C   0  0  0  0  0  0  0  0  0  0  0  0
   69.4504   49.6870   54.6591 N   0  0  0  0  0  0  0  0  0  0  0  0
   69.8382   49.9966   53.4367 N   0  0  0  0  0  0  0  0  0  0  0  0
   69.7874   49.0814   52.4226 C   0  0  0  0  0  0  0  0  0  0  0  0
   70.1666   49.4196   51.2693 O   0  0  0  0  0  0  0  0  0  0  0  0
   69.3282   47.8239   52.6746 C   0  0  0  0  0  0  0  0  0  0  0  0
   68.9230   47.5166   53.9816 C   0  0  0  0  0  0  0  0  0  0  0  0
   68.4933   46.1326   54.2030 C   0  0  0  0  0  0  0  0  0  0  0  0
   67.4995   45.6160   53.1932 C   0  0  0  0  0  0  0  0  0  0  0  0
   67.7201   46.2697   51.8655 C   0  0  0  0  0  0  0  0  0  0  0  0
   69.1788   46.7191   51.7066 C   0  0  0  0  0  0  0  0  0  0  0  0
 16 17  1  0
 17 18  2  0
 17 19  1  0
 19 10  1  0
 10 11  2  0
 10 15  1  0
 11 12  1  0
 12 13  2  0
 13  7  1  0
 13 14  1  0
  7  8  2  0
  7  9  1  0
  9  1  1  0
  1  2  2  0
  1  6  1  0
  2  3  1  0
  3  4  2  0
  4  5  1  0
  5 20  1  0
  5  6  2  0
 20 21  1  0
 21 22  2  0
 21 27  1  0
 22 23  1  0
 23 24  1  0
 24 25  2  0
 24 26  1  0
 26 27  2  0
 26 31  1  0
 27 28  1  0
 28 29  1  0
 29 30  1  0
 30 31  1  0
 14 15  2  0
M  END
>  <minimizedAffinity>  (164) 
-9.53309

$$$$
cs_full_output_folder/data/smiles/291.pdb
     RDKit          3D

 31 33  0  0  0  0  0  0  0  0999 V2000
   67.6761   45.5442   52.4742 C   0  0  0  0  0  0  0  0  0  0  0  0
   68.4672   46.7044   52.9373 C   0  0  0  0  0  0  0  0  0  0  0  0
   68.9031   47.5998   51.9697 C   0  0  0  0  0  0  0  0  0  0  0  0
   69.6451   48.7081   52.3195 C   0  0  0  0  0  0  0  0  0  0  0  0
   69.9642   48.9391   53.6477 C   0  0  0  0  0  0  0  0  0  0  0  0
   69.5210   48.0420   54.5663 C   0  0  0  0  0  0  0  0  0  0  0  0
   68.7771   46.9208   54.2622 C   0  0  0  0  0  0  0  0  0  0  0  0
   70.9102   50.3384   54.0998 S   0  0  0  0  0  0  0  0  0  0  0  0
   72.3880   50.0594   53.9053 O   0  0  0  0  0  0  0  0  0  0  0  0
   70.5603   51.5180   53.2308 O   0  0  0  0  0  0  0  0  0  0  0  0
   70.6849   50.7594   55.7504 N   0  0  0  0  0  0  0  0  0  0  0  0
   69.4473   50.6706   56.4280 C   0  0  0  0  0  0  0  0  0  0  0  0
   68.3941   51.5262   56.1976 C   0  0  0  0  0  0  0  0  0  0  0  0
   67.2018   51.4236   56.8515 C   0  0  0  0  0  0  0  0  0  0  0  0
   67.0621   50.4086   57.7859 C   0  0  0  0  0  0  0  0  0  0  0  0
   68.0877   49.5256   58.0517 C   0  0  0  0  0  0  0  0  0  0  0  0
   69.2680   49.6652   57.3719 C   0  0  0  0  0  0  0  0  0  0  0  0
   70.2828   48.7978   57.6290 F   0  0  0  0  0  0  0  0  0  0  0  0
   68.3446   46.0165   55.3124 C   0  0  0  0  0  0  0  0  0  0  0  0
   68.0147   46.4474   56.4723 O   0  0  0  0  0  0  0  0  0  0  0  0
   68.2500   44.6154   55.1606 N   0  0  0  0  0  0  0  0  0  0  0  0
   67.8228   43.7544   56.2104 N   0  0  0  0  0  0  0  0  0  0  0  0
   68.7377   43.0113   56.9947 C   0  0  0  0  0  0  0  0  0  0  0  0
   69.9544   43.2189   56.6372 O   0  0  0  0  0  0  0  0  0  0  0  0
   68.4755   42.1152   58.0696 C   0  0  0  0  0  0  0  0  0  0  0  0
   68.0419   40.8258   57.7468 C   0  0  0  0  0  0  0  0  0  0  0  0
   67.7574   39.8780   58.7020 C   0  0  0  0  0  0  0  0  0  0  0  0
   67.8865   40.1544   60.0373 C   0  0  0  0  0  0  0  0  0  0  0  0
   68.3132   41.4187   60.3848 C   0  0  0  0  0  0  0  0  0  0  0  0
   68.5940   42.3577   59.3978 C   0  0  0  0  0  0  0  0  0  0  0  0
   69.0079   43.5769   59.8360 O   0  0  0  0  0  0  0  0  0  0  0  0
  1  2  1  0
  2  3  2  0
  2  7  1  0
  3  4  1  0
  4  5  2  0
  5  8  1  0
  5  6  1  0
  8  9  2  0
  8 10  2  0
  8 11  1  0
 11 12  1  0
 12 13  2  0
 12 17  1  0
 13 14  1  0
 14 15  2  0
 15 16  1  0
 16 17  2  0
 17 18  1  0
  6  7  2  0
  7 19  1  0
 19 20  2  0
 19 21  1  0
 21 22  1  0
 22 23  1  0
 23 24  2  0
 23 25  1  0
 25 26  2  0
 25 30  1  0
 26 27  1  0
 27 28  2  0
 28 29  1  0
 29 30  2  0
 30 31  1  0
M  END
>  <minimizedAffinity>  (165) 
-9.52485

$$$$
cs_full_output_folder/data/smiles/8908.pdb
     RDKit          3D

 23 25  0  0  0  0  0  0  0  0999 V2000
   68.8374   45.2216   56.3153 C   0  0  0  0  0  0  0  0  0  0  0  0
   69.7750   46.0211   56.9951 C   0  0  0  0  0  0  0  0  0  0  0  0
   70.6088   45.3885   57.8845 C   0  0  0  0  0  0  0  0  0  0  0  0
   72.0338   46.5727   58.9237 I   0  0  0  0  0  0  0  0  0  0  0  0
   70.5694   44.0742   58.1280 N   0  0  0  0  0  0  0  0  0  0  0  0
   69.6569   43.2967   57.4671 C   0  0  0  0  0  0  0  0  0  0  0  0
   68.8517   43.9209   56.6042 N   0  0  0  0  0  0  0  0  0  0  0  0
   69.6044   41.8623   57.7228 C   0  0  0  0  0  0  0  0  0  0  0  0
   68.4605   41.1590   57.4645 C   0  0  0  0  0  0  0  0  0  0  0  0
   68.3928   39.8069   57.6996 C   0  0  0  0  0  0  0  0  0  0  0  0
   69.4668   39.1249   58.1995 C   0  0  0  0  0  0  0  0  0  0  0  0
   70.6265   39.8266   58.4643 C   0  0  0  0  0  0  0  0  0  0  0  0
   70.6912   41.1934   58.2245 C   0  0  0  0  0  0  0  0  0  0  0  0
   68.0330   45.8898   55.4449 O   0  0  0  0  0  0  0  0  0  0  0  0
   69.2769   47.6413   52.4168 C   0  0  0  0  0  0  0  0  0  0  0  0
   68.5920   46.9243   51.4494 C   0  0  0  0  0  0  0  0  0  0  0  0
   67.7430   45.8923   51.7897 C   0  0  0  0  0  0  0  0  0  0  0  0
   67.5822   45.5773   53.1124 C   0  0  0  0  0  0  0  0  0  0  0  0
   68.2465   46.2640   54.1476 C   0  0  0  0  0  0  0  0  0  0  0  0
   69.0726   47.2768   53.7364 C   0  0  0  0  0  0  0  0  0  0  0  0
   71.2037   49.1089   52.9457 N   0  0  0  0  0  0  0  0  0  0  0  0
   70.1738   48.7322   52.0805 C   0  0  0  0  0  0  0  0  0  0  0  0
   70.0096   49.3327   50.9980 O   0  0  0  0  0  0  0  0  0  0  0  0
 21 22  1  0
 22 23  2  0
 22 15  1  0
 15 16  2  0
 15 20  1  0
 16 17  1  0
 17 18  2  0
 18 19  1  0
 19 14  1  0
 19 20  2  0
 14  1  1  0
  1  2  2  0
  1  7  1  0
  2  3  1  0
  3  4  1  0
  3  5  2  0
  5  6  1  0
  6  8  1  0
  6  7  2  0
  8  9  2  0
  8 13  1  0
  9 10  1  0
 10 11  2  0
 11 12  1  0
 12 13  2  0
M  END
>  <minimizedAffinity>  (166) 
-9.51434

$$$$
cs_full_output_folder/data/smiles/7422.pdb
     RDKit          3D

 30 34  0  0  0  0  0  0  0  0999 V2000
   71.5054   47.2411   58.7586 C   0  0  0  0  0  0  0  0  0  0  0  0
   70.6429   47.9520   57.9544 C   0  0  0  0  0  0  0  0  0  0  0  0
   69.7421   47.3235   57.0966 C   0  0  0  0  0  0  0  0  0  0  0  0
   69.7323   45.9697   57.0702 C   0  0  0  0  0  0  0  0  0  0  0  0
   70.5840   45.2246   57.8637 C   0  0  0  0  0  0  0  0  0  0  0  0
   71.4496   45.8667   58.6887 C   0  0  0  0  0  0  0  0  0  0  0  0
   72.2814   45.0942   59.4648 F   0  0  0  0  0  0  0  0  0  0  0  0
   72.0374   48.0241   60.8619 O   0  0  0  0  0  0  0  0  0  0  0  0
   72.4533   47.8850   59.6622 C   0  0  0  0  0  0  0  0  0  0  0  0
   73.7299   48.3225   59.2564 N   0  0  0  0  0  0  0  0  0  0  0  0
   74.7205   48.9659   60.0791 C   0  0  0  0  0  0  0  0  0  0  0  0
   75.1729   50.1074   59.1644 C   0  0  0  0  0  0  0  0  0  0  0  0
   75.1985   49.4154   57.8210 C   0  0  1  0  0  0  0  0  0  0  0  0
   74.2989   48.2133   57.9400 C   0  0  0  0  0  0  0  0  0  0  0  0
   74.8395   50.2325   56.8002 N   0  0  0  0  0  0  0  0  0  0  0  0
   73.5635   50.5826   56.3770 C   0  0  0  0  0  0  0  0  0  0  0  0
   74.2402   51.2417   55.1847 C   0  0  0  0  0  0  0  0  0  0  0  0
   75.3886   50.3021   55.5159 C   0  0  0  0  0  0  0  0  0  0  0  0
   68.8886   48.2111   56.2719 C   0  0  0  0  0  0  0  0  0  0  0  0
   69.3150   48.2872   54.8900 C   0  0  0  0  0  0  0  0  0  0  0  0
   70.2370   49.2305   54.5367 N   0  0  0  0  0  0  0  0  0  0  0  0
   70.6418   49.3963   53.3071 N   0  0  0  0  0  0  0  0  0  0  0  0
   70.1777   48.6465   52.2978 C   0  0  0  0  0  0  0  0  0  0  0  0
   70.5691   48.8111   51.1191 O   0  0  0  0  0  0  0  0  0  0  0  0
   69.2467   47.6721   52.5604 C   0  0  0  0  0  0  0  0  0  0  0  0
   68.7897   46.9039   51.5179 C   0  0  0  0  0  0  0  0  0  0  0  0
   67.8642   45.9190   51.8023 C   0  0  0  0  0  0  0  0  0  0  0  0
   67.4377   45.7414   53.1001 C   0  0  0  0  0  0  0  0  0  0  0  0
   67.9078   46.5236   54.1379 C   0  0  0  0  0  0  0  0  0  0  0  0
   68.8178   47.5010   53.8885 C   0  0  0  0  0  0  0  0  0  0  0  0
  8  9  2  0
  9  1  1  0
  9 10  1  0
  1  2  2  0
  1  6  1  0
  2  3  1  0
  3 19  1  0
  3  4  2  0
 19 20  1  0
 20 21  2  0
 20 30  1  0
 21 22  1  0
 22 23  1  0
 23 24  2  0
 23 25  1  0
 25 26  1  0
 25 30  2  0
 26 27  2  0
 27 28  1  0
 28 29  2  0
 29 30  1  0
  4  5  1  0
  5  6  2  0
  6  7  1  0
 10 11  1  0
 10 14  1  0
 11 12  1  0
 12 13  1  0
 13 15  1  6
 13 14  1  0
 15 16  1  0
 15 18  1  0
 16 17  1  0
 17 18  1  0
M  CHG  1  15   1
M  END
>  <minimizedAffinity>  (167) 
-9.50842

$$$$
cs_full_output_folder/data/smiles/6557.pdb
     RDKit          3D

 32 35  0  0  0  0  0  0  0  0999 V2000
   70.8498   46.8568   58.3241 C   0  0  0  0  0  0  0  0  0  0  0  0
   69.8858   47.3167   57.4238 C   0  0  0  0  0  0  0  0  0  0  0  0
   69.7720   48.6073   57.0221 C   0  0  0  0  0  0  0  0  0  0  0  0
   70.6771   49.5329   57.5431 C   0  0  0  0  0  0  0  0  0  0  0  0
   71.6455   49.1275   58.4337 C   0  0  0  0  0  0  0  0  0  0  0  0
   71.7259   47.7765   58.8224 C   0  0  0  0  0  0  0  0  0  0  0  0
   72.7257   47.4918   59.6853 F   0  0  0  0  0  0  0  0  0  0  0  0
   72.0443   44.6857   58.6235 N   0  0  0  0  0  0  0  0  0  0  0  0
   70.8812   45.4642   58.7084 C   0  0  0  0  0  0  0  0  0  0  0  0
   69.8396   44.8785   59.1490 O   0  0  0  0  0  0  0  0  0  0  0  0
   74.7148   42.2925   58.2076 C   0  0  1  0  0  0  0  0  0  0  0  0
   73.9994   41.8135   59.4693 C   0  0  0  0  0  0  0  0  0  0  0  0
   73.1189   42.9503   59.9959 C   0  0  0  0  0  0  0  0  0  0  0  0
   72.0089   43.2810   59.0235 C   0  0  2  0  0  0  0  0  0  0  0  0
   72.2408   42.4668   57.7691 C   0  0  0  0  0  0  0  0  0  0  0  0
   73.6308   42.6529   57.2129 C   0  0  0  0  0  0  0  0  0  0  0  0
   77.9115   44.2600   58.7568 N   0  0  0  0  0  0  0  0  0  0  0  0
   77.0125   43.1896   58.4641 C   0  0  0  0  0  0  0  0  0  0  0  0
   77.4302   42.0430   58.1609 O   0  0  0  0  0  0  0  0  0  0  0  0
   75.5941   43.3895   58.5066 N   0  0  0  0  0  0  0  0  0  0  0  0
   68.7644   49.1301   56.0878 C   0  0  0  0  0  0  0  0  0  0  0  0
   69.2302   48.8878   54.6959 C   0  0  0  0  0  0  0  0  0  0  0  0
   70.0998   49.7999   54.1556 N   0  0  0  0  0  0  0  0  0  0  0  0
   70.5518   49.7312   52.9298 N   0  0  0  0  0  0  0  0  0  0  0  0
   70.1594   48.7208   52.1306 C   0  0  0  0  0  0  0  0  0  0  0  0
   70.6080   48.6633   50.9329 O   0  0  0  0  0  0  0  0  0  0  0  0
   69.3033   47.7778   52.5910 C   0  0  0  0  0  0  0  0  0  0  0  0
   68.9101   46.7362   51.7856 C   0  0  0  0  0  0  0  0  0  0  0  0
   68.0514   45.7855   52.2858 C   0  0  0  0  0  0  0  0  0  0  0  0
   67.5857   45.8785   53.5935 C   0  0  0  0  0  0  0  0  0  0  0  0
   67.9710   46.9143   54.4057 C   0  0  0  0  0  0  0  0  0  0  0  0
   68.8309   47.8620   53.8943 C   0  0  0  0  0  0  0  0  0  0  0  0
 17 18  1  0
 18 19  2  0
 18 20  1  0
 11 20  1  1
 11 12  1  0
 11 16  1  0
 12 13  1  0
 13 14  1  0
 14  8  1  6
 14 15  1  0
  8  9  1  0
  9 10  2  0
  9  1  1  0
  1  2  2  0
  1  6  1  0
  2  3  1  0
  3 21  1  0
  3  4  2  0
 21 22  1  0
 22 23  2  0
 22 32  1  0
 23 24  1  0
 24 25  1  0
 25 26  2  0
 25 27  1  0
 27 28  1  0
 27 32  2  0
 28 29  2  0
 29 30  1  0
 30 31  2  0
 31 32  1  0
  4  5  1  0
  5  6  2  0
  6  7  1  0
 15 16  1  0
M  END
>  <minimizedAffinity>  (168) 
-9.50271

$$$$
cs_full_output_folder/data/smiles/6797.pdb
     RDKit          3D

 32 36  0  0  0  0  0  0  0  0999 V2000
   71.5905   47.2177   58.9446 C   0  0  0  0  0  0  0  0  0  0  0  0
   70.6802   47.9349   58.1612 C   0  0  0  0  0  0  0  0  0  0  0  0
   69.8262   47.3208   57.2976 C   0  0  0  0  0  0  0  0  0  0  0  0
   69.8895   45.9200   57.2159 C   0  0  0  0  0  0  0  0  0  0  0  0
   70.7699   45.1991   57.9711 C   0  0  0  0  0  0  0  0  0  0  0  0
   71.6298   45.8272   58.8421 C   0  0  0  0  0  0  0  0  0  0  0  0
   72.5033   45.1216   59.5902 F   0  0  0  0  0  0  0  0  0  0  0  0
   72.2752   47.9047   61.0899 O   0  0  0  0  0  0  0  0  0  0  0  0
   72.4743   47.9326   59.8558 C   0  0  0  0  0  0  0  0  0  0  0  0
   73.5931   48.6851   59.3626 N   0  0  0  0  0  0  0  0  0  0  0  0
   74.6054   49.4670   60.0222 C   0  0  0  0  0  0  0  0  0  0  0  0
   75.4108   49.5045   58.7735 C   0  0  0  0  0  0  0  0  0  0  0  0
   74.1914   48.9864   58.0955 C   0  0  0  0  0  0  0  0  0  0  0  0
   76.6610   48.6929   58.6898 C   0  0  0  0  0  0  0  0  0  0  0  0
   77.7822   49.2401   58.0592 N   0  0  0  0  0  0  0  0  0  0  0  0
   77.9403   50.5999   57.8721 C   0  0  0  0  0  0  0  0  0  0  0  0
   78.7788   51.0364   56.7025 C   0  0  0  0  0  0  0  0  0  0  0  0
   79.9177   50.1204   56.3907 C   0  0  0  0  0  0  0  0  0  0  0  0
   79.3154   48.7305   56.2053 C   0  0  0  0  0  0  0  0  0  0  0  0
   78.7553   48.3432   57.5499 C   0  0  0  0  0  0  0  0  0  0  0  0
   68.8630   48.0709   56.4629 C   0  0  0  0  0  0  0  0  0  0  0  0
   69.3115   48.1496   55.1041 C   0  0  0  0  0  0  0  0  0  0  0  0
   70.2625   49.0889   54.7995 N   0  0  0  0  0  0  0  0  0  0  0  0
   70.6971   49.2909   53.5758 N   0  0  0  0  0  0  0  0  0  0  0  0
   70.2612   48.6047   52.5110 C   0  0  0  0  0  0  0  0  0  0  0  0
   70.6685   48.7875   51.3334 O   0  0  0  0  0  0  0  0  0  0  0  0
   69.2911   47.6241   52.7274 C   0  0  0  0  0  0  0  0  0  0  0  0
   68.8072   46.8629   51.6827 C   0  0  0  0  0  0  0  0  0  0  0  0
   67.8683   45.8902   51.9288 C   0  0  0  0  0  0  0  0  0  0  0  0
   67.4017   45.6614   53.2098 C   0  0  0  0  0  0  0  0  0  0  0  0
   67.9166   46.4530   54.2324 C   0  0  0  0  0  0  0  0  0  0  0  0
   68.8556   47.4368   54.0218 C   0  0  0  0  0  0  0  0  0  0  0  0
  8  9  2  0
  9  1  1  0
  9 10  1  0
  1  2  2  0
  1  6  1  0
  2  3  1  0
  3 21  1  0
  3  4  2  0
 21 22  1  0
 22 23  2  0
 22 32  1  0
 23 24  1  0
 24 25  1  0
 25 26  2  0
 25 27  1  0
 27 28  1  0
 27 32  2  0
 28 29  2  0
 29 30  1  0
 30 31  2  0
 31 32  1  0
  4  5  1  0
  5  6  2  0
  6  7  1  0
 10 11  1  0
 10 13  1  0
 11 12  1  0
 12 14  1  0
 12 13  1  0
 14 15  1  0
 15 16  1  0
 15 20  1  0
 16 17  1  0
 17 18  1  0
 18 19  1  0
 19 20  1  0
M  CHG  1  15   1
M  END
>  <minimizedAffinity>  (169) 
-9.50264

$$$$
cs_full_output_folder/data/smiles/1440.pdb
     RDKit          3D

 31 35  0  0  0  0  0  0  0  0999 V2000
   70.3992   48.4744   57.1256 C   0  0  0  0  0  0  0  0  0  0  0  0
   71.5588   49.1751   57.3222 C   0  0  0  0  0  0  0  0  0  0  0  0
   72.5597   48.6092   58.1226 C   0  0  0  0  0  0  0  0  0  0  0  0
   72.4094   47.3708   58.7141 C   0  0  0  0  0  0  0  0  0  0  0  0
   71.2537   46.6583   58.5247 C   0  0  0  0  0  0  0  0  0  0  0  0
   70.2725   47.2186   57.7377 C   0  0  0  0  0  0  0  0  0  0  0  0
   69.2399   48.9784   56.3031 C   0  0  0  0  0  0  0  0  0  0  0  0
   70.4964   48.7108   50.9399 O   0  0  0  0  0  0  0  0  0  0  0  0
   70.1832   48.7622   52.1774 C   0  0  0  0  0  0  0  0  0  0  0  0
   70.6257   49.7457   52.9792 N   0  0  0  0  0  0  0  0  0  0  0  0
   70.3074   49.8039   54.2566 N   0  0  0  0  0  0  0  0  0  0  0  0
   69.5105   48.8760   54.8590 C   0  0  0  0  0  0  0  0  0  0  0  0
   69.0365   47.8589   54.0841 C   0  0  0  0  0  0  0  0  0  0  0  0
   68.2039   46.8658   54.5795 C   0  0  0  0  0  0  0  0  0  0  0  0
   67.7200   45.8507   53.7877 C   0  0  0  0  0  0  0  0  0  0  0  0
   68.0672   45.8132   52.4688 C   0  0  0  0  0  0  0  0  0  0  0  0
   68.8943   46.7733   51.9070 C   0  0  0  0  0  0  0  0  0  0  0  0
   69.3588   47.7752   52.7287 C   0  0  0  0  0  0  0  0  0  0  0  0
   70.9709   45.3278   59.1075 C   0  0  0  0  0  0  0  0  0  0  0  0
   72.0603   44.4221   59.1364 N   0  0  0  0  0  0  0  0  0  0  0  0
   71.8275   43.4234   60.1425 C   0  0  0  0  0  0  0  0  0  0  0  0
   70.6016   42.6243   59.7569 C   0  0  0  0  0  0  0  0  0  0  0  0
   70.7143   42.4084   58.3306 N   0  0  0  0  0  0  0  0  0  0  0  0
   72.0317   42.4295   57.7759 C   0  0  0  0  0  0  0  0  0  0  0  0
   72.5056   43.8887   57.8948 C   0  0  0  0  0  0  0  0  0  0  0  0
   69.5731   42.1865   57.5474 C   0  0  0  0  0  0  0  0  0  0  0  0
   68.9357   43.1398   56.7927 C   0  0  0  0  0  0  0  0  0  0  0  0
   67.8168   42.8859   56.0306 C   0  0  0  0  0  0  0  0  0  0  0  0
   67.2853   41.6208   56.0010 C   0  0  0  0  0  0  0  0  0  0  0  0
   67.9262   40.6572   56.7605 C   0  0  0  0  0  0  0  0  0  0  0  0
   68.9952   40.9405   57.4785 N   0  0  0  0  0  0  0  0  0  0  0  0
  8  9  2  0
  9 10  1  0
  9 18  1  0
 10 11  1  0
 11 12  2  0
 12  7  1  0
 12 13  1  0
  7  1  1  0
  1  2  2  0
  1  6  1  0
  2  3  1  0
  3  4  2  0
  4  5  1  0
  5 19  1  0
  5  6  2  0
 19 20  1  0
 20 21  1  0
 20 25  1  0
 21 22  1  0
 22 23  1  0
 23 26  1  0
 23 24  1  0
 26 27  2  0
 26 31  1  0
 27 28  1  0
 28 29  2  0
 29 30  1  0
 30 31  2  0
 24 25  1  0
 13 14  1  0
 13 18  2  0
 14 15  2  0
 15 16  1  0
 16 17  2  0
 17 18  1  0
M  CHG  1  20   1
M  END
>  <minimizedAffinity>  (170) 
-9.50109

$$$$
cs_full_output_folder/data/smiles/3021.pdb
     RDKit          3D

 32 36  0  0  0  0  0  0  0  0999 V2000
   71.4245   45.6525   58.1907 C   0  0  0  0  0  0  0  0  0  0  0  0
   70.3810   46.0023   57.3757 C   0  0  0  0  0  0  0  0  0  0  0  0
   69.9056   47.3171   57.4332 C   0  0  0  0  0  0  0  0  0  0  0  0
   70.4604   48.2316   58.2761 C   0  0  0  0  0  0  0  0  0  0  0  0
   71.5086   47.8810   59.0957 C   0  0  0  0  0  0  0  0  0  0  0  0
   71.9958   46.5692   59.0487 C   0  0  0  0  0  0  0  0  0  0  0  0
   73.0286   46.2534   59.8695 F   0  0  0  0  0  0  0  0  0  0  0  0
   69.6545   41.2237   58.6890 N   0  0  0  0  0  0  0  0  0  0  0  0
   71.0317   40.8375   58.4366 C   0  0  0  0  0  0  0  0  0  0  0  0
   71.9962   41.9227   58.8609 C   0  0  0  0  0  0  0  0  0  0  0  0
   71.3985   43.2249   58.8823 N   0  0  0  0  0  0  0  0  0  0  0  0
   72.0031   44.2941   58.2013 C   0  0  0  0  0  0  0  0  0  0  0  0
   73.0809   44.0685   57.5794 O   0  0  0  0  0  0  0  0  0  0  0  0
   70.1764   43.4330   59.6084 C   0  0  0  0  0  0  0  0  0  0  0  0
   69.3642   42.1468   59.7505 C   0  0  0  0  0  0  0  0  0  0  0  0
   68.1023   39.3244   58.0800 C   0  0  0  0  0  0  0  0  0  0  0  0
   68.6033   40.7020   57.9014 C   0  0  0  0  0  0  0  0  0  0  0  0
   68.0599   41.4680   56.9836 C   0  0  0  0  0  0  0  0  0  0  0  0
   67.9454   42.7828   56.2239 C   0  0  0  0  0  0  0  0  0  0  0  0
   67.0592   41.6709   55.8720 C   0  0  0  0  0  0  0  0  0  0  0  0
   68.8052   47.6659   56.5217 C   0  0  0  0  0  0  0  0  0  0  0  0
   69.1435   47.9493   55.1495 C   0  0  0  0  0  0  0  0  0  0  0  0
   69.9763   49.0061   54.9106 N   0  0  0  0  0  0  0  0  0  0  0  0
   70.3812   49.3320   53.7072 N   0  0  0  0  0  0  0  0  0  0  0  0
   70.0025   48.6415   52.6031 C   0  0  0  0  0  0  0  0  0  0  0  0
   70.4040   48.9707   51.4560 O   0  0  0  0  0  0  0  0  0  0  0  0
   69.1746   47.5787   52.7699 C   0  0  0  0  0  0  0  0  0  0  0  0
   68.7519   46.8557   51.7030 C   0  0  0  0  0  0  0  0  0  0  0  0
   67.8982   45.7783   51.8444 C   0  0  0  0  0  0  0  0  0  0  0  0
   67.4668   45.4340   53.1192 C   0  0  0  0  0  0  0  0  0  0  0  0
   67.8892   46.1594   54.2114 C   0  0  0  0  0  0  0  0  0  0  0  0
   68.7397   47.2300   54.0648 C   0  0  0  0  0  0  0  0  0  0  0  0
 16 17  1  0
 17 18  2  0
 17  8  1  0
 18 19  1  0
 18 20  1  0
 19 20  1  0
  8  9  1  0
  8 15  1  0
  9 10  1  0
 10 11  1  0
 11 12  1  0
 11 14  1  0
 12 13  2  0
 12  1  1  0
  1  2  2  0
  1  6  1  0
  2  3  1  0
  3 21  1  0
  3  4  2  0
 21 22  1  0
 22 23  2  0
 22 32  1  0
 23 24  1  0
 24 25  1  0
 25 26  2  0
 25 27  1  0
 27 28  1  0
 27 32  2  0
 28 29  2  0
 29 30  1  0
 30 31  2  0
 31 32  1  0
  4  5  1  0
  5  6  2  0
  6  7  1  0
 14 15  1  0
M  END
>  <minimizedAffinity>  (171) 
-9.50011

$$$$
cs_full_output_folder/data/smiles/667.pdb
     RDKit          3D

 31 35  0  0  0  0  0  0  0  0999 V2000
   70.9669   50.7182   54.9692 C   0  0  0  0  0  0  0  0  0  0  0  0
   70.6625   49.7523   55.8903 C   0  0  0  0  0  0  0  0  0  0  0  0
   70.0061   48.5659   55.5183 C   0  0  0  0  0  0  0  0  0  0  0  0
   69.6754   48.3916   54.2223 C   0  0  0  0  0  0  0  0  0  0  0  0
   69.9668   49.3519   53.2373 C   0  0  0  0  0  0  0  0  0  0  0  0
   70.6289   50.5288   53.6601 C   0  0  0  0  0  0  0  0  0  0  0  0
   69.5857   49.1680   51.9533 C   0  0  0  0  0  0  0  0  0  0  0  0
   69.8765   50.0691   51.1128 O   0  0  0  0  0  0  0  0  0  0  0  0
   68.9234   48.1077   51.4890 N   0  0  0  0  0  0  0  0  0  0  0  0
   68.6312   47.1544   52.4339 C   0  0  0  0  0  0  0  0  0  0  0  0
   67.9102   46.0270   52.0037 C   0  0  0  0  0  0  0  0  0  0  0  0
   67.5571   45.9616   50.7106 F   0  0  0  0  0  0  0  0  0  0  0  0
   67.5757   45.0618   52.9239 C   0  0  0  0  0  0  0  0  0  0  0  0
   67.9358   45.1817   54.2506 C   0  0  0  0  0  0  0  0  0  0  0  0
   67.6252   44.2248   55.1659 F   0  0  0  0  0  0  0  0  0  0  0  0
   68.6424   46.2974   54.6573 C   0  0  0  0  0  0  0  0  0  0  0  0
   68.9736   47.2563   53.7466 C   0  0  0  0  0  0  0  0  0  0  0  0
   71.6195   52.0270   55.2890 C   0  0  0  0  0  0  0  0  0  0  0  0
   73.0671   52.0824   54.8946 C   0  0  2  0  0  0  0  0  0  0  0  0
   73.9498   51.4259   55.8669 N   0  0  0  0  0  0  0  0  0  0  0  0
   74.8041   50.3767   55.6510 C   0  0  0  0  0  0  0  0  0  0  0  0
   74.8117   49.8886   54.4086 O   0  0  0  0  0  0  0  0  0  0  0  0
   75.7202   49.6949   56.5665 C   0  0  1  0  0  0  0  0  0  0  0  0
   76.8425   50.5688   56.9569 N   0  0  0  0  0  0  0  0  0  0  0  0
   77.1572   50.0295   58.2971 C   0  0  2  0  0  0  0  0  0  0  0  0
   77.3095   48.5475   58.2244 C   0  0  0  0  0  0  0  0  0  0  0  0
   75.9003   47.9550   58.2625 C   0  0  0  0  0  0  0  0  0  0  0  0
   75.1189   49.1862   57.8316 C   0  0  1  0  0  0  0  0  0  0  0  0
   75.7316   50.1597   58.8665 C   0  0  0  0  0  0  0  0  0  0  0  0
   73.7329   54.6772   55.0842 N   0  0  0  0  0  0  0  0  0  0  0  0
   73.4423   53.5199   54.9901 C   0  0  0  0  0  0  0  0  0  0  0  0
 30 31  3  0
 19 31  1  1
 19 18  1  0
 19 20  1  0
 18  1  1  0
  1  2  2  0
  1  6  1  0
  2  3  1  0
  3  4  2  0
  4  5  1  0
  4 17  1  0
  5  6  2  0
  5  7  1  0
  7  8  2  0
  7  9  1  0
  9 10  1  0
 10 11  1  0
 10 17  2  0
 11 12  1  0
 11 13  2  0
 13 14  1  0
 14 15  1  0
 14 16  2  0
 16 17  1  0
 20 21  1  0
 21 22  2  0
 23 21  1  1
 23 24  1  0
 23 28  1  0
 24 25  1  0
 25 26  1  6
 25 29  1  0
 26 27  1  0
 28 27  1  1
 28 29  1  0
M  CHG  1  24   1
M  END
>  <minimizedAffinity>  (172) 
-9.49975

$$$$
cs_full_output_folder/data/smiles/7597.pdb
     RDKit          3D

 30 33  0  0  0  0  0  0  0  0999 V2000
   71.5113   46.8572   58.9433 C   0  0  0  0  0  0  0  0  0  0  0  0
   70.7441   47.7582   58.1984 C   0  0  0  0  0  0  0  0  0  0  0  0
   69.8568   47.3892   57.2405 C   0  0  0  0  0  0  0  0  0  0  0  0
   69.7467   46.0017   57.0295 C   0  0  0  0  0  0  0  0  0  0  0  0
   70.4793   45.0882   57.7366 C   0  0  0  0  0  0  0  0  0  0  0  0
   71.3711   45.5017   58.7021 C   0  0  0  0  0  0  0  0  0  0  0  0
   72.1147   44.6212   59.4242 F   0  0  0  0  0  0  0  0  0  0  0  0
   75.0722   51.6392   59.2908 O   0  0  0  0  0  0  0  0  0  0  0  0
   74.7482   50.7648   58.4172 C   0  0  0  0  0  0  0  0  0  0  0  0
   74.1341   51.2702   57.2774 O   0  0  0  0  0  0  0  0  0  0  0  0
   75.0071   49.4018   58.6254 N   0  0  0  0  0  0  0  0  0  0  0  0
   75.6472   48.9617   59.8338 C   0  0  0  0  0  0  0  0  0  0  0  0
   74.8230   47.9058   60.5632 C   0  0  0  0  0  0  0  0  0  0  0  0
   73.8048   47.4444   59.6384 N   0  0  0  0  0  0  0  0  0  0  0  0
   72.4387   47.3251   59.9503 C   0  0  0  0  0  0  0  0  0  0  0  0
   72.0318   47.6216   61.0876 O   0  0  0  0  0  0  0  0  0  0  0  0
   74.2924   47.0915   58.2970 C   0  0  0  0  0  0  0  0  0  0  0  0
   74.6349   48.4313   57.6315 C   0  0  0  0  0  0  0  0  0  0  0  0
   69.0015   48.2832   56.4213 C   0  0  0  0  0  0  0  0  0  0  0  0
   69.3960   48.3660   55.0018 C   0  0  0  0  0  0  0  0  0  0  0  0
   70.3619   49.2610   54.6204 N   0  0  0  0  0  0  0  0  0  0  0  0
   70.8007   49.3657   53.3825 N   0  0  0  0  0  0  0  0  0  0  0  0
   70.3216   48.5869   52.3948 C   0  0  0  0  0  0  0  0  0  0  0  0
   70.7267   48.6697   51.2053 O   0  0  0  0  0  0  0  0  0  0  0  0
   69.3393   47.6506   52.6847 C   0  0  0  0  0  0  0  0  0  0  0  0
   68.8236   46.8435   51.6641 C   0  0  0  0  0  0  0  0  0  0  0  0
   67.8396   45.9321   51.9747 C   0  0  0  0  0  0  0  0  0  0  0  0
   67.4108   45.8604   53.2817 C   0  0  0  0  0  0  0  0  0  0  0  0
   67.9223   46.6559   54.2834 C   0  0  0  0  0  0  0  0  0  0  0  0
   68.9039   47.5697   53.9909 C   0  0  0  0  0  0  0  0  0  0  0  0
  8  9  2  0
  9 10  1  0
  9 11  1  0
 11 12  1  0
 11 18  1  0
 12 13  1  0
 13 14  1  0
 14 15  1  0
 14 17  1  0
 15 16  2  0
 15  1  1  0
  1  2  2  0
  1  6  1  0
  2  3  1  0
  3 19  1  0
  3  4  2  0
 19 20  1  0
 20 21  2  0
 20 30  1  0
 21 22  1  0
 22 23  1  0
 23 24  2  0
 23 25  1  0
 25 26  1  0
 25 30  2  0
 26 27  2  0
 27 28  1  0
 28 29  2  0
 29 30  1  0
  4  5  1  0
  5  6  2  0
  6  7  1  0
 17 18  1  0
M  END
>  <minimizedAffinity>  (173) 
-9.49742

$$$$
cs_full_output_folder/data/smiles/1366.pdb
     RDKit          3D

 25 26  0  0  0  0  0  0  0  0999 V2000
   69.9579   49.3896   52.7119 S   0  0  0  0  0  0  0  0  0  0  0  0
   71.4039   49.4318   53.1836 O   0  0  0  0  0  0  0  0  0  0  0  0
   70.0325   49.3404   51.2021 O   0  0  0  0  0  0  0  0  0  0  0  0
   69.2606   47.9602   53.3699 C   0  0  0  0  0  0  0  0  0  0  0  0
   68.6327   47.0274   52.5509 C   0  0  0  0  0  0  0  0  0  0  0  0
   68.5546   47.2227   51.2053 F   0  0  0  0  0  0  0  0  0  0  0  0
   68.0798   45.8894   53.0902 C   0  0  0  0  0  0  0  0  0  0  0  0
   67.4716   44.9836   52.3027 F   0  0  0  0  0  0  0  0  0  0  0  0
   68.1569   45.6907   54.4415 C   0  0  0  0  0  0  0  0  0  0  0  0
   67.6299   44.5879   55.0246 F   0  0  0  0  0  0  0  0  0  0  0  0
   68.7780   46.6045   55.2867 C   0  0  0  0  0  0  0  0  0  0  0  0
   68.8474   46.3956   56.6257 F   0  0  0  0  0  0  0  0  0  0  0  0
   69.3185   47.7235   54.7380 C   0  0  0  0  0  0  0  0  0  0  0  0
   69.9369   48.6466   55.5273 F   0  0  0  0  0  0  0  0  0  0  0  0
   69.2242   50.8615   53.1844 N   0  0  0  0  0  0  0  0  0  0  0  0
   71.4886   52.9356   55.3185 C   0  0  0  0  0  0  0  0  0  0  0  0
   70.5888   53.3914   56.2505 C   0  0  0  0  0  0  0  0  0  0  0  0
   69.2471   53.0042   56.1681 C   0  0  0  0  0  0  0  0  0  0  0  0
   68.8346   52.1837   55.1751 C   0  0  0  0  0  0  0  0  0  0  0  0
   69.7169   51.7057   54.2179 C   0  0  0  0  0  0  0  0  0  0  0  0
   71.0221   52.1014   54.3246 C   0  0  0  0  0  0  0  0  0  0  0  0
   73.2791   55.0592   54.8826 N   0  0  0  0  0  0  0  0  0  0  0  0
   73.1544   53.4316   55.4399 S   0  0  0  0  0  0  0  0  0  0  0  0
   73.6635   53.3019   56.8472 O   0  0  0  0  0  0  0  0  0  0  0  0
   73.9877   52.5168   54.5738 O   0  0  0  0  0  0  0  0  0  0  0  0
 22 23  1  0
 23 24  2  0
 23 25  2  0
 23 16  1  0
 16 17  2  0
 16 21  1  0
 17 18  1  0
 18 19  2  0
 19 20  1  0
 20 15  1  0
 20 21  2  0
 15  1  1  0
  1  2  2  0
  1  3  2  0
  1  4  1  0
  4  5  2  0
  4 13  1  0
  5  6  1  0
  5  7  1  0
  7  8  1  0
  7  9  2  0
  9 10  1  0
  9 11  1  0
 11 12  1  0
 11 13  2  0
 13 14  1  0
M  END
>  <minimizedAffinity>  (174) 
-9.49677

$$$$
cs_full_output_folder/data/smiles/7533.pdb
     RDKit          3D

 31 34  0  0  0  0  0  0  0  0999 V2000
   71.4821   46.6920   58.8862 C   0  0  0  0  0  0  0  0  0  0  0  0
   70.7889   47.5676   58.0858 C   0  0  0  0  0  0  0  0  0  0  0  0
   69.8881   47.1370   57.1148 C   0  0  0  0  0  0  0  0  0  0  0  0
   69.7092   45.8115   56.9770 C   0  0  0  0  0  0  0  0  0  0  0  0
   70.4042   44.9000   57.7808 C   0  0  0  0  0  0  0  0  0  0  0  0
   71.2875   45.3384   58.7319 C   0  0  0  0  0  0  0  0  0  0  0  0
   71.9544   44.4474   59.5034 F   0  0  0  0  0  0  0  0  0  0  0  0
   76.2093   48.6219   58.7508 P   0  0  0  0  0  0  0  0  0  0  0  0
   77.3184   47.6135   58.9517 O   0  0  0  0  0  0  0  0  0  0  0  0
   75.4181   48.9830   60.3380 C   0  0  0  0  0  0  0  0  0  0  0  0
   74.7256   47.6989   60.7761 C   0  0  0  0  0  0  0  0  0  0  0  0
   73.8272   47.1819   59.7553 N   0  0  0  0  0  0  0  0  0  0  0  0
   72.4213   47.2072   59.9107 C   0  0  0  0  0  0  0  0  0  0  0  0
   71.9106   47.6818   60.9483 O   0  0  0  0  0  0  0  0  0  0  0  0
   74.4490   46.6305   58.5595 C   0  0  0  0  0  0  0  0  0  0  0  0
   74.9235   47.8064   57.7270 C   0  0  0  0  0  0  0  0  0  0  0  0
   78.0744   50.5322   58.5388 C   0  0  0  0  0  0  0  0  0  0  0  0
   76.7672   50.0784   57.8741 C   0  0  0  0  0  0  0  0  0  0  0  0
   77.1825   49.7212   56.4452 C   0  0  0  0  0  0  0  0  0  0  0  0
   69.2234   48.2347   56.3714 C   0  0  0  0  0  0  0  0  0  0  0  0
   69.5798   48.3471   54.9606 C   0  0  0  0  0  0  0  0  0  0  0  0
   70.5455   49.2152   54.5671 N   0  0  0  0  0  0  0  0  0  0  0  0
   70.9141   49.3086   53.3212 N   0  0  0  0  0  0  0  0  0  0  0  0
   70.3757   48.5655   52.3515 C   0  0  0  0  0  0  0  0  0  0  0  0
   70.7158   48.6356   51.1360 O   0  0  0  0  0  0  0  0  0  0  0  0
   69.3753   47.6476   52.6713 C   0  0  0  0  0  0  0  0  0  0  0  0
   68.7910   46.8856   51.7071 C   0  0  0  0  0  0  0  0  0  0  0  0
   67.7938   45.9958   52.0213 C   0  0  0  0  0  0  0  0  0  0  0  0
   67.3820   45.8774   53.3295 C   0  0  0  0  0  0  0  0  0  0  0  0
   67.9791   46.6545   54.3096 C   0  0  0  0  0  0  0  0  0  0  0  0
   68.9905   47.5591   54.0039 C   0  0  0  0  0  0  0  0  0  0  0  0
 17 18  1  0
 18 19  1  0
 18  8  1  0
  8  9  2  0
  8 10  1  0
  8 16  1  0
 10 11  1  0
 11 12  1  0
 12 13  1  0
 12 15  1  0
 13 14  2  0
 13  1  1  0
  1  2  2  0
  1  6  1  0
  2  3  1  0
  3 20  1  0
  3  4  2  0
 20 21  1  0
 21 22  2  0
 21 31  1  0
 22 23  1  0
 23 24  1  0
 24 25  2  0
 24 26  1  0
 26 27  1  0
 26 31  2  0
 27 28  2  0
 28 29  1  0
 29 30  2  0
 30 31  1  0
  4  5  1  0
  5  6  2  0
  6  7  1  0
 15 16  1  0
M  END
>  <minimizedAffinity>  (175) 
-9.49568

$$$$
cs_full_output_folder/data/smiles/1163.pdb
     RDKit          3D

 33 37  0  0  0  0  0  0  0  0999 V2000
   71.8459   46.3652   59.0620 C   0  0  0  0  0  0  0  0  0  0  0  0
   70.6057   46.6497   58.4924 C   0  0  0  0  0  0  0  0  0  0  0  0
   70.3778   47.7516   57.7118 C   0  0  0  0  0  0  0  0  0  0  0  0
   71.4429   48.6370   57.4752 C   0  0  0  0  0  0  0  0  0  0  0  0
   72.6774   48.3914   58.0197 C   0  0  0  0  0  0  0  0  0  0  0  0
   72.8536   47.2674   58.7972 C   0  0  0  0  0  0  0  0  0  0  0  0
   74.0800   47.0403   59.3267 F   0  0  0  0  0  0  0  0  0  0  0  0
   71.6723   45.2210   61.0857 O   0  0  0  0  0  0  0  0  0  0  0  0
   72.0496   45.1853   59.8904 C   0  0  0  0  0  0  0  0  0  0  0  0
   72.6564   43.9984   59.4074 N   0  0  0  0  0  0  0  0  0  0  0  0
   73.1371   43.8284   58.0497 C   0  0  0  0  0  0  0  0  0  0  0  0
   72.3824   42.7100   57.3492 C   0  0  0  0  0  0  0  0  0  0  0  0
   72.0401   41.7387   58.3554 N   0  0  0  0  0  0  0  0  0  0  0  0
   72.9735   41.5874   59.4411 C   0  0  0  0  0  0  0  0  0  0  0  0
   72.8368   42.8348   60.2941 C   0  0  0  0  0  0  0  0  0  0  0  0
   70.8433   40.9975   58.2237 C   0  0  0  0  0  0  0  0  0  0  0  0
   70.7227   39.6629   58.5343 C   0  0  0  0  0  0  0  0  0  0  0  0
   69.5423   38.9386   58.3923 C   0  0  0  0  0  0  0  0  0  0  0  0
   68.4305   39.5862   57.9164 C   0  0  0  0  0  0  0  0  0  0  0  0
   68.4995   40.9191   57.5906 C   0  0  0  0  0  0  0  0  0  0  0  0
   69.6824   41.6137   57.7416 C   0  0  0  0  0  0  0  0  0  0  0  0
   69.0583   48.0822   57.0737 C   0  0  0  0  0  0  0  0  0  0  0  0
   68.7727   47.2926   55.8656 C   0  0  0  0  0  0  0  0  0  0  0  0
   68.1375   46.0807   55.9762 N   0  0  0  0  0  0  0  0  0  0  0  0
   67.8197   45.3445   54.9280 N   0  0  0  0  0  0  0  0  0  0  0  0
   68.0882   45.7121   53.6686 C   0  0  0  0  0  0  0  0  0  0  0  0
   67.7541   44.9565   52.7073 O   0  0  0  0  0  0  0  0  0  0  0  0
   68.7233   46.9133   53.4776 C   0  0  0  0  0  0  0  0  0  0  0  0
   69.0251   47.3139   52.1964 C   0  0  0  0  0  0  0  0  0  0  0  0
   69.6790   48.5146   51.9935 C   0  0  0  0  0  0  0  0  0  0  0  0
   70.0229   49.3029   53.0903 C   0  0  0  0  0  0  0  0  0  0  0  0
   69.7081   48.8776   54.3621 C   0  0  0  0  0  0  0  0  0  0  0  0
   69.0610   47.6953   54.5903 C   0  0  0  0  0  0  0  0  0  0  0  0
  8  9  2  0
  9  1  1  0
  9 10  1  0
  1  2  2  0
  1  6  1  0
  2  3  1  0
  3 22  1  0
  3  4  2  0
 22 23  1  0
 23 24  2  0
 23 33  1  0
 24 25  1  0
 25 26  1  0
 26 27  2  0
 26 28  1  0
 28 29  1  0
 28 33  2  0
 29 30  2  0
 30 31  1  0
 31 32  2  0
 32 33  1  0
  4  5  1  0
  5  6  2  0
  6  7  1  0
 10 11  1  0
 10 15  1  0
 11 12  1  0
 12 13  1  0
 13 16  1  0
 13 14  1  0
 16 17  2  0
 16 21  1  0
 17 18  1  0
 18 19  2  0
 19 20  1  0
 20 21  2  0
 14 15  1  0
M  END
>  <minimizedAffinity>  (176) 
-9.49488

$$$$
cs_full_output_folder/data/smiles/8816.pdb
     RDKit          3D

 31 34  0  0  0  0  0  0  0  0999 V2000
   71.3991   47.2067   58.8570 C   0  0  0  0  0  0  0  0  0  0  0  0
   70.5572   47.9704   58.0443 C   0  0  0  0  0  0  0  0  0  0  0  0
   69.7260   47.4092   57.1268 C   0  0  0  0  0  0  0  0  0  0  0  0
   69.7253   46.0120   57.0078 C   0  0  0  0  0  0  0  0  0  0  0  0
   70.5362   45.2290   57.7866 C   0  0  0  0  0  0  0  0  0  0  0  0
   71.3726   45.8484   58.7129 C   0  0  0  0  0  0  0  0  0  0  0  0
   72.1559   45.0062   59.4580 F   0  0  0  0  0  0  0  0  0  0  0  0
   75.9024   48.8108   58.7269 N   0  0  1  0  0  0  0  0  0  0  0  0
   76.0364   50.1949   59.2455 C   0  0  0  0  0  0  0  0  0  0  0  0
   74.8405   50.4238   60.1351 C   0  0  0  0  0  0  0  0  0  0  0  0
   74.2362   49.0734   60.5403 C   0  0  0  0  0  0  0  0  0  0  0  0
   73.4536   48.5386   59.4579 N   0  0  0  0  0  0  0  0  0  0  0  0
   72.2963   47.8058   59.8301 C   0  0  0  0  0  0  0  0  0  0  0  0
   72.0501   47.6786   61.0749 O   0  0  0  0  0  0  0  0  0  0  0  0
   73.6221   48.6020   58.0161 C   0  0  0  0  0  0  0  0  0  0  0  0
   74.9995   48.9787   57.5851 C   0  0  0  0  0  0  0  0  0  0  0  0
   77.1869   48.2956   58.3860 C   0  0  0  0  0  0  0  0  0  0  0  0
   76.4937   46.0286   59.3362 C   0  0  0  0  0  0  0  0  0  0  0  0
   77.5322   47.0564   59.1322 C   0  0  0  0  0  0  0  0  0  0  0  0
   68.8080   48.0990   56.2050 C   0  0  0  0  0  0  0  0  0  0  0  0
   69.2674   48.2357   54.8272 C   0  0  0  0  0  0  0  0  0  0  0  0
   70.1766   49.1844   54.5019 N   0  0  0  0  0  0  0  0  0  0  0  0
   70.6190   49.4165   53.2922 N   0  0  0  0  0  0  0  0  0  0  0  0
   70.1522   48.6713   52.2820 C   0  0  0  0  0  0  0  0  0  0  0  0
   70.5322   48.8362   51.0804 O   0  0  0  0  0  0  0  0  0  0  0  0
   69.2189   47.6758   52.5262 C   0  0  0  0  0  0  0  0  0  0  0  0
   68.7489   46.8938   51.4621 C   0  0  0  0  0  0  0  0  0  0  0  0
   67.8345   45.8886   51.6711 C   0  0  0  0  0  0  0  0  0  0  0  0
   67.4075   45.6935   52.9770 C   0  0  0  0  0  0  0  0  0  0  0  0
   67.8595   46.4500   54.0232 C   0  0  0  0  0  0  0  0  0  0  0  0
   68.7696   47.4538   53.8197 C   0  0  0  0  0  0  0  0  0  0  0  0
 18 19  1  0
 19 17  1  0
  8 17  1  6
  8  9  1  0
  8 16  1  0
  9 10  1  0
 10 11  1  0
 11 12  1  0
 12 13  1  0
 12 15  1  0
 13 14  2  0
 13  1  1  0
  1  2  2  0
  1  6  1  0
  2  3  1  0
  3 20  1  0
  3  4  2  0
 20 21  1  0
 21 22  2  0
 21 31  1  0
 22 23  1  0
 23 24  1  0
 24 25  2  0
 24 26  1  0
 26 27  1  0
 26 31  2  0
 27 28  2  0
 28 29  1  0
 29 30  2  0
 30 31  1  0
  4  5  1  0
  5  6  2  0
  6  7  1  0
 15 16  1  0
M  CHG  1   8   1
M  END
>  <minimizedAffinity>  (177) 
-9.49374

$$$$
cs_full_output_folder/data/smiles/4497.pdb
     RDKit          3D

 29 32  0  0  0  0  0  0  0  0999 V2000
   71.2934   46.9780   58.8644 C   0  0  0  0  0  0  0  0  0  0  0  0
   70.4702   47.7652   58.0985 C   0  0  0  0  0  0  0  0  0  0  0  0
   69.6406   47.2208   57.0977 C   0  0  0  0  0  0  0  0  0  0  0  0
   69.6913   45.8770   56.9208 C   0  0  0  0  0  0  0  0  0  0  0  0
   70.5198   45.0561   57.6865 C   0  0  0  0  0  0  0  0  0  0  0  0
   71.3269   45.6227   58.6666 C   0  0  0  0  0  0  0  0  0  0  0  0
   72.1380   44.8432   59.4218 F   0  0  0  0  0  0  0  0  0  0  0  0
   71.8602   47.3531   61.1243 O   0  0  0  0  0  0  0  0  0  0  0  0
   72.1650   47.5435   59.9147 C   0  0  0  0  0  0  0  0  0  0  0  0
   73.3280   48.2896   59.5931 N   0  0  0  0  0  0  0  0  0  0  0  0
   74.1362   48.8126   60.6588 C   0  0  0  0  0  0  0  0  0  0  0  0
   74.7188   50.1827   60.3436 C   0  0  1  0  0  0  0  0  0  0  0  0
   76.0797   50.0368   60.1306 F   0  0  0  0  0  0  0  0  0  0  0  0
   74.0101   50.6869   59.1103 C   0  0  0  0  0  0  0  0  0  0  0  0
   74.4244   49.7598   57.9679 C   0  0  2  0  0  0  0  0  0  0  0  0
   74.1725   50.3506   56.7673 F   0  0  0  0  0  0  0  0  0  0  0  0
   73.6350   48.4829   58.1872 C   0  0  0  0  0  0  0  0  0  0  0  0
   68.8009   48.1462   56.2966 C   0  0  0  0  0  0  0  0  0  0  0  0
   69.2838   48.2159   54.9001 C   0  0  0  0  0  0  0  0  0  0  0  0
   70.2641   49.1273   54.5820 N   0  0  0  0  0  0  0  0  0  0  0  0
   70.7076   49.2745   53.3536 N   0  0  0  0  0  0  0  0  0  0  0  0
   70.2513   48.5603   52.3200 C   0  0  0  0  0  0  0  0  0  0  0  0
   70.6910   48.7198   51.1521 O   0  0  0  0  0  0  0  0  0  0  0  0
   69.2642   47.6197   52.5548 C   0  0  0  0  0  0  0  0  0  0  0  0
   68.7914   46.8670   51.5049 C   0  0  0  0  0  0  0  0  0  0  0  0
   67.8182   45.9215   51.7504 C   0  0  0  0  0  0  0  0  0  0  0  0
   67.3554   45.7661   53.0394 C   0  0  0  0  0  0  0  0  0  0  0  0
   67.8311   46.5261   54.0966 C   0  0  0  0  0  0  0  0  0  0  0  0
   68.7996   47.4701   53.8592 C   0  0  0  0  0  0  0  0  0  0  0  0
  8  9  2  0
  9  1  1  0
  9 10  1  0
  1  2  2  0
  1  6  1  0
  2  3  1  0
  3 18  1  0
  3  4  2  0
 18 19  1  0
 19 20  2  0
 19 29  1  0
 20 21  1  0
 21 22  1  0
 22 23  2  0
 22 24  1  0
 24 25  1  0
 24 29  2  0
 25 26  2  0
 26 27  1  0
 27 28  2  0
 28 29  1  0
  4  5  1  0
  5  6  2  0
  6  7  1  0
 10 11  1  0
 10 17  1  0
 11 12  1  0
 12 13  1  6
 12 14  1  0
 14 15  1  0
 15 16  1  6
 15 17  1  0
M  END
>  <minimizedAffinity>  (178) 
-9.49032

$$$$
cs_full_output_folder/data/smiles/3113.pdb
     RDKit          3D

 33 36  0  0  0  0  0  0  0  0999 V2000
   71.5664   46.7528   59.0547 C   0  0  0  0  0  0  0  0  0  0  0  0
   70.6862   47.4827   58.2933 C   0  0  0  0  0  0  0  0  0  0  0  0
   69.7930   46.9113   57.3840 C   0  0  0  0  0  0  0  0  0  0  0  0
   69.8559   45.5417   57.3037 C   0  0  0  0  0  0  0  0  0  0  0  0
   70.7270   44.7846   58.0539 C   0  0  0  0  0  0  0  0  0  0  0  0
   71.5936   45.3818   58.9406 C   0  0  0  0  0  0  0  0  0  0  0  0
   72.4647   44.6256   59.6909 F   0  0  0  0  0  0  0  0  0  0  0  0
   74.3292   50.4913   58.3571 N   0  0  0  0  0  0  0  0  0  0  0  0
   74.8578   50.9111   59.6458 C   0  0  0  0  0  0  0  0  0  0  0  0
   74.1578   50.1256   60.7229 C   0  0  0  0  0  0  0  0  0  0  0  0
   74.5209   48.6679   60.5052 C   0  0  0  0  0  0  0  0  0  0  0  0
   73.6615   48.0760   59.5051 N   0  0  0  0  0  0  0  0  0  0  0  0
   72.5004   47.3818   59.9893 C   0  0  0  0  0  0  0  0  0  0  0  0
   72.3070   47.3288   61.2205 O   0  0  0  0  0  0  0  0  0  0  0  0
   73.8612   48.1109   58.0760 C   0  0  0  0  0  0  0  0  0  0  0  0
   74.7033   49.2794   57.6391 C   0  0  0  0  0  0  0  0  0  0  0  0
   72.0816   51.2432   57.9781 C   0  0  0  0  0  0  0  0  0  0  0  0
   73.3731   51.3052   57.7293 C   0  0  0  0  0  0  0  0  0  0  0  0
   73.8045   52.2577   56.7651 N   0  0  0  0  0  0  0  0  0  0  0  0
   69.7123   51.5155   57.4681 C   0  0  0  0  0  0  0  0  0  0  0  0
   71.0886   52.1169   57.2999 C   0  0  0  0  0  0  0  0  0  0  0  0
   68.8512   47.7633   56.6171 C   0  0  0  0  0  0  0  0  0  0  0  0
   69.3116   48.0710   55.2410 C   0  0  0  0  0  0  0  0  0  0  0  0
   70.2523   49.0555   55.0557 N   0  0  0  0  0  0  0  0  0  0  0  0
   70.7350   49.3542   53.8700 N   0  0  0  0  0  0  0  0  0  0  0  0
   70.3369   48.7127   52.7592 C   0  0  0  0  0  0  0  0  0  0  0  0
   70.7746   48.9694   51.6181 O   0  0  0  0  0  0  0  0  0  0  0  0
   69.3862   47.7081   52.8837 C   0  0  0  0  0  0  0  0  0  0  0  0
   68.9388   47.0236   51.7608 C   0  0  0  0  0  0  0  0  0  0  0  0
   67.9879   46.0385   51.9200 C   0  0  0  0  0  0  0  0  0  0  0  0
   67.4870   45.7355   53.1698 C   0  0  0  0  0  0  0  0  0  0  0  0
   67.9165   46.3983   54.2848 C   0  0  0  0  0  0  0  0  0  0  0  0
   68.8741   47.3928   54.1430 C   0  0  0  0  0  0  0  0  0  0  0  0
 20 21  1  0
 21 17  1  0
 17 18  2  0
 18 19  1  0
 18  8  1  0
  8  9  1  0
  8 16  1  0
  9 10  1  0
 10 11  1  0
 11 12  1  0
 12 13  1  0
 12 15  1  0
 13 14  2  0
 13  1  1  0
  1  2  2  0
  1  6  1  0
  2  3  1  0
  3 22  1  0
  3  4  2  0
 22 23  1  0
 23 24  2  0
 23 33  1  0
 24 25  1  0
 25 26  1  0
 26 27  2  0
 26 28  1  0
 28 29  1  0
 28 33  2  0
 29 30  2  0
 30 31  1  0
 31 32  2  0
 32 33  1  0
  4  5  1  0
  5  6  2  0
  6  7  1  0
 15 16  1  0
M  END
>  <minimizedAffinity>  (179) 
-9.48986

$$$$
cs_full_output_folder/data/smiles/1355.pdb
     RDKit          3D

 31 34  0  0  0  0  0  0  0  0999 V2000
   71.5396   47.2420   58.7790 C   0  0  0  0  0  0  0  0  0  0  0  0
   70.7001   48.0531   58.0620 C   0  0  0  0  0  0  0  0  0  0  0  0
   69.8051   47.5173   57.1937 C   0  0  0  0  0  0  0  0  0  0  0  0
   69.7378   46.1395   57.0289 C   0  0  0  0  0  0  0  0  0  0  0  0
   70.5775   45.3212   57.7462 C   0  0  0  0  0  0  0  0  0  0  0  0
   71.4759   45.8555   58.6165 C   0  0  0  0  0  0  0  0  0  0  0  0
   72.3002   45.0509   59.3206 F   0  0  0  0  0  0  0  0  0  0  0  0
   77.0921   50.1096   58.1645 C   0  0  0  0  0  0  0  0  0  0  0  0
   77.8841   50.6152   58.9912 O   0  0  0  0  0  0  0  0  0  0  0  0
   75.8366   49.6618   58.5977 N   0  0  0  0  0  0  0  0  0  0  0  0
   75.4790   49.7599   60.0064 C   0  0  0  0  0  0  0  0  0  0  0  0
   74.7946   48.4900   60.4768 C   0  0  0  0  0  0  0  0  0  0  0  0
   73.8707   47.9993   59.4606 N   0  0  0  0  0  0  0  0  0  0  0  0
   72.5248   47.7138   59.7179 C   0  0  0  0  0  0  0  0  0  0  0  0
   72.1126   47.8885   60.9166 O   0  0  0  0  0  0  0  0  0  0  0  0
   74.4132   47.8012   58.1354 C   0  0  0  0  0  0  0  0  0  0  0  0
   74.9053   49.1212   57.6263 C   0  0  0  0  0  0  0  0  0  0  0  0
   78.8534   50.6284   56.4912 C   0  0  0  0  0  0  0  0  0  0  0  0
   77.5035   49.9988   56.7573 C   0  0  0  0  0  0  0  0  0  0  0  0
   68.8196   48.2811   56.3674 C   0  0  0  0  0  0  0  0  0  0  0  0
   69.2375   48.3179   54.9645 C   0  0  0  0  0  0  0  0  0  0  0  0
   70.2076   49.2246   54.6340 N   0  0  0  0  0  0  0  0  0  0  0  0
   70.7128   49.3441   53.4242 N   0  0  0  0  0  0  0  0  0  0  0  0
   70.3199   48.5809   52.3894 C   0  0  0  0  0  0  0  0  0  0  0  0
   70.7919   48.6824   51.2259 O   0  0  0  0  0  0  0  0  0  0  0  0
   69.3407   47.6483   52.6709 C   0  0  0  0  0  0  0  0  0  0  0  0
   68.8771   46.8298   51.6396 C   0  0  0  0  0  0  0  0  0  0  0  0
   67.8993   45.9121   51.9039 C   0  0  0  0  0  0  0  0  0  0  0  0
   67.3793   45.8040   53.1887 C   0  0  0  0  0  0  0  0  0  0  0  0
   67.8240   46.6045   54.2269 C   0  0  0  0  0  0  0  0  0  0  0  0
   68.8034   47.5168   53.9455 C   0  0  0  0  0  0  0  0  0  0  0  0
 18 19  1  0
 19  8  1  0
  8  9  2  0
  8 10  1  0
 10 11  1  0
 10 17  1  0
 11 12  1  0
 12 13  1  0
 13 14  1  0
 13 16  1  0
 14 15  2  0
 14  1  1  0
  1  2  2  0
  1  6  1  0
  2  3  1  0
  3 20  1  0
  3  4  2  0
 20 21  1  0
 21 22  2  0
 21 31  1  0
 22 23  1  0
 23 24  1  0
 24 25  2  0
 24 26  1  0
 26 27  1  0
 26 31  2  0
 27 28  2  0
 28 29  1  0
 29 30  2  0
 30 31  1  0
  4  5  1  0
  5  6  2  0
  6  7  1  0
 16 17  1  0
M  END
>  <minimizedAffinity>  (180) 
-9.48966

$$$$
cs_full_output_folder/data/smiles/4500.pdb
     RDKit          3D

 30 33  0  0  0  0  0  0  0  0999 V2000
   71.2640   46.7739   58.7948 C   0  0  0  0  0  0  0  0  0  0  0  0
   70.5095   47.6382   58.0513 C   0  0  0  0  0  0  0  0  0  0  0  0
   69.6523   47.1336   57.0747 C   0  0  0  0  0  0  0  0  0  0  0  0
   69.5783   45.7808   56.8747 C   0  0  0  0  0  0  0  0  0  0  0  0
   70.3378   44.8973   57.6233 C   0  0  0  0  0  0  0  0  0  0  0  0
   71.1798   45.4109   58.5831 C   0  0  0  0  0  0  0  0  0  0  0  0
   71.9300   44.5493   59.3239 F   0  0  0  0  0  0  0  0  0  0  0  0
   76.9496   48.2128   60.3533 C   0  0  0  0  0  0  0  0  0  0  0  0
   75.5708   48.8372   60.0751 C   0  0  1  0  0  0  0  0  0  0  0  0
   75.5529   49.9715   60.9073 F   0  0  0  0  0  0  0  0  0  0  0  0
   75.5434   49.2956   58.6828 C   0  0  0  0  0  0  0  0  0  0  0  0
   74.4594   48.7584   57.8047 C   0  0  0  0  0  0  0  0  0  0  0  0
   74.0642   47.3551   58.2101 C   0  0  0  0  0  0  0  0  0  0  0  0
   73.5492   47.5068   59.5742 N   0  0  0  0  0  0  0  0  0  0  0  0
   72.1873   47.2198   59.8379 C   0  0  0  0  0  0  0  0  0  0  0  0
   71.7498   47.3500   61.0056 O   0  0  0  0  0  0  0  0  0  0  0  0
   74.4934   47.9431   60.5474 C   0  0  2  0  0  0  0  0  0  0  0  0
   73.7840   48.4711   61.6377 F   0  0  0  0  0  0  0  0  0  0  0  0
   68.8456   48.0968   56.2424 C   0  0  0  0  0  0  0  0  0  0  0  0
   69.2952   48.1742   54.8450 C   0  0  0  0  0  0  0  0  0  0  0  0
   70.2625   49.0834   54.5163 N   0  0  0  0  0  0  0  0  0  0  0  0
   70.6887   49.2400   53.2858 N   0  0  0  0  0  0  0  0  0  0  0  0
   70.2356   48.5417   52.2348 C   0  0  0  0  0  0  0  0  0  0  0  0
   70.6802   48.7348   51.0801 O   0  0  0  0  0  0  0  0  0  0  0  0
   69.2602   47.6075   52.5015 C   0  0  0  0  0  0  0  0  0  0  0  0
   68.7697   46.8585   51.4653 C   0  0  0  0  0  0  0  0  0  0  0  0
   67.7985   45.9022   51.7009 C   0  0  0  0  0  0  0  0  0  0  0  0
   67.3449   45.7315   52.9993 C   0  0  0  0  0  0  0  0  0  0  0  0
   67.8408   46.4865   54.0316 C   0  0  0  0  0  0  0  0  0  0  0  0
   68.7929   47.4266   53.8097 C   0  0  0  0  0  0  0  0  0  0  0  0
  9  8  1  6
  9 10  1  0
  9 11  1  0
  9 17  1  0
 11 12  1  0
 12 13  1  0
 13 14  1  0
 14 15  1  0
 14 17  1  0
 15 16  2  0
 15  1  1  0
  1  2  2  0
  1  6  1  0
  2  3  1  0
  3 19  1  0
  3  4  2  0
 19 20  1  0
 20 21  2  0
 20 30  1  0
 21 22  1  0
 22 23  1  0
 23 24  2  0
 23 25  1  0
 25 26  1  0
 25 30  2  0
 26 27  2  0
 27 28  1  0
 28 29  2  0
 29 30  1  0
  4  5  1  0
  5  6  2  0
  6  7  1  0
 17 18  1  1
M  END
>  <minimizedAffinity>  (181) 
-9.47952

$$$$
cs_full_output_folder/data/smiles/507.pdb
     RDKit          3D

 27 30  0  0  0  0  0  0  0  0999 V2000
   71.0527   45.8636   58.3489 C   0  0  0  0  0  0  0  0  0  0  0  0
   70.1394   46.3770   57.4345 C   0  0  0  0  0  0  0  0  0  0  0  0
   69.8535   47.7044   57.3359 C   0  0  0  0  0  0  0  0  0  0  0  0
   70.5191   48.5739   58.2051 C   0  0  0  0  0  0  0  0  0  0  0  0
   71.4286   48.0836   59.1193 C   0  0  0  0  0  0  0  0  0  0  0  0
   71.7070   46.7199   59.2037 C   0  0  0  0  0  0  0  0  0  0  0  0
   72.9764   46.0874   60.4886 Br  0  0  0  0  0  0  0  0  0  0  0  0
   69.4307   44.1506   59.6719 O   0  0  0  0  0  0  0  0  0  0  0  0
   70.3963   43.6227   59.0752 C   0  0  0  0  0  0  0  0  0  0  0  0
   70.5001   42.1411   59.0627 C   0  0  0  0  0  0  0  0  0  0  0  0
   71.4681   41.6577   58.0308 C   0  0  0  0  0  0  0  0  0  0  0  0
   72.7692   42.4147   58.0094 C   0  0  0  0  0  0  0  0  0  0  0  0
   72.5203   43.8783   57.9397 C   0  0  0  0  0  0  0  0  0  0  0  0
   73.3667   44.6709   57.4187 O   0  0  0  0  0  0  0  0  0  0  0  0
   71.3412   44.4740   58.4419 N   0  0  0  0  0  0  0  0  0  0  0  0
   68.9125   48.3308   56.3917 C   0  0  0  0  0  0  0  0  0  0  0  0
   69.3401   48.3846   55.0010 C   0  0  0  0  0  0  0  0  0  0  0  0
   70.2866   49.2942   54.6314 N   0  0  0  0  0  0  0  0  0  0  0  0
   70.7561   49.3887   53.4037 N   0  0  0  0  0  0  0  0  0  0  0  0
   70.3220   48.5830   52.4361 C   0  0  0  0  0  0  0  0  0  0  0  0
   70.7721   48.6666   51.2421 O   0  0  0  0  0  0  0  0  0  0  0  0
   69.3703   47.6394   52.7229 C   0  0  0  0  0  0  0  0  0  0  0  0
   68.9156   46.8131   51.7150 C   0  0  0  0  0  0  0  0  0  0  0  0
   67.9547   45.8679   51.9748 C   0  0  0  0  0  0  0  0  0  0  0  0
   67.4626   45.7725   53.2624 C   0  0  0  0  0  0  0  0  0  0  0  0
   67.9103   46.5916   54.2672 C   0  0  0  0  0  0  0  0  0  0  0  0
   68.8803   47.5459   54.0163 C   0  0  0  0  0  0  0  0  0  0  0  0
  8  9  2  0
  9 10  1  0
  9 15  1  0
 10 11  1  0
 11 12  1  0
 12 13  1  0
 13 14  2  0
 13 15  1  0
 15  1  1  0
  1  2  2  0
  1  6  1  0
  2  3  1  0
  3 16  1  0
  3  4  2  0
 16 17  1  0
 17 18  2  0
 17 27  1  0
 18 19  1  0
 19 20  1  0
 20 21  2  0
 20 22  1  0
 22 23  1  0
 22 27  2  0
 23 24  2  0
 24 25  1  0
 25 26  2  0
 26 27  1  0
  4  5  1  0
  5  6  2  0
  6  7  1  0
M  END
>  <minimizedAffinity>  (182) 
-9.46637

$$$$
cs_full_output_folder/data/smiles/5805.pdb
     RDKit          3D

 32 36  0  0  0  0  0  0  0  0999 V2000
   71.6174   47.1046   58.6733 C   0  0  0  0  0  0  0  0  0  0  0  0
   70.5473   47.5765   57.9393 C   0  0  0  0  0  0  0  0  0  0  0  0
   70.5953   48.6950   57.1453 C   0  0  0  0  0  0  0  0  0  0  0  0
   71.8222   49.3777   57.0976 C   0  0  0  0  0  0  0  0  0  0  0  0
   72.9095   48.9401   57.8123 C   0  0  0  0  0  0  0  0  0  0  0  0
   72.8026   47.7957   58.6050 C   0  0  0  0  0  0  0  0  0  0  0  0
   73.8568   47.3600   59.3061 F   0  0  0  0  0  0  0  0  0  0  0  0
   71.6641   46.0269   60.7635 O   0  0  0  0  0  0  0  0  0  0  0  0
   71.5179   45.9007   59.5185 C   0  0  0  0  0  0  0  0  0  0  0  0
   71.2619   44.6323   58.9377 N   0  0  0  0  0  0  0  0  0  0  0  0
   71.0453   44.1119   57.6139 C   0  0  0  0  0  0  0  0  0  0  0  0
   70.9198   42.7292   58.0829 C   0  0  0  0  0  0  0  0  0  0  0  0
   71.1141   43.3059   59.4631 C   0  0  0  0  0  0  0  0  0  0  0  0
   69.7640   41.9777   57.8507 N   0  0  2  0  0  0  0  0  0  0  0  0
   69.7181   40.6447   58.2756 C   0  0  0  0  0  0  0  0  0  0  0  0
   68.3192   40.1878   57.9328 C   0  0  0  0  0  0  0  0  0  0  0  0
   67.7538   41.2462   57.0243 C   0  0  0  0  0  0  0  0  0  0  0  0
   67.4493   40.7416   55.7745 F   0  0  0  0  0  0  0  0  0  0  0  0
   66.5764   41.7697   57.5447 F   0  0  0  0  0  0  0  0  0  0  0  0
   68.8241   42.3252   56.9105 C   0  0  0  0  0  0  0  0  0  0  0  0
   69.4559   49.2357   56.3499 C   0  0  0  0  0  0  0  0  0  0  0  0
   69.6634   48.9576   54.9489 C   0  0  0  0  0  0  0  0  0  0  0  0
   70.4330   49.8628   54.2642 N   0  0  0  0  0  0  0  0  0  0  0  0
   70.6862   49.8024   52.9896 N   0  0  0  0  0  0  0  0  0  0  0  0
   70.2181   48.8352   52.1829 C   0  0  0  0  0  0  0  0  0  0  0  0
   70.4423   48.7528   50.9643 O   0  0  0  0  0  0  0  0  0  0  0  0
   69.4276   47.8799   52.8167 C   0  0  0  0  0  0  0  0  0  0  0  0
   68.8933   46.8203   52.1111 C   0  0  0  0  0  0  0  0  0  0  0  0
   68.1180   45.8503   52.7176 C   0  0  0  0  0  0  0  0  0  0  0  0
   67.8723   45.9475   54.0777 C   0  0  0  0  0  0  0  0  0  0  0  0
   68.3921   46.9956   54.8143 C   0  0  0  0  0  0  0  0  0  0  0  0
   69.1567   47.9446   54.1894 C   0  0  0  0  0  0  0  0  0  0  0  0
  8  9  2  0
  9  1  1  0
  9 10  1  0
  1  2  2  0
  1  6  1  0
  2  3  1  0
  3 21  1  0
  3  4  2  0
 21 22  1  0
 22 23  2  0
 22 32  1  0
 23 24  1  0
 24 25  1  0
 25 26  2  0
 25 27  1  0
 27 28  1  0
 27 32  2  0
 28 29  2  0
 29 30  1  0
 30 31  2  0
 31 32  1  0
  4  5  1  0
  5  6  2  0
  6  7  1  0
 10 11  1  0
 10 13  1  0
 11 12  1  0
 14 12  1  6
 12 13  1  0
 14 15  1  0
 14 20  1  0
 15 16  1  0
 16 17  1  0
 17 18  1  0
 17 19  1  0
 17 20  1  0
M  CHG  1  14   1
M  END
>  <minimizedAffinity>  (183) 
-9.46549

$$$$
cs_full_output_folder/data/smiles/7601.pdb
     RDKit          3D

 32 35  0  0  0  0  0  0  0  0999 V2000
   71.3529   46.8462   58.7747 C   0  0  0  0  0  0  0  0  0  0  0  0
   70.4062   47.5552   58.0515 C   0  0  0  0  0  0  0  0  0  0  0  0
   69.5492   46.9785   57.1696 C   0  0  0  0  0  0  0  0  0  0  0  0
   69.6431   45.5901   56.9977 C   0  0  0  0  0  0  0  0  0  0  0  0
   70.5662   44.8383   57.6908 C   0  0  0  0  0  0  0  0  0  0  0  0
   71.4072   45.4880   58.5708 C   0  0  0  0  0  0  0  0  0  0  0  0
   72.3353   44.7552   59.2722 F   0  0  0  0  0  0  0  0  0  0  0  0
   73.8485   50.6010   58.6781 N   0  0  0  0  0  0  0  0  0  0  0  0
   74.0155   49.6563   57.5706 C   0  0  0  0  0  0  0  0  0  0  0  0
   73.9333   48.2270   57.9719 C   0  0  0  0  0  0  0  0  0  0  0  0
   73.4483   48.1348   59.3338 N   0  0  0  0  0  0  0  0  0  0  0  0
   72.2498   47.4926   59.7024 C   0  0  0  0  0  0  0  0  0  0  0  0
   71.9474   47.4891   60.9245 O   0  0  0  0  0  0  0  0  0  0  0  0
   74.3154   48.7728   60.3155 C   0  0  0  0  0  0  0  0  0  0  0  0
   74.3020   50.2083   59.9638 C   0  0  0  0  0  0  0  0  0  0  0  0
   74.6865   51.0800   60.7929 N   0  0  0  0  0  0  0  0  0  0  0  0
   74.0225   52.8983   58.4370 N   0  0  0  0  0  0  0  0  0  0  0  0
   73.2467   51.8798   58.4532 C   0  0  0  0  0  0  0  0  0  0  0  0
   71.7974   52.0903   58.2415 C   0  0  0  0  0  0  0  0  0  0  0  0
   71.1306   50.9909   58.7570 F   0  0  0  0  0  0  0  0  0  0  0  0
   68.5499   47.7216   56.3854 C   0  0  0  0  0  0  0  0  0  0  0  0
   69.0686   47.9533   55.0054 C   0  0  0  0  0  0  0  0  0  0  0  0
   69.9885   48.9474   54.7952 N   0  0  0  0  0  0  0  0  0  0  0  0
   70.4376   49.2207   53.5902 N   0  0  0  0  0  0  0  0  0  0  0  0
   70.0600   48.5854   52.4852 C   0  0  0  0  0  0  0  0  0  0  0  0
   70.5374   48.9064   51.3514 O   0  0  0  0  0  0  0  0  0  0  0  0
   69.1375   47.5709   52.6187 C   0  0  0  0  0  0  0  0  0  0  0  0
   68.7271   46.8705   51.4906 C   0  0  0  0  0  0  0  0  0  0  0  0
   67.8156   45.8429   51.6070 C   0  0  0  0  0  0  0  0  0  0  0  0
   67.3452   45.5515   52.8677 C   0  0  0  0  0  0  0  0  0  0  0  0
   67.7426   46.2387   54.0049 C   0  0  0  0  0  0  0  0  0  0  0  0
   68.6566   47.2729   53.8868 C   0  0  0  0  0  0  0  0  0  0  0  0
 17 18  2  0
 18 19  1  0
 18  8  1  0
 19 20  1  0
  8  9  1  0
  8 15  1  0
  9 10  1  0
 10 11  1  0
 11 12  1  0
 11 14  1  0
 12 13  2  0
 12  1  1  0
  1  2  2  0
  1  6  1  0
  2  3  1  0
  3 21  1  0
  3  4  2  0
 21 22  1  0
 22 23  2  0
 22 32  1  0
 23 24  1  0
 24 25  1  0
 25 26  2  0
 25 27  1  0
 27 28  1  0
 27 32  2  0
 28 29  2  0
 29 30  1  0
 30 31  2  0
 31 32  1  0
  4  5  1  0
  5  6  2  0
  6  7  1  0
 14 15  1  0
 15 16  2  0
M  CHG  2  16   1  17   1
M  END
>  <minimizedAffinity>  (184) 
-9.46435

$$$$
cs_full_output_folder/data/smiles/5901.pdb
     RDKit          3D

 32 36  0  0  0  0  0  0  0  0999 V2000
   71.6001   47.6419   59.1077 C   0  0  0  0  0  0  0  0  0  0  0  0
   71.5620   48.9405   58.6412 C   0  0  0  0  0  0  0  0  0  0  0  0
   70.6727   49.3231   57.6647 C   0  0  0  0  0  0  0  0  0  0  0  0
   69.7619   48.4226   57.0897 C   0  0  0  0  0  0  0  0  0  0  0  0
   69.7955   47.1384   57.5450 C   0  0  0  0  0  0  0  0  0  0  0  0
   70.7064   46.7575   58.5433 C   0  0  0  0  0  0  0  0  0  0  0  0
   70.7153   45.4783   58.9737 F   0  0  0  0  0  0  0  0  0  0  0  0
   72.2729   47.4463   61.3546 O   0  0  0  0  0  0  0  0  0  0  0  0
   72.5349   47.2248   60.1457 C   0  0  0  0  0  0  0  0  0  0  0  0
   73.7537   46.5661   59.8495 N   0  0  0  0  0  0  0  0  0  0  0  0
   74.6890   46.1523   60.8730 C   0  0  0  0  0  0  0  0  0  0  0  0
   74.6512   44.6269   60.9292 C   0  0  0  0  0  0  0  0  0  0  0  0
   74.1961   44.1424   59.6114 N   0  0  0  0  0  0  0  0  0  0  0  0
   73.3159   43.0384   59.5132 C   0  0  0  0  0  0  0  0  0  0  0  0
   72.9287   42.4801   60.5593 O   0  0  0  0  0  0  0  0  0  0  0  0
   74.7232   44.8905   58.4892 C   0  0  0  0  0  0  0  0  0  0  0  0
   74.0819   46.2844   58.4721 C   0  0  0  0  0  0  0  0  0  0  0  0
   72.8349   42.5193   58.2159 C   0  0  0  0  0  0  0  0  0  0  0  0
   71.3689   42.8205   57.8502 C   0  0  0  0  0  0  0  0  0  0  0  0
   71.8326   41.4223   58.1953 C   0  0  0  0  0  0  0  0  0  0  0  0
   68.8793   48.9764   56.0379 C   0  0  0  0  0  0  0  0  0  0  0  0
   69.3573   48.7754   54.6669 C   0  0  0  0  0  0  0  0  0  0  0  0
   70.2707   49.6264   54.1333 N   0  0  0  0  0  0  0  0  0  0  0  0
   70.6866   49.5090   52.8891 N   0  0  0  0  0  0  0  0  0  0  0  0
   70.2405   48.5473   52.0648 C   0  0  0  0  0  0  0  0  0  0  0  0
   70.6569   48.4553   50.8680 O   0  0  0  0  0  0  0  0  0  0  0  0
   69.3095   47.6409   52.5358 C   0  0  0  0  0  0  0  0  0  0  0  0
   68.8540   46.6456   51.7135 C   0  0  0  0  0  0  0  0  0  0  0  0
   67.9362   45.7385   52.1970 C   0  0  0  0  0  0  0  0  0  0  0  0
   67.4805   45.8330   53.5031 C   0  0  0  0  0  0  0  0  0  0  0  0
   67.9693   46.8562   54.2982 C   0  0  0  0  0  0  0  0  0  0  0  0
   68.8790   47.7829   53.8628 C   0  0  0  0  0  0  0  0  0  0  0  0
  8  9  2  0
  9  1  1  0
  9 10  1  0
  1  2  2  0
  1  6  1  0
  2  3  1  0
  3  4  2  0
  4 21  1  0
  4  5  1  0
 21 22  1  0
 22 23  2  0
 22 32  1  0
 23 24  1  0
 24 25  1  0
 25 26  2  0
 25 27  1  0
 27 28  1  0
 27 32  2  0
 28 29  2  0
 29 30  1  0
 30 31  2  0
 31 32  1  0
  5  6  2  0
  6  7  1  0
 10 11  1  0
 10 17  1  0
 11 12  1  0
 12 13  1  0
 13 14  1  0
 13 16  1  0
 14 15  2  0
 14 18  1  0
 18 19  1  0
 18 20  1  0
 19 20  1  0
 16 17  1  0
M  END
>  <minimizedAffinity>  (185) 
-9.46258

$$$$
cs_full_output_folder/data/smiles/1269.pdb
     RDKit          3D

 32 36  0  0  0  0  0  0  0  0999 V2000
   71.2822   48.5321   58.8447 C   0  0  0  0  0  0  0  0  0  0  0  0
   71.3540   49.8846   59.1508 C   0  0  0  0  0  0  0  0  0  0  0  0
   70.4994   50.7273   58.4792 C   0  0  0  0  0  0  0  0  0  0  0  0
   69.6069   50.2241   57.5360 C   0  0  0  0  0  0  0  0  0  0  0  0
   69.5304   48.8912   57.2272 C   0  0  0  0  0  0  0  0  0  0  0  0
   70.4021   48.0376   57.9138 C   0  0  0  0  0  0  0  0  0  0  0  0
   76.1997   47.8626   60.5494 C   0  0  0  0  0  0  0  0  0  0  0  0
   75.7316   47.0709   59.4413 N   0  0  2  0  0  0  0  0  0  0  0  0
   75.6092   47.8280   58.2165 C   0  0  0  0  0  0  0  0  0  0  0  0
   74.1155   47.9939   57.9710 C   0  0  0  0  0  0  0  0  0  0  0  0
   73.4843   47.3516   59.1052 N   0  0  0  0  0  0  0  0  0  0  0  0
   72.1625   47.5927   59.5262 C   0  0  0  0  0  0  0  0  0  0  0  0
   71.7078   46.9843   60.5253 O   0  0  0  0  0  0  0  0  0  0  0  0
   74.4376   46.4556   59.7003 C   0  0  1  0  0  0  0  0  0  0  0  0
   74.4838   45.1253   59.0610 C   0  0  0  0  0  0  0  0  0  0  0  0
   73.4122   44.6281   58.3697 C   0  0  0  0  0  0  0  0  0  0  0  0
   73.4240   43.3852   57.7615 C   0  0  0  0  0  0  0  0  0  0  0  0
   74.5668   42.6200   57.8584 C   0  0  0  0  0  0  0  0  0  0  0  0
   75.6301   43.1320   58.5537 C   0  0  0  0  0  0  0  0  0  0  0  0
   75.5695   44.3408   59.1256 N   0  0  0  0  0  0  0  0  0  0  0  0
   68.6121   48.2914   56.2219 C   0  0  0  0  0  0  0  0  0  0  0  0
   69.1233   48.3712   54.8317 C   0  0  0  0  0  0  0  0  0  0  0  0
   70.0157   49.3620   54.5020 N   0  0  0  0  0  0  0  0  0  0  0  0
   70.4774   49.5199   53.2824 N   0  0  0  0  0  0  0  0  0  0  0  0
   70.1136   48.7253   52.2696 C   0  0  0  0  0  0  0  0  0  0  0  0
   70.5555   48.8773   51.1040 O   0  0  0  0  0  0  0  0  0  0  0  0
   69.2219   47.7069   52.5232 C   0  0  0  0  0  0  0  0  0  0  0  0
   68.8121   46.8427   51.5284 C   0  0  0  0  0  0  0  0  0  0  0  0
   67.9329   45.8180   51.7851 C   0  0  0  0  0  0  0  0  0  0  0  0
   67.4551   45.6584   53.0658 C   0  0  0  0  0  0  0  0  0  0  0  0
   67.8634   46.5196   54.0516 C   0  0  0  0  0  0  0  0  0  0  0  0
   68.7349   47.5410   53.8109 C   0  0  0  0  0  0  0  0  0  0  0  0
  8  7  1  1
  8  9  1  0
  8 14  1  0
  9 10  1  0
 10 11  1  0
 11 12  1  0
 11 14  1  0
 12 13  2  0
 12  1  1  0
  1  2  2  0
  1  6  1  0
  2  3  1  0
  3  4  2  0
  4  5  1  0
  5 21  1  0
  5  6  2  0
 21 22  1  0
 22 23  2  0
 22 32  1  0
 23 24  1  0
 24 25  1  0
 25 26  2  0
 25 27  1  0
 27 28  1  0
 27 32  2  0
 28 29  2  0
 29 30  1  0
 30 31  2  0
 31 32  1  0
 14 15  1  6
 15 16  2  0
 15 20  1  0
 16 17  1  0
 17 18  2  0
 18 19  1  0
 19 20  2  0
M  CHG  1   8   1
M  END
>  <minimizedAffinity>  (186) 
-9.46213

$$$$
cs_full_output_folder/data/smiles/219.pdb
     RDKit          3D

 27 28  0  0  0  0  0  0  0  0999 V2000
   69.9733   49.2056   52.5947 S   0  0  0  0  0  0  0  0  0  0  0  0
   69.9384   49.1155   51.0962 O   0  0  0  0  0  0  0  0  0  0  0  0
   71.4418   49.2414   52.9755 O   0  0  0  0  0  0  0  0  0  0  0  0
   69.2069   47.7654   53.2143 C   0  0  0  0  0  0  0  0  0  0  0  0
   68.5816   46.9190   52.3378 C   0  0  0  0  0  0  0  0  0  0  0  0
   68.5183   47.1140   50.9966 F   0  0  0  0  0  0  0  0  0  0  0  0
   67.9761   45.7786   52.8776 C   0  0  0  0  0  0  0  0  0  0  0  0
   67.3352   44.8924   52.0575 F   0  0  0  0  0  0  0  0  0  0  0  0
   68.0286   45.5582   54.2197 C   0  0  0  0  0  0  0  0  0  0  0  0
   67.4505   44.4553   54.7931 F   0  0  0  0  0  0  0  0  0  0  0  0
   68.6670   46.4282   55.0813 C   0  0  0  0  0  0  0  0  0  0  0  0
   68.7180   46.2071   56.4165 F   0  0  0  0  0  0  0  0  0  0  0  0
   69.2679   47.5532   54.5775 C   0  0  0  0  0  0  0  0  0  0  0  0
   69.9107   48.4446   55.3830 F   0  0  0  0  0  0  0  0  0  0  0  0
   69.1844   50.5897   53.1924 N   0  0  0  0  0  0  0  0  0  0  0  0
   70.9925   53.2081   55.9093 C   0  0  0  0  0  0  0  0  0  0  0  0
   69.6160   53.1211   55.8888 C   0  0  0  0  0  0  0  0  0  0  0  0
   68.9852   52.2545   54.9917 C   0  0  0  0  0  0  0  0  0  0  0  0
   69.7413   51.4895   54.1287 C   0  0  0  0  0  0  0  0  0  0  0  0
   71.1133   51.6020   54.1768 C   0  0  0  0  0  0  0  0  0  0  0  0
   71.7599   52.4483   55.0532 C   0  0  0  0  0  0  0  0  0  0  0  0
   73.1628   52.5562   55.0940 N   0  0  0  0  0  0  0  0  0  0  0  0
   73.9931   51.4295   55.2770 C   0  0  0  0  0  0  0  0  0  0  0  0
   75.4154   51.5153   55.3217 N   0  0  0  0  0  0  0  0  0  0  0  0
   73.4756   50.2877   55.4083 O   0  0  0  0  0  0  0  0  0  0  0  0
   72.2354   53.7062   57.9777 C   0  0  0  0  0  0  0  0  0  0  0  0
   71.5975   54.0536   56.7855 O   0  0  0  0  0  0  0  0  0  0  0  0
 26 27  1  0
 27 16  1  0
 16 17  2  0
 16 21  1  0
 17 18  1  0
 18 19  2  0
 19 15  1  0
 19 20  1  0
 15  1  1  0
  1  2  2  0
  1  3  2  0
  1  4  1  0
  4  5  2  0
  4 13  1  0
  5  6  1  0
  5  7  1  0
  7  8  1  0
  7  9  2  0
  9 10  1  0
  9 11  1  0
 11 12  1  0
 11 13  2  0
 13 14  1  0
 20 21  2  0
 21 22  1  0
 22 23  1  0
 23 24  1  0
 23 25  2  0
M  END
>  <minimizedAffinity>  (187) 
-9.45911

$$$$
cs_full_output_folder/data/smiles/6712.pdb
     RDKit          3D

 32 36  0  0  0  0  0  0  0  0999 V2000
   71.3088   46.5580   58.9336 C   0  0  0  0  0  0  0  0  0  0  0  0
   70.5975   47.4409   58.1638 C   0  0  0  0  0  0  0  0  0  0  0  0
   69.7570   47.0650   57.1257 C   0  0  0  0  0  0  0  0  0  0  0  0
   69.6235   45.7394   56.8459 C   0  0  0  0  0  0  0  0  0  0  0  0
   70.3360   44.8062   57.6112 C   0  0  0  0  0  0  0  0  0  0  0  0
   71.1626   45.2175   58.6357 C   0  0  0  0  0  0  0  0  0  0  0  0
   71.8398   44.2995   59.3617 F   0  0  0  0  0  0  0  0  0  0  0  0
   75.8751   48.6172   59.1557 N   0  0  0  0  0  0  0  0  0  0  0  0
   75.2861   47.9241   58.0445 C   0  0  0  0  0  0  0  0  0  0  0  0
   73.9450   47.3781   58.3585 C   0  0  0  0  0  0  0  0  0  0  0  0
   73.4999   47.4819   59.7095 N   0  0  0  0  0  0  0  0  0  0  0  0
   72.1638   47.0664   59.9998 C   0  0  0  0  0  0  0  0  0  0  0  0
   71.7373   47.1469   61.1897 O   0  0  0  0  0  0  0  0  0  0  0  0
   74.3044   47.9775   60.8060 C   0  0  0  0  0  0  0  0  0  0  0  0
   75.7655   48.0342   60.4643 C   0  0  0  0  0  0  0  0  0  0  0  0
   75.8787   50.9526   59.2103 C   0  0  0  0  0  0  0  0  0  0  0  0
   76.5469   49.8626   58.9077 C   0  0  0  0  0  0  0  0  0  0  0  0
   77.9039   49.9024   58.3478 C   0  0  0  0  0  0  0  0  0  0  0  0
   79.0870   49.4927   59.2041 C   0  0  0  0  0  0  0  0  0  0  0  0
   78.8894   50.9127   58.8089 C   0  0  0  0  0  0  0  0  0  0  0  0
   68.9918   48.0748   56.3500 C   0  0  0  0  0  0  0  0  0  0  0  0
   69.3541   48.2045   54.9518 C   0  0  0  0  0  0  0  0  0  0  0  0
   70.3121   49.1220   54.6090 N   0  0  0  0  0  0  0  0  0  0  0  0
   70.7286   49.2747   53.3642 N   0  0  0  0  0  0  0  0  0  0  0  0
   70.2579   48.5565   52.3415 C   0  0  0  0  0  0  0  0  0  0  0  0
   70.6773   48.7256   51.1595 O   0  0  0  0  0  0  0  0  0  0  0  0
   69.2996   47.6219   52.5983 C   0  0  0  0  0  0  0  0  0  0  0  0
   68.8080   46.8943   51.5520 C   0  0  0  0  0  0  0  0  0  0  0  0
   67.8413   45.9614   51.7698 C   0  0  0  0  0  0  0  0  0  0  0  0
   67.3865   45.7852   53.0746 C   0  0  0  0  0  0  0  0  0  0  0  0
   67.8788   46.5158   54.1326 C   0  0  0  0  0  0  0  0  0  0  0  0
   68.8577   47.4603   53.9187 C   0  0  0  0  0  0  0  0  0  0  0  0
 16 17  2  0
 17 18  1  0
 17  8  1  0
 18 19  1  0
 18 20  1  0
 19 20  1  0
  8  9  1  0
  8 15  1  0
  9 10  1  0
 10 11  1  0
 11 12  1  0
 11 14  1  0
 12 13  2  0
 12  1  1  0
  1  2  2  0
  1  6  1  0
  2  3  1  0
  3 21  1  0
  3  4  2  0
 21 22  1  0
 22 23  2  0
 22 32  1  0
 23 24  1  0
 24 25  1  0
 25 26  2  0
 25 27  1  0
 27 28  1  0
 27 32  2  0
 28 29  2  0
 29 30  1  0
 30 31  2  0
 31 32  1  0
  4  5  1  0
  5  6  2  0
  6  7  1  0
 14 15  1  0
M  END
>  <minimizedAffinity>  (188) 
-9.45898

$$$$
cs_full_output_folder/data/smiles/347.pdb
     RDKit          3D

 31 34  0  0  0  0  0  0  0  0999 V2000
   71.8534   46.8154   58.7517 C   0  0  0  0  0  0  0  0  0  0  0  0
   72.9246   47.6608   58.7739 C   0  0  0  0  0  0  0  0  0  0  0  0
   72.8902   48.8339   58.0494 C   0  0  0  0  0  0  0  0  0  0  0  0
   71.7804   49.1377   57.3152 C   0  0  0  0  0  0  0  0  0  0  0  0
   70.6380   48.3097   57.2441 C   0  0  0  0  0  0  0  0  0  0  0  0
   70.7436   47.1714   57.9842 C   0  0  0  0  0  0  0  0  0  0  0  0
   70.3261   42.1206   58.6749 N   0  0  0  0  0  0  0  0  0  0  0  0
   70.4920   42.5944   59.9994 C   0  0  0  0  0  0  0  0  0  0  0  0
   71.8253   43.2482   60.2308 C   0  0  0  0  0  0  0  0  0  0  0  0
   71.9140   44.2762   59.1655 N   0  0  0  0  0  0  0  0  0  0  0  0
   71.8223   45.6030   59.5242 C   0  0  0  0  0  0  0  0  0  0  0  0
   71.6792   45.8256   60.8088 O   0  0  0  0  0  0  0  0  0  0  0  0
   72.0894   43.6960   57.8674 C   0  0  0  0  0  0  0  0  0  0  0  0
   71.3059   42.4582   57.7256 C   0  0  0  0  0  0  0  0  0  0  0  0
   68.7207   42.1414   58.1536 S   0  0  0  0  0  0  0  0  0  0  0  0
   67.7913   42.4506   59.2856 O   0  0  0  0  0  0  0  0  0  0  0  0
   68.5714   43.2907   57.1516 O   0  0  0  0  0  0  0  0  0  0  0  0
   68.3769   39.4518   58.1131 C   0  0  0  0  0  0  0  0  0  0  0  0
   68.2089   40.6979   57.2680 C   0  0  0  0  0  0  0  0  0  0  0  0
   69.4745   48.7170   56.4138 C   0  0  0  0  0  0  0  0  0  0  0  0
   69.6936   48.6470   54.9807 C   0  0  0  0  0  0  0  0  0  0  0  0
   70.4952   49.5869   54.3937 N   0  0  0  0  0  0  0  0  0  0  0  0
   70.6931   49.6283   53.0948 N   0  0  0  0  0  0  0  0  0  0  0  0
   70.1324   48.7633   52.2349 C   0  0  0  0  0  0  0  0  0  0  0  0
   70.3625   48.8560   50.9947 O   0  0  0  0  0  0  0  0  0  0  0  0
   69.3062   47.7750   52.7304 C   0  0  0  0  0  0  0  0  0  0  0  0
   68.7360   46.8517   51.8734 C   0  0  0  0  0  0  0  0  0  0  0  0
   67.9437   45.8659   52.4036 C   0  0  0  0  0  0  0  0  0  0  0  0
   67.7517   45.8416   53.7907 C   0  0  0  0  0  0  0  0  0  0  0  0
   68.3278   46.7680   54.6315 C   0  0  0  0  0  0  0  0  0  0  0  0
   69.1134   47.7517   54.1076 C   0  0  0  0  0  0  0  0  0  0  0  0
 18 19  1  0
 19 15  1  0
 15 16  2  0
 15 17  2  0
 15  7  1  0
  7  8  1  0
  7 14  1  0
  8  9  1  0
  9 10  1  0
 10 11  1  0
 10 13  1  0
 11 12  2  0
 11  1  1  0
  1  2  2  0
  1  6  1  0
  2  3  1  0
  3  4  2  0
  4  5  1  0
  5 20  1  0
  5  6  2  0
 20 21  1  0
 21 22  2  0
 21 31  1  0
 22 23  1  0
 23 24  1  0
 24 25  2  0
 24 26  1  0
 26 27  1  0
 26 31  2  0
 27 28  2  0
 28 29  1  0
 29 30  2  0
 30 31  1  0
 13 14  1  0
M  END
>  <minimizedAffinity>  (189) 
-9.45677

$$$$
cs_full_output_folder/data/smiles/4872.pdb
     RDKit          3D

 29 31  0  0  0  0  0  0  0  0999 V2000
   69.3716   48.0861   53.0760 C   0  0  0  0  0  0  0  0  0  0  0  0
   68.7782   47.6805   51.8997 C   0  0  0  0  0  0  0  0  0  0  0  0
   68.0297   46.4960   51.8879 C   0  0  0  0  0  0  0  0  0  0  0  0
   67.8852   45.7445   53.0335 C   0  0  0  0  0  0  0  0  0  0  0  0
   68.4699   46.1356   54.2120 C   0  0  0  0  0  0  0  0  0  0  0  0
   69.2008   47.3010   54.2047 C   0  0  0  0  0  0  0  0  0  0  0  0
   70.3245   49.5647   53.1555 S   0  0  0  0  0  0  0  0  0  0  0  0
   69.8694   50.4504   52.0049 O   0  0  0  0  0  0  0  0  0  0  0  0
   71.7421   49.1863   52.8356 O   0  0  0  0  0  0  0  0  0  0  0  0
   71.0698   49.4198   56.6126 C   0  0  0  0  0  0  0  0  0  0  0  0
   69.8363   49.7173   55.7573 C   0  0  1  0  0  0  0  0  0  0  0  0
   68.8810   50.4578   56.6451 C   0  0  0  0  0  0  0  0  0  0  0  0
   67.9097   51.3318   55.9460 C   0  0  0  0  0  0  0  0  0  0  0  0
   68.3950   52.0085   54.7173 C   0  0  0  0  0  0  0  0  0  0  0  0
   69.8802   51.7869   54.5165 C   0  0  0  0  0  0  0  0  0  0  0  0
   70.1471   50.4160   54.5799 N   0  0  0  0  0  0  0  0  0  0  0  0
   68.3396   45.3682   55.4485 C   0  0  0  0  0  0  0  0  0  0  0  0
   68.5300   45.9262   56.5540 O   0  0  0  0  0  0  0  0  0  0  0  0
   68.0033   43.9906   55.4869 N   0  0  0  0  0  0  0  0  0  0  0  0
   67.8847   43.2738   56.7114 N   0  0  0  0  0  0  0  0  0  0  0  0
   67.4564   41.9331   56.7550 C   0  0  0  0  0  0  0  0  0  0  0  0
   67.1918   41.4451   55.5889 O   0  0  0  0  0  0  0  0  0  0  0  0
   67.2866   41.0775   57.8988 C   0  0  0  0  0  0  0  0  0  0  0  0
   66.5801   41.5194   59.0054 C   0  0  0  0  0  0  0  0  0  0  0  0
   66.3951   40.7358   60.1206 C   0  0  0  0  0  0  0  0  0  0  0  0
   66.9097   39.4596   60.1886 C   0  0  0  0  0  0  0  0  0  0  0  0
   67.6121   39.0045   59.1024 C   0  0  0  0  0  0  0  0  0  0  0  0
   67.7935   39.8175   57.9676 C   0  0  0  0  0  0  0  0  0  0  0  0
   68.5037   39.2771   56.9388 F   0  0  0  0  0  0  0  0  0  0  0  0
 11 10  1  1
 11 12  1  0
 11 16  1  0
 12 13  1  0
 13 14  1  0
 14 15  1  0
 15 16  1  0
 16  7  1  0
  7  8  2  0
  7  9  2  0
  7  1  1  0
  1  2  2  0
  1  6  1  0
  2  3  1  0
  3  4  2  0
  4  5  1  0
  5 17  1  0
  5  6  2  0
 17 18  2  0
 17 19  1  0
 19 20  1  0
 20 21  1  0
 21 22  2  0
 21 23  1  0
 23 24  2  0
 23 28  1  0
 24 25  1  0
 25 26  2  0
 26 27  1  0
 27 28  2  0
 28 29  1  0
M  END
>  <minimizedAffinity>  (190) 
-9.45322

$$$$
cs_full_output_folder/data/smiles/88.pdb
     RDKit          3D

 28 29  0  0  0  0  0  0  0  0999 V2000
   70.5983   45.2443   58.4544 C   0  0  0  0  0  0  0  0  0  0  0  0
   71.7239   46.2119   59.2797 S   0  0  0  0  0  0  0  0  0  0  0  0
   70.0535   42.7734   58.2587 C   0  0  0  0  0  0  0  0  0  0  0  0
   68.8756   42.9770   57.8869 O   0  0  0  0  0  0  0  0  0  0  0  0
   70.8867   43.8762   58.5370 N   0  0  0  0  0  0  0  0  0  0  0  0
   71.4906   38.7359   58.6486 C   0  0  0  0  0  0  0  0  0  0  0  0
   70.1693   38.9918   58.4387 C   0  0  0  0  0  0  0  0  0  0  0  0
   69.6652   40.2982   58.3068 C   0  0  0  0  0  0  0  0  0  0  0  0
   70.5031   41.3746   58.3859 C   0  0  0  0  0  0  0  0  0  0  0  0
   71.8601   41.1089   58.6019 C   0  0  0  0  0  0  0  0  0  0  0  0
   72.3497   39.8281   58.7312 C   0  0  0  0  0  0  0  0  0  0  0  0
   71.0617   36.4968   59.5199 C   0  0  0  0  0  0  0  0  0  0  0  0
   72.0566   37.3747   58.7930 C   0  0  0  0  0  0  0  0  0  0  0  0
   73.3338   37.4195   59.6047 C   0  0  0  0  0  0  0  0  0  0  0  0
   72.3127   36.7248   57.4490 C   0  0  0  0  0  0  0  0  0  0  0  0
   69.6239   45.9735   57.8267 N   0  0  0  0  0  0  0  0  0  0  0  0
   69.6023   46.4983   56.5536 N   0  0  0  0  0  0  0  0  0  0  0  0
   68.7587   45.8956   55.5513 C   0  0  0  0  0  0  0  0  0  0  0  0
   68.0743   44.8932   55.9306 O   0  0  0  0  0  0  0  0  0  0  0  0
   68.6708   46.3780   54.1864 C   0  0  0  0  0  0  0  0  0  0  0  0
   67.9227   45.6685   53.2908 C   0  0  0  0  0  0  0  0  0  0  0  0
   67.8074   46.0832   51.9789 C   0  0  0  0  0  0  0  0  0  0  0  0
   68.4561   47.2231   51.5799 C   0  0  0  0  0  0  0  0  0  0  0  0
   69.2184   47.9653   52.4479 C   0  0  0  0  0  0  0  0  0  0  0  0
   69.3094   47.5119   53.7656 C   0  0  0  0  0  0  0  0  0  0  0  0
   69.8904   49.1413   52.0442 N   0  0  0  0  0  0  0  0  0  0  0  0
   69.9969   49.4768   50.8663 O   0  0  0  0  0  0  0  0  0  0  0  0
   70.4492   49.9480   53.0168 O   0  0  0  0  0  0  0  0  0  0  0  0
 12 13  1  0
 13 14  1  0
 13 15  1  0
 13  6  1  0
  6  7  2  0
  6 11  1  0
  7  8  1  0
  8  9  2  0
  9  3  1  0
  9 10  1  0
  3  4  2  0
  3  5  1  0
  5  1  1  0
  1  2  2  0
  1 16  1  0
 16 17  1  0
 17 18  1  0
 18 19  2  0
 18 20  1  0
 20 21  2  0
 20 25  1  0
 21 22  1  0
 22 23  2  0
 23 24  1  0
 24 26  1  0
 24 25  2  0
 26 27  2  0
 26 28  1  0
 10 11  2  0
M  CHG  2  26   1  28  -1
M  END
>  <minimizedAffinity>  (191) 
-9.45023

$$$$
cs_full_output_folder/data/smiles/3017.pdb
     RDKit          3D

 27 28  0  0  0  0  0  0  0  0999 V2000
   69.9592   49.2542   52.5686 S   0  0  0  0  0  0  0  0  0  0  0  0
   71.4085   49.2495   53.0351 O   0  0  0  0  0  0  0  0  0  0  0  0
   70.0378   49.1153   51.0609 O   0  0  0  0  0  0  0  0  0  0  0  0
   69.2064   47.8023   53.1702 C   0  0  0  0  0  0  0  0  0  0  0  0
   68.5688   46.9012   52.3507 C   0  0  0  0  0  0  0  0  0  0  0  0
   68.4890   47.0868   51.0111 F   0  0  0  0  0  0  0  0  0  0  0  0
   67.9906   45.7670   52.9072 C   0  0  0  0  0  0  0  0  0  0  0  0
   67.3474   44.8399   52.1589 F   0  0  0  0  0  0  0  0  0  0  0  0
   68.0466   45.5289   54.2780 C   0  0  0  0  0  0  0  0  0  0  0  0
   67.4861   44.4273   54.8274 F   0  0  0  0  0  0  0  0  0  0  0  0
   68.6810   46.4268   55.0868 C   0  0  0  0  0  0  0  0  0  0  0  0
   68.7390   46.2014   56.4119 F   0  0  0  0  0  0  0  0  0  0  0  0
   69.2589   47.5603   54.5262 C   0  0  0  0  0  0  0  0  0  0  0  0
   69.8724   48.4106   55.3785 F   0  0  0  0  0  0  0  0  0  0  0  0
   69.1953   50.6892   53.0628 N   0  0  0  0  0  0  0  0  0  0  0  0
   71.0928   53.1723   55.8835 C   0  0  0  0  0  0  0  0  0  0  0  0
   69.6957   53.1137   55.8162 C   0  0  0  0  0  0  0  0  0  0  0  0
   69.0652   52.3057   54.8985 C   0  0  0  0  0  0  0  0  0  0  0  0
   69.8265   51.5432   54.0330 C   0  0  0  0  0  0  0  0  0  0  0  0
   71.2002   51.6252   54.1271 C   0  0  0  0  0  0  0  0  0  0  0  0
   71.8711   52.4196   55.0294 C   0  0  0  0  0  0  0  0  0  0  0  0
   73.2906   52.4609   55.0760 N   0  0  0  0  0  0  0  0  0  0  0  0
   74.0643   51.3031   55.3147 C   0  0  0  0  0  0  0  0  0  0  0  0
   75.4850   51.2980   55.3703 N   0  0  0  0  0  0  0  0  0  0  0  0
   73.4527   50.2215   55.4865 O   0  0  0  0  0  0  0  0  0  0  0  0
   72.2150   53.4430   58.0176 C   0  0  0  0  0  0  0  0  0  0  0  0
   71.7050   53.9927   56.8150 O   0  0  0  0  0  0  0  0  0  0  0  0
 26 27  1  0
 27 16  1  0
 16 17  2  0
 16 21  1  0
 17 18  1  0
 18 19  2  0
 19 15  1  0
 19 20  1  0
 15  1  1  0
  1  2  2  0
  1  3  2  0
  1  4  1  0
  4  5  2  0
  4 13  1  0
  5  6  1  0
  5  7  1  0
  7  8  1  0
  7  9  2  0
  9 10  1  0
  9 11  1  0
 11 12  1  0
 11 13  2  0
 13 14  1  0
 20 21  2  0
 21 22  1  0
 22 23  1  0
 23 24  1  0
 23 25  2  0
M  END
>  <minimizedAffinity>  (192) 
-9.44952

$$$$
cs_full_output_folder/data/smiles/8806.pdb
     RDKit          3D

 29 33  0  0  0  0  0  0  0  0999 V2000
   69.7928   47.2372   57.1282 C   0  0  0  0  0  0  0  0  0  0  0  0
   70.7722   47.8243   57.9489 C   0  0  0  0  0  0  0  0  0  0  0  0
   71.5810   47.0723   58.7372 C   0  0  0  0  0  0  0  0  0  0  0  0
   71.4380   45.7018   58.7322 C   0  0  0  0  0  0  0  0  0  0  0  0
   72.2365   44.9476   59.5103 F   0  0  0  0  0  0  0  0  0  0  0  0
   70.4979   45.0681   57.9503 C   0  0  0  0  0  0  0  0  0  0  0  0
   69.6957   45.8826   57.1618 C   0  0  0  0  0  0  0  0  0  0  0  0
   70.3482   43.2938   57.9685 P   0  0  0  0  0  0  0  0  0  0  0  0
   69.3064   42.9262   56.9039 O   0  0  0  0  0  0  0  0  0  0  0  0
   71.9164   42.4944   57.5521 C   0  0  0  0  0  0  0  0  0  0  0  0
   72.2544   41.4813   58.6230 C   0  0  0  0  0  0  0  0  0  0  0  0
   71.0681   40.7805   58.9848 N   0  0  0  0  0  0  0  0  0  0  0  0
   70.4144   41.5002   60.0619 C   0  0  0  0  0  0  0  0  0  0  0  0
   69.6662   42.7084   59.5431 C   0  0  0  0  0  0  0  0  0  0  0  0
   71.2099   39.3892   59.2587 C   0  0  0  0  0  0  0  0  0  0  0  0
   71.5371   38.3853   58.2529 C   0  0  0  0  0  0  0  0  0  0  0  0
   70.1030   38.4496   58.8242 C   0  0  0  0  0  0  0  0  0  0  0  0
   69.0124   48.1816   56.3191 C   0  0  0  0  0  0  0  0  0  0  0  0
   70.6139   48.6746   51.0722 O   0  0  0  0  0  0  0  0  0  0  0  0
   70.2740   48.5706   52.2786 C   0  0  0  0  0  0  0  0  0  0  0  0
   70.7907   49.2966   53.2798 N   0  0  0  0  0  0  0  0  0  0  0  0
   70.4098   49.1599   54.5313 N   0  0  0  0  0  0  0  0  0  0  0  0
   69.4517   48.2610   54.9055 C   0  0  0  0  0  0  0  0  0  0  0  0
   68.9080   47.5019   53.8960 C   0  0  0  0  0  0  0  0  0  0  0  0
   67.9496   46.5508   54.1774 C   0  0  0  0  0  0  0  0  0  0  0  0
   67.4161   45.7828   53.1656 C   0  0  0  0  0  0  0  0  0  0  0  0
   67.7968   45.9122   51.8531 C   0  0  0  0  0  0  0  0  0  0  0  0
   68.7513   46.8487   51.5494 C   0  0  0  0  0  0  0  0  0  0  0  0
   69.2902   47.6246   52.5639 C   0  0  0  0  0  0  0  0  0  0  0  0
 19 20  2  0
 20 21  1  0
 20 29  1  0
 21 22  1  0
 22 23  2  0
 23 18  1  0
 23 24  1  0
 18  1  1  0
  1  2  2  0
  1  7  1  0
  2  3  1  0
  3  4  2  0
  4  5  1  0
  4  6  1  0
  6  8  1  0
  6  7  2  0
  8  9  2  0
  8 10  1  0
  8 14  1  0
 10 11  1  0
 11 12  1  0
 12 15  1  0
 12 13  1  0
 15 16  1  0
 15 17  1  0
 16 17  1  0
 13 14  1  0
 24 25  1  0
 24 29  2  0
 25 26  2  0
 26 27  1  0
 27 28  2  0
 28 29  1  0
M  CHG  1  12   1
M  END
>  <minimizedAffinity>  (193) 
-9.44768

$$$$
cs_full_output_folder/data/smiles/8529.pdb
     RDKit          3D

 30 34  0  0  0  0  0  0  0  0999 V2000
   71.5551   47.3053   58.9071 C   0  0  0  0  0  0  0  0  0  0  0  0
   70.6822   48.0537   58.1008 C   0  0  0  0  0  0  0  0  0  0  0  0
   69.8480   47.4360   57.2019 C   0  0  0  0  0  0  0  0  0  0  0  0
   69.8531   46.0384   57.0717 C   0  0  0  0  0  0  0  0  0  0  0  0
   70.7014   45.2945   57.8549 C   0  0  0  0  0  0  0  0  0  0  0  0
   71.5276   45.9432   58.7492 C   0  0  0  0  0  0  0  0  0  0  0  0
   72.3562   45.1683   59.5087 F   0  0  0  0  0  0  0  0  0  0  0  0
   72.1366   47.7819   61.0918 O   0  0  0  0  0  0  0  0  0  0  0  0
   72.4324   47.9795   59.8634 C   0  0  0  0  0  0  0  0  0  0  0  0
   73.5178   48.7847   59.4820 N   0  0  0  0  0  0  0  0  0  0  0  0
   74.2009   49.2682   58.2635 C   0  0  0  0  0  0  0  0  0  0  0  0
   75.4692   49.0635   59.0670 C   0  0  0  0  0  0  0  0  0  0  0  0
   74.5309   49.5561   60.1801 C   0  0  0  0  0  0  0  0  0  0  0  0
   76.5516   50.0166   58.7807 C   0  0  0  0  0  0  0  0  0  0  0  0
   77.8208   49.5320   58.4013 N   0  0  0  0  0  0  0  0  0  0  0  0
   78.2128   49.4124   57.0505 C   0  0  0  0  0  0  0  0  0  0  0  0
   78.5580   50.8930   57.0352 C   0  0  0  0  0  0  0  0  0  0  0  0
   78.8173   50.6240   58.5191 C   0  0  0  0  0  0  0  0  0  0  0  0
   68.9349   48.2474   56.3601 C   0  0  0  0  0  0  0  0  0  0  0  0
   69.3771   48.3416   54.9651 C   0  0  0  0  0  0  0  0  0  0  0  0
   70.3300   49.2478   54.6226 N   0  0  0  0  0  0  0  0  0  0  0  0
   70.7737   49.3667   53.3848 N   0  0  0  0  0  0  0  0  0  0  0  0
   70.3026   48.5966   52.4096 C   0  0  0  0  0  0  0  0  0  0  0  0
   70.7037   48.6770   51.1985 O   0  0  0  0  0  0  0  0  0  0  0  0
   69.3353   47.6485   52.6529 C   0  0  0  0  0  0  0  0  0  0  0  0
   68.8388   46.8506   51.6433 C   0  0  0  0  0  0  0  0  0  0  0  0
   67.8714   45.9297   51.9505 C   0  0  0  0  0  0  0  0  0  0  0  0
   67.4148   45.8137   53.2431 C   0  0  0  0  0  0  0  0  0  0  0  0
   67.9089   46.6064   54.2466 C   0  0  0  0  0  0  0  0  0  0  0  0
   68.8792   47.5399   53.9734 C   0  0  0  0  0  0  0  0  0  0  0  0
  8  9  2  0
  9  1  1  0
  9 10  1  0
  1  2  2  0
  1  6  1  0
  2  3  1  0
  3 19  1  0
  3  4  2  0
 19 20  1  0
 20 21  2  0
 20 30  1  0
 21 22  1  0
 22 23  1  0
 23 24  2  0
 23 25  1  0
 25 26  1  0
 25 30  2  0
 26 27  2  0
 27 28  1  0
 28 29  2  0
 29 30  1  0
  4  5  1  0
  5  6  2  0
  6  7  1  0
 10 11  1  0
 10 13  1  0
 11 12  1  0
 12 14  1  0
 12 13  1  0
 14 15  1  0
 15 16  1  0
 15 18  1  0
 16 17  1  0
 17 18  1  0
M  CHG  1  15   1
M  END
>  <minimizedAffinity>  (194) 
-9.44427

$$$$
cs_full_output_folder/data/smiles/5571.pdb
     RDKit          3D

 33 37  0  0  0  0  0  0  0  0999 V2000
   72.3179   47.9625   58.5107 C   0  0  0  0  0  0  0  0  0  0  0  0
   73.5617   48.5419   58.3522 C   0  0  0  0  0  0  0  0  0  0  0  0
   73.7956   49.5365   57.4292 C   0  0  0  0  0  0  0  0  0  0  0  0
   72.7520   49.9564   56.6466 C   0  0  0  0  0  0  0  0  0  0  0  0
   71.4630   49.4147   56.7519 C   0  0  0  0  0  0  0  0  0  0  0  0
   71.3022   48.4294   57.6927 C   0  0  0  0  0  0  0  0  0  0  0  0
   71.4057   47.2071   60.4923 O   0  0  0  0  0  0  0  0  0  0  0  0
   72.1155   46.9175   59.5019 C   0  0  0  0  0  0  0  0  0  0  0  0
   72.6637   45.6190   59.4112 N   0  0  0  0  0  0  0  0  0  0  0  0
   73.5015   45.1990   58.2865 C   0  0  0  0  0  0  0  0  0  0  0  0
   73.0502   43.8530   57.7462 C   0  0  0  0  0  0  0  0  0  0  0  0
   71.8992   43.3611   58.4999 N   0  0  0  0  0  0  0  0  0  0  0  0
   72.1234   43.2927   59.9511 C   0  0  0  0  0  0  0  0  0  0  0  0
   72.3912   44.6688   60.4659 C   0  0  0  0  0  0  0  0  0  0  0  0
   70.6768   42.9640   57.9184 C   0  0  0  0  0  0  0  0  0  0  0  0
   69.9041   43.8182   57.1443 C   0  0  0  0  0  0  0  0  0  0  0  0
   68.7015   43.4318   56.5925 C   0  0  0  0  0  0  0  0  0  0  0  0
   68.2145   42.1698   56.7892 C   0  0  0  0  0  0  0  0  0  0  0  0
   67.0258   41.7971   56.2404 F   0  0  0  0  0  0  0  0  0  0  0  0
   68.9661   41.3034   57.5555 C   0  0  0  0  0  0  0  0  0  0  0  0
   70.1658   41.7017   58.1017 C   0  0  0  0  0  0  0  0  0  0  0  0
   70.3717   49.9485   55.8772 C   0  0  0  0  0  0  0  0  0  0  0  0
   70.2200   49.2383   54.6100 C   0  0  0  0  0  0  0  0  0  0  0  0
   70.9650   49.6586   53.5436 N   0  0  0  0  0  0  0  0  0  0  0  0
   70.9470   49.0838   52.3659 N   0  0  0  0  0  0  0  0  0  0  0  0
   70.1783   48.0139   52.1149 C   0  0  0  0  0  0  0  0  0  0  0  0
   70.1698   47.4719   50.9864 O   0  0  0  0  0  0  0  0  0  0  0  0
   69.3998   47.5432   53.1587 C   0  0  0  0  0  0  0  0  0  0  0  0
   68.5796   46.4525   52.9639 C   0  0  0  0  0  0  0  0  0  0  0  0
   67.7917   45.9771   53.9889 C   0  0  0  0  0  0  0  0  0  0  0  0
   67.8157   46.5997   55.2444 C   0  0  0  0  0  0  0  0  0  0  0  0
   68.6270   47.6876   55.4576 C   0  0  0  0  0  0  0  0  0  0  0  0
   69.4136   48.1563   54.4248 C   0  0  0  0  0  0  0  0  0  0  0  0
  7  8  2  0
  8  1  1  0
  8  9  1  0
  1  2  2  0
  1  6  1  0
  2  3  1  0
  3  4  2  0
  4  5  1  0
  5 22  1  0
  5  6  2  0
 22 23  1  0
 23 24  2  0
 23 33  1  0
 24 25  1  0
 25 26  1  0
 26 27  2  0
 26 28  1  0
 28 29  1  0
 28 33  2  0
 29 30  2  0
 30 31  1  0
 31 32  2  0
 32 33  1  0
  9 10  1  0
  9 14  1  0
 10 11  1  0
 11 12  1  0
 12 15  1  0
 12 13  1  0
 15 16  2  0
 15 21  1  0
 16 17  1  0
 17 18  2  0
 18 19  1  0
 18 20  1  0
 20 21  2  0
 13 14  1  0
M  END
>  <minimizedAffinity>  (195) 
-9.43542

$$$$
cs_full_output_folder/data/smiles/8702.pdb
     RDKit          3D

 30 34  0  0  0  0  0  0  0  0999 V2000
   69.8619   47.4167   57.0489 C   0  0  0  0  0  0  0  0  0  0  0  0
   70.9442   48.0420   57.6958 C   0  0  0  0  0  0  0  0  0  0  0  0
   71.8109   47.2662   58.4275 C   0  0  0  0  0  0  0  0  0  0  0  0
   71.6530   45.8843   58.5502 C   0  0  0  0  0  0  0  0  0  0  0  0
   72.5095   45.1327   59.2714 F   0  0  0  0  0  0  0  0  0  0  0  0
   70.5981   45.2607   57.9216 C   0  0  0  0  0  0  0  0  0  0  0  0
   69.7322   46.0692   57.1843 C   0  0  0  0  0  0  0  0  0  0  0  0
   70.3758   43.4949   58.0651 P   0  0  0  0  0  0  0  0  0  0  0  0
   71.6129   42.7978   57.5530 O   0  0  0  0  0  0  0  0  0  0  0  0
   69.9538   42.9953   59.7379 C   0  0  0  0  0  0  0  0  0  0  0  0
   69.4441   41.5893   59.7111 C   0  0  0  0  0  0  0  0  0  0  0  0
   69.2329   41.0258   58.4462 N   0  0  0  0  0  0  0  0  0  0  0  0
   68.4515   41.7089   57.5058 C   0  0  0  0  0  0  0  0  0  0  0  0
   68.9977   42.9981   56.9787 C   0  0  0  0  0  0  0  0  0  0  0  0
   69.8293   39.8016   58.1340 C   0  0  0  0  0  0  0  0  0  0  0  0
   71.2593   39.5786   58.6503 C   0  0  0  0  0  0  0  0  0  0  0  0
   70.8843   38.0920   58.7250 C   0  0  0  0  0  0  0  0  0  0  0  0
   69.4467   38.5902   58.9365 C   0  0  0  0  0  0  0  0  0  0  0  0
   68.9196   48.2802   56.2890 C   0  0  0  0  0  0  0  0  0  0  0  0
   70.5913   48.7863   51.0880 O   0  0  0  0  0  0  0  0  0  0  0  0
   70.1827   48.6598   52.2826 C   0  0  0  0  0  0  0  0  0  0  0  0
   70.6068   49.4615   53.2659 N   0  0  0  0  0  0  0  0  0  0  0  0
   70.2005   49.3509   54.5071 N   0  0  0  0  0  0  0  0  0  0  0  0
   69.3036   48.3907   54.8675 C   0  0  0  0  0  0  0  0  0  0  0  0
   68.8389   47.5476   53.8968 C   0  0  0  0  0  0  0  0  0  0  0  0
   67.9154   46.5659   54.2064 C   0  0  0  0  0  0  0  0  0  0  0  0
   67.4198   45.7023   53.2281 C   0  0  0  0  0  0  0  0  0  0  0  0
   67.8768   45.8544   51.9403 C   0  0  0  0  0  0  0  0  0  0  0  0
   68.7927   46.8191   51.5967 C   0  0  0  0  0  0  0  0  0  0  0  0
   69.2765   47.6702   52.5749 C   0  0  0  0  0  0  0  0  0  0  0  0
 20 21  2  0
 21 22  1  0
 21 30  1  0
 22 23  1  0
 23 24  2  0
 24 19  1  0
 24 25  1  0
 19  1  1  0
  1  2  2  0
  1  7  1  0
  2  3  1  0
  3  4  2  0
  4  5  1  0
  4  6  1  0
  6  8  1  0
  6  7  2  0
  8  9  2  0
  8 10  1  0
  8 14  1  0
 10 11  1  0
 11 12  1  0
 12 15  1  0
 12 13  1  0
 15 16  1  0
 15 18  1  0
 16 17  1  0
 17 18  1  0
 13 14  1  0
 25 26  1  0
 25 30  2  0
 26 27  2  0
 27 28  1  0
 28 29  2  0
 29 30  1  0
M  CHG  1  12   1
M  END
>  <minimizedAffinity>  (196) 
-9.43532

$$$$
cs_full_output_folder/data/smiles/1115.pdb
     RDKit          3D

 31 35  0  0  0  0  0  0  0  0999 V2000
   71.2238   46.8905   58.8587 C   0  0  0  0  0  0  0  0  0  0  0  0
   70.4276   47.6798   58.0658 C   0  0  0  0  0  0  0  0  0  0  0  0
   69.6129   47.1830   57.0483 C   0  0  0  0  0  0  0  0  0  0  0  0
   69.6465   45.8188   56.8707 C   0  0  0  0  0  0  0  0  0  0  0  0
   70.4286   44.9668   57.6389 C   0  0  0  0  0  0  0  0  0  0  0  0
   71.2176   45.5261   58.6356 C   0  0  0  0  0  0  0  0  0  0  0  0
   71.9881   44.7516   59.4041 F   0  0  0  0  0  0  0  0  0  0  0  0
   71.8759   47.2307   61.1027 O   0  0  0  0  0  0  0  0  0  0  0  0
   72.0293   47.5173   59.8940 C   0  0  0  0  0  0  0  0  0  0  0  0
   72.9914   48.4633   59.4709 N   0  0  0  0  0  0  0  0  0  0  0  0
   73.8161   49.1132   60.4672 C   0  0  0  0  0  0  0  0  0  0  0  0
   74.7963   49.9921   59.6801 C   0  0  0  0  0  0  0  0  0  0  0  0
   74.0677   50.9377   58.7737 C   0  0  0  0  0  0  0  0  0  0  0  0
   73.1766   50.2755   57.8793 N   0  0  2  0  0  0  0  0  0  0  0  0
   73.2344   48.8481   58.0992 C   0  0  0  0  0  0  0  0  0  0  0  0
   73.5935   50.4758   56.4895 C   0  0  0  0  0  0  0  0  0  0  0  0
   73.2404   51.8242   55.9600 C   0  0  0  0  0  0  0  0  0  0  0  0
   72.4636   52.0501   54.7338 C   0  0  0  0  0  0  0  0  0  0  0  0
   73.9676   52.2683   54.6627 C   0  0  0  0  0  0  0  0  0  0  0  0
   68.8125   48.1308   56.2341 C   0  0  0  0  0  0  0  0  0  0  0  0
   69.2840   48.2729   54.8377 C   0  0  0  0  0  0  0  0  0  0  0  0
   70.1940   49.2018   54.4843 N   0  0  0  0  0  0  0  0  0  0  0  0
   70.6209   49.3896   53.2675 N   0  0  0  0  0  0  0  0  0  0  0  0
   70.1652   48.6479   52.2695 C   0  0  0  0  0  0  0  0  0  0  0  0
   70.5691   48.8165   51.0689 O   0  0  0  0  0  0  0  0  0  0  0  0
   69.2300   47.6702   52.5320 C   0  0  0  0  0  0  0  0  0  0  0  0
   68.7648   46.8968   51.4940 C   0  0  0  0  0  0  0  0  0  0  0  0
   67.8441   45.9094   51.7099 C   0  0  0  0  0  0  0  0  0  0  0  0
   67.3880   45.7000   52.9845 C   0  0  0  0  0  0  0  0  0  0  0  0
   67.8696   46.4904   54.0180 C   0  0  0  0  0  0  0  0  0  0  0  0
   68.7821   47.4801   53.8446 C   0  0  0  0  0  0  0  0  0  0  0  0
  8  9  2  0
  9  1  1  0
  9 10  1  0
  1  2  2  0
  1  6  1  0
  2  3  1  0
  3 20  1  0
  3  4  2  0
 20 21  1  0
 21 22  2  0
 21 31  1  0
 22 23  1  0
 23 24  1  0
 24 25  2  0
 24 26  1  0
 26 27  1  0
 26 31  2  0
 27 28  2  0
 28 29  1  0
 29 30  2  0
 30 31  1  0
  4  5  1  0
  5  6  2  0
  6  7  1  0
 10 11  1  0
 10 15  1  0
 11 12  1  0
 12 13  1  0
 13 14  1  0
 14 16  1  6
 14 15  1  0
 16 17  1  0
 17 18  1  0
 17 19  1  0
 18 19  1  0
M  CHG  1  14   1
M  END
>  <minimizedAffinity>  (197) 
-9.43367

$$$$
cs_full_output_folder/data/smiles/8490.pdb
     RDKit          3D

 31 35  0  0  0  0  0  0  0  0999 V2000
   70.7318   46.3446   58.4769 C   0  0  0  0  0  0  0  0  0  0  0  0
   69.8786   46.8674   57.5363 C   0  0  0  0  0  0  0  0  0  0  0  0
   69.7727   48.2436   57.2749 C   0  0  0  0  0  0  0  0  0  0  0  0
   70.5770   49.0586   58.0181 C   0  0  0  0  0  0  0  0  0  0  0  0
   71.4550   48.5612   58.9807 C   0  0  0  0  0  0  0  0  0  0  0  0
   71.5231   47.2128   59.1994 C   0  0  0  0  0  0  0  0  0  0  0  0
   72.3589   46.6810   60.1224 F   0  0  0  0  0  0  0  0  0  0  0  0
   69.7782   44.3751   59.2563 O   0  0  0  0  0  0  0  0  0  0  0  0
   70.7846   44.9055   58.7008 C   0  0  0  0  0  0  0  0  0  0  0  0
   71.8902   44.1076   58.3274 N   0  0  0  0  0  0  0  0  0  0  0  0
   72.1876   42.6761   58.4374 C   0  0  0  0  0  0  0  0  0  0  0  0
   73.6499   42.9673   58.4888 C   0  0  0  0  0  0  0  0  0  0  0  0
   73.1955   44.2320   57.7042 C   0  0  0  0  0  0  0  0  0  0  0  0
   74.2696   43.3779   59.6757 N   0  0  0  0  0  0  0  0  0  0  0  0
   75.6492   43.2056   59.8879 C   0  0  0  0  0  0  0  0  0  0  0  0
   76.5373   44.3410   59.4783 C   0  0  0  0  0  0  0  0  0  0  0  0
   77.7418   43.7164   58.7810 C   0  0  0  0  0  0  0  0  0  0  0  0
   77.2184   42.4219   58.1916 C   0  0  0  0  0  0  0  0  0  0  0  0
   76.0966   41.9832   59.1055 C   0  0  0  0  0  0  0  0  0  0  0  0
   68.8072   48.7310   56.2596 C   0  0  0  0  0  0  0  0  0  0  0  0
   69.2639   48.6489   54.8746 C   0  0  0  0  0  0  0  0  0  0  0  0
   70.1490   49.5636   54.3761 N   0  0  0  0  0  0  0  0  0  0  0  0
   70.5803   49.5945   53.1539 N   0  0  0  0  0  0  0  0  0  0  0  0
   70.1711   48.6915   52.2522 C   0  0  0  0  0  0  0  0  0  0  0  0
   70.6015   48.7301   51.0488 O   0  0  0  0  0  0  0  0  0  0  0  0
   69.2716   47.7107   52.6443 C   0  0  0  0  0  0  0  0  0  0  0  0
   68.8683   46.7795   51.7160 C   0  0  0  0  0  0  0  0  0  0  0  0
   67.9906   45.8009   52.1057 C   0  0  0  0  0  0  0  0  0  0  0  0
   67.5428   45.7884   53.4326 C   0  0  0  0  0  0  0  0  0  0  0  0
   67.9559   46.7238   54.3396 C   0  0  0  0  0  0  0  0  0  0  0  0
   68.8264   47.7011   53.9586 C   0  0  0  0  0  0  0  0  0  0  0  0
  8  9  2  0
  9  1  1  0
  9 10  1  0
  1  2  2  0
  1  6  1  0
  2  3  1  0
  3 20  1  0
  3  4  2  0
 20 21  1  0
 21 22  2  0
 21 31  1  0
 22 23  1  0
 23 24  1  0
 24 25  2  0
 24 26  1  0
 26 27  1  0
 26 31  2  0
 27 28  2  0
 28 29  1  0
 29 30  2  0
 30 31  1  0
  4  5  1  0
  5  6  2  0
  6  7  1  0
 10 11  1  0
 10 13  1  0
 11 12  1  0
 12 14  1  0
 12 13  1  0
 14 15  1  0
 15 16  1  0
 15 19  1  0
 16 17  1  0
 17 18  1  0
 18 19  1  0
M  CHG  1  14   1
M  END
>  <minimizedAffinity>  (198) 
-9.43348

$$$$
cs_full_output_folder/data/smiles/860.pdb
     RDKit          3D

 32 36  0  0  0  0  0  0  0  0999 V2000
   70.5175   44.7951   57.9488 C   0  0  0  0  0  0  0  0  0  0  0  0
   69.6892   45.6110   57.1779 C   0  0  0  0  0  0  0  0  0  0  0  0
   69.7422   46.9745   57.1857 C   0  0  0  0  0  0  0  0  0  0  0  0
   70.7059   47.5379   58.0374 C   0  0  0  0  0  0  0  0  0  0  0  0
   71.5407   46.7822   58.8122 C   0  0  0  0  0  0  0  0  0  0  0  0
   71.4362   45.4133   58.7589 C   0  0  0  0  0  0  0  0  0  0  0  0
   72.2611   44.6350   59.5243 F   0  0  0  0  0  0  0  0  0  0  0  0
   70.3551   43.3148   57.8795 C   0  0  0  0  0  0  0  0  0  0  0  0
   67.4916   40.5193   59.5694 N   0  0  0  0  0  0  0  0  0  0  0  0
   68.0282   40.9188   60.8586 C   0  0  0  0  0  0  0  0  0  0  0  0
   69.3940   41.5167   60.6070 C   0  0  0  0  0  0  0  0  0  0  0  0
   69.1918   42.8631   59.9614 C   0  0  0  0  0  0  0  0  0  0  0  0
   69.1868   42.8731   58.5597 N   0  0  2  0  0  0  0  0  0  0  0  0
   68.4500   41.8907   57.8572 C   0  0  0  0  0  0  0  0  0  0  0  0
   67.1690   41.4837   58.5198 C   0  0  0  0  0  0  0  0  0  0  0  0
   67.7221   38.6332   58.2457 N   0  0  0  0  0  0  0  0  0  0  0  0
   67.2763   39.1381   59.3302 C   0  0  0  0  0  0  0  0  0  0  0  0
   66.5566   38.2640   60.2818 C   0  0  0  0  0  0  0  0  0  0  0  0
   65.6630   37.1817   59.8002 C   0  0  0  0  0  0  0  0  0  0  0  0
   65.0296   38.4297   60.3044 C   0  0  0  0  0  0  0  0  0  0  0  0
   68.8530   47.8723   56.3866 C   0  0  0  0  0  0  0  0  0  0  0  0
   69.2822   48.0123   54.9879 C   0  0  0  0  0  0  0  0  0  0  0  0
   70.2182   48.9636   54.6867 N   0  0  0  0  0  0  0  0  0  0  0  0
   70.6273   49.2104   53.4561 N   0  0  0  0  0  0  0  0  0  0  0  0
   70.1747   48.5650   52.3848 C   0  0  0  0  0  0  0  0  0  0  0  0
   70.5793   48.8204   51.2131 O   0  0  0  0  0  0  0  0  0  0  0  0
   69.2207   47.5800   52.6036 C   0  0  0  0  0  0  0  0  0  0  0  0
   68.7347   46.8722   51.5273 C   0  0  0  0  0  0  0  0  0  0  0  0
   67.8106   45.8909   51.7452 C   0  0  0  0  0  0  0  0  0  0  0  0
   67.3853   45.6317   53.0445 C   0  0  0  0  0  0  0  0  0  0  0  0
   67.8740   46.3431   54.1116 C   0  0  0  0  0  0  0  0  0  0  0  0
   68.7929   47.3233   53.9112 C   0  0  0  0  0  0  0  0  0  0  0  0
 16 17  2  0
 17 18  1  0
 17  9  1  0
 18 19  1  0
 18 20  1  0
 19 20  1  0
  9 10  1  0
  9 15  1  0
 10 11  1  0
 11 12  1  0
 12 13  1  0
 13  8  1  6
 13 14  1  0
  8  1  1  0
  1  2  2  0
  1  6  1  0
  2  3  1  0
  3 21  1  0
  3  4  2  0
 21 22  1  0
 22 23  2  0
 22 32  1  0
 23 24  1  0
 24 25  1  0
 25 26  2  0
 25 27  1  0
 27 28  1  0
 27 32  2  0
 28 29  2  0
 29 30  1  0
 30 31  2  0
 31 32  1  0
  4  5  1  0
  5  6  2  0
  6  7  1  0
 14 15  1  0
M  CHG  2  13   1  16   1
M  END
>  <minimizedAffinity>  (199) 
-9.43161

$$$$
cs_full_output_folder/data/smiles/543.pdb
     RDKit          3D

 32 36  0  0  0  0  0  0  0  0999 V2000
   71.4324   47.3409   58.8424 C   0  0  0  0  0  0  0  0  0  0  0  0
   70.5783   48.0313   58.0242 C   0  0  0  0  0  0  0  0  0  0  0  0
   69.7098   47.4420   57.1111 C   0  0  0  0  0  0  0  0  0  0  0  0
   69.7403   46.0700   57.0562 C   0  0  0  0  0  0  0  0  0  0  0  0
   70.5881   45.3391   57.8654 C   0  0  0  0  0  0  0  0  0  0  0  0
   71.4323   45.9519   58.7563 C   0  0  0  0  0  0  0  0  0  0  0  0
   72.2767   45.2686   59.5650 F   0  0  0  0  0  0  0  0  0  0  0  0
   75.9730   48.7058   58.6959 N   0  0  0  0  0  0  0  0  0  0  0  0
   75.6576   49.5198   59.7932 C   0  0  0  0  0  0  0  0  0  0  0  0
   74.2479   49.5137   60.2690 C   0  0  0  0  0  0  0  0  0  0  0  0
   73.3795   48.8429   59.3201 N   0  0  0  0  0  0  0  0  0  0  0  0
   72.3184   48.0277   59.7726 C   0  0  0  0  0  0  0  0  0  0  0  0
   72.1317   47.8914   61.0199 O   0  0  0  0  0  0  0  0  0  0  0  0
   73.6582   49.0545   57.9149 C   0  0  0  0  0  0  0  0  0  0  0  0
   75.0520   48.6103   57.6338 C   0  0  0  0  0  0  0  0  0  0  0  0
   78.6156   45.3639   59.4741 C   0  0  0  0  0  0  0  0  0  0  0  0
   77.4491   46.0304   60.1482 C   0  0  1  0  0  0  0  0  0  0  0  0
   77.5888   47.5545   60.2111 C   0  0  0  0  0  0  0  0  0  0  0  0
   76.8262   47.6043   58.9080 C   0  0  1  0  0  0  0  0  0  0  0  0
   76.2493   46.2710   59.2216 C   0  0  0  0  0  0  0  0  0  0  0  0
   68.8447   48.2464   56.2401 C   0  0  0  0  0  0  0  0  0  0  0  0
   69.2728   48.3291   54.8322 C   0  0  0  0  0  0  0  0  0  0  0  0
   70.1769   49.2831   54.4521 N   0  0  0  0  0  0  0  0  0  0  0  0
   70.5872   49.4534   53.2145 N   0  0  0  0  0  0  0  0  0  0  0  0
   70.1200   48.6694   52.2351 C   0  0  0  0  0  0  0  0  0  0  0  0
   70.5139   48.8350   51.0497 O   0  0  0  0  0  0  0  0  0  0  0  0
   69.2121   47.6848   52.5171 C   0  0  0  0  0  0  0  0  0  0  0  0
   68.7656   46.8952   51.4860 C   0  0  0  0  0  0  0  0  0  0  0  0
   67.8514   45.8849   51.7717 C   0  0  0  0  0  0  0  0  0  0  0  0
   67.4208   45.7031   53.0748 C   0  0  0  0  0  0  0  0  0  0  0  0
   67.8786   46.5031   54.0925 C   0  0  0  0  0  0  0  0  0  0  0  0
   68.7878   47.5187   53.8397 C   0  0  0  0  0  0  0  0  0  0  0  0
 17 16  1  6
 17 18  1  0
 17 20  1  0
 18 19  1  0
 19  8  1  1
 19 20  1  0
  8  9  1  0
  8 15  1  0
  9 10  1  0
 10 11  1  0
 11 12  1  0
 11 14  1  0
 12 13  2  0
 12  1  1  0
  1  2  2  0
  1  6  1  0
  2  3  1  0
  3 21  1  0
  3  4  2  0
 21 22  1  0
 22 23  2  0
 22 32  1  0
 23 24  1  0
 24 25  1  0
 25 26  2  0
 25 27  1  0
 27 28  1  0
 27 32  2  0
 28 29  2  0
 29 30  1  0
 30 31  2  0
 31 32  1  0
  4  5  1  0
  5  6  2  0
  6  7  1  0
 14 15  1  0
M  CHG  1   8   1
M  END
>  <minimizedAffinity>  (200) 
-9.42975

$$$$
cs_full_output_folder/data/smiles/5155.pdb
     RDKit          3D

 29 31  0  0  0  0  0  0  0  0999 V2000
   67.6979   45.4686   52.8792 C   0  0  0  0  0  0  0  0  0  0  0  0
   68.4551   46.6909   53.2160 C   0  0  0  0  0  0  0  0  0  0  0  0
   68.7577   47.5961   52.1961 C   0  0  0  0  0  0  0  0  0  0  0  0
   69.4583   48.7570   52.4354 C   0  0  0  0  0  0  0  0  0  0  0  0
   69.8598   49.0058   53.7324 C   0  0  0  0  0  0  0  0  0  0  0  0
   69.5584   48.1062   54.7449 C   0  0  0  0  0  0  0  0  0  0  0  0
   68.8529   46.9389   54.4970 C   0  0  0  0  0  0  0  0  0  0  0  0
   70.7504   50.4879   54.0172 S   0  0  0  0  0  0  0  0  0  0  0  0
   72.2239   50.1758   53.9921 O   0  0  0  0  0  0  0  0  0  0  0  0
   70.3917   51.4101   52.8583 O   0  0  0  0  0  0  0  0  0  0  0  0
   70.3727   51.2031   55.5051 N   0  0  0  0  0  0  0  0  0  0  0  0
   70.6612   50.4593   56.6676 C   0  0  0  0  0  0  0  0  0  0  0  0
   69.6730   50.5339   57.7753 C   0  0  0  0  0  0  0  0  0  0  0  0
   68.2861   50.9099   57.4131 C   0  0  0  0  0  0  0  0  0  0  0  0
   68.0700   51.4432   56.0401 C   0  0  0  0  0  0  0  0  0  0  0  0
   69.3032   52.1203   55.5340 C   0  0  1  0  0  0  0  0  0  0  0  0
   69.5757   53.3988   56.2895 C   0  0  0  0  0  0  0  0  0  0  0  0
   68.5608   46.0197   55.5843 C   0  0  0  0  0  0  0  0  0  0  0  0
   68.1930   46.5333   56.6810 O   0  0  0  0  0  0  0  0  0  0  0  0
   68.6529   44.6136   55.5229 N   0  0  0  0  0  0  0  0  0  0  0  0
   68.3599   43.7726   56.6097 N   0  0  0  0  0  0  0  0  0  0  0  0
   67.6707   42.5389   56.4910 C   0  0  0  0  0  0  0  0  0  0  0  0
   67.3085   42.1924   55.3357 O   0  0  0  0  0  0  0  0  0  0  0  0
   67.3822   41.6872   57.6440 C   0  0  0  0  0  0  0  0  0  0  0  0
   67.8154   40.3887   57.7523 C   0  0  0  0  0  0  0  0  0  0  0  0
   67.5158   39.6099   58.8748 C   0  0  0  0  0  0  0  0  0  0  0  0
   66.7700   40.1468   59.9002 C   0  0  0  0  0  0  0  0  0  0  0  0
   66.3477   41.4524   59.7663 C   0  0  0  0  0  0  0  0  0  0  0  0
   66.6564   42.1897   58.6576 N   0  0  0  0  0  0  0  0  0  0  0  0
  1  2  1  0
  2  3  2  0
  2  7  1  0
  3  4  1  0
  4  5  2  0
  5  8  1  0
  5  6  1  0
  8  9  2  0
  8 10  2  0
  8 11  1  0
 11 12  1  0
 11 16  1  0
 12 13  1  0
 13 14  1  0
 14 15  1  0
 15 16  1  0
 16 17  1  1
  6  7  2  0
  7 18  1  0
 18 19  2  0
 18 20  1  0
 20 21  1  0
 21 22  1  0
 22 23  2  0
 22 24  1  0
 24 25  2  0
 24 29  1  0
 25 26  1  0
 26 27  2  0
 27 28  1  0
 28 29  2  0
M  END
>  <minimizedAffinity>  (201) 
-9.42951

$$$$
cs_full_output_folder/data/smiles/3211.pdb
     RDKit          3D

 27 28  0  0  0  0  0  0  0  0999 V2000
   69.8233   49.2445   52.5990 S   0  0  0  0  0  0  0  0  0  0  0  0
   69.5431   49.2343   51.1086 O   0  0  0  0  0  0  0  0  0  0  0  0
   71.3326   49.1269   52.7754 O   0  0  0  0  0  0  0  0  0  0  0  0
   69.1482   47.8059   53.3139 C   0  0  0  0  0  0  0  0  0  0  0  0
   68.4763   46.8454   52.5725 C   0  0  0  0  0  0  0  0  0  0  0  0
   68.3305   47.0197   51.2273 F   0  0  0  0  0  0  0  0  0  0  0  0
   67.9686   45.7326   53.2022 C   0  0  0  0  0  0  0  0  0  0  0  0
   67.3034   44.7804   52.4708 F   0  0  0  0  0  0  0  0  0  0  0  0
   68.1014   45.5310   54.5537 C   0  0  0  0  0  0  0  0  0  0  0  0
   67.5788   44.3910   55.1909 O   0  0  0  0  0  0  0  0  0  0  0  0
   68.7699   46.4869   55.2909 C   0  0  0  0  0  0  0  0  0  0  0  0
   68.9004   46.2840   56.6380 F   0  0  0  0  0  0  0  0  0  0  0  0
   69.2829   47.6022   54.6794 C   0  0  0  0  0  0  0  0  0  0  0  0
   69.9301   48.5090   55.4552 F   0  0  0  0  0  0  0  0  0  0  0  0
   69.2621   50.6901   53.2964 N   0  0  0  0  0  0  0  0  0  0  0  0
   71.2583   53.3042   55.9277 C   0  0  0  0  0  0  0  0  0  0  0  0
   69.8823   53.2759   55.8671 C   0  0  0  0  0  0  0  0  0  0  0  0
   69.2608   52.4151   54.9947 C   0  0  0  0  0  0  0  0  0  0  0  0
   69.9780   51.5504   54.1490 C   0  0  0  0  0  0  0  0  0  0  0  0
   71.3392   51.6311   54.2603 C   0  0  0  0  0  0  0  0  0  0  0  0
   72.0062   52.4796   55.1216 C   0  0  0  0  0  0  0  0  0  0  0  0
   73.4211   52.5362   55.2096 N   0  0  0  0  0  0  0  0  0  0  0  0
   74.2561   51.4009   55.2913 C   0  0  0  0  0  0  0  0  0  0  0  0
   75.6731   51.4727   55.3795 N   0  0  0  0  0  0  0  0  0  0  0  0
   73.7065   50.2686   55.2852 O   0  0  0  0  0  0  0  0  0  0  0  0
   72.4676   53.7841   58.0101 C   0  0  0  0  0  0  0  0  0  0  0  0
   71.8650   54.1780   56.8127 O   0  0  0  0  0  0  0  0  0  0  0  0
 26 27  1  0
 27 16  1  0
 16 17  2  0
 16 21  1  0
 17 18  1  0
 18 19  2  0
 19 15  1  0
 19 20  1  0
 15  1  1  0
  1  2  2  0
  1  3  2  0
  1  4  1  0
  4  5  2  0
  4 13  1  0
  5  6  1  0
  5  7  1  0
  7  8  1  0
  7  9  2  0
  9 10  1  0
  9 11  1  0
 11 12  1  0
 11 13  2  0
 13 14  1  0
 20 21  2  0
 21 22  1  0
 22 23  1  0
 23 24  1  0
 23 25  2  0
M  END
>  <minimizedAffinity>  (202) 
-9.42792

$$$$
cs_full_output_folder/data/smiles/5856.pdb
     RDKit          3D

 27 28  0  0  0  0  0  0  0  0999 V2000
   70.0984   49.3354   52.7109 S   0  0  0  0  0  0  0  0  0  0  0  0
   70.1782   49.1814   51.2154 O   0  0  0  0  0  0  0  0  0  0  0  0
   71.5071   49.4672   53.2058 O   0  0  0  0  0  0  0  0  0  0  0  0
   69.3235   47.9015   53.3342 C   0  0  0  0  0  0  0  0  0  0  0  0
   68.6498   47.0103   52.5033 C   0  0  0  0  0  0  0  0  0  0  0  0
   68.5946   47.2621   51.1797 F   0  0  0  0  0  0  0  0  0  0  0  0
   68.0448   45.8824   53.0203 C   0  0  0  0  0  0  0  0  0  0  0  0
   67.3835   44.9995   52.2366 F   0  0  0  0  0  0  0  0  0  0  0  0
   68.1003   45.6272   54.3620 C   0  0  0  0  0  0  0  0  0  0  0  0
   67.5037   44.5143   54.8765 F   0  0  0  0  0  0  0  0  0  0  0  0
   68.7667   46.5027   55.2070 C   0  0  0  0  0  0  0  0  0  0  0  0
   68.8397   46.2774   56.5443 F   0  0  0  0  0  0  0  0  0  0  0  0
   69.3711   47.6309   54.6842 C   0  0  0  0  0  0  0  0  0  0  0  0
   70.0247   48.4918   55.5007 F   0  0  0  0  0  0  0  0  0  0  0  0
   69.2278   50.7580   53.0531 N   0  0  0  0  0  0  0  0  0  0  0  0
   70.1129   52.7814   56.0699 C   0  0  0  0  0  0  0  0  0  0  0  0
   69.0331   52.5192   56.8839 C   0  0  0  0  0  0  0  0  0  0  0  0
   68.0162   51.6888   56.4647 C   0  0  0  0  0  0  0  0  0  0  0  0
   68.0729   51.1017   55.1973 C   0  0  0  0  0  0  0  0  0  0  0  0
   69.1487   51.3467   54.3520 C   0  0  0  0  0  0  0  0  0  0  0  0
   70.1388   52.1889   54.8297 C   0  0  0  0  0  0  0  0  0  0  0  0
   72.1618   51.9656   57.7621 O   0  0  0  0  0  0  0  0  0  0  0  0
   72.1862   53.1677   57.3865 C   0  0  0  0  0  0  0  0  0  0  0  0
   71.1676   53.6500   56.5211 N   0  0  0  0  0  0  0  0  0  0  0  0
   73.2600   54.1071   57.8275 C   0  0  1  0  0  0  0  0  0  0  0  0
   74.2181   53.4466   58.5799 O   0  0  0  0  0  0  0  0  0  0  0  0
   74.0492   54.8789   56.4167 S   0  0  0  0  0  0  0  0  0  0  0  0
 22 23  2  0
 23 24  1  0
 23 25  1  0
 24 16  1  0
 16 17  2  0
 16 21  1  0
 17 18  1  0
 18 19  2  0
 19 20  1  0
 20 15  1  0
 20 21  2  0
 15  1  1  0
  1  2  2  0
  1  3  2  0
  1  4  1  0
  4  5  2  0
  4 13  1  0
  5  6  1  0
  5  7  1  0
  7  8  1  0
  7  9  2  0
  9 10  1  0
  9 11  1  0
 11 12  1  0
 11 13  2  0
 13 14  1  0
 25 26  1  6
 25 27  1  0
M  END
>  <minimizedAffinity>  (203) 
-9.42335

$$$$
cs_full_output_folder/data/smiles/2213.pdb
     RDKit          3D

 25 27  0  0  0  0  0  0  0  0999 V2000
   69.3952   44.2016   57.1744 C   0  0  0  0  0  0  0  0  0  0  0  0
   69.9107   45.0797   57.9415 O   0  0  0  0  0  0  0  0  0  0  0  0
   68.6397   44.5832   56.0362 N   0  0  0  0  0  0  0  0  0  0  0  0
   67.7301   41.2787   56.6234 C   0  0  0  0  0  0  0  0  0  0  0  0
   69.0028   41.6708   57.3345 C   0  0  0  0  0  0  0  0  0  0  0  0
   69.6288   42.7785   57.5372 C   0  0  0  0  0  0  0  0  0  0  0  0
   70.7022   42.1180   58.2378 C   0  0  0  0  0  0  0  0  0  0  0  0
   69.9301   40.9362   58.0542 N   0  0  0  0  0  0  0  0  0  0  0  0
   70.1724   39.5812   58.4998 C   0  0  0  0  0  0  0  0  0  0  0  0
   71.3321   38.9443   58.0706 C   0  0  0  0  0  0  0  0  0  0  0  0
   71.6391   37.6604   58.4611 C   0  0  0  0  0  0  0  0  0  0  0  0
   70.8099   36.9465   59.2979 C   0  0  0  0  0  0  0  0  0  0  0  0
   71.2557   35.1650   59.8281 Br  0  0  0  0  0  0  0  0  0  0  0  0
   69.6656   37.5721   59.7229 C   0  0  0  0  0  0  0  0  0  0  0  0
   69.3579   38.8786   59.3220 C   0  0  0  0  0  0  0  0  0  0  0  0
   68.4297   45.9468   55.7141 C   0  0  0  0  0  0  0  0  0  0  0  0
   68.4983   46.3306   54.3084 C   0  0  0  0  0  0  0  0  0  0  0  0
   67.7722   45.6149   53.3853 C   0  0  0  0  0  0  0  0  0  0  0  0
   67.8359   45.9617   52.0350 C   0  0  0  0  0  0  0  0  0  0  0  0
   68.6105   47.0045   51.5984 C   0  0  0  0  0  0  0  0  0  0  0  0
   69.3501   47.7346   52.5306 C   0  0  0  0  0  0  0  0  0  0  0  0
   69.2681   47.3753   53.8372 C   0  0  0  0  0  0  0  0  0  0  0  0
   70.1863   48.8509   52.1248 C   0  0  0  0  0  0  0  0  0  0  0  0
   69.8031   49.6466   51.0223 N   0  0  0  0  0  0  0  0  0  0  0  0
   71.2397   49.1118   52.7456 O   0  0  0  0  0  0  0  0  0  0  0  0
  4  5  1  0
  5  6  2  0
  5  8  1  0
  6  1  1  0
  6  7  1  0
  1  2  2  0
  1  3  1  0
  3 16  1  0
 16 17  1  0
 17 18  2  0
 17 22  1  0
 18 19  1  0
 19 20  2  0
 20 21  1  0
 21 23  1  0
 21 22  2  0
 23 24  1  0
 23 25  2  0
  7  8  1  0
  8  9  1  0
  9 10  2  0
  9 15  1  0
 10 11  1  0
 11 12  2  0
 12 13  1  0
 12 14  1  0
 14 15  2  0
M  END
>  <minimizedAffinity>  (204) 
-9.42026

$$$$
cs_full_output_folder/data/smiles/794.pdb
     RDKit          3D

 28 29  0  0  0  0  0  0  0  0999 V2000
   70.6207   44.9178   58.3968 C   0  0  0  0  0  0  0  0  0  0  0  0
   71.6733   45.8456   59.3474 S   0  0  0  0  0  0  0  0  0  0  0  0
   70.0487   42.4534   58.3018 C   0  0  0  0  0  0  0  0  0  0  0  0
   68.8440   42.6423   58.0731 O   0  0  0  0  0  0  0  0  0  0  0  0
   70.9035   43.5514   58.4543 N   0  0  0  0  0  0  0  0  0  0  0  0
   71.5899   38.4798   58.6230 C   0  0  0  0  0  0  0  0  0  0  0  0
   70.2678   38.6778   58.3768 C   0  0  0  0  0  0  0  0  0  0  0  0
   69.7652   39.9544   58.2714 C   0  0  0  0  0  0  0  0  0  0  0  0
   70.5225   41.0915   58.4017 C   0  0  0  0  0  0  0  0  0  0  0  0
   71.8853   40.8584   58.6562 C   0  0  0  0  0  0  0  0  0  0  0  0
   72.3954   39.5883   58.7629 C   0  0  0  0  0  0  0  0  0  0  0  0
   71.1246   36.1918   59.4425 C   0  0  0  0  0  0  0  0  0  0  0  0
   72.1012   37.1065   58.7299 C   0  0  0  0  0  0  0  0  0  0  0  0
   72.3531   36.5453   57.3433 C   0  0  0  0  0  0  0  0  0  0  0  0
   73.4223   37.1642   59.4647 C   0  0  0  0  0  0  0  0  0  0  0  0
   69.6307   45.6405   57.7370 N   0  0  0  0  0  0  0  0  0  0  0  0
   69.5889   46.1557   56.4473 N   0  0  0  0  0  0  0  0  0  0  0  0
   68.6951   45.6458   55.4567 C   0  0  0  0  0  0  0  0  0  0  0  0
   67.9335   44.6996   55.7893 O   0  0  0  0  0  0  0  0  0  0  0  0
   68.6561   46.1889   54.1088 C   0  0  0  0  0  0  0  0  0  0  0  0
   67.8043   45.5975   53.1768 C   0  0  0  0  0  0  0  0  0  0  0  0
   67.7011   46.0429   51.8791 C   0  0  0  0  0  0  0  0  0  0  0  0
   68.4597   47.1135   51.4648 C   0  0  0  0  0  0  0  0  0  0  0  0
   69.3104   47.7197   52.3603 C   0  0  0  0  0  0  0  0  0  0  0  0
   69.3943   47.2448   53.6714 C   0  0  0  0  0  0  0  0  0  0  0  0
   70.0994   48.8194   51.9609 N   0  0  0  0  0  0  0  0  0  0  0  0
   71.1662   49.0500   52.5387 O   0  0  0  0  0  0  0  0  0  0  0  0
   69.6831   49.6196   50.9430 O   0  0  0  0  0  0  0  0  0  0  0  0
 12 13  1  0
 13 14  1  0
 13 15  1  0
 13  6  1  0
  6  7  2  0
  6 11  1  0
  7  8  1  0
  8  9  2  0
  9  3  1  0
  9 10  1  0
  3  4  2  0
  3  5  1  0
  5  1  1  0
  1  2  2  0
  1 16  1  0
 16 17  1  0
 17 18  1  0
 18 19  2  0
 18 20  1  0
 20 21  2  0
 20 25  1  0
 21 22  1  0
 22 23  2  0
 23 24  1  0
 24 26  1  0
 24 25  2  0
 26 27  2  0
 26 28  1  0
 10 11  2  0
M  CHG  2  26   1  28  -1
M  END
>  <minimizedAffinity>  (205) 
-9.41889

$$$$
cs_full_output_folder/data/smiles/6735.pdb
     RDKit          3D

 30 33  0  0  0  0  0  0  0  0999 V2000
   68.4636   46.3634   54.8899 C   0  0  0  0  0  0  0  0  0  0  0  0
   68.8946   47.4822   54.2191 C   0  0  0  0  0  0  0  0  0  0  0  0
   68.8243   47.6149   52.8302 C   0  0  0  0  0  0  0  0  0  0  0  0
   68.3065   46.5974   52.0846 C   0  0  0  0  0  0  0  0  0  0  0  0
   67.8567   45.4401   52.7369 C   0  0  0  0  0  0  0  0  0  0  0  0
   67.9442   45.3481   54.1153 C   0  0  0  0  0  0  0  0  0  0  0  0
   67.5011   44.2146   54.7263 F   0  0  0  0  0  0  0  0  0  0  0  0
   68.5111   46.1855   56.2509 O   0  0  0  0  0  0  0  0  0  0  0  0
   69.5468   46.6785   58.1780 O   0  0  0  0  0  0  0  0  0  0  0  0
   69.2207   47.0705   57.0510 C   0  0  0  0  0  0  0  0  0  0  0  0
   69.5830   48.3723   56.6496 N   0  0  0  0  0  0  0  0  0  0  0  0
   70.3084   49.2908   57.4581 C   0  0  0  0  0  0  0  0  0  0  0  0
   71.6791   49.1511   57.5521 C   0  0  0  0  0  0  0  0  0  0  0  0
   72.4201   50.0259   58.3274 C   0  0  0  0  0  0  0  0  0  0  0  0
   71.7685   51.0439   59.0092 C   0  0  0  0  0  0  0  0  0  0  0  0
   70.4333   51.1482   58.8945 N   0  0  0  0  0  0  0  0  0  0  0  0
   69.6866   50.3123   58.1467 C   0  0  0  0  0  0  0  0  0  0  0  0
   68.3519   50.4143   58.0292 F   0  0  0  0  0  0  0  0  0  0  0  0
   69.2907   48.8753   52.2144 C   0  0  0  0  0  0  0  0  0  0  0  0
   70.1981   49.6402   53.1032 C   0  0  0  0  0  0  0  0  0  0  0  0
   71.5357   49.3182   53.1068 N   0  0  0  0  0  0  0  0  0  0  0  0
   72.4042   49.9894   53.8349 N   0  0  0  0  0  0  0  0  0  0  0  0
   72.0507   51.0220   54.6125 C   0  0  0  0  0  0  0  0  0  0  0  0
   72.9170   51.6284   55.2856 O   0  0  0  0  0  0  0  0  0  0  0  0
   70.7248   51.4125   54.6688 C   0  0  0  0  0  0  0  0  0  0  0  0
   70.3535   52.4623   55.4780 C   0  0  0  0  0  0  0  0  0  0  0  0
   69.0237   52.8123   55.5214 C   0  0  0  0  0  0  0  0  0  0  0  0
   68.1171   52.1083   54.7628 C   0  0  0  0  0  0  0  0  0  0  0  0
   68.5012   51.0528   53.9513 C   0  0  0  0  0  0  0  0  0  0  0  0
   69.8212   50.6850   53.8888 C   0  0  0  0  0  0  0  0  0  0  0  0
  9 10  2  0
 10 11  1  0
 10  8  1  0
 11 12  1  0
 12 13  2  0
 12 17  1  0
 13 14  1  0
 14 15  2  0
 15 16  1  0
 16 17  2  0
 17 18  1  0
  8  1  1  0
  1  2  2  0
  1  6  1  0
  2  3  1  0
  3 19  1  0
  3  4  2  0
 19 20  1  0
 20 21  2  0
 20 30  1  0
 21 22  1  0
 22 23  1  0
 23 24  2  0
 23 25  1  0
 25 26  1  0
 25 30  2  0
 26 27  2  0
 27 28  1  0
 28 29  2  0
 29 30  1  0
  4  5  1  0
  5  6  2  0
  6  7  1  0
M  END
>  <minimizedAffinity>  (206) 
-9.41771

$$$$
cs_full_output_folder/data/smiles/1136.pdb
     RDKit          3D

 31 33  0  0  0  0  0  0  0  0999 V2000
   70.0817   49.0622   53.7422 C   0  0  0  0  0  0  0  0  0  0  0  0
   69.7546   48.8513   52.4351 C   0  0  0  0  0  0  0  0  0  0  0  0
   68.9991   47.7361   52.1169 C   0  0  0  0  0  0  0  0  0  0  0  0
   68.5839   46.8506   53.1106 C   0  0  0  0  0  0  0  0  0  0  0  0
   67.7728   45.6769   52.6875 C   0  0  0  0  0  0  0  0  0  0  0  0
   68.9059   47.0486   54.4335 C   0  0  0  0  0  0  0  0  0  0  0  0
   69.6614   48.1779   54.6930 C   0  0  0  0  0  0  0  0  0  0  0  0
   71.0500   50.4879   54.1545 S   0  0  0  0  0  0  0  0  0  0  0  0
   70.6703   51.6579   53.3168 O   0  0  0  0  0  0  0  0  0  0  0  0
   72.4921   50.1087   53.9794 O   0  0  0  0  0  0  0  0  0  0  0  0
   70.7916   50.8091   55.8289 N   0  0  0  0  0  0  0  0  0  0  0  0
   70.3672   49.0714   58.0455 C   0  0  0  0  0  0  0  0  0  0  0  0
   69.2746   49.9500   57.5250 C   0  0  0  0  0  0  0  0  0  0  0  0
   68.0441   49.8929   58.1632 C   0  0  0  0  0  0  0  0  0  0  0  0
   66.9819   50.6619   57.6997 C   0  0  0  0  0  0  0  0  0  0  0  0
   67.1989   51.4657   56.6036 C   0  0  0  0  0  0  0  0  0  0  0  0
   68.4429   51.5045   55.9814 C   0  0  0  0  0  0  0  0  0  0  0  0
   69.4911   50.7535   56.4308 C   0  0  0  0  0  0  0  0  0  0  0  0
   68.4891   46.1352   55.4922 C   0  0  0  0  0  0  0  0  0  0  0  0
   68.1219   46.5375   56.6159 O   0  0  0  0  0  0  0  0  0  0  0  0
   68.4722   44.7178   55.3051 N   0  0  0  0  0  0  0  0  0  0  0  0
   68.0663   43.8242   56.2943 N   0  0  0  0  0  0  0  0  0  0  0  0
   68.8972   43.0441   57.1179 C   0  0  0  0  0  0  0  0  0  0  0  0
   70.1376   43.1702   56.9273 O   0  0  0  0  0  0  0  0  0  0  0  0
   68.4150   42.1290   58.1484 C   0  0  0  0  0  0  0  0  0  0  0  0
   67.8088   40.9236   57.8762 C   0  0  0  0  0  0  0  0  0  0  0  0
   67.3445   40.0997   58.8741 C   0  0  0  0  0  0  0  0  0  0  0  0
   67.4683   40.4508   60.2185 C   0  0  0  0  0  0  0  0  0  0  0  0
   68.0737   41.6492   60.4943 C   0  0  0  0  0  0  0  0  0  0  0  0
   68.5368   42.4701   59.4786 C   0  0  0  0  0  0  0  0  0  0  0  0
   69.1411   43.6707   59.8173 O   0  0  0  0  0  0  0  0  0  0  0  0
 12 13  1  0
 13 14  2  0
 13 18  1  0
 14 15  1  0
 15 16  2  0
 16 17  1  0
 17 18  2  0
 18 11  1  0
 11  8  1  0
  8  9  2  0
  8 10  2  0
  8  1  1  0
  1  2  2  0
  1  7  1  0
  2  3  1  0
  3  4  2  0
  4  5  1  0
  4  6  1  0
  6 19  1  0
  6  7  2  0
 19 20  2  0
 19 21  1  0
 21 22  1  0
 22 23  1  0
 23 24  2  0
 23 25  1  0
 25 26  2  0
 25 30  1  0
 26 27  1  0
 27 28  2  0
 28 29  1  0
 29 30  2  0
 30 31  1  0
M  END
>  <minimizedAffinity>  (207) 
-9.41654

$$$$
cs_full_output_folder/data/smiles/426.pdb
     RDKit          3D

 31 33  0  0  0  0  0  0  0  0999 V2000
   69.7455   47.2680   57.4566 C   0  0  0  0  0  0  0  0  0  0  0  0
   68.5796   47.2768   57.9282 O   0  0  0  0  0  0  0  0  0  0  0  0
   69.9730   47.7832   56.1686 N   0  0  0  0  0  0  0  0  0  0  0  0
   68.9348   48.3372   55.3243 C   0  0  1  0  0  0  0  0  0  0  0  0
   69.3049   49.7598   55.0700 C   0  0  0  0  0  0  0  0  0  0  0  0
   68.8793   50.5504   55.9408 O   0  0  0  0  0  0  0  0  0  0  0  0
   70.0451   50.3811   54.0332 N   0  0  0  0  0  0  0  0  0  0  0  0
   70.1891   51.8322   54.0787 C   0  0  0  0  0  0  0  0  0  0  0  0
   70.6597   49.7493   52.9569 N   0  0  0  0  0  0  0  0  0  0  0  0
   70.3870   48.6095   52.4320 C   0  0  0  0  0  0  0  0  0  0  0  0
   69.3533   47.6731   52.8295 C   0  0  0  0  0  0  0  0  0  0  0  0
   69.0188   46.8411   51.7731 C   0  0  0  0  0  0  0  0  0  0  0  0
   68.0638   45.8803   51.9261 C   0  0  0  0  0  0  0  0  0  0  0  0
   67.4473   45.7656   53.1533 C   0  0  0  0  0  0  0  0  0  0  0  0
   67.7816   46.5967   54.2093 C   0  0  0  0  0  0  0  0  0  0  0  0
   68.7463   47.5750   54.0726 C   0  0  0  0  0  0  0  0  0  0  0  0
   72.0447   47.6687   58.1410 C   0  0  0  0  0  0  0  0  0  0  0  0
   70.8858   46.7095   58.2691 C   0  0  2  0  0  0  0  0  0  0  0  0
   71.2032   45.3816   57.8527 N   0  0  0  0  0  0  0  0  0  0  0  0
   70.5844   44.2948   58.5264 C   0  0  0  0  0  0  0  0  0  0  0  0
   69.7802   44.5354   59.4643 O   0  0  0  0  0  0  0  0  0  0  0  0
   70.8334   42.8806   58.1859 C   0  0  2  0  0  0  0  0  0  0  0  0
   71.9680   42.7186   57.4104 O   0  0  0  0  0  0  0  0  0  0  0  0
   69.6832   42.1967   57.5934 C   0  0  0  0  0  0  0  0  0  0  0  0
   68.8733   42.9262   56.7354 C   0  0  0  0  0  0  0  0  0  0  0  0
   67.7615   42.3570   56.1311 C   0  0  0  0  0  0  0  0  0  0  0  0
   66.9579   43.0720   55.2826 F   0  0  0  0  0  0  0  0  0  0  0  0
   67.4292   41.0459   56.3647 C   0  0  0  0  0  0  0  0  0  0  0  0
   68.2373   40.3246   57.2179 C   0  0  0  0  0  0  0  0  0  0  0  0
   67.9444   39.0403   57.4711 F   0  0  0  0  0  0  0  0  0  0  0  0
   69.3423   40.8895   57.8197 C   0  0  0  0  0  0  0  0  0  0  0  0
 18 17  1  6
 18 19  1  0
 18  1  1  0
 19 20  1  0
 20 21  2  0
 20 22  1  0
 22 23  1  6
 22 24  1  0
 24 25  2  0
 24 31  1  0
 25 26  1  0
 26 27  1  0
 26 28  2  0
 28 29  1  0
 29 30  1  0
 29 31  2  0
  1  2  2  0
  1  3  1  0
  4  3  1  1
  4  5  1  0
  4 16  1  0
  5  6  2  0
  5  7  1  0
  7  8  1  0
  7  9  1  0
  9 10  2  0
 10 11  1  0
 11 12  1  0
 11 16  2  0
 12 13  2  0
 13 14  1  0
 14 15  2  0
 15 16  1  0
M  END
>  <minimizedAffinity>  (208) 
-9.41516

$$$$
cs_full_output_folder/data/smiles/702.pdb
     RDKit          3D

 28 29  0  0  0  0  0  0  0  0999 V2000
   70.6583   45.1535   58.5479 C   0  0  0  0  0  0  0  0  0  0  0  0
   71.7384   46.1053   59.4693 S   0  0  0  0  0  0  0  0  0  0  0  0
   70.0667   42.6907   58.4583 C   0  0  0  0  0  0  0  0  0  0  0  0
   68.8539   42.8672   58.2931 O   0  0  0  0  0  0  0  0  0  0  0  0
   70.9118   43.7878   58.5752 N   0  0  0  0  0  0  0  0  0  0  0  0
   71.5685   38.6641   58.6690 C   0  0  0  0  0  0  0  0  0  0  0  0
   70.2323   38.9054   58.4445 C   0  0  0  0  0  0  0  0  0  0  0  0
   69.7208   40.2095   58.3721 C   0  0  0  0  0  0  0  0  0  0  0  0
   70.5420   41.2935   58.5234 C   0  0  0  0  0  0  0  0  0  0  0  0
   71.8928   41.0561   58.7496 C   0  0  0  0  0  0  0  0  0  0  0  0
   72.3676   39.7732   58.8160 C   0  0  0  0  0  0  0  0  0  0  0  0
   73.4092   37.2567   59.5011 C   0  0  0  0  0  0  0  0  0  0  0  0
   72.0992   37.2786   58.7418 C   0  0  0  0  0  0  0  0  0  0  0  0
   71.1421   36.3530   59.4610 C   0  0  0  0  0  0  0  0  0  0  0  0
   72.3647   36.6876   57.3750 C   0  0  0  0  0  0  0  0  0  0  0  0
   69.6664   45.8792   57.9327 N   0  0  0  0  0  0  0  0  0  0  0  0
   69.6185   46.3818   56.6521 N   0  0  0  0  0  0  0  0  0  0  0  0
   68.8005   45.7708   55.6539 C   0  0  0  0  0  0  0  0  0  0  0  0
   68.1401   44.7609   56.0259 O   0  0  0  0  0  0  0  0  0  0  0  0
   68.7231   46.2701   54.2965 C   0  0  0  0  0  0  0  0  0  0  0  0
   67.8168   45.6735   53.4173 C   0  0  0  0  0  0  0  0  0  0  0  0
   67.6978   46.1054   52.1144 C   0  0  0  0  0  0  0  0  0  0  0  0
   68.4625   47.1384   51.6245 C   0  0  0  0  0  0  0  0  0  0  0  0
   69.3642   47.7433   52.4733 C   0  0  0  0  0  0  0  0  0  0  0  0
   69.4704   47.2978   53.7792 C   0  0  0  0  0  0  0  0  0  0  0  0
   70.1641   48.8094   51.9995 N   0  0  0  0  0  0  0  0  0  0  0  0
   69.7766   49.4689   51.0031 O   0  0  0  0  0  0  0  0  0  0  0  0
   71.3413   49.1264   52.6091 O   0  0  0  0  0  0  0  0  0  0  0  0
 12 13  1  0
 13 14  1  0
 13 15  1  0
 13  6  1  0
  6  7  2  0
  6 11  1  0
  7  8  1  0
  8  9  2  0
  9  3  1  0
  9 10  1  0
  3  4  2  0
  3  5  1  0
  5  1  1  0
  1  2  2  0
  1 16  1  0
 16 17  1  0
 17 18  1  0
 18 19  2  0
 18 20  1  0
 20 21  2  0
 20 25  1  0
 21 22  1  0
 22 23  2  0
 23 24  1  0
 24 26  1  0
 24 25  2  0
 26 27  2  0
 26 28  1  0
 10 11  2  0
M  CHG  2  26   1  28  -1
M  END
>  <minimizedAffinity>  (209) 
-9.41250

$$$$
cs_full_output_folder/data/smiles/1907.pdb
     RDKit          3D

 33 36  0  0  0  0  0  0  0  0999 V2000
   70.0131   48.2773   57.8108 C   0  0  0  0  0  0  0  0  0  0  0  0
   70.6515   49.0578   58.7367 C   0  0  0  0  0  0  0  0  0  0  0  0
   71.6680   48.5201   59.4861 C   0  0  0  0  0  0  0  0  0  0  0  0
   72.0910   47.2076   59.3534 C   0  0  0  0  0  0  0  0  0  0  0  0
   71.4591   46.4350   58.4366 C   0  0  0  0  0  0  0  0  0  0  0  0
   70.4362   46.9609   57.6768 C   0  0  0  0  0  0  0  0  0  0  0  0
   71.7894   45.0635   58.1925 N   0  0  0  0  0  0  0  0  0  0  0  0
   70.9893   43.9859   58.5729 C   0  0  0  0  0  0  0  0  0  0  0  0
   69.9014   44.2308   59.1718 O   0  0  0  0  0  0  0  0  0  0  0  0
   71.3069   42.5884   58.3338 C   0  0  0  0  0  0  0  0  0  0  0  0
   71.9429   42.2627   57.2951 O   0  0  0  0  0  0  0  0  0  0  0  0
   70.9353   41.5403   59.2181 N   0  0  0  0  0  0  0  0  0  0  0  0
   71.2347   40.1778   59.0033 C   0  0  0  0  0  0  0  0  0  0  0  0
   72.5344   39.7528   59.1659 C   0  0  0  0  0  0  0  0  0  0  0  0
   72.8946   38.4152   58.9665 C   0  0  0  0  0  0  0  0  0  0  0  0
   71.9518   37.5065   58.6043 C   0  0  0  0  0  0  0  0  0  0  0  0
   70.6447   37.9047   58.4340 C   0  0  0  0  0  0  0  0  0  0  0  0
   70.2985   39.2247   58.6333 C   0  0  0  0  0  0  0  0  0  0  0  0
   68.9192   39.6145   58.4488 C   0  0  0  0  0  0  0  0  0  0  0  0
   68.4012   39.5353   57.3120 O   0  0  0  0  0  0  0  0  0  0  0  0
   68.1778   40.0703   59.5168 O   0  0  0  0  0  0  0  0  0  0  0  0
   68.9018   48.7218   56.9389 C   0  0  0  0  0  0  0  0  0  0  0  0
   67.6770   45.1649   52.6854 N   0  0  0  0  0  0  0  0  0  0  0  0
   67.9948   46.0653   53.7351 C   0  0  0  0  0  0  0  0  0  0  0  0
   67.5763   45.8929   54.9932 N   0  0  0  0  0  0  0  0  0  0  0  0
   67.8678   46.7268   55.9731 N   0  0  0  0  0  0  0  0  0  0  0  0
   68.6290   47.8494   55.7883 C   0  0  0  0  0  0  0  0  0  0  0  0
   69.0844   48.0709   54.5080 C   0  0  0  0  0  0  0  0  0  0  0  0
   68.7795   47.1982   53.4811 C   0  0  0  0  0  0  0  0  0  0  0  0
   69.2468   47.3695   52.0978 C   0  0  0  0  0  0  0  0  0  0  0  0
   69.6178   48.8083   51.8615 C   0  0  0  0  0  0  0  0  0  0  0  0
   70.6604   49.1468   52.9297 C   0  0  0  0  0  0  0  0  0  0  0  0
   69.9207   49.2759   54.2491 C   0  0  0  0  0  0  0  0  0  0  0  0
 23 24  1  0
 24 25  2  0
 24 29  1  0
 25 26  1  0
 26 27  2  0
 27 22  1  0
 27 28  1  0
 22  1  1  0
  1  2  2  0
  1  6  1  0
  2  3  1  0
  3  4  2  0
  4  5  1  0
  5  7  1  0
  5  6  2  0
  7  8  1  0
  8  9  2  0
  8 10  1  0
 10 11  2  0
 10 12  1  0
 12 13  1  0
 13 14  2  0
 13 18  1  0
 14 15  1  0
 15 16  2  0
 16 17  1  0
 17 18  2  0
 18 19  1  0
 19 20  2  0
 19 21  1  0
 28 29  2  0
 28 33  1  0
 29 30  1  0
 30 31  1  0
 31 32  1  0
 32 33  1  0
M  END
>  <minimizedAffinity>  (210) 
-9.41086

$$$$
cs_full_output_folder/data/smiles/2194.pdb
     RDKit          3D

 26 28  0  0  0  0  0  0  0  0999 V2000
   71.0407   41.8593   58.5118 C   0  0  0  0  0  0  0  0  0  0  0  0
   69.7796   41.4796   57.8307 C   0  0  0  0  0  0  0  0  0  0  0  0
   68.9809   42.3651   57.1069 C   0  0  0  0  0  0  0  0  0  0  0  0
   67.9304   41.6022   56.6534 C   0  0  0  0  0  0  0  0  0  0  0  0
   68.1118   40.3301   57.0953 N   0  0  0  0  0  0  0  0  0  0  0  0
   69.2283   40.2540   57.8065 N   0  0  0  0  0  0  0  0  0  0  0  0
   69.7087   39.0601   58.4150 C   0  0  0  0  0  0  0  0  0  0  0  0
   70.8784   38.4281   58.0511 C   0  0  0  0  0  0  0  0  0  0  0  0
   71.3169   37.2706   58.6669 C   0  0  0  0  0  0  0  0  0  0  0  0
   70.5752   36.6990   59.6939 C   0  0  0  0  0  0  0  0  0  0  0  0
   71.2252   35.1125   60.5108 Br  0  0  0  0  0  0  0  0  0  0  0  0
   69.4061   37.3124   60.0731 C   0  0  0  0  0  0  0  0  0  0  0  0
   68.9819   38.4735   59.4432 C   0  0  0  0  0  0  0  0  0  0  0  0
   69.2508   43.8041   56.9061 C   0  0  0  0  0  0  0  0  0  0  0  0
   70.2003   44.3966   57.4282 O   0  0  0  0  0  0  0  0  0  0  0  0
   68.3806   44.5559   56.0687 N   0  0  0  0  0  0  0  0  0  0  0  0
   68.5413   45.9633   55.7901 C   0  0  0  0  0  0  0  0  0  0  0  0
   68.5250   46.2899   54.3515 C   0  0  0  0  0  0  0  0  0  0  0  0
   67.7994   45.5626   53.4295 C   0  0  0  0  0  0  0  0  0  0  0  0
   67.8270   45.9097   52.0974 C   0  0  0  0  0  0  0  0  0  0  0  0
   68.5792   46.9839   51.6812 C   0  0  0  0  0  0  0  0  0  0  0  0
   69.3143   47.7301   52.5776 C   0  0  0  0  0  0  0  0  0  0  0  0
   69.2680   47.3592   53.9072 C   0  0  0  0  0  0  0  0  0  0  0  0
   70.1156   48.8682   52.1224 C   0  0  0  0  0  0  0  0  0  0  0  0
   71.2610   49.0141   52.5957 O   0  0  0  0  0  0  0  0  0  0  0  0
   69.6051   49.7130   51.2171 F   0  0  0  0  0  0  0  0  0  0  0  0
  1  2  1  0
  2  3  2  0
  2  6  1  0
  3 14  1  0
  3  4  1  0
 14 15  2  0
 14 16  1  0
 16 17  1  0
 17 18  1  0
 18 19  2  0
 18 23  1  0
 19 20  1  0
 20 21  2  0
 21 22  1  0
 22 24  1  0
 22 23  2  0
 24 25  2  0
 24 26  1  0
  4  5  2  0
  5  6  1  0
  6  7  1  0
  7  8  2  0
  7 13  1  0
  8  9  1  0
  9 10  2  0
 10 11  1  0
 10 12  1  0
 12 13  2  0
M  END
>  <minimizedAffinity>  (211) 
-9.41022

$$$$
cs_full_output_folder/data/smiles/8590.pdb
     RDKit          3D

 31 35  0  0  0  0  0  0  0  0999 V2000
   71.3586   47.2477   58.8216 C   0  0  0  0  0  0  0  0  0  0  0  0
   70.4215   47.8565   58.0155 C   0  0  0  0  0  0  0  0  0  0  0  0
   69.6089   47.1179   57.1327 C   0  0  0  0  0  0  0  0  0  0  0  0
   69.7701   45.7755   57.0901 C   0  0  0  0  0  0  0  0  0  0  0  0
   70.7128   45.1087   57.8951 C   0  0  0  0  0  0  0  0  0  0  0  0
   71.4918   45.8806   58.7509 C   0  0  0  0  0  0  0  0  0  0  0  0
   72.4022   45.3042   59.5413 F   0  0  0  0  0  0  0  0  0  0  0  0
   76.9014   47.1791   59.1710 C   0  0  0  0  0  0  0  0  0  0  0  0
   77.0068   48.5553   58.8628 N   0  0  1  0  0  0  0  0  0  0  0  0
   77.0009   48.9321   57.5017 C   0  0  0  0  0  0  0  0  0  0  0  0
   75.6066   49.1444   56.9992 C   0  0  0  0  0  0  0  0  0  0  0  0
   74.7345   49.9676   57.8567 C   0  0  1  0  0  0  0  0  0  0  0  0
   73.3599   49.3739   57.9219 C   0  0  0  0  0  0  0  0  0  0  0  0
   73.1210   48.9939   59.2878 N   0  0  0  0  0  0  0  0  0  0  0  0
   72.2149   48.0239   59.7305 C   0  0  0  0  0  0  0  0  0  0  0  0
   72.0987   47.7723   60.9663 O   0  0  0  0  0  0  0  0  0  0  0  0
   73.9687   49.7884   60.1229 C   0  0  0  0  0  0  0  0  0  0  0  0
   75.1712   50.1737   59.2578 C   0  0  1  0  0  0  0  0  0  0  0  0
   76.3630   49.4616   59.7319 C   0  0  0  0  0  0  0  0  0  0  0  0
   68.6509   47.8542   56.3029 C   0  0  0  0  0  0  0  0  0  0  0  0
   69.1306   48.0518   54.9327 C   0  0  0  0  0  0  0  0  0  0  0  0
   70.0200   49.0519   54.6644 N   0  0  0  0  0  0  0  0  0  0  0  0
   70.4446   49.3357   53.4631 N   0  0  0  0  0  0  0  0  0  0  0  0
   70.0224   48.6404   52.3801 C   0  0  0  0  0  0  0  0  0  0  0  0
   70.4422   48.9287   51.2247 O   0  0  0  0  0  0  0  0  0  0  0  0
   69.1250   47.6111   52.5537 C   0  0  0  0  0  0  0  0  0  0  0  0
   68.6960   46.8812   51.4659 C   0  0  0  0  0  0  0  0  0  0  0  0
   67.8110   45.8415   51.6663 C   0  0  0  0  0  0  0  0  0  0  0  0
   67.3758   45.5525   52.9380 C   0  0  0  0  0  0  0  0  0  0  0  0
   67.8311   46.3109   54.0079 C   0  0  0  0  0  0  0  0  0  0  0  0
   68.6986   47.3410   53.8489 C   0  0  0  0  0  0  0  0  0  0  0  0
  9  8  1  6
  9 10  1  0
  9 19  1  0
 10 11  1  0
 12 11  1  1
 12 13  1  0
 12 18  1  0
 13 14  1  0
 14 15  1  0
 14 17  1  0
 15 16  2  0
 15  1  1  0
  1  2  2  0
  1  6  1  0
  2  3  1  0
  3 20  1  0
  3  4  2  0
 20 21  1  0
 21 22  2  0
 21 31  1  0
 22 23  1  0
 23 24  1  0
 24 25  2  0
 24 26  1  0
 26 27  1  0
 26 31  2  0
 27 28  2  0
 28 29  1  0
 29 30  2  0
 30 31  1  0
  4  5  1  0
  5  6  2  0
  6  7  1  0
 18 17  1  1
 18 19  1  0
M  CHG  1   9   1
M  END
>  <minimizedAffinity>  (212) 
-9.40817

$$$$
cs_full_output_folder/data/smiles/842.pdb
     RDKit          3D

 33 37  0  0  0  0  0  0  0  0999 V2000
   71.1836   46.7253   58.7558 C   0  0  0  0  0  0  0  0  0  0  0  0
   71.1862   45.3805   58.5249 C   0  0  0  0  0  0  0  0  0  0  0  0
   70.3531   44.8045   57.5546 C   0  0  0  0  0  0  0  0  0  0  0  0
   69.5070   45.6494   56.8156 C   0  0  0  0  0  0  0  0  0  0  0  0
   69.4903   46.9962   57.0322 C   0  0  0  0  0  0  0  0  0  0  0  0
   70.3314   47.4983   57.9973 C   0  0  0  0  0  0  0  0  0  0  0  0
   71.8698   47.0881   60.9838 O   0  0  0  0  0  0  0  0  0  0  0  0
   72.0325   47.3685   59.7843 C   0  0  0  0  0  0  0  0  0  0  0  0
   73.0297   48.3033   59.4148 N   0  0  0  0  0  0  0  0  0  0  0  0
   73.2842   48.6591   58.0172 C   0  0  0  0  0  0  0  0  0  0  0  0
   74.6943   48.1698   57.6449 C   0  0  0  0  0  0  0  0  0  0  0  0
   75.4797   48.0639   58.8904 N   0  0  0  0  0  0  0  0  0  0  0  0
   75.2437   49.1180   59.8347 C   0  0  2  0  0  0  0  0  0  0  0  0
   76.2035   49.3475   60.7552 F   0  0  0  0  0  0  0  0  0  0  0  0
   73.8399   48.9548   60.4242 C   0  0  0  0  0  0  0  0  0  0  0  0
   76.3557   46.9612   59.0209 C   0  0  0  0  0  0  0  0  0  0  0  0
   75.9533   45.6484   59.0913 C   0  0  0  0  0  0  0  0  0  0  0  0
   76.8218   44.5790   59.2242 C   0  0  0  0  0  0  0  0  0  0  0  0
   78.1648   44.8394   59.2909 C   0  0  0  0  0  0  0  0  0  0  0  0
   78.5565   46.1662   59.2183 C   0  0  0  0  0  0  0  0  0  0  0  0
   77.7107   47.1819   59.0904 N   0  0  0  0  0  0  0  0  0  0  0  0
   68.5654   47.9267   56.2799 C   0  0  0  0  0  0  0  0  0  0  0  0
   69.0572   48.0967   54.9011 C   0  0  0  0  0  0  0  0  0  0  0  0
   69.9716   49.0714   54.6750 N   0  0  0  0  0  0  0  0  0  0  0  0
   70.4650   49.3290   53.4780 N   0  0  0  0  0  0  0  0  0  0  0  0
   70.0856   48.6332   52.4072 C   0  0  0  0  0  0  0  0  0  0  0  0
   70.5467   48.8710   51.2585 O   0  0  0  0  0  0  0  0  0  0  0  0
   69.1629   47.6219   52.5325 C   0  0  0  0  0  0  0  0  0  0  0  0
   68.7375   46.8781   51.4592 C   0  0  0  0  0  0  0  0  0  0  0  0
   67.8170   45.8795   51.6157 C   0  0  0  0  0  0  0  0  0  0  0  0
   67.3217   45.6405   52.8919 C   0  0  0  0  0  0  0  0  0  0  0  0
   67.7375   46.3836   53.9927 C   0  0  0  0  0  0  0  0  0  0  0  0
   68.6530   47.3686   53.8125 C   0  0  0  0  0  0  0  0  0  0  0  0
  7  8  2  0
  8  1  1  0
  8  9  1  0
  1  2  2  0
  1  6  1  0
  2  3  1  0
  3  4  2  0
  4  5  1  0
  5 22  1  0
  5  6  2  0
 22 23  1  0
 23 24  2  0
 23 33  1  0
 24 25  1  0
 25 26  1  0
 26 27  2  0
 26 28  1  0
 28 29  1  0
 28 33  2  0
 29 30  2  0
 30 31  1  0
 31 32  2  0
 32 33  1  0
  9 10  1  0
  9 15  1  0
 10 11  1  0
 11 12  1  0
 12 16  1  0
 12 13  1  0
 16 17  2  0
 16 21  1  0
 17 18  1  0
 18 19  2  0
 19 20  1  0
 20 21  2  0
 13 14  1  1
 13 15  1  0
M  END
>  <minimizedAffinity>  (213) 
-9.40524

$$$$
cs_full_output_folder/data/smiles/8987.pdb
     RDKit          3D

 31 35  0  0  0  0  0  0  0  0999 V2000
   71.6017   47.1146   58.9019 C   0  0  0  0  0  0  0  0  0  0  0  0
   70.8128   47.8887   58.1027 C   0  0  0  0  0  0  0  0  0  0  0  0
   69.9111   47.3450   57.1878 C   0  0  0  0  0  0  0  0  0  0  0  0
   69.8407   45.9827   57.1172 C   0  0  0  0  0  0  0  0  0  0  0  0
   70.6240   45.1395   57.9105 C   0  0  0  0  0  0  0  0  0  0  0  0
   71.5095   45.7473   58.8079 C   0  0  0  0  0  0  0  0  0  0  0  0
   72.2606   44.9128   59.5700 F   0  0  0  0  0  0  0  0  0  0  0  0
   75.8191   47.8049   59.0408 C   0  0  0  0  0  0  0  0  0  0  0  0
   74.5767   47.9881   58.1973 C   0  0  0  0  0  0  0  0  0  0  0  0
   73.8381   48.0455   59.4377 N   0  0  0  0  0  0  0  0  0  0  0  0
   72.5346   47.6878   59.8465 C   0  0  0  0  0  0  0  0  0  0  0  0
   72.1328   47.8488   61.0274 O   0  0  0  0  0  0  0  0  0  0  0  0
   75.0214   48.6216   60.0340 C   0  0  0  0  0  0  0  0  0  0  0  0
   77.0594   48.4575   58.4990 C   0  0  0  0  0  0  0  0  0  0  0  0
   78.1455   48.8823   59.4448 C   0  0  0  0  0  0  0  0  0  0  0  0
   78.3524   47.7799   58.4282 C   0  0  0  0  0  0  0  0  0  0  0  0
   76.7613   49.2465   56.0751 N   0  0  0  0  0  0  0  0  0  0  0  0
   76.7740   49.4805   57.4538 C   0  0  0  0  0  0  0  0  0  0  0  0
   76.5233   50.6551   57.8593 O   0  0  0  0  0  0  0  0  0  0  0  0
   69.1000   48.2909   56.3979 C   0  0  0  0  0  0  0  0  0  0  0  0
   69.4337   48.3469   54.9727 C   0  0  0  0  0  0  0  0  0  0  0  0
   70.3766   49.2448   54.5365 N   0  0  0  0  0  0  0  0  0  0  0  0
   70.7603   49.3397   53.2894 N   0  0  0  0  0  0  0  0  0  0  0  0
   70.2768   48.5735   52.2983 C   0  0  0  0  0  0  0  0  0  0  0  0
   70.6650   48.6884   51.1058 O   0  0  0  0  0  0  0  0  0  0  0  0
   69.3112   47.6330   52.6522 C   0  0  0  0  0  0  0  0  0  0  0  0
   68.7690   46.8225   51.6791 C   0  0  0  0  0  0  0  0  0  0  0  0
   67.8061   45.8922   51.9995 C   0  0  0  0  0  0  0  0  0  0  0  0
   67.4276   45.8235   53.3234 C   0  0  0  0  0  0  0  0  0  0  0  0
   67.9662   46.6295   54.2968 C   0  0  0  0  0  0  0  0  0  0  0  0
   68.9227   47.5520   53.9784 C   0  0  0  0  0  0  0  0  0  0  0  0
 17 18  1  0
 18 19  2  0
 18 14  1  0
 14  8  1  0
 14 15  1  0
 14 16  1  0
  8  9  1  0
  8 13  1  0
  9 10  1  0
 10 11  1  0
 10 13  1  0
 11 12  2  0
 11  1  1  0
  1  2  2  0
  1  6  1  0
  2  3  1  0
  3 20  1  0
  3  4  2  0
 20 21  1  0
 21 22  2  0
 21 31  1  0
 22 23  1  0
 23 24  1  0
 24 25  2  0
 24 26  1  0
 26 27  1  0
 26 31  2  0
 27 28  2  0
 28 29  1  0
 29 30  2  0
 30 31  1  0
  4  5  1  0
  5  6  2  0
  6  7  1  0
 15 16  1  0
M  END
>  <minimizedAffinity>  (214) 
-9.40013

$$$$
cs_full_output_folder/data/smiles/7871.pdb
     RDKit          3D

 32 35  0  0  0  0  0  0  0  0999 V2000
   71.7153   47.1090   59.1493 C   0  0  0  0  0  0  0  0  0  0  0  0
   70.7625   47.7702   58.3851 C   0  0  0  0  0  0  0  0  0  0  0  0
   69.9166   47.1445   57.5110 C   0  0  0  0  0  0  0  0  0  0  0  0
   70.0518   45.7465   57.4071 C   0  0  0  0  0  0  0  0  0  0  0  0
   70.9867   45.0574   58.1499 C   0  0  0  0  0  0  0  0  0  0  0  0
   71.8123   45.7441   59.0162 C   0  0  0  0  0  0  0  0  0  0  0  0
   72.7357   45.0849   59.7537 F   0  0  0  0  0  0  0  0  0  0  0  0
   77.1810   49.8825   57.8090 C   0  0  0  0  0  0  0  0  0  0  0  0
   78.2595   49.7667   58.4373 O   0  0  0  0  0  0  0  0  0  0  0  0
   75.9685   49.7585   58.4991 N   0  0  0  0  0  0  0  0  0  0  0  0
   75.9529   49.4973   59.9124 C   0  0  0  0  0  0  0  0  0  0  0  0
   74.5545   49.3579   60.4604 C   0  0  0  0  0  0  0  0  0  0  0  0
   73.6913   48.6170   59.5825 N   0  0  0  0  0  0  0  0  0  0  0  0
   72.5843   47.8556   60.0768 C   0  0  0  0  0  0  0  0  0  0  0  0
   72.2961   47.7799   61.2970 O   0  0  0  0  0  0  0  0  0  0  0  0
   73.9142   48.6179   58.1329 C   0  0  2  0  0  0  0  0  0  0  0  0
   74.8065   47.4546   57.8098 C   0  0  0  0  0  0  0  0  0  0  0  0
   74.6662   49.8949   57.8330 C   0  0  0  0  0  0  0  0  0  0  0  0
   78.2437   49.2211   55.6706 C   0  0  0  0  0  0  0  0  0  0  0  0
   77.2554   50.1490   56.3353 C   0  0  0  0  0  0  0  0  0  0  0  0
   68.8742   47.8330   56.6799 C   0  0  0  0  0  0  0  0  0  0  0  0
   69.2807   48.0817   55.3021 C   0  0  0  0  0  0  0  0  0  0  0  0
   70.2091   49.0639   55.0788 N   0  0  0  0  0  0  0  0  0  0  0  0
   70.6863   49.3386   53.8824 N   0  0  0  0  0  0  0  0  0  0  0  0
   70.3027   48.6803   52.7734 C   0  0  0  0  0  0  0  0  0  0  0  0
   70.7800   48.9659   51.6364 O   0  0  0  0  0  0  0  0  0  0  0  0
   69.3707   47.6764   52.8984 C   0  0  0  0  0  0  0  0  0  0  0  0
   68.9125   46.9637   51.8078 C   0  0  0  0  0  0  0  0  0  0  0  0
   67.9626   45.9747   51.9690 C   0  0  0  0  0  0  0  0  0  0  0  0
   67.4877   45.7177   53.2162 C   0  0  0  0  0  0  0  0  0  0  0  0
   67.9535   46.4337   54.2980 C   0  0  0  0  0  0  0  0  0  0  0  0
   68.8918   47.4159   54.1760 C   0  0  0  0  0  0  0  0  0  0  0  0
 19 20  1  0
 20  8  1  0
  8  9  2  0
  8 10  1  0
 10 11  1  0
 10 18  1  0
 11 12  1  0
 12 13  1  0
 13 14  1  0
 13 16  1  0
 14 15  2  0
 14  1  1  0
  1  2  2  0
  1  6  1  0
  2  3  1  0
  3 21  1  0
  3  4  2  0
 21 22  1  0
 22 23  2  0
 22 32  1  0
 23 24  1  0
 24 25  1  0
 25 26  2  0
 25 27  1  0
 27 28  1  0
 27 32  2  0
 28 29  2  0
 29 30  1  0
 30 31  2  0
 31 32  1  0
  4  5  1  0
  5  6  2  0
  6  7  1  0
 16 17  1  1
 16 18  1  0
M  END
>  <minimizedAffinity>  (215) 
-9.39754

$$$$
cs_full_output_folder/data/smiles/2257.pdb
     RDKit          3D

 30 33  0  0  0  0  0  0  0  0999 V2000
   71.3612   46.9210   58.9177 C   0  0  0  0  0  0  0  0  0  0  0  0
   70.5644   47.7119   58.1266 C   0  0  0  0  0  0  0  0  0  0  0  0
   69.7444   47.1802   57.1237 C   0  0  0  0  0  0  0  0  0  0  0  0
   69.7845   45.8164   56.9760 C   0  0  0  0  0  0  0  0  0  0  0  0
   70.5963   45.0095   57.7817 C   0  0  0  0  0  0  0  0  0  0  0  0
   71.3958   45.5523   58.7631 C   0  0  0  0  0  0  0  0  0  0  0  0
   72.1883   44.7626   59.5500 F   0  0  0  0  0  0  0  0  0  0  0  0
   74.1417   47.1831   62.4347 O   0  0  0  0  0  0  0  0  0  0  0  0
   74.7793   47.7119   61.5351 C   0  0  0  0  0  0  0  0  0  0  0  0
   76.1296   47.0843   61.4581 C   0  0  0  0  0  0  0  0  0  0  0  0
   76.8264   47.4391   60.1618 C   0  0  0  0  0  0  0  0  0  0  0  0
   76.0902   46.8661   58.9703 C   0  0  0  0  0  0  0  0  0  0  0  0
   75.3777   48.1412   57.9272 S   0  0  0  0  0  0  0  0  0  0  0  0
   73.6404   48.4443   58.2412 C   0  0  0  0  0  0  0  0  0  0  0  0
   73.3556   48.3005   59.6426 N   0  0  0  0  0  0  0  0  0  0  0  0
   72.1975   47.5259   59.9486 C   0  0  0  0  0  0  0  0  0  0  0  0
   71.8485   47.3314   61.1400 O   0  0  0  0  0  0  0  0  0  0  0  0
   74.0035   48.7829   60.8372 C   0  0  0  0  0  0  0  0  0  0  0  0
   68.9322   48.1163   56.3003 C   0  0  0  0  0  0  0  0  0  0  0  0
   69.3704   48.2177   54.8965 C   0  0  0  0  0  0  0  0  0  0  0  0
   70.3286   49.1286   54.5377 N   0  0  0  0  0  0  0  0  0  0  0  0
   70.7318   49.2862   53.2970 N   0  0  0  0  0  0  0  0  0  0  0  0
   70.2384   48.5638   52.2726 C   0  0  0  0  0  0  0  0  0  0  0  0
   70.6405   48.7324   51.0894 O   0  0  0  0  0  0  0  0  0  0  0  0
   69.2765   47.6330   52.5646 C   0  0  0  0  0  0  0  0  0  0  0  0
   68.7403   46.8525   51.5418 C   0  0  0  0  0  0  0  0  0  0  0  0
   67.7907   45.9095   51.7918 C   0  0  0  0  0  0  0  0  0  0  0  0
   67.3626   45.7389   53.0998 C   0  0  0  0  0  0  0  0  0  0  0  0
   67.8936   46.5072   54.0920 C   0  0  0  0  0  0  0  0  0  0  0  0
   68.8511   47.4683   53.8718 C   0  0  0  0  0  0  0  0  0  0  0  0
  8  9  2  0
  9 10  1  0
  9 18  1  0
 10 11  1  0
 11 12  1  0
 12 13  1  0
 13 14  1  0
 14 15  1  0
 15 16  1  0
 15 18  1  0
 16 17  2  0
 16  1  1  0
  1  2  2  0
  1  6  1  0
  2  3  1  0
  3 19  1  0
  3  4  2  0
 19 20  1  0
 20 21  2  0
 20 30  1  0
 21 22  1  0
 22 23  1  0
 23 24  2  0
 23 25  1  0
 25 26  1  0
 25 30  2  0
 26 27  2  0
 27 28  1  0
 28 29  2  0
 29 30  1  0
  4  5  1  0
  5  6  2  0
  6  7  1  0
M  END
>  <minimizedAffinity>  (216) 
-9.39658

$$$$
cs_full_output_folder/data/smiles/6057.pdb
     RDKit          3D

 30 33  0  0  0  0  0  0  0  0999 V2000
   71.5104   46.9409   58.6545 C   0  0  0  0  0  0  0  0  0  0  0  0
   70.6974   47.7118   57.8689 C   0  0  0  0  0  0  0  0  0  0  0  0
   69.7238   47.3032   57.0350 C   0  0  0  0  0  0  0  0  0  0  0  0
   69.5641   45.8230   57.0053 C   0  0  0  0  0  0  0  0  0  0  0  0
   70.3744   45.0710   57.7799 C   0  0  0  0  0  0  0  0  0  0  0  0
   71.3429   45.5995   58.6034 C   0  0  0  0  0  0  0  0  0  0  0  0
   72.0554   44.6808   59.3477 F   0  0  0  0  0  0  0  0  0  0  0  0
   76.5462   48.5604   59.0667 N   0  0  0  0  0  0  0  0  0  0  0  0
   76.0625   47.9094   60.2588 C   0  0  0  0  0  0  0  0  0  0  0  0
   74.6092   48.2229   60.5967 C   0  0  0  0  0  0  0  0  0  0  0  0
   73.8267   47.6762   59.4973 N   0  0  0  0  0  0  0  0  0  0  0  0
   72.4757   47.5127   59.5520 C   0  0  0  0  0  0  0  0  0  0  0  0
   71.8443   47.9632   60.6700 O   0  0  0  0  0  0  0  0  0  0  0  0
   74.5526   47.3014   58.2818 C   0  0  0  0  0  0  0  0  0  0  0  0
   75.6489   48.2923   57.9821 C   0  0  0  0  0  0  0  0  0  0  0  0
   76.4907   50.0346   59.3106 C   0  0  0  0  0  0  0  0  0  0  0  0
   78.8632   50.8391   58.0419 C   0  0  0  0  0  0  0  0  0  0  0  0
   77.7547   50.4640   58.6214 C   0  0  0  0  0  0  0  0  0  0  0  0
   68.8190   48.1228   56.2376 C   0  0  0  0  0  0  0  0  0  0  0  0
   69.3167   48.2898   54.8709 C   0  0  0  0  0  0  0  0  0  0  0  0
   70.1981   49.2346   54.5198 N   0  0  0  0  0  0  0  0  0  0  0  0
   70.5972   49.4083   53.2342 N   0  0  0  0  0  0  0  0  0  0  0  0
   70.1614   48.6912   52.2756 C   0  0  0  0  0  0  0  0  0  0  0  0
   70.5086   48.8267   51.0531 O   0  0  0  0  0  0  0  0  0  0  0  0
   69.2565   47.6936   52.5304 C   0  0  0  0  0  0  0  0  0  0  0  0
   68.7687   46.9133   51.4696 C   0  0  0  0  0  0  0  0  0  0  0  0
   67.8727   45.9503   51.7941 C   0  0  0  0  0  0  0  0  0  0  0  0
   67.4026   45.6684   53.0473 C   0  0  0  0  0  0  0  0  0  0  0  0
   67.9097   46.4645   54.0584 C   0  0  0  0  0  0  0  0  0  0  0  0
   68.8121   47.4572   53.8095 C   0  0  0  0  0  0  0  0  0  0  0  0
 17 18  3  0
 18 16  1  0
 16  8  1  0
  8  9  1  0
  8 15  1  0
  9 10  1  0
 10 11  1  0
 11 12  1  0
 11 14  1  0
 12 13  2  0
 12  1  1  0
  1  2  2  0
  1  6  1  0
  2  3  1  0
  3 19  1  0
  3  4  2  0
 19 20  1  0
 20 21  2  0
 20 30  1  0
 21 22  1  0
 22 23  1  0
 23 24  2  0
 23 25  1  0
 25 26  1  0
 25 30  2  0
 26 27  2  0
 27 28  1  0
 28 29  2  0
 29 30  1  0
  4  5  1  0
  5  6  2  0
  6  7  1  0
 14 15  1  0
M  CHG  1   8   1
M  END
>  <minimizedAffinity>  (217) 
-9.39053

$$$$
cs_full_output_folder/data/smiles/756.pdb
     RDKit          3D

 33 37  0  0  0  0  0  0  0  0999 V2000
   72.3887   47.7361   58.6118 C   0  0  0  0  0  0  0  0  0  0  0  0
   71.4052   48.3311   57.8596 C   0  0  0  0  0  0  0  0  0  0  0  0
   71.7212   49.2832   56.9416 C   0  0  0  0  0  0  0  0  0  0  0  0
   73.0611   49.6318   56.7910 C   0  0  0  0  0  0  0  0  0  0  0  0
   74.0712   49.0590   57.5248 C   0  0  0  0  0  0  0  0  0  0  0  0
   73.6943   48.1020   58.4379 C   0  0  0  0  0  0  0  0  0  0  0  0
   74.6953   47.5310   59.1682 F   0  0  0  0  0  0  0  0  0  0  0  0
   71.6106   47.1193   60.7346 O   0  0  0  0  0  0  0  0  0  0  0  0
   72.0307   46.7305   59.6031 C   0  0  0  0  0  0  0  0  0  0  0  0
   72.1256   45.3406   59.3792 N   0  0  0  0  0  0  0  0  0  0  0  0
   72.6016   44.8644   58.1084 C   0  0  0  0  0  0  0  0  0  0  0  0
   71.9004   43.6437   57.6349 C   0  0  0  0  0  0  0  0  0  0  0  0
   70.8175   43.1702   58.4535 N   0  0  0  0  0  0  0  0  0  0  0  0
   70.7127   43.4495   59.8519 C   0  0  0  0  0  0  0  0  0  0  0  0
   71.7638   44.3696   60.3844 C   0  0  0  0  0  0  0  0  0  0  0  0
   69.7869   42.3745   57.8628 C   0  0  0  0  0  0  0  0  0  0  0  0
   68.9000   42.8460   56.9215 C   0  0  0  0  0  0  0  0  0  0  0  0
   67.9088   42.0247   56.3781 C   0  0  0  0  0  0  0  0  0  0  0  0
   67.7893   40.7227   56.7662 C   0  0  0  0  0  0  0  0  0  0  0  0
   68.6500   40.2226   57.6963 C   0  0  0  0  0  0  0  0  0  0  0  0
   69.6359   41.0542   58.2299 C   0  0  0  0  0  0  0  0  0  0  0  0
   70.6936   49.9498   56.1032 C   0  0  0  0  0  0  0  0  0  0  0  0
   70.4535   49.2917   54.8010 C   0  0  0  0  0  0  0  0  0  0  0  0
   71.2577   49.5583   53.7301 N   0  0  0  0  0  0  0  0  0  0  0  0
   71.1040   48.9818   52.5580 N   0  0  0  0  0  0  0  0  0  0  0  0
   70.1295   48.0698   52.3137 C   0  0  0  0  0  0  0  0  0  0  0  0
   69.9706   47.5098   51.1994 O   0  0  0  0  0  0  0  0  0  0  0  0
   69.2812   47.7462   53.3344 C   0  0  0  0  0  0  0  0  0  0  0  0
   69.4644   48.3728   54.5692 C   0  0  0  0  0  0  0  0  0  0  0  0
   68.4755   47.9786   55.6021 C   0  0  0  0  0  0  0  0  0  0  0  0
   68.4886   46.4885   55.7082 C   0  0  0  0  0  0  0  0  0  0  0  0
   68.3802   45.7805   54.3835 C   0  0  0  0  0  0  0  0  0  0  0  0
   68.1667   46.7706   53.2511 C   0  0  0  0  0  0  0  0  0  0  0  0
  8  9  2  0
  9  1  1  0
  9 10  1  0
  1  2  2  0
  1  6  1  0
  2  3  1  0
  3 22  1  0
  3  4  2  0
 22 23  1  0
 23 24  2  0
 23 29  1  0
 24 25  1  0
 25 26  1  0
 26 27  2  0
 26 28  1  0
 28 29  2  0
 28 33  1  0
 29 30  1  0
 30 31  1  0
 31 32  1  0
 32 33  1  0
  4  5  1  0
  5  6  2  0
  6  7  1  0
 10 11  1  0
 10 15  1  0
 11 12  1  0
 12 13  1  0
 13 16  1  0
 13 14  1  0
 16 17  2  0
 16 21  1  0
 17 18  1  0
 18 19  2  0
 19 20  1  0
 20 21  2  0
 14 15  1  0
M  END
>  <minimizedAffinity>  (218) 
-9.38877

$$$$
cs_full_output_folder/data/smiles/5614.pdb
     RDKit          3D

 30 32  0  0  0  0  0  0  0  0999 V2000
   68.1699   38.8999   58.6118 C   0  0  0  0  0  0  0  0  0  0  0  0
   68.3569   40.2588   58.0164 C   0  0  0  0  0  0  0  0  0  0  0  0
   67.5944   40.6714   56.9482 C   0  0  0  0  0  0  0  0  0  0  0  0
   67.7284   41.9186   56.3605 C   0  0  0  0  0  0  0  0  0  0  0  0
   68.6558   42.8156   56.8416 C   0  0  0  0  0  0  0  0  0  0  0  0
   69.4200   42.4062   57.9119 C   0  0  0  0  0  0  0  0  0  0  0  0
   69.2888   41.1459   58.5091 C   0  0  0  0  0  0  0  0  0  0  0  0
   68.8515   44.1606   56.2648 C   0  0  0  0  0  0  0  0  0  0  0  0
   69.7644   44.8647   56.7506 O   0  0  0  0  0  0  0  0  0  0  0  0
   68.0911   44.6883   55.2231 N   0  0  0  0  0  0  0  0  0  0  0  0
   68.1560   45.9327   54.5938 C   0  0  0  0  0  0  0  0  0  0  0  0
   68.0762   45.8934   53.1888 C   0  0  0  0  0  0  0  0  0  0  0  0
   68.5430   46.8691   52.2977 C   0  0  0  0  0  0  0  0  0  0  0  0
   69.2935   48.0160   52.5616 C   0  0  0  0  0  0  0  0  0  0  0  0
   69.5739   48.5569   53.7968 C   0  0  0  0  0  0  0  0  0  0  0  0
   69.0800   48.1772   55.0476 C   0  0  0  0  0  0  0  0  0  0  0  0
   68.2660   47.0744   55.3309 C   0  0  0  0  0  0  0  0  0  0  0  0
   67.5576   47.1147   56.3565 O   0  0  0  0  0  0  0  0  0  0  0  0
   70.0630   40.8024   59.6201 N   0  0  0  0  0  0  0  0  0  0  0  0
   71.6374   40.1559   59.5508 S   0  0  0  0  0  0  0  0  0  0  0  0
   72.3798   40.3564   60.8635 O   0  0  0  0  0  0  0  0  0  0  0  0
   72.3649   40.8990   58.4478 O   0  0  0  0  0  0  0  0  0  0  0  0
   71.6382   38.4497   59.2057 C   0  0  0  0  0  0  0  0  0  0  0  0
   72.1375   38.0004   57.9729 C   0  0  0  0  0  0  0  0  0  0  0  0
   72.1845   36.6741   57.6408 C   0  0  0  0  0  0  0  0  0  0  0  0
   71.7110   35.7899   58.5918 C   0  0  0  0  0  0  0  0  0  0  0  0
   71.7234   34.4438   58.3381 F   0  0  0  0  0  0  0  0  0  0  0  0
   71.2216   36.1890   59.7940 C   0  0  0  0  0  0  0  0  0  0  0  0
   71.1821   37.5514   60.1137 C   0  0  0  0  0  0  0  0  0  0  0  0
   70.6681   37.9143   61.3252 F   0  0  0  0  0  0  0  0  0  0  0  0
  1  2  1  0
  2  3  2  0
  2  7  1  0
  3  4  1  0
  4  5  2  0
  5  8  1  0
  5  6  1  0
  8  9  2  0
  8 10  1  0
 10 11  1  0
 11 12  2  0
 11 17  1  0
 12 13  1  0
 13 14  2  0
 14 15  1  0
 15 16  2  0
 16 17  1  0
 17 18  2  0
  6  7  2  0
  7 19  1  0
 19 20  1  0
 20 21  2  0
 20 22  2  0
 20 23  1  0
 23 24  2  0
 23 29  1  0
 24 25  1  0
 25 26  2  0
 26 27  1  0
 26 28  1  0
 28 29  2  0
 29 30  1  0
M  END
>  <minimizedAffinity>  (219) 
-9.38811

$$$$
cs_full_output_folder/data/smiles/831.pdb
     RDKit          3D

 32 36  0  0  0  0  0  0  0  0999 V2000
   71.4716   46.8822   58.7120 C   0  0  0  0  0  0  0  0  0  0  0  0
   71.4454   45.5073   58.5327 C   0  0  0  0  0  0  0  0  0  0  0  0
   70.5610   44.8360   57.7299 C   0  0  0  0  0  0  0  0  0  0  0  0
   69.6186   45.5946   57.0422 C   0  0  0  0  0  0  0  0  0  0  0  0
   69.6174   46.9746   57.1975 C   0  0  0  0  0  0  0  0  0  0  0  0
   70.5128   47.6215   58.0078 C   0  0  0  0  0  0  0  0  0  0  0  0
   71.9060   47.4997   60.8642 O   0  0  0  0  0  0  0  0  0  0  0  0
   72.4107   47.3924   59.6518 C   0  0  0  0  0  0  0  0  0  0  0  0
   73.7401   47.7858   59.5241 N   0  0  0  0  0  0  0  0  0  0  0  0
   74.4171   47.7387   58.2772 C   0  0  0  0  0  0  0  0  0  0  0  0
   75.8008   48.2729   58.2294 C   0  0  0  0  0  0  0  0  0  0  0  0
   76.2813   48.9757   59.3271 N   0  0  0  0  0  0  0  0  0  0  0  0
   75.7646   48.7367   60.5998 C   0  0  0  0  0  0  0  0  0  0  0  0
   74.3893   48.2488   60.7361 C   0  0  0  0  0  0  0  0  0  0  0  0
   76.7609   50.3340   59.0999 C   0  0  0  0  0  0  0  0  0  0  0  0
   77.6771   50.4146   58.1916 N   0  0  0  0  0  0  0  0  0  0  0  0
   78.5647   50.3747   57.3794 C   0  0  0  0  0  0  0  0  0  0  0  0
   79.5716   49.3232   57.0301 C   0  0  0  0  0  0  0  0  0  0  0  0
   80.1149   50.0844   56.1415 C   0  0  0  0  0  0  0  0  0  0  0  0
   79.2274   51.2001   56.3435 C   0  0  0  0  0  0  0  0  0  0  0  0
   68.4935   47.7122   56.5326 C   0  0  0  0  0  0  0  0  0  0  0  0
   68.9904   48.0507   55.1824 C   0  0  0  0  0  0  0  0  0  0  0  0
   69.9211   49.0535   55.0732 N   0  0  0  0  0  0  0  0  0  0  0  0
   70.5108   49.3224   53.9202 N   0  0  0  0  0  0  0  0  0  0  0  0
   70.2249   48.6302   52.8007 C   0  0  0  0  0  0  0  0  0  0  0  0
   70.8141   48.9138   51.7009 O   0  0  0  0  0  0  0  0  0  0  0  0
   69.2916   47.6159   52.8653 C   0  0  0  0  0  0  0  0  0  0  0  0
   68.9943   46.9804   51.6951 C   0  0  0  0  0  0  0  0  0  0  0  0
   68.0167   45.9984   51.7279 C   0  0  0  0  0  0  0  0  0  0  0  0
   67.4054   45.7139   52.9075 C   0  0  0  0  0  0  0  0  0  0  0  0
   67.6910   46.3465   54.1121 C   0  0  0  0  0  0  0  0  0  0  0  0
   68.6632   47.3227   54.0757 C   0  0  0  0  0  0  0  0  0  0  0  0
  7  8  2  0
  8  1  1  0
  8  9  1  0
  1  2  2  0
  1  6  1  0
  2  3  1  0
  3  4  2  0
  4  5  1  0
  5 21  1  0
  5  6  2  0
 21 22  1  0
 22 23  2  0
 22 32  1  0
 23 24  1  0
 24 25  1  0
 25 26  2  0
 25 27  1  0
 27 28  1  0
 27 32  2  0
 28 29  2  0
 29 30  1  0
 30 31  2  0
 31 32  1  0
  9 10  1  0
  9 14  1  0
 10 11  1  0
 11 12  1  0
 12 15  1  0
 12 13  1  0
 15 16  1  0
 16 17  2  0
 17 18  1  0
 17 20  1  0
 18 19  2  0
 19 20  1  0
 13 14  1  0
M  CHG  1  12   1
M  END
>  <minimizedAffinity>  (220) 
-9.38623

$$$$
cs_full_output_folder/data/smiles/1061.pdb
     RDKit          3D

 30 33  0  0  0  0  0  0  0  0999 V2000
   71.2602   46.1428   58.2734 C   0  0  0  0  0  0  0  0  0  0  0  0
   71.9061   46.9637   59.1389 C   0  0  0  0  0  0  0  0  0  0  0  0
   71.7025   48.3399   59.1738 C   0  0  0  0  0  0  0  0  0  0  0  0
   70.8170   48.9519   58.3148 C   0  0  0  0  0  0  0  0  0  0  0  0
   70.1422   48.1168   57.4160 C   0  0  0  0  0  0  0  0  0  0  0  0
   70.3592   46.7722   57.4000 C   0  0  0  0  0  0  0  0  0  0  0  0
   70.5576   43.7633   58.7626 C   0  0  0  0  0  0  0  0  0  0  0  0
   69.5834   44.1734   59.4664 O   0  0  0  0  0  0  0  0  0  0  0  0
   71.3865   44.7350   58.1702 N   0  0  0  0  0  0  0  0  0  0  0  0
   69.9227   40.0759   58.2334 C   0  0  0  0  0  0  0  0  0  0  0  0
   69.7167   41.4474   58.3407 C   0  0  0  0  0  0  0  0  0  0  0  0
   70.7284   42.3195   58.6305 C   0  0  0  0  0  0  0  0  0  0  0  0
   71.9794   41.7573   58.8123 C   0  0  0  0  0  0  0  0  0  0  0  0
   72.2103   40.3882   58.7087 C   0  0  0  0  0  0  0  0  0  0  0  0
   71.1730   39.5297   58.4153 C   0  0  0  0  0  0  0  0  0  0  0  0
   71.4218   38.0616   58.3027 C   0  0  0  0  0  0  0  0  0  0  0  0
   67.7708   39.1719   58.8099 C   0  0  0  0  0  0  0  0  0  0  0  0
   68.8795   39.2158   57.9393 O   0  0  0  0  0  0  0  0  0  0  0  0
   69.2060   48.8190   56.5033 C   0  0  0  0  0  0  0  0  0  0  0  0
   69.5979   48.6794   55.1039 C   0  0  0  0  0  0  0  0  0  0  0  0
   70.6571   49.3745   54.6161 N   0  0  0  0  0  0  0  0  0  0  0  0
   71.0246   49.3177   53.3501 N   0  0  0  0  0  0  0  0  0  0  0  0
   70.3685   48.5632   52.4516 C   0  0  0  0  0  0  0  0  0  0  0  0
   70.7203   48.5086   51.2294 O   0  0  0  0  0  0  0  0  0  0  0  0
   69.2827   47.8277   52.8677 C   0  0  0  0  0  0  0  0  0  0  0  0
   68.9203   47.9065   54.2092 C   0  0  0  0  0  0  0  0  0  0  0  0
   67.7660   47.0536   54.5871 C   0  0  0  0  0  0  0  0  0  0  0  0
   68.0036   45.6640   54.0110 C   0  0  0  0  0  0  0  0  0  0  0  0
   68.1850   45.6309   52.5370 C   0  0  0  0  0  0  0  0  0  0  0  0
   68.5078   46.9793   51.9386 C   0  0  0  0  0  0  0  0  0  0  0  0
 17 18  1  0
 18 10  1  0
 10 11  2  0
 10 15  1  0
 11 12  1  0
 12  7  1  0
 12 13  2  0
  7  8  2  0
  7  9  1  0
  9  1  1  0
  1  2  2  0
  1  6  1  0
  2  3  1  0
  3  4  2  0
  4  5  1  0
  5 19  1  0
  5  6  2  0
 19 20  1  0
 20 21  2  0
 20 26  1  0
 21 22  1  0
 22 23  1  0
 23 24  2  0
 23 25  1  0
 25 26  2  0
 25 30  1  0
 26 27  1  0
 27 28  1  0
 28 29  1  0
 29 30  1  0
 13 14  1  0
 14 15  2  0
 15 16  1  0
M  END
>  <minimizedAffinity>  (221) 
-9.38359

$$$$
cs_full_output_folder/data/smiles/6770.pdb
     RDKit          3D

 30 33  0  0  0  0  0  0  0  0999 V2000
   70.5033   46.2488   58.0658 C   0  0  0  0  0  0  0  0  0  0  0  0
   69.6645   46.0041   58.9447 O   0  0  0  0  0  0  0  0  0  0  0  0
   70.1036   46.7549   56.8227 N   0  0  0  0  0  0  0  0  0  0  0  0
   71.9463   45.9923   58.3982 C   0  0  0  0  0  0  0  0  0  0  0  0
   70.2906   41.3856   58.1521 C   0  0  0  0  0  0  0  0  0  0  0  0
   71.3933   42.3242   58.2610 N   0  0  0  0  0  0  0  0  0  0  0  0
   71.1685   43.6415   58.2713 N   0  0  0  0  0  0  0  0  0  0  0  0
   72.1886   44.5122   58.3781 C   0  0  0  0  0  0  0  0  0  0  0  0
   73.4683   43.9892   58.4735 C   0  0  0  0  0  0  0  0  0  0  0  0
   74.5185   44.8458   58.5600 C   0  0  0  0  0  0  0  0  0  0  0  0
   75.8147   44.3765   58.6313 C   0  0  0  0  0  0  0  0  0  0  0  0
   76.0467   43.0102   58.6169 C   0  0  0  0  0  0  0  0  0  0  0  0
   74.9991   42.1144   58.5330 C   0  0  0  0  0  0  0  0  0  0  0  0
   73.7140   42.6368   58.4620 C   0  0  0  0  0  0  0  0  0  0  0  0
   72.6380   41.7948   58.3517 C   0  0  0  0  0  0  0  0  0  0  0  0
   72.7849   40.5420   58.3286 O   0  0  0  0  0  0  0  0  0  0  0  0
   68.8082   47.1059   56.3472 C   0  0  2  0  0  0  0  0  0  0  0  0
   68.6705   46.9620   54.8814 C   0  0  0  0  0  0  0  0  0  0  0  0
   67.9421   45.9072   54.3719 C   0  0  0  0  0  0  0  0  0  0  0  0
   67.7303   45.7046   53.0243 C   0  0  0  0  0  0  0  0  0  0  0  0
   68.2830   46.6092   52.1476 C   0  0  0  0  0  0  0  0  0  0  0  0
   68.0733   46.4156   50.8190 F   0  0  0  0  0  0  0  0  0  0  0  0
   69.0186   47.6732   52.6378 C   0  0  0  0  0  0  0  0  0  0  0  0
   69.2172   47.8597   53.9784 C   0  0  0  0  0  0  0  0  0  0  0  0
   68.3445   48.4135   56.8326 C   0  0  0  0  0  0  0  0  0  0  0  0
   69.1067   49.5343   56.5844 C   0  0  0  0  0  0  0  0  0  0  0  0
   68.7082   50.7935   56.9896 C   0  0  0  0  0  0  0  0  0  0  0  0
   67.5278   50.9869   57.6611 C   0  0  0  0  0  0  0  0  0  0  0  0
   66.7529   49.8547   57.9176 C   0  0  0  0  0  0  0  0  0  0  0  0
   67.1581   48.5971   57.5092 C   0  0  0  0  0  0  0  0  0  0  0  0
  5  6  1  0
  6  7  1  0
  6 15  1  0
  7  8  2  0
  8  4  1  0
  8  9  1  0
  4  1  1  0
  1  2  2  0
  1  3  1  0
 17  3  1  6
 17 25  1  0
 17 18  1  0
 25 26  2  0
 25 30  1  0
 26 27  1  0
 27 28  2  0
 28 29  1  0
 29 30  2  0
 18 19  2  0
 18 24  1  0
 19 20  1  0
 20 21  2  0
 21 22  1  0
 21 23  1  0
 23 24  2  0
  9 10  1  0
  9 14  2  0
 10 11  2  0
 11 12  1  0
 12 13  2  0
 13 14  1  0
 14 15  1  0
 15 16  2  0
M  END
>  <minimizedAffinity>  (222) 
-9.38357

$$$$
cs_full_output_folder/data/smiles/8496.pdb
     RDKit          3D

 31 35  0  0  0  0  0  0  0  0999 V2000
   71.3816   46.8406   58.9302 C   0  0  0  0  0  0  0  0  0  0  0  0
   70.6195   47.6752   58.1612 C   0  0  0  0  0  0  0  0  0  0  0  0
   69.8209   47.1847   57.1249 C   0  0  0  0  0  0  0  0  0  0  0  0
   69.8215   45.8374   56.8994 C   0  0  0  0  0  0  0  0  0  0  0  0
   70.5900   44.9978   57.6752 C   0  0  0  0  0  0  0  0  0  0  0  0
   71.3708   45.4849   58.6882 C   0  0  0  0  0  0  0  0  0  0  0  0
   72.1102   44.6267   59.4264 F   0  0  0  0  0  0  0  0  0  0  0  0
   77.8700   48.5156   57.8638 C   0  0  0  0  0  0  0  0  0  0  0  0
   77.4207   49.2202   59.0395 N   0  0  1  0  0  0  0  0  0  0  0  0
   76.6238   50.3813   58.7453 C   0  0  0  0  0  0  0  0  0  0  0  0
   75.1987   49.9983   59.1565 C   0  0  1  0  0  0  0  0  0  0  0  0
   74.5046   49.3467   58.0189 C   0  0  0  0  0  0  0  0  0  0  0  0
   73.9482   47.9828   58.3432 C   0  0  0  0  0  0  0  0  0  0  0  0
   73.4986   47.8933   59.7114 N   0  0  0  0  0  0  0  0  0  0  0  0
   72.2209   47.3249   60.0126 C   0  0  0  0  0  0  0  0  0  0  0  0
   71.8006   47.2303   61.1858 O   0  0  0  0  0  0  0  0  0  0  0  0
   74.3017   48.3631   60.7930 C   0  0  0  0  0  0  0  0  0  0  0  0
   75.4666   49.1603   60.3521 C   0  0  1  0  0  0  0  0  0  0  0  0
   76.6855   48.3764   59.9496 C   0  0  0  0  0  0  0  0  0  0  0  0
   69.0186   48.1813   56.3753 C   0  0  0  0  0  0  0  0  0  0  0  0
   69.4063   48.2956   54.9553 C   0  0  0  0  0  0  0  0  0  0  0  0
   70.3618   49.1944   54.5824 N   0  0  0  0  0  0  0  0  0  0  0  0
   70.7767   49.3196   53.3596 N   0  0  0  0  0  0  0  0  0  0  0  0
   70.2833   48.5589   52.3588 C   0  0  0  0  0  0  0  0  0  0  0  0
   70.7205   48.7198   51.1828 O   0  0  0  0  0  0  0  0  0  0  0  0
   69.3205   47.6339   52.6496 C   0  0  0  0  0  0  0  0  0  0  0  0
   68.7765   46.8411   51.6626 C   0  0  0  0  0  0  0  0  0  0  0  0
   67.7983   45.9143   51.9424 C   0  0  0  0  0  0  0  0  0  0  0  0
   67.3599   45.7863   53.2399 C   0  0  0  0  0  0  0  0  0  0  0  0
   67.9110   46.5843   54.2190 C   0  0  0  0  0  0  0  0  0  0  0  0
   68.8847   47.5106   53.9684 C   0  0  0  0  0  0  0  0  0  0  0  0
  9  8  1  6
  9 10  1  0
  9 19  1  0
 11 10  1  6
 11 12  1  0
 11 18  1  0
 12 13  1  0
 13 14  1  0
 14 15  1  0
 14 17  1  0
 15 16  2  0
 15  1  1  0
  1  2  2  0
  1  6  1  0
  2  3  1  0
  3 20  1  0
  3  4  2  0
 20 21  1  0
 21 22  2  0
 21 31  1  0
 22 23  1  0
 23 24  1  0
 24 25  2  0
 24 26  1  0
 26 27  1  0
 26 31  2  0
 27 28  2  0
 28 29  1  0
 29 30  2  0
 30 31  1  0
  4  5  1  0
  5  6  2  0
  6  7  1  0
 18 17  1  6
 18 19  1  0
M  CHG  1   9   1
M  END
>  <minimizedAffinity>  (223) 
-9.38058

$$$$
cs_full_output_folder/data/smiles/8772.pdb
     RDKit          3D

 30 34  0  0  0  0  0  0  0  0999 V2000
   71.3002   46.8235   58.8268 C   0  0  0  0  0  0  0  0  0  0  0  0
   70.3920   47.5615   58.0789 C   0  0  0  0  0  0  0  0  0  0  0  0
   69.5686   46.9938   57.1418 C   0  0  0  0  0  0  0  0  0  0  0  0
   69.6776   45.6033   56.9569 C   0  0  0  0  0  0  0  0  0  0  0  0
   70.5625   44.8544   57.6784 C   0  0  0  0  0  0  0  0  0  0  0  0
   71.3863   45.4620   58.6256 C   0  0  0  0  0  0  0  0  0  0  0  0
   72.2459   44.7141   59.3213 F   0  0  0  0  0  0  0  0  0  0  0  0
   71.8114   47.4067   61.0368 O   0  0  0  0  0  0  0  0  0  0  0  0
   72.1295   47.5066   59.8102 C   0  0  0  0  0  0  0  0  0  0  0  0
   73.2770   48.2741   59.4039 N   0  0  0  0  0  0  0  0  0  0  0  0
   74.1795   48.9931   60.2772 C   0  0  0  0  0  0  0  0  0  0  0  0
   74.9378   49.9239   59.3594 C   0  0  0  0  0  0  0  0  0  0  0  0
   74.9646   49.1899   58.0661 C   0  0  2  0  0  0  0  0  0  0  0  0
   76.1824   48.3246   57.9217 C   0  0  0  0  0  0  0  0  0  0  0  0
   77.1845   49.2848   57.3117 C   0  0  0  0  0  0  0  0  0  0  0  0
   76.4507   50.3963   56.7797 N   0  0  0  0  0  0  0  0  0  0  0  0
   75.0584   50.0941   56.8598 C   0  0  0  0  0  0  0  0  0  0  0  0
   73.6806   48.4233   58.0264 C   0  0  0  0  0  0  0  0  0  0  0  0
   68.5669   47.7462   56.3312 C   0  0  0  0  0  0  0  0  0  0  0  0
   69.0131   48.0336   54.9586 C   0  0  0  0  0  0  0  0  0  0  0  0
   69.9079   49.0504   54.7445 N   0  0  0  0  0  0  0  0  0  0  0  0
   70.3935   49.3275   53.5644 N   0  0  0  0  0  0  0  0  0  0  0  0
   70.0576   48.6426   52.4621 C   0  0  0  0  0  0  0  0  0  0  0  0
   70.5255   48.9090   51.3215 O   0  0  0  0  0  0  0  0  0  0  0  0
   69.1555   47.5943   52.5791 C   0  0  0  0  0  0  0  0  0  0  0  0
   68.7696   46.8716   51.4679 C   0  0  0  0  0  0  0  0  0  0  0  0
   67.8598   45.8537   51.6362 C   0  0  0  0  0  0  0  0  0  0  0  0
   67.3311   45.5444   52.8749 C   0  0  0  0  0  0  0  0  0  0  0  0
   67.7548   46.3031   53.9532 C   0  0  0  0  0  0  0  0  0  0  0  0
   68.6547   47.3192   53.8409 C   0  0  0  0  0  0  0  0  0  0  0  0
  8  9  2  0
  9  1  1  0
  9 10  1  0
  1  2  2  0
  1  6  1  0
  2  3  1  0
  3 19  1  0
  3  4  2  0
 19 20  1  0
 20 21  2  0
 20 30  1  0
 21 22  1  0
 22 23  1  0
 23 24  2  0
 23 25  1  0
 25 26  1  0
 25 30  2  0
 26 27  2  0
 27 28  1  0
 28 29  2  0
 29 30  1  0
  4  5  1  0
  5  6  2  0
  6  7  1  0
 10 11  1  0
 10 18  1  0
 11 12  1  0
 13 12  1  1
 13 14  1  0
 13 17  1  0
 13 18  1  0
 14 15  1  0
 15 16  1  0
 16 17  1  0
M  CHG  1  16   1
M  END
>  <minimizedAffinity>  (224) 
-9.38044

$$$$
cs_full_output_folder/data/smiles/6897.pdb
     RDKit          3D

 30 33  0  0  0  0  0  0  0  0999 V2000
   71.6600   47.1200   59.0033 C   0  0  0  0  0  0  0  0  0  0  0  0
   71.7679   45.7609   58.8285 C   0  0  0  0  0  0  0  0  0  0  0  0
   70.9266   45.0759   57.9891 C   0  0  0  0  0  0  0  0  0  0  0  0
   69.9478   45.7599   57.2990 C   0  0  0  0  0  0  0  0  0  0  0  0
   69.7904   47.1513   57.4371 C   0  0  0  0  0  0  0  0  0  0  0  0
   70.6500   47.7632   58.2784 C   0  0  0  0  0  0  0  0  0  0  0  0
   74.4801   50.7818   58.2665 N   0  0  0  0  0  0  0  0  0  0  0  0
   74.7218   50.7165   59.6353 C   0  0  0  0  0  0  0  0  0  0  0  0
   74.5644   49.3097   60.1988 C   0  0  0  0  0  0  0  0  0  0  0  0
   73.6578   48.5359   59.3465 N   0  0  0  0  0  0  0  0  0  0  0  0
   72.5344   47.8760   59.8877 C   0  0  0  0  0  0  0  0  0  0  0  0
   72.2561   47.9152   61.1146 O   0  0  0  0  0  0  0  0  0  0  0  0
   73.9216   48.4522   57.9334 C   0  0  0  0  0  0  0  0  0  0  0  0
   74.7047   49.6365   57.4750 C   0  0  0  0  0  0  0  0  0  0  0  0
   73.1557   51.6088   55.8465 C   0  0  0  0  0  0  0  0  0  0  0  0
   73.3117   51.8383   57.6401 P   0  0  0  0  0  0  0  0  0  0  0  0
   71.6630   51.6202   58.3655 C   0  0  0  0  0  0  0  0  0  0  0  0
   73.6984   53.2962   57.8767 O   0  0  0  0  0  0  0  0  0  0  0  0
   68.7172   47.7347   56.6253 C   0  0  0  0  0  0  0  0  0  0  0  0
   69.1860   48.0120   55.2778 C   0  0  0  0  0  0  0  0  0  0  0  0
   70.1179   48.9880   55.0924 N   0  0  0  0  0  0  0  0  0  0  0  0
   70.6488   49.3112   53.9510 N   0  0  0  0  0  0  0  0  0  0  0  0
   70.2743   48.6513   52.8326 C   0  0  0  0  0  0  0  0  0  0  0  0
   70.8046   48.9831   51.7342 O   0  0  0  0  0  0  0  0  0  0  0  0
   69.3385   47.6437   52.8936 C   0  0  0  0  0  0  0  0  0  0  0  0
   68.9565   46.9862   51.7448 C   0  0  0  0  0  0  0  0  0  0  0  0
   68.0052   45.9935   51.8543 C   0  0  0  0  0  0  0  0  0  0  0  0
   67.4600   45.6767   53.0807 C   0  0  0  0  0  0  0  0  0  0  0  0
   67.8674   46.3570   54.2145 C   0  0  0  0  0  0  0  0  0  0  0  0
   68.8025   47.3410   54.1490 C   0  0  0  0  0  0  0  0  0  0  0  0
 15 16  1  0
 16 17  1  0
 16 18  2  0
 16  7  1  0
  7  8  1  0
  7 14  1  0
  8  9  1  0
  9 10  1  0
 10 11  1  0
 10 13  1  0
 11 12  2  0
 11  1  1  0
  1  2  2  0
  1  6  1  0
  2  3  1  0
  3  4  2  0
  4  5  1  0
  5 19  1  0
  5  6  2  0
 19 20  1  0
 20 21  2  0
 20 30  1  0
 21 22  1  0
 22 23  1  0
 23 24  2  0
 23 25  1  0
 25 26  1  0
 25 30  2  0
 26 27  2  0
 27 28  1  0
 28 29  2  0
 29 30  1  0
 13 14  1  0
M  END
>  <minimizedAffinity>  (225) 
-9.37209

$$$$
cs_full_output_folder/data/smiles/2994.pdb
     RDKit          3D

 27 30  0  0  0  0  0  0  0  0999 V2000
   71.0321   45.7976   58.4696 C   0  0  0  0  0  0  0  0  0  0  0  0
   70.1182   46.3157   57.5838 C   0  0  0  0  0  0  0  0  0  0  0  0
   69.8667   47.6837   57.4471 C   0  0  0  0  0  0  0  0  0  0  0  0
   70.5685   48.5476   58.2355 C   0  0  0  0  0  0  0  0  0  0  0  0
   71.5037   48.0516   59.1443 C   0  0  0  0  0  0  0  0  0  0  0  0
   71.7290   46.6951   59.2568 C   0  0  0  0  0  0  0  0  0  0  0  0
   73.0047   45.9969   60.4955 Br  0  0  0  0  0  0  0  0  0  0  0  0
   69.3334   44.0060   59.7902 O   0  0  0  0  0  0  0  0  0  0  0  0
   70.3682   43.5335   59.2684 C   0  0  0  0  0  0  0  0  0  0  0  0
   70.5924   42.0699   59.3968 C   0  0  0  0  0  0  0  0  0  0  0  0
   71.3777   41.6126   58.1603 C   0  0  0  0  0  0  0  0  0  0  0  0
   72.7110   42.3397   58.2170 C   0  0  0  0  0  0  0  0  0  0  0  0
   72.4370   43.7935   58.0231 C   0  0  0  0  0  0  0  0  0  0  0  0
   73.2179   44.5405   57.3607 O   0  0  0  0  0  0  0  0  0  0  0  0
   71.2688   44.3919   58.5877 N   0  0  0  0  0  0  0  0  0  0  0  0
   68.8248   48.0450   56.4536 C   0  0  0  0  0  0  0  0  0  0  0  0
   69.3102   48.1724   55.0835 C   0  0  0  0  0  0  0  0  0  0  0  0
   70.2602   49.1059   54.7665 N   0  0  0  0  0  0  0  0  0  0  0  0
   70.7004   49.2833   53.5442 N   0  0  0  0  0  0  0  0  0  0  0  0
   70.2684   48.5748   52.4892 C   0  0  0  0  0  0  0  0  0  0  0  0
   70.7011   48.7569   51.3161 O   0  0  0  0  0  0  0  0  0  0  0  0
   69.3024   47.6103   52.7553 C   0  0  0  0  0  0  0  0  0  0  0  0
   68.8589   46.8676   51.6869 C   0  0  0  0  0  0  0  0  0  0  0  0
   67.9091   45.8877   51.8952 C   0  0  0  0  0  0  0  0  0  0  0  0
   67.4334   45.6793   53.1579 C   0  0  0  0  0  0  0  0  0  0  0  0
   67.9012   46.4487   54.2321 C   0  0  0  0  0  0  0  0  0  0  0  0
   68.8399   47.4255   54.0516 C   0  0  0  0  0  0  0  0  0  0  0  0
  8  9  2  0
  9 10  1  0
  9 15  1  0
 10 11  1  0
 11 12  1  0
 12 13  1  0
 13 14  2  0
 13 15  1  0
 15  1  1  0
  1  2  2  0
  1  6  1  0
  2  3  1  0
  3 16  1  0
  3  4  2  0
 16 17  1  0
 17 18  2  0
 17 27  1  0
 18 19  1  0
 19 20  1  0
 20 21  2  0
 20 22  1  0
 22 23  1  0
 22 27  2  0
 23 24  2  0
 24 25  1  0
 25 26  2  0
 26 27  1  0
  4  5  1  0
  5  6  2  0
  6  7  1  0
M  END
>  <minimizedAffinity>  (226) 
-9.36825

$$$$
cs_full_output_folder/data/smiles/7999.pdb
     RDKit          3D

 30 34  0  0  0  0  0  0  0  0999 V2000
   69.9584   47.6656   57.0473 C   0  0  0  0  0  0  0  0  0  0  0  0
   69.6963   46.3270   57.1197 C   0  0  0  0  0  0  0  0  0  0  0  0
   70.4366   45.4937   57.9687 C   0  0  0  0  0  0  0  0  0  0  0  0
   71.4300   46.0533   58.7262 C   0  0  0  0  0  0  0  0  0  0  0  0
   72.1328   45.2215   59.5387 F   0  0  0  0  0  0  0  0  0  0  0  0
   71.7210   47.4052   58.6763 C   0  0  0  0  0  0  0  0  0  0  0  0
   70.9879   48.1879   57.8449 C   0  0  0  0  0  0  0  0  0  0  0  0
   73.0222   48.0014   59.7224 P   0  0  0  0  0  0  0  0  0  0  0  0
   72.5445   47.8453   61.3214 O   0  0  0  0  0  0  0  0  0  0  0  0
   73.3462   49.7596   59.3764 C   0  0  0  0  0  0  0  0  0  0  0  0
   74.4052   49.8993   58.2998 C   0  0  0  0  0  0  0  0  0  0  0  0
   75.5484   49.0550   58.5022 N   0  0  0  0  0  0  0  0  0  0  0  0
   75.3360   47.6590   58.3324 C   0  0  0  0  0  0  0  0  0  0  0  0
   74.5521   47.0441   59.4876 C   0  0  0  0  0  0  0  0  0  0  0  0
   76.7163   49.5540   57.8573 C   0  0  0  0  0  0  0  0  0  0  0  0
   77.9243   49.7315   58.7001 C   0  0  0  0  0  0  0  0  0  0  0  0
   78.7657   50.9266   58.7245 C   0  0  0  0  0  0  0  0  0  0  0  0
   79.2611   49.7035   57.9502 C   0  0  0  0  0  0  0  0  0  0  0  0
   69.1803   48.5640   56.1743 C   0  0  0  0  0  0  0  0  0  0  0  0
   70.6892   48.4449   50.8844 O   0  0  0  0  0  0  0  0  0  0  0  0
   70.3355   48.4502   52.1052 C   0  0  0  0  0  0  0  0  0  0  0  0
   70.9131   49.2585   53.0070 N   0  0  0  0  0  0  0  0  0  0  0  0
   70.5456   49.2597   54.2586 N   0  0  0  0  0  0  0  0  0  0  0  0
   69.5534   48.4486   54.7552 C   0  0  0  0  0  0  0  0  0  0  0  0
   68.9598   47.6180   53.8406 C   0  0  0  0  0  0  0  0  0  0  0  0
   67.9688   46.7568   54.2445 C   0  0  0  0  0  0  0  0  0  0  0  0
   67.3813   45.9142   53.3221 C   0  0  0  0  0  0  0  0  0  0  0  0
   67.7358   45.8808   51.9907 C   0  0  0  0  0  0  0  0  0  0  0  0
   68.7266   46.7372   51.5763 C   0  0  0  0  0  0  0  0  0  0  0  0
   69.3195   47.5824   52.4894 C   0  0  0  0  0  0  0  0  0  0  0  0
 20 21  2  0
 21 22  1  0
 21 30  1  0
 22 23  1  0
 23 24  2  0
 24 19  1  0
 24 25  1  0
 19  1  1  0
  1  2  2  0
  1  7  1  0
  2  3  1  0
  3  4  2  0
  4  5  1  0
  4  6  1  0
  6  8  1  0
  6  7  2  0
  8  9  1  0
  8 10  1  0
  8 14  1  0
 10 11  1  0
 11 12  1  0
 12 15  1  0
 12 13  1  0
 15 16  1  0
 16 17  1  0
 16 18  1  0
 17 18  1  0
 13 14  1  0
 25 26  1  0
 25 30  2  0
 26 27  2  0
 27 28  1  0
 28 29  2  0
 29 30  1  0
M  CHG  2   8   1  12   1
M  END
>  <minimizedAffinity>  (227) 
-9.36584

$$$$
cs_full_output_folder/data/smiles/7503.pdb
     RDKit          3D

 32 36  0  0  0  0  0  0  0  0999 V2000
   71.4854   46.9629   58.7646 C   0  0  0  0  0  0  0  0  0  0  0  0
   70.6772   47.7873   58.0029 C   0  0  0  0  0  0  0  0  0  0  0  0
   69.7215   47.2286   57.1391 C   0  0  0  0  0  0  0  0  0  0  0  0
   69.6144   45.8719   57.0735 C   0  0  0  0  0  0  0  0  0  0  0  0
   70.4336   45.0358   57.8472 C   0  0  0  0  0  0  0  0  0  0  0  0
   71.3702   45.5913   58.6933 C   0  0  0  0  0  0  0  0  0  0  0  0
   72.1681   44.8210   59.4447 F   0  0  0  0  0  0  0  0  0  0  0  0
   75.8905   47.6866   58.8657 C   0  0  0  0  0  0  0  0  0  0  0  0
   75.0012   48.2131   59.9010 C   0  0  0  0  0  0  0  0  0  0  0  0
   73.8467   47.6924   59.2437 N   0  0  0  0  0  0  0  0  0  0  0  0
   72.4743   47.5326   59.6494 C   0  0  0  0  0  0  0  0  0  0  0  0
   72.1348   47.9002   60.7960 O   0  0  0  0  0  0  0  0  0  0  0  0
   74.6359   47.4308   58.0744 C   0  0  0  0  0  0  0  0  0  0  0  0
   76.0556   49.8040   57.5991 C   0  0  0  0  0  0  0  0  0  0  0  0
   76.7081   48.6243   58.1286 N   0  0  0  0  0  0  0  0  0  0  0  0
   78.0811   48.4642   57.8997 C   0  0  0  0  0  0  0  0  0  0  0  0
   78.6847   47.4376   58.3455 O   0  0  0  0  0  0  0  0  0  0  0  0
   78.9318   49.4207   57.1539 C   0  0  0  0  0  0  0  0  0  0  0  0
   79.0954   49.0758   55.6597 C   0  0  0  0  0  0  0  0  0  0  0  0
   80.2387   49.0385   56.6044 C   0  0  0  0  0  0  0  0  0  0  0  0
   68.8867   48.1148   56.2978 C   0  0  0  0  0  0  0  0  0  0  0  0
   69.3253   48.1931   54.9061 C   0  0  0  0  0  0  0  0  0  0  0  0
   70.2893   49.1080   54.5773 N   0  0  0  0  0  0  0  0  0  0  0  0
   70.7195   49.2741   53.3404 N   0  0  0  0  0  0  0  0  0  0  0  0
   70.2367   48.5533   52.3151 C   0  0  0  0  0  0  0  0  0  0  0  0
   70.6649   48.7313   51.1375 O   0  0  0  0  0  0  0  0  0  0  0  0
   69.2585   47.5999   52.5447 C   0  0  0  0  0  0  0  0  0  0  0  0
   68.7554   46.8360   51.5156 C   0  0  0  0  0  0  0  0  0  0  0  0
   67.8010   45.8910   51.7722 C   0  0  0  0  0  0  0  0  0  0  0  0
   67.3826   45.7497   53.0769 C   0  0  0  0  0  0  0  0  0  0  0  0
   67.8718   46.5040   54.1230 C   0  0  0  0  0  0  0  0  0  0  0  0
   68.8206   47.4456   53.8741 C   0  0  0  0  0  0  0  0  0  0  0  0
 14 15  1  0
 15 16  1  0
 15  8  1  0
 16 17  2  0
 16 18  1  0
 18 19  1  0
 18 20  1  0
 19 20  1  0
  8  9  1  0
  8 13  1  0
  9 10  1  0
 10 11  1  0
 10 13  1  0
 11 12  2  0
 11  1  1  0
  1  2  2  0
  1  6  1  0
  2  3  1  0
  3 21  1  0
  3  4  2  0
 21 22  1  0
 22 23  2  0
 22 32  1  0
 23 24  1  0
 24 25  1  0
 25 26  2  0
 25 27  1  0
 27 28  1  0
 27 32  2  0
 28 29  2  0
 29 30  1  0
 30 31  2  0
 31 32  1  0
  4  5  1  0
  5  6  2  0
  6  7  1  0
M  END
>  <minimizedAffinity>  (228) 
-9.36527

$$$$
cs_full_output_folder/data/smiles/7076.pdb
     RDKit          3D

 32 35  0  0  0  0  0  0  0  0999 V2000
   71.6384   47.2373   59.0836 C   0  0  0  0  0  0  0  0  0  0  0  0
   70.5900   47.8232   58.3828 C   0  0  0  0  0  0  0  0  0  0  0  0
   69.7970   47.1652   57.4900 C   0  0  0  0  0  0  0  0  0  0  0  0
   70.0920   45.8057   57.2917 C   0  0  0  0  0  0  0  0  0  0  0  0
   71.1204   45.1818   57.9618 C   0  0  0  0  0  0  0  0  0  0  0  0
   71.8858   45.9067   58.8533 C   0  0  0  0  0  0  0  0  0  0  0  0
   72.9124   45.3210   59.5347 F   0  0  0  0  0  0  0  0  0  0  0  0
   77.0325   49.9282   58.1760 C   0  0  0  0  0  0  0  0  0  0  0  0
   77.7770   50.7408   58.8390 O   0  0  0  0  0  0  0  0  0  0  0  0
   75.6605   49.8220   58.4589 N   0  0  0  0  0  0  0  0  0  0  0  0
   74.8248   48.9436   57.7017 C   0  0  0  0  0  0  0  0  0  0  0  0
   73.3888   49.2290   58.0948 C   0  0  0  0  0  0  0  0  0  0  0  0
   73.3004   49.0097   59.5036 N   0  0  0  0  0  0  0  0  0  0  0  0
   72.4445   48.0342   60.0309 C   0  0  0  0  0  0  0  0  0  0  0  0
   72.3405   47.8162   61.2828 O   0  0  0  0  0  0  0  0  0  0  0  0
   74.1179   49.8354   60.3649 C   0  0  0  0  0  0  0  0  0  0  0  0
   75.1321   50.6213   59.5532 C   0  0  0  0  0  0  0  0  0  0  0  0
   77.7207   49.6110   55.7129 C   0  0  0  0  0  0  0  0  0  0  0  0
   77.7164   49.1631   57.1538 C   0  0  0  0  0  0  0  0  0  0  0  0
   78.3120   48.1184   57.4613 O   0  0  0  0  0  0  0  0  0  0  0  0
   68.6609   47.7189   56.7199 C   0  0  0  0  0  0  0  0  0  0  0  0
   69.1584   48.0150   55.3375 C   0  0  0  0  0  0  0  0  0  0  0  0
   70.0981   48.9999   55.1714 N   0  0  0  0  0  0  0  0  0  0  0  0
   70.6302   49.2990   54.0012 N   0  0  0  0  0  0  0  0  0  0  0  0
   70.2769   48.6467   52.8843 C   0  0  0  0  0  0  0  0  0  0  0  0
   70.8262   48.9856   51.8063 O   0  0  0  0  0  0  0  0  0  0  0  0
   69.3336   47.6383   52.9581 C   0  0  0  0  0  0  0  0  0  0  0  0
   68.9587   46.9766   51.8099 C   0  0  0  0  0  0  0  0  0  0  0  0
   68.0080   45.9873   51.8968 C   0  0  0  0  0  0  0  0  0  0  0  0
   67.4530   45.6815   53.1306 C   0  0  0  0  0  0  0  0  0  0  0  0
   67.8467   46.3590   54.2616 C   0  0  0  0  0  0  0  0  0  0  0  0
   68.7851   47.3412   54.2114 C   0  0  0  0  0  0  0  0  0  0  0  0
 18 19  1  0
 19 20  2  0
 19  8  1  0
  8  9  2  0
  8 10  1  0
 10 11  1  0
 10 17  1  0
 11 12  1  0
 12 13  1  0
 13 14  1  0
 13 16  1  0
 14 15  2  0
 14  1  1  0
  1  2  2  0
  1  6  1  0
  2  3  1  0
  3 21  1  0
  3  4  2  0
 21 22  1  0
 22 23  2  0
 22 32  1  0
 23 24  1  0
 24 25  1  0
 25 26  2  0
 25 27  1  0
 27 28  1  0
 27 32  2  0
 28 29  2  0
 29 30  1  0
 30 31  2  0
 31 32  1  0
  4  5  1  0
  5  6  2  0
  6  7  1  0
 16 17  1  0
M  END
>  <minimizedAffinity>  (229) 
-9.36480

$$$$
cs_full_output_folder/data/smiles/1987.pdb
     RDKit          3D

 29 31  0  0  0  0  0  0  0  0999 V2000
   69.2433   47.8468   52.9845 C   0  0  0  0  0  0  0  0  0  0  0  0
   68.6381   47.3964   51.8312 C   0  0  0  0  0  0  0  0  0  0  0  0
   67.9045   46.2030   51.8477 C   0  0  0  0  0  0  0  0  0  0  0  0
   67.8025   45.4968   53.0321 C   0  0  0  0  0  0  0  0  0  0  0  0
   68.3985   45.9257   54.1989 C   0  0  0  0  0  0  0  0  0  0  0  0
   69.1092   47.1023   54.1348 C   0  0  0  0  0  0  0  0  0  0  0  0
   70.1532   49.3420   52.9294 S   0  0  0  0  0  0  0  0  0  0  0  0
   71.6313   49.1059   52.8689 O   0  0  0  0  0  0  0  0  0  0  0  0
   69.7749   50.0183   51.6211 O   0  0  0  0  0  0  0  0  0  0  0  0
   72.1324   52.1256   56.3174 C   0  0  0  0  0  0  0  0  0  0  0  0
   71.0126   51.9297   55.3360 C   0  0  2  0  0  0  0  0  0  0  0  0
   71.4100   52.3199   54.0738 F   0  0  0  0  0  0  0  0  0  0  0  0
   69.8079   52.7673   55.7130 C   0  0  0  0  0  0  0  0  0  0  0  0
   68.5247   52.0760   55.2997 C   0  0  0  0  0  0  0  0  0  0  0  0
   68.7623   51.3325   53.9857 C   0  0  0  0  0  0  0  0  0  0  0  0
   69.6968   50.3160   54.2047 N   0  0  0  0  0  0  0  0  0  0  0  0
   70.5775   50.4563   55.2986 C   0  0  0  0  0  0  0  0  0  0  0  0
   68.2544   45.1339   55.4181 C   0  0  0  0  0  0  0  0  0  0  0  0
   68.5709   45.6239   56.5307 O   0  0  0  0  0  0  0  0  0  0  0  0
   67.7629   43.8058   55.4240 N   0  0  0  0  0  0  0  0  0  0  0  0
   67.6235   43.0431   56.5875 N   0  0  0  0  0  0  0  0  0  0  0  0
   67.5359   41.6306   56.5860 C   0  0  0  0  0  0  0  0  0  0  0  0
   67.5938   41.0772   55.4442 O   0  0  0  0  0  0  0  0  0  0  0  0
   67.3911   40.8338   57.7905 C   0  0  0  0  0  0  0  0  0  0  0  0
   67.9780   39.6141   57.9794 C   0  0  0  0  0  0  0  0  0  0  0  0
   67.8233   38.8761   59.1350 C   0  0  0  0  0  0  0  0  0  0  0  0
   67.0385   39.3949   60.1485 C   0  0  0  0  0  0  0  0  0  0  0  0
   66.4539   40.6233   59.9456 C   0  0  0  0  0  0  0  0  0  0  0  0
   66.6311   41.3236   58.7860 N   0  0  0  0  0  0  0  0  0  0  0  0
 11 10  1  1
 11 12  1  0
 11 13  1  0
 11 17  1  0
 13 14  1  0
 14 15  1  0
 15 16  1  0
 16  7  1  0
 16 17  1  0
  7  8  2  0
  7  9  2  0
  7  1  1  0
  1  2  2  0
  1  6  1  0
  2  3  1  0
  3  4  2  0
  4  5  1  0
  5 18  1  0
  5  6  2  0
 18 19  2  0
 18 20  1  0
 20 21  1  0
 21 22  1  0
 22 23  2  0
 22 24  1  0
 24 25  2  0
 24 29  1  0
 25 26  1  0
 26 27  2  0
 27 28  1  0
 28 29  2  0
M  END
>  <minimizedAffinity>  (230) 
-9.36410

$$$$
cs_full_output_folder/data/smiles/3397.pdb
     RDKit          3D

 26 28  0  0  0  0  0  0  0  0999 V2000
   70.7114   41.7738   58.8838 C   0  0  0  0  0  0  0  0  0  0  0  0
   69.6333   41.3917   57.9596 C   0  0  0  0  0  0  0  0  0  0  0  0
   68.9503   42.2194   57.0847 C   0  0  0  0  0  0  0  0  0  0  0  0
   68.0525   41.3935   56.4449 C   0  0  0  0  0  0  0  0  0  0  0  0
   68.2203   40.1687   56.9316 N   0  0  0  0  0  0  0  0  0  0  0  0
   69.1605   40.1246   57.8435 N   0  0  0  0  0  0  0  0  0  0  0  0
   69.5661   38.9525   58.5461 C   0  0  0  0  0  0  0  0  0  0  0  0
   68.7757   38.3882   59.5315 C   0  0  0  0  0  0  0  0  0  0  0  0
   69.1458   37.2527   60.2291 C   0  0  0  0  0  0  0  0  0  0  0  0
   70.3452   36.6287   59.9589 C   0  0  0  0  0  0  0  0  0  0  0  0
   70.8421   35.0636   60.9289 Br  0  0  0  0  0  0  0  0  0  0  0  0
   71.1445   37.1779   58.9801 C   0  0  0  0  0  0  0  0  0  0  0  0
   70.7625   38.3174   58.2866 C   0  0  0  0  0  0  0  0  0  0  0  0
   69.1330   43.6739   56.8781 C   0  0  0  0  0  0  0  0  0  0  0  0
   70.0565   44.3059   57.5170 N   0  0  0  0  0  0  0  0  0  0  0  0
   68.3271   44.3979   55.9969 N   0  0  0  0  0  0  0  0  0  0  0  0
   68.4688   45.8135   55.7993 C   0  0  0  0  0  0  0  0  0  0  0  0
   68.4539   46.1535   54.3676 C   0  0  0  0  0  0  0  0  0  0  0  0
   67.7208   45.5054   53.4016 C   0  0  0  0  0  0  0  0  0  0  0  0
   67.7613   45.8802   52.0560 C   0  0  0  0  0  0  0  0  0  0  0  0
   68.5554   46.9322   51.6578 C   0  0  0  0  0  0  0  0  0  0  0  0
   69.2988   47.5935   52.6251 C   0  0  0  0  0  0  0  0  0  0  0  0
   69.2559   47.2210   53.9487 C   0  0  0  0  0  0  0  0  0  0  0  0
   70.1492   48.7140   52.2236 C   0  0  0  0  0  0  0  0  0  0  0  0
   71.0585   49.2674   53.1625 N   0  0  0  0  0  0  0  0  0  0  0  0
   70.0605   49.1774   51.0368 O   0  0  0  0  0  0  0  0  0  0  0  0
  1  2  1  0
  2  3  2  0
  2  6  1  0
  3 14  1  0
  3  4  1  0
 14 15  2  0
 14 16  1  0
 16 17  1  0
 17 18  1  0
 18 19  2  0
 18 23  1  0
 19 20  1  0
 20 21  2  0
 21 22  1  0
 22 24  1  0
 22 23  2  0
 24 25  1  0
 24 26  2  0
  4  5  2  0
  5  6  1  0
  6  7  1  0
  7  8  2  0
  7 13  1  0
  8  9  1  0
  9 10  2  0
 10 11  1  0
 10 12  1  0
 12 13  2  0
M  CHG  1  15   1
M  END
>  <minimizedAffinity>  (231) 
-9.36325

$$$$
cs_full_output_folder/data/smiles/7558.pdb
     RDKit          3D

 30 33  0  0  0  0  0  0  0  0999 V2000
   71.8568   46.9384   59.3611 C   0  0  0  0  0  0  0  0  0  0  0  0
   70.8664   47.5715   58.6470 C   0  0  0  0  0  0  0  0  0  0  0  0
   70.0846   46.8838   57.7065 C   0  0  0  0  0  0  0  0  0  0  0  0
   70.3017   45.5621   57.4873 C   0  0  0  0  0  0  0  0  0  0  0  0
   71.2985   44.9189   58.2048 C   0  0  0  0  0  0  0  0  0  0  0  0
   72.0617   45.5946   59.1246 C   0  0  0  0  0  0  0  0  0  0  0  0
   73.0374   44.9284   59.8160 F   0  0  0  0  0  0  0  0  0  0  0  0
   74.7823   49.7571   58.0550 C   0  0  2  0  0  0  0  0  0  0  0  0
   75.5918   50.4341   59.1113 C   0  0  0  0  0  0  0  0  0  0  0  0
   74.7545   50.5785   60.3540 C   0  0  0  0  0  0  0  0  0  0  0  0
   74.5638   49.1537   60.8959 C   0  0  0  0  0  0  0  0  0  0  0  0
   73.7656   48.4459   59.8919 N   0  0  0  0  0  0  0  0  0  0  0  0
   72.6778   47.6629   60.3461 C   0  0  0  0  0  0  0  0  0  0  0  0
   72.4036   47.5769   61.5590 O   0  0  0  0  0  0  0  0  0  0  0  0
   74.0513   48.5307   58.4989 C   0  0  0  0  0  0  0  0  0  0  0  0
   75.1423   49.5271   55.5746 N   0  0  0  0  0  0  0  0  0  0  0  0
   75.6392   49.3965   56.8957 C   0  0  0  0  0  0  0  0  0  0  0  0
   76.7893   48.9807   57.0877 O   0  0  0  0  0  0  0  0  0  0  0  0
   69.0693   47.7303   57.0107 C   0  0  0  0  0  0  0  0  0  0  0  0
   68.7096   47.0832   55.7484 C   0  0  0  0  0  0  0  0  0  0  0  0
   68.0975   45.8623   55.8255 N   0  0  0  0  0  0  0  0  0  0  0  0
   67.7693   45.1751   54.7496 N   0  0  0  0  0  0  0  0  0  0  0  0
   68.0317   45.6600   53.5135 C   0  0  0  0  0  0  0  0  0  0  0  0
   67.6826   44.9317   52.5254 O   0  0  0  0  0  0  0  0  0  0  0  0
   68.6390   46.8680   53.3572 C   0  0  0  0  0  0  0  0  0  0  0  0
   68.9806   47.5888   54.5107 C   0  0  0  0  0  0  0  0  0  0  0  0
   69.5672   48.8602   54.3829 N   0  0  0  0  0  0  0  0  0  0  0  0
   69.9884   49.3734   53.1100 C   0  0  0  0  0  0  0  0  0  0  0  0
   70.1574   48.3165   52.0814 C   0  0  0  0  0  0  0  0  0  0  0  0
   68.9466   47.3914   52.0093 C   0  0  0  0  0  0  0  0  0  0  0  0
 16 17  1  0
 17 18  2  0
  8 17  1  6
  8  9  1  0
  8 15  1  0
  9 10  1  0
 10 11  1  0
 11 12  1  0
 12 13  1  0
 12 15  1  0
 13 14  2  0
 13  1  1  0
  1  2  2  0
  1  6  1  0
  2  3  1  0
  3 19  1  0
  3  4  2  0
 19 20  1  0
 20 21  2  0
 20 26  1  0
 21 22  1  0
 22 23  1  0
 23 24  2  0
 23 25  1  0
 25 26  2  0
 25 30  1  0
 26 27  1  0
 27 28  1  0
 28 29  1  0
 29 30  1  0
  4  5  1  0
  5  6  2  0
  6  7  1  0
M  END
>  <minimizedAffinity>  (232) 
-9.35819

$$$$
cs_full_output_folder/data/smiles/5272.pdb
     RDKit          3D

 29 32  0  0  0  0  0  0  0  0999 V2000
   71.2289   46.7885   58.8249 C   0  0  0  0  0  0  0  0  0  0  0  0
   70.4560   47.6336   58.0253 C   0  0  0  0  0  0  0  0  0  0  0  0
   69.6341   47.1169   57.0434 C   0  0  0  0  0  0  0  0  0  0  0  0
   69.5996   45.7704   56.8773 C   0  0  0  0  0  0  0  0  0  0  0  0
   70.3624   44.9079   57.6634 C   0  0  0  0  0  0  0  0  0  0  0  0
   71.1793   45.4156   58.6393 C   0  0  0  0  0  0  0  0  0  0  0  0
   71.9332   44.5722   59.4180 F   0  0  0  0  0  0  0  0  0  0  0  0
   71.7743   47.1712   61.0721 O   0  0  0  0  0  0  0  0  0  0  0  0
   72.1033   47.2812   59.8630 C   0  0  0  0  0  0  0  0  0  0  0  0
   73.3528   47.9028   59.5800 N   0  0  0  0  0  0  0  0  0  0  0  0
   74.2236   48.3933   60.6191 C   0  0  0  0  0  0  0  0  0  0  0  0
   74.3266   49.9005   60.5537 C   0  0  1  0  0  0  0  0  0  0  0  0
   75.5835   50.3171   60.9809 F   0  0  0  0  0  0  0  0  0  0  0  0
   74.0896   50.3488   59.1432 C   0  0  0  0  0  0  0  0  0  0  0  0
   74.5950   49.3522   58.1259 C   0  0  2  0  0  0  0  0  0  0  0  0
   74.3910   50.0919   56.4712 S   0  0  0  0  0  0  0  0  0  0  0  0
   73.8057   48.0694   58.1938 C   0  0  0  0  0  0  0  0  0  0  0  0
   68.8440   48.0209   56.1883 C   0  0  0  0  0  0  0  0  0  0  0  0
   69.2752   48.1210   54.8022 C   0  0  0  0  0  0  0  0  0  0  0  0
   70.2373   49.0383   54.4804 N   0  0  0  0  0  0  0  0  0  0  0  0
   70.6638   49.2302   53.2660 N   0  0  0  0  0  0  0  0  0  0  0  0
   70.1944   48.5423   52.2198 C   0  0  0  0  0  0  0  0  0  0  0  0
   70.6363   48.7628   51.0638 O   0  0  0  0  0  0  0  0  0  0  0  0
   69.2297   47.6023   52.4437 C   0  0  0  0  0  0  0  0  0  0  0  0
   68.7445   46.8763   51.3698 C   0  0  0  0  0  0  0  0  0  0  0  0
   67.7816   45.9182   51.5833 C   0  0  0  0  0  0  0  0  0  0  0  0
   67.3418   45.7234   52.8725 C   0  0  0  0  0  0  0  0  0  0  0  0
   67.8332   46.4564   53.9452 C   0  0  0  0  0  0  0  0  0  0  0  0
   68.7842   47.4077   53.7452 C   0  0  0  0  0  0  0  0  0  0  0  0
  8  9  2  0
  9  1  1  0
  9 10  1  0
  1  2  2  0
  1  6  1  0
  2  3  1  0
  3 18  1  0
  3  4  2  0
 18 19  1  0
 19 20  2  0
 19 29  1  0
 20 21  1  0
 21 22  1  0
 22 23  2  0
 22 24  1  0
 24 25  1  0
 24 29  2  0
 25 26  2  0
 26 27  1  0
 27 28  2  0
 28 29  1  0
  4  5  1  0
  5  6  2  0
  6  7  1  0
 10 11  1  0
 10 17  1  0
 11 12  1  0
 12 13  1  6
 12 14  1  0
 14 15  1  0
 15 16  1  6
 15 17  1  0
M  END
>  <minimizedAffinity>  (233) 
-9.35692

$$$$
cs_full_output_folder/data/smiles/829.pdb
     RDKit          3D

 33 37  0  0  0  0  0  0  0  0999 V2000
   71.5409   46.9296   59.0090 C   0  0  0  0  0  0  0  0  0  0  0  0
   70.6240   47.7258   58.3120 C   0  0  0  0  0  0  0  0  0  0  0  0
   69.7731   47.2080   57.3767 C   0  0  0  0  0  0  0  0  0  0  0  0
   69.8699   45.8335   57.1539 C   0  0  0  0  0  0  0  0  0  0  0  0
   70.7546   45.0293   57.8176 C   0  0  0  0  0  0  0  0  0  0  0  0
   71.5848   45.5830   58.7430 C   0  0  0  0  0  0  0  0  0  0  0  0
   72.4733   44.7951   59.4158 F   0  0  0  0  0  0  0  0  0  0  0  0
   73.6246   50.5119   58.5368 N   0  0  2  0  0  0  0  0  0  0  0  0
   74.5991   50.9581   59.4768 C   0  0  0  0  0  0  0  0  0  0  0  0
   75.2972   49.8488   60.1821 C   0  0  0  0  0  0  0  0  0  0  0  0
   74.4337   48.7402   60.6705 C   0  0  0  0  0  0  0  0  0  0  0  0
   73.6400   48.1553   59.6261 N   0  0  0  0  0  0  0  0  0  0  0  0
   72.4114   47.5433   59.9814 C   0  0  0  0  0  0  0  0  0  0  0  0
   72.0799   47.5419   61.1943 O   0  0  0  0  0  0  0  0  0  0  0  0
   73.9272   48.0965   58.2194 C   0  0  0  0  0  0  0  0  0  0  0  0
   74.2377   49.4788   57.7243 C   0  0  0  0  0  0  0  0  0  0  0  0
   69.9285   51.3311   57.8390 O   0  0  0  0  0  0  0  0  0  0  0  0
   71.0969   51.6077   57.6209 C   0  0  0  0  0  0  0  0  0  0  0  0
   72.1189   51.1346   56.6438 C   0  0  0  0  0  0  0  0  0  0  0  0
   73.1682   51.5489   57.6533 C   0  0  0  0  0  0  0  0  0  0  0  0
   72.1522   52.5148   58.1488 C   0  0  0  0  0  0  0  0  0  0  0  0
   68.7586   47.9881   56.6022 C   0  0  0  0  0  0  0  0  0  0  0  0
   69.2160   48.1705   55.2508 C   0  0  0  0  0  0  0  0  0  0  0  0
   70.1791   49.1266   55.0506 N   0  0  0  0  0  0  0  0  0  0  0  0
   70.7129   49.3545   53.8643 N   0  0  0  0  0  0  0  0  0  0  0  0
   70.3488   48.6637   52.7700 C   0  0  0  0  0  0  0  0  0  0  0  0
   70.8399   48.8568   51.6290 O   0  0  0  0  0  0  0  0  0  0  0  0
   69.3836   47.6758   52.8647 C   0  0  0  0  0  0  0  0  0  0  0  0
   68.9775   46.9562   51.7608 C   0  0  0  0  0  0  0  0  0  0  0  0
   68.0038   46.0030   51.9402 C   0  0  0  0  0  0  0  0  0  0  0  0
   67.4448   45.7705   53.1858 C   0  0  0  0  0  0  0  0  0  0  0  0
   67.8684   46.5056   54.2827 C   0  0  0  0  0  0  0  0  0  0  0  0
   68.8374   47.4603   54.1359 C   0  0  0  0  0  0  0  0  0  0  0  0
 17 18  2  0
 18 19  1  0
 18 21  1  0
 19 20  1  0
  8 20  1  6
 20 21  1  0
  8  9  1  0
  8 16  1  0
  9 10  1  0
 10 11  1  0
 11 12  1  0
 12 13  1  0
 12 15  1  0
 13 14  2  0
 13  1  1  0
  1  2  2  0
  1  6  1  0
  2  3  1  0
  3 22  1  0
  3  4  2  0
 22 23  1  0
 23 24  2  0
 23 33  1  0
 24 25  1  0
 25 26  1  0
 26 27  2  0
 26 28  1  0
 28 29  1  0
 28 33  2  0
 29 30  2  0
 30 31  1  0
 31 32  2  0
 32 33  1  0
  4  5  1  0
  5  6  2  0
  6  7  1  0
 15 16  1  0
M  CHG  1   8   1
M  END
>  <minimizedAffinity>  (234) 
-9.35671

$$$$
cs_full_output_folder/data/smiles/8792.pdb
     RDKit          3D

 30 33  0  0  0  0  0  0  0  0999 V2000
   70.7679   46.0270   58.2267 C   0  0  0  0  0  0  0  0  0  0  0  0
   69.8408   46.7102   57.4066 C   0  0  0  0  0  0  0  0  0  0  0  0
   69.9609   48.0134   57.0521 C   0  0  0  0  0  0  0  0  0  0  0  0
   71.0863   48.6773   57.5560 C   0  0  0  0  0  0  0  0  0  0  0  0
   71.9964   48.0362   58.3523 C   0  0  0  0  0  0  0  0  0  0  0  0
   71.8559   46.6949   58.7033 C   0  0  0  0  0  0  0  0  0  0  0  0
   72.8357   46.1188   59.4827 F   0  0  0  0  0  0  0  0  0  0  0  0
   69.4722   44.1498   57.9797 O   0  0  0  0  0  0  0  0  0  0  0  0
   70.4968   44.6489   58.5560 C   0  0  0  0  0  0  0  0  0  0  0  0
   71.2091   43.7664   59.4351 C   0  0  0  0  0  0  0  0  0  0  0  0
   70.8485   43.6766   60.6574 O   0  0  0  0  0  0  0  0  0  0  0  0
   72.3098   42.9612   59.0531 N   0  0  0  0  0  0  0  0  0  0  0  0
   73.0203   42.0581   59.9758 C   0  0  0  0  0  0  0  0  0  0  0  0
   74.4572   42.4498   59.6578 C   0  0  0  0  0  0  0  0  0  0  0  0
   74.4667   42.9279   58.2457 C   0  0  0  0  0  0  0  0  0  0  0  0
   74.7571   44.2734   58.1264 F   0  0  0  0  0  0  0  0  0  0  0  0
   75.2853   42.1672   57.4437 F   0  0  0  0  0  0  0  0  0  0  0  0
   72.9996   42.7846   57.8109 C   0  0  0  0  0  0  0  0  0  0  0  0
   69.0482   48.7931   56.1880 C   0  0  0  0  0  0  0  0  0  0  0  0
   69.3720   48.7410   54.7554 C   0  0  0  0  0  0  0  0  0  0  0  0
   70.2287   49.6663   54.2330 N   0  0  0  0  0  0  0  0  0  0  0  0
   70.5988   49.6454   52.9539 N   0  0  0  0  0  0  0  0  0  0  0  0
   70.1462   48.7078   52.1012 C   0  0  0  0  0  0  0  0  0  0  0  0
   70.5449   48.7548   50.9013 O   0  0  0  0  0  0  0  0  0  0  0  0
   69.2797   47.7463   52.5586 C   0  0  0  0  0  0  0  0  0  0  0  0
   68.8112   46.7988   51.6829 C   0  0  0  0  0  0  0  0  0  0  0  0
   67.9316   45.8469   52.1494 C   0  0  0  0  0  0  0  0  0  0  0  0
   67.5349   45.8504   53.4615 C   0  0  0  0  0  0  0  0  0  0  0  0
   68.0267   46.8173   54.3101 C   0  0  0  0  0  0  0  0  0  0  0  0
   68.9079   47.7873   53.8967 C   0  0  0  0  0  0  0  0  0  0  0  0
  8  9  2  0
  9 10  1  0
  9  1  1  0
 10 11  2  0
 10 12  1  0
 12 13  1  0
 12 18  1  0
 13 14  1  0
 14 15  1  0
 15 16  1  0
 15 17  1  0
 15 18  1  0
  1  2  2  0
  1  6  1  0
  2  3  1  0
  3 19  1  0
  3  4  2  0
 19 20  1  0
 20 21  2  0
 20 30  1  0
 21 22  1  0
 22 23  1  0
 23 24  2  0
 23 25  1  0
 25 26  1  0
 25 30  2  0
 26 27  2  0
 27 28  1  0
 28 29  2  0
 29 30  1  0
  4  5  1  0
  5  6  2  0
  6  7  1  0
M  END
>  <minimizedAffinity>  (235) 
-9.35547

$$$$
cs_full_output_folder/data/smiles/5908.pdb
     RDKit          3D

 25 27  0  0  0  0  0  0  0  0999 V2000
   68.6743   43.7085   56.3825 N   0  0  0  0  0  0  0  0  0  0  0  0
   68.4499   42.4376   56.6158 C   0  0  0  0  0  0  0  0  0  0  0  0
   67.3090   41.7152   56.1278 C   0  0  0  0  0  0  0  0  0  0  0  0
   66.3779   42.2020   55.4112 O   0  0  0  0  0  0  0  0  0  0  0  0
   67.4501   40.3908   56.6059 N   0  0  0  0  0  0  0  0  0  0  0  0
   68.6390   40.2427   57.3808 C   0  0  0  0  0  0  0  0  0  0  0  0
   69.2194   39.1827   58.0513 C   0  0  0  0  0  0  0  0  0  0  0  0
   70.4126   39.3002   58.7510 C   0  0  0  0  0  0  0  0  0  0  0  0
   71.0039   40.5469   58.7455 C   0  0  0  0  0  0  0  0  0  0  0  0
   70.4273   41.6067   58.0770 C   0  0  0  0  0  0  0  0  0  0  0  0
   69.2381   41.4833   57.3819 C   0  0  0  0  0  0  0  0  0  0  0  0
   67.7551   44.4472   55.6032 N   0  0  0  0  0  0  0  0  0  0  0  0
   69.2938   47.9434   53.7256 C   0  0  0  0  0  0  0  0  0  0  0  0
   69.3672   47.7547   55.0845 C   0  0  0  0  0  0  0  0  0  0  0  0
   68.8685   46.6283   55.7013 C   0  0  0  0  0  0  0  0  0  0  0  0
   68.2561   45.6109   54.9600 C   0  0  0  0  0  0  0  0  0  0  0  0
   68.1827   45.7992   53.5987 C   0  0  0  0  0  0  0  0  0  0  0  0
   68.6846   46.9286   53.0013 C   0  0  0  0  0  0  0  0  0  0  0  0
   70.0559   49.1044   51.4064 N   0  0  0  0  0  0  0  0  0  0  0  0
   69.9297   49.3767   52.9514 S   0  0  2  0  0  0  0  0  0  0  0  0
   71.5679   49.6599   53.4923 N   0  0  0  0  0  0  0  0  0  0  0  0
   69.0813   50.5849   53.1716 O   0  0  0  0  0  0  0  0  0  0  0  0
   71.0141   38.1383   59.4627 C   0  0  0  0  0  0  0  0  0  0  0  0
   72.4361   37.8698   59.0429 C   0  0  0  0  0  0  0  0  0  0  0  0
   72.4399   36.5458   57.6308 Br  0  0  0  0  0  0  0  0  0  0  0  0
 19 20  2  0
 20 21  1  1
 20 22  2  0
 20 13  1  0
 13 14  2  0
 13 18  1  0
 14 15  1  0
 15 16  2  0
 16 12  1  0
 16 17  1  0
 12  1  1  0
  1  2  2  0
  2  3  1  0
  2 11  1  0
  3  4  2  0
  3  5  1  0
  5  6  1  0
  6  7  1  0
  6 11  2  0
  7  8  2  0
  8 23  1  0
  8  9  1  0
 23 24  1  0
 24 25  1  0
  9 10  2  0
 10 11  1  0
 17 18  2  0
M  END
>  <minimizedAffinity>  (236) 
-9.35334

$$$$
cs_full_output_folder/data/smiles/3882.pdb
     RDKit          3D

 33 38  0  0  0  0  0  0  0  0999 V2000
   71.6627   47.0051   59.0785 C   0  0  0  0  0  0  0  0  0  0  0  0
   70.8873   47.8145   58.2853 C   0  0  0  0  0  0  0  0  0  0  0  0
   70.0616   47.3292   57.2645 C   0  0  0  0  0  0  0  0  0  0  0  0
   70.0573   45.9775   57.0819 C   0  0  0  0  0  0  0  0  0  0  0  0
   70.8222   45.1169   57.8574 C   0  0  0  0  0  0  0  0  0  0  0  0
   71.6082   45.6397   58.8376 C   0  0  0  0  0  0  0  0  0  0  0  0
   72.3499   44.7708   59.5850 F   0  0  0  0  0  0  0  0  0  0  0  0
   72.0484   47.7193   61.2667 O   0  0  0  0  0  0  0  0  0  0  0  0
   72.5196   47.5040   60.1349 C   0  0  0  0  0  0  0  0  0  0  0  0
   73.8822   47.7436   59.8727 N   0  0  0  0  0  0  0  0  0  0  0  0
   74.7384   47.6106   58.7183 C   0  0  0  0  0  0  0  0  0  0  0  0
   75.8194   48.2408   59.4637 C   0  0  0  0  0  0  0  0  0  0  0  0
   75.0050   48.2224   60.6494 C   0  0  0  0  0  0  0  0  0  0  0  0
   76.4285   49.5074   58.9597 C   0  0  0  0  0  0  0  0  0  0  0  0
   77.4409   48.7055   58.3508 N   0  0  0  0  0  0  0  0  0  0  0  0
   78.3317   48.7182   57.2680 C   0  0  0  0  0  0  0  0  0  0  0  0
   79.1335   47.7271   57.0609 O   0  0  0  0  0  0  0  0  0  0  0  0
   77.1909   47.7196   59.4145 C   0  0  0  0  0  0  0  0  0  0  0  0
   78.4492   49.8190   56.2835 C   0  0  0  0  0  0  0  0  0  0  0  0
   79.7241   50.1998   55.6646 C   0  0  0  0  0  0  0  0  0  0  0  0
   79.2647   51.0270   56.7984 C   0  0  0  0  0  0  0  0  0  0  0  0
   69.2843   48.2750   56.4429 C   0  0  0  0  0  0  0  0  0  0  0  0
   69.6375   48.3173   55.0260 C   0  0  0  0  0  0  0  0  0  0  0  0
   70.5951   49.1860   54.6173 N   0  0  0  0  0  0  0  0  0  0  0  0
   70.9391   49.3092   53.3488 N   0  0  0  0  0  0  0  0  0  0  0  0
   70.3511   48.5750   52.3987 C   0  0  0  0  0  0  0  0  0  0  0  0
   70.6674   48.6808   51.1783 O   0  0  0  0  0  0  0  0  0  0  0  0
   69.3644   47.6688   52.7545 C   0  0  0  0  0  0  0  0  0  0  0  0
   68.7714   46.9072   51.7781 C   0  0  0  0  0  0  0  0  0  0  0  0
   67.8042   45.9961   52.1056 C   0  0  0  0  0  0  0  0  0  0  0  0
   67.4508   45.8680   53.4221 C   0  0  0  0  0  0  0  0  0  0  0  0
   68.0421   46.6275   54.3997 C   0  0  0  0  0  0  0  0  0  0  0  0
   69.0135   47.5490   54.0922 C   0  0  0  0  0  0  0  0  0  0  0  0
  8  9  2  0
  9  1  1  0
  9 10  1  0
  1  2  2  0
  1  6  1  0
  2  3  1  0
  3 22  1  0
  3  4  2  0
 22 23  1  0
 23 24  2  0
 23 33  1  0
 24 25  1  0
 25 26  1  0
 26 27  2  0
 26 28  1  0
 28 29  1  0
 28 33  2  0
 29 30  2  0
 30 31  1  0
 31 32  2  0
 32 33  1  0
  4  5  1  0
  5  6  2  0
  6  7  1  0
 10 11  1  0
 10 13  1  0
 11 12  1  0
 12 13  1  0
 12 14  1  0
 12 18  1  0
 14 15  1  0
 15 16  1  0
 15 18  1  0
 16 17  2  0
 16 19  1  0
 19 20  1  0
 19 21  1  0
 20 21  1  0
M  END
>  <minimizedAffinity>  (237) 
-9.35245

$$$$
cs_full_output_folder/data/smiles/456.pdb
     RDKit          3D

 25 26  0  0  0  0  0  0  0  0999 V2000
   70.0093   49.3059   52.6636 S   0  0  0  0  0  0  0  0  0  0  0  0
   69.9935   49.2026   51.1676 O   0  0  0  0  0  0  0  0  0  0  0  0
   71.4264   49.4013   53.1632 O   0  0  0  0  0  0  0  0  0  0  0  0
   69.2438   47.8364   53.2718 C   0  0  0  0  0  0  0  0  0  0  0  0
   69.2743   47.5582   54.6354 C   0  0  0  0  0  0  0  0  0  0  0  0
   69.8915   48.4298   55.4626 F   0  0  0  0  0  0  0  0  0  0  0  0
   68.6989   46.4319   55.1536 C   0  0  0  0  0  0  0  0  0  0  0  0
   68.7181   46.1418   56.4811 F   0  0  0  0  0  0  0  0  0  0  0  0
   68.0642   45.5314   54.3229 C   0  0  0  0  0  0  0  0  0  0  0  0
   67.4827   44.4012   54.8086 F   0  0  0  0  0  0  0  0  0  0  0  0
   68.0150   45.7729   52.9776 C   0  0  0  0  0  0  0  0  0  0  0  0
   67.4049   44.9233   52.1074 F   0  0  0  0  0  0  0  0  0  0  0  0
   68.6096   46.9307   52.4634 C   0  0  0  0  0  0  0  0  0  0  0  0
   68.5556   47.1523   51.1270 F   0  0  0  0  0  0  0  0  0  0  0  0
   69.0921   50.6846   53.1345 N   0  0  0  0  0  0  0  0  0  0  0  0
   71.2781   52.8705   55.2436 C   0  0  0  0  0  0  0  0  0  0  0  0
   70.3977   53.3141   56.2086 C   0  0  0  0  0  0  0  0  0  0  0  0
   69.0911   52.8748   56.1354 C   0  0  0  0  0  0  0  0  0  0  0  0
   68.6977   52.0211   55.1267 C   0  0  0  0  0  0  0  0  0  0  0  0
   69.5740   51.5594   54.1389 C   0  0  0  0  0  0  0  0  0  0  0  0
   70.8726   52.0090   54.2285 C   0  0  0  0  0  0  0  0  0  0  0  0
   73.7005   52.9782   56.7873 N   0  0  0  0  0  0  0  0  0  0  0  0
   72.9424   53.4157   55.3162 S   0  0  0  0  0  0  0  0  0  0  0  0
   73.0073   54.9173   55.1038 O   0  0  0  0  0  0  0  0  0  0  0  0
   73.6908   52.7455   54.1847 O   0  0  0  0  0  0  0  0  0  0  0  0
 22 23  1  0
 23 24  2  0
 23 25  2  0
 23 16  1  0
 16 17  2  0
 16 21  1  0
 17 18  1  0
 18 19  2  0
 19 20  1  0
 20 15  1  0
 20 21  2  0
 15  1  1  0
  1  2  2  0
  1  3  2  0
  1  4  1  0
  4  5  2  0
  4 13  1  0
  5  6  1  0
  5  7  1  0
  7  8  1  0
  7  9  2  0
  9 10  1  0
  9 11  1  0
 11 12  1  0
 11 13  2  0
 13 14  1  0
M  END
>  <minimizedAffinity>  (238) 
-9.35173

$$$$
cs_full_output_folder/data/smiles/1507.pdb
     RDKit          3D

 32 35  0  0  0  0  0  0  0  0999 V2000
   71.4858   47.1012   58.9021 C   0  0  0  0  0  0  0  0  0  0  0  0
   70.6936   47.8521   58.0782 C   0  0  0  0  0  0  0  0  0  0  0  0
   69.7943   47.2986   57.1498 C   0  0  0  0  0  0  0  0  0  0  0  0
   69.7531   45.9366   57.1126 C   0  0  0  0  0  0  0  0  0  0  0  0
   70.5473   45.1340   57.9402 C   0  0  0  0  0  0  0  0  0  0  0  0
   71.4158   45.7120   58.8370 C   0  0  0  0  0  0  0  0  0  0  0  0
   72.1910   44.9514   59.6438 F   0  0  0  0  0  0  0  0  0  0  0  0
   77.0624   49.8595   57.9842 C   0  0  0  0  0  0  0  0  0  0  0  0
   77.2254   49.9514   56.7257 O   0  0  0  0  0  0  0  0  0  0  0  0
   76.1909   48.8848   58.5177 N   0  0  0  0  0  0  0  0  0  0  0  0
   75.4551   47.9662   57.6887 C   0  0  0  0  0  0  0  0  0  0  0  0
   73.9861   48.0029   57.9926 C   0  0  0  0  0  0  0  0  0  0  0  0
   73.6667   48.1596   59.3855 N   0  0  0  0  0  0  0  0  0  0  0  0
   72.4091   47.7071   59.8539 C   0  0  0  0  0  0  0  0  0  0  0  0
   72.1172   47.8350   61.0579 O   0  0  0  0  0  0  0  0  0  0  0  0
   74.5705   48.7645   60.3441 C   0  0  0  0  0  0  0  0  0  0  0  0
   76.0027   48.7750   59.9386 C   0  0  0  0  0  0  0  0  0  0  0  0
   77.7792   50.7675   58.9093 C   0  0  0  0  0  0  0  0  0  0  0  0
   79.7659   49.5073   59.5559 C   0  0  0  0  0  0  0  0  0  0  0  0
   79.2659   50.6267   58.6791 C   0  0  0  0  0  0  0  0  0  0  0  0
   69.0322   48.2413   56.3224 C   0  0  0  0  0  0  0  0  0  0  0  0
   69.4277   48.2931   54.9027 C   0  0  0  0  0  0  0  0  0  0  0  0
   70.3720   49.1970   54.4861 N   0  0  0  0  0  0  0  0  0  0  0  0
   70.7451   49.3231   53.2406 N   0  0  0  0  0  0  0  0  0  0  0  0
   70.2437   48.5790   52.2388 C   0  0  0  0  0  0  0  0  0  0  0  0
   70.6242   48.7245   51.0475 O   0  0  0  0  0  0  0  0  0  0  0  0
   69.2797   47.6374   52.5844 C   0  0  0  0  0  0  0  0  0  0  0  0
   68.7515   46.8503   51.5860 C   0  0  0  0  0  0  0  0  0  0  0  0
   67.8039   45.9046   51.9168 C   0  0  0  0  0  0  0  0  0  0  0  0
   67.3941   45.7479   53.2159 C   0  0  0  0  0  0  0  0  0  0  0  0
   67.9293   46.5419   54.2101 C   0  0  0  0  0  0  0  0  0  0  0  0
   68.8884   47.5097   53.9125 C   0  0  0  0  0  0  0  0  0  0  0  0
 19 20  1  0
 20 18  1  0
 18  8  1  0
  8  9  2  0
  8 10  1  0
 10 11  1  0
 10 17  1  0
 11 12  1  0
 12 13  1  0
 13 14  1  0
 13 16  1  0
 14 15  2  0
 14  1  1  0
  1  2  2  0
  1  6  1  0
  2  3  1  0
  3 21  1  0
  3  4  2  0
 21 22  1  0
 22 23  2  0
 22 32  1  0
 23 24  1  0
 24 25  1  0
 25 26  2  0
 25 27  1  0
 27 28  1  0
 27 32  2  0
 28 29  2  0
 29 30  1  0
 30 31  2  0
 31 32  1  0
  4  5  1  0
  5  6  2  0
  6  7  1  0
 16 17  1  0
M  END
>  <minimizedAffinity>  (239) 
-9.34967

$$$$
cs_full_output_folder/data/smiles/2634.pdb
     RDKit          3D

 30 32  0  0  0  0  0  0  0  0999 V2000
   69.8582   46.1222   57.2437 C   0  0  0  0  0  0  0  0  0  0  0  0
   69.2790   44.9724   56.7259 C   0  0  0  0  0  0  0  0  0  0  0  0
   69.8644   43.7518   56.9886 C   0  0  0  0  0  0  0  0  0  0  0  0
   71.0012   43.6139   57.7454 C   0  0  0  0  0  0  0  0  0  0  0  0
   71.5767   44.7459   58.2598 C   0  0  0  0  0  0  0  0  0  0  0  0
   70.9896   45.9903   57.9972 C   0  0  0  0  0  0  0  0  0  0  0  0
   69.0785   47.6610   56.8920 S   0  0  0  0  0  0  0  0  0  0  0  0
   69.4789   48.6635   57.9348 O   0  0  0  0  0  0  0  0  0  0  0  0
   67.5956   47.4319   57.0497 O   0  0  0  0  0  0  0  0  0  0  0  0
   69.3987   48.2032   55.2908 N   0  0  0  0  0  0  0  0  0  0  0  0
   70.3516   48.9104   52.7980 C   0  0  0  0  0  0  0  0  0  0  0  0
   69.3828   47.8185   52.9269 C   0  0  0  0  0  0  0  0  0  0  0  0
   68.9351   47.1272   51.8312 C   0  0  0  0  0  0  0  0  0  0  0  0
   68.0140   46.0938   51.9818 C   0  0  0  0  0  0  0  0  0  0  0  0
   67.5349   45.7411   53.2042 C   0  0  0  0  0  0  0  0  0  0  0  0
   67.9911   46.4462   54.3211 C   0  0  0  0  0  0  0  0  0  0  0  0
   68.9067   47.4747   54.1787 C   0  0  0  0  0  0  0  0  0  0  0  0
   71.5509   42.2982   57.9759 C   0  0  0  0  0  0  0  0  0  0  0  0
   72.7954   42.1324   57.8656 O   0  0  0  0  0  0  0  0  0  0  0  0
   70.7921   41.1478   58.3259 N   0  0  0  0  0  0  0  0  0  0  0  0
   71.4099   39.8846   58.5362 N   0  0  0  0  0  0  0  0  0  0  0  0
   70.7212   38.6736   58.3707 C   0  0  0  0  0  0  0  0  0  0  0  0
   69.4960   38.8131   58.0170 O   0  0  0  0  0  0  0  0  0  0  0  0
   71.2277   37.3287   58.5508 C   0  0  0  0  0  0  0  0  0  0  0  0
   72.2129   36.8668   57.6588 C   0  0  0  0  0  0  0  0  0  0  0  0
   72.7626   35.6144   57.7347 C   0  0  0  0  0  0  0  0  0  0  0  0
   72.3547   34.7351   58.7215 C   0  0  0  0  0  0  0  0  0  0  0  0
   71.3978   35.1564   59.6048 C   0  0  0  0  0  0  0  0  0  0  0  0
   70.8471   36.4414   59.5102 C   0  0  0  0  0  0  0  0  0  0  0  0
   69.8788   36.8276   60.4261 O   0  0  0  0  0  0  0  0  0  0  0  0
 11 12  1  0
 12 13  2  0
 12 17  1  0
 13 14  1  0
 14 15  2  0
 15 16  1  0
 16 17  2  0
 17 10  1  0
 10  7  1  0
  7  8  2  0
  7  9  2  0
  7  1  1  0
  1  2  2  0
  1  6  1  0
  2  3  1  0
  3  4  2  0
  4 18  1  0
  4  5  1  0
 18 19  2  0
 18 20  1  0
 20 21  1  0
 21 22  1  0
 22 23  2  0
 22 24  1  0
 24 25  2  0
 24 29  1  0
 25 26  1  0
 26 27  2  0
 27 28  1  0
 28 29  2  0
 29 30  1  0
  5  6  2  0
M  END
>  <minimizedAffinity>  (240) 
-9.34931

$$$$
cs_full_output_folder/data/smiles/4807.pdb
     RDKit          3D

 29 31  0  0  0  0  0  0  0  0999 V2000
   69.3260   48.0511   53.2761 C   0  0  0  0  0  0  0  0  0  0  0  0
   68.8346   47.6433   52.0551 C   0  0  0  0  0  0  0  0  0  0  0  0
   68.1731   46.4407   51.9279 C   0  0  0  0  0  0  0  0  0  0  0  0
   68.0059   45.6355   53.0606 C   0  0  0  0  0  0  0  0  0  0  0  0
   68.4837   46.0101   54.2965 C   0  0  0  0  0  0  0  0  0  0  0  0
   69.1355   47.2212   54.3605 C   0  0  0  0  0  0  0  0  0  0  0  0
   70.1747   49.5914   53.4454 S   0  0  0  0  0  0  0  0  0  0  0  0
   71.6240   49.3876   53.1963 O   0  0  0  0  0  0  0  0  0  0  0  0
   69.6514   50.4673   52.3215 O   0  0  0  0  0  0  0  0  0  0  0  0
   71.4801   49.7417   56.5068 C   0  0  0  0  0  0  0  0  0  0  0  0
   70.9435   50.8751   55.6211 C   0  0  2  0  0  0  0  0  0  0  0  0
   70.6499   52.0281   56.5344 C   0  0  0  0  0  0  0  0  0  0  0  0
   69.8604   53.1295   55.8790 C   0  0  0  0  0  0  0  0  0  0  0  0
   68.9588   52.6320   54.7850 C   0  0  0  0  0  0  0  0  0  0  0  0
   68.6518   51.1696   54.9164 C   0  0  0  0  0  0  0  0  0  0  0  0
   69.8261   50.3674   54.9125 N   0  0  0  0  0  0  0  0  0  0  0  0
   68.3195   45.1837   55.4909 C   0  0  0  0  0  0  0  0  0  0  0  0
   68.6593   45.6630   56.6057 O   0  0  0  0  0  0  0  0  0  0  0  0
   67.8045   43.8759   55.4866 N   0  0  0  0  0  0  0  0  0  0  0  0
   67.6615   43.1087   56.6656 N   0  0  0  0  0  0  0  0  0  0  0  0
   67.5224   41.6968   56.5874 C   0  0  0  0  0  0  0  0  0  0  0  0
   67.5373   41.2058   55.4072 O   0  0  0  0  0  0  0  0  0  0  0  0
   67.3726   40.8487   57.7543 C   0  0  0  0  0  0  0  0  0  0  0  0
   68.0565   39.6597   57.8064 C   0  0  0  0  0  0  0  0  0  0  0  0
   67.9084   38.8541   58.9239 C   0  0  0  0  0  0  0  0  0  0  0  0
   67.1031   39.1973   59.9855 C   0  0  0  0  0  0  0  0  0  0  0  0
   66.4236   40.3850   59.9257 C   0  0  0  0  0  0  0  0  0  0  0  0
   65.5901   40.7838   60.9788 O   0  0  0  0  0  0  0  0  0  0  0  0
   66.5688   41.2011   58.8027 C   0  0  0  0  0  0  0  0  0  0  0  0
 11 10  1  1
 11 12  1  0
 11 16  1  0
 12 13  1  0
 13 14  1  0
 14 15  1  0
 15 16  1  0
 16  7  1  0
  7  8  2  0
  7  9  2  0
  7  1  1  0
  1  2  2  0
  1  6  1  0
  2  3  1  0
  3  4  2  0
  4  5  1  0
  5 17  1  0
  5  6  2  0
 17 18  2  0
 17 19  1  0
 19 20  1  0
 20 21  1  0
 21 22  2  0
 21 23  1  0
 23 24  2  0
 23 29  1  0
 24 25  1  0
 25 26  2  0
 26 27  1  0
 27 28  1  0
 27 29  2  0
M  END
>  <minimizedAffinity>  (241) 
-9.34902

$$$$
cs_full_output_folder/data/smiles/5117.pdb
     RDKit          3D

 29 32  0  0  0  0  0  0  0  0999 V2000
   71.3094   47.0303   58.8774 C   0  0  0  0  0  0  0  0  0  0  0  0
   70.4786   47.8076   58.1026 C   0  0  0  0  0  0  0  0  0  0  0  0
   69.6629   47.2721   57.0902 C   0  0  0  0  0  0  0  0  0  0  0  0
   69.7278   45.9263   56.9005 C   0  0  0  0  0  0  0  0  0  0  0  0
   70.5506   45.0959   57.6562 C   0  0  0  0  0  0  0  0  0  0  0  0
   71.3396   45.6704   58.6470 C   0  0  0  0  0  0  0  0  0  0  0  0
   72.1574   44.9005   59.4097 F   0  0  0  0  0  0  0  0  0  0  0  0
   73.5315   50.9855   58.2807 C   0  0  0  0  0  0  0  0  0  0  0  0
   74.4559   49.7994   58.0714 C   0  0  1  0  0  0  0  0  0  0  0  0
   75.0554   49.9030   56.3460 S   0  0  0  0  0  0  0  0  0  0  0  0
   75.6468   49.8799   58.9642 C   0  0  0  0  0  0  0  0  0  0  0  0
   75.5668   48.8043   60.0204 C   0  0  0  0  0  0  0  0  0  0  0  0
   74.1482   48.8641   60.6051 C   0  0  0  0  0  0  0  0  0  0  0  0
   73.2919   48.3164   59.5776 N   0  0  0  0  0  0  0  0  0  0  0  0
   72.1545   47.5704   59.9227 C   0  0  0  0  0  0  0  0  0  0  0  0
   71.8617   47.3658   61.1165 O   0  0  0  0  0  0  0  0  0  0  0  0
   73.6370   48.5577   58.1965 C   0  0  0  0  0  0  0  0  0  0  0  0
   68.8399   48.2392   56.3273 C   0  0  0  0  0  0  0  0  0  0  0  0
   69.3178   48.2755   54.9287 C   0  0  0  0  0  0  0  0  0  0  0  0
   70.2955   49.1741   54.5912 N   0  0  0  0  0  0  0  0  0  0  0  0
   70.7415   49.2947   53.3438 N   0  0  0  0  0  0  0  0  0  0  0  0
   70.2595   48.5421   52.3420 C   0  0  0  0  0  0  0  0  0  0  0  0
   70.7264   48.7107   51.1914 O   0  0  0  0  0  0  0  0  0  0  0  0
   69.2750   47.6148   52.6016 C   0  0  0  0  0  0  0  0  0  0  0  0
   68.7827   46.8285   51.5828 C   0  0  0  0  0  0  0  0  0  0  0  0
   67.8089   45.8878   51.8341 C   0  0  0  0  0  0  0  0  0  0  0  0
   67.3612   45.7751   53.1305 C   0  0  0  0  0  0  0  0  0  0  0  0
   67.8490   46.5579   54.1508 C   0  0  0  0  0  0  0  0  0  0  0  0
   68.8206   47.5044   53.9200 C   0  0  0  0  0  0  0  0  0  0  0  0
  9  8  1  1
  9 10  1  0
  9 11  1  0
  9 17  1  0
 11 12  1  0
 12 13  1  0
 13 14  1  0
 14 15  1  0
 14 17  1  0
 15 16  2  0
 15  1  1  0
  1  2  2  0
  1  6  1  0
  2  3  1  0
  3 18  1  0
  3  4  2  0
 18 19  1  0
 19 20  2  0
 19 29  1  0
 20 21  1  0
 21 22  1  0
 22 23  2  0
 22 24  1  0
 24 25  1  0
 24 29  2  0
 25 26  2  0
 26 27  1  0
 27 28  2  0
 28 29  1  0
  4  5  1  0
  5  6  2  0
  6  7  1  0
M  END
>  <minimizedAffinity>  (242) 
-9.34573

$$$$
cs_full_output_folder/data/smiles/5866.pdb
     RDKit          3D

 31 35  0  0  0  0  0  0  0  0999 V2000
   70.8372   46.0428   58.3768 C   0  0  0  0  0  0  0  0  0  0  0  0
   69.9191   46.6554   57.5588 C   0  0  0  0  0  0  0  0  0  0  0  0
   70.0145   47.9980   57.1895 C   0  0  0  0  0  0  0  0  0  0  0  0
   71.0866   48.6967   57.6867 C   0  0  0  0  0  0  0  0  0  0  0  0
   72.0493   48.1260   58.5208 C   0  0  0  0  0  0  0  0  0  0  0  0
   71.8898   46.7971   58.8426 C   0  0  0  0  0  0  0  0  0  0  0  0
   72.7907   46.1714   59.6544 F   0  0  0  0  0  0  0  0  0  0  0  0
   69.6633   44.3153   59.3894 O   0  0  0  0  0  0  0  0  0  0  0  0
   70.6700   44.6335   58.7182 C   0  0  0  0  0  0  0  0  0  0  0  0
   71.5768   43.6226   58.3317 N   0  0  0  0  0  0  0  0  0  0  0  0
   72.8056   43.7458   57.5535 C   0  0  0  0  0  0  0  0  0  0  0  0
   73.6449   42.5296   57.8682 C   0  0  0  0  0  0  0  0  0  0  0  0
   72.8899   41.8840   59.0127 C   0  0  0  0  0  0  0  0  0  0  0  0
   73.2984   42.5972   60.2695 C   0  0  0  0  0  0  0  0  0  0  0  0
   72.5410   42.0594   61.4530 C   0  0  0  0  0  0  0  0  0  0  0  0
   72.6719   40.6454   61.5596 N   0  0  0  0  0  0  0  0  0  0  0  0
   73.5335   40.0505   60.5774 C   0  0  0  0  0  0  0  0  0  0  0  0
   73.1704   40.4323   59.1569 C   0  0  0  0  0  0  0  0  0  0  0  0
   71.4647   42.2130   58.6420 C   0  0  0  0  0  0  0  0  0  0  0  0
   68.9889   48.5878   56.2660 C   0  0  0  0  0  0  0  0  0  0  0  0
   69.3473   48.5836   54.8579 C   0  0  0  0  0  0  0  0  0  0  0  0
   70.2301   49.5172   54.3701 N   0  0  0  0  0  0  0  0  0  0  0  0
   70.6289   49.5552   53.1233 N   0  0  0  0  0  0  0  0  0  0  0  0
   70.2137   48.6848   52.1981 C   0  0  0  0  0  0  0  0  0  0  0  0
   70.5821   48.7014   50.9990 O   0  0  0  0  0  0  0  0  0  0  0  0
   69.3091   47.7025   52.6225 C   0  0  0  0  0  0  0  0  0  0  0  0
   68.8350   46.7820   51.7177 C   0  0  0  0  0  0  0  0  0  0  0  0
   67.9362   45.8101   52.0991 C   0  0  0  0  0  0  0  0  0  0  0  0
   67.5252   45.7864   53.4164 C   0  0  0  0  0  0  0  0  0  0  0  0
   67.9748   46.6858   54.3539 C   0  0  0  0  0  0  0  0  0  0  0  0
   68.8866   47.6661   53.9537 C   0  0  0  0  0  0  0  0  0  0  0  0
  8  9  2  0
  9  1  1  0
  9 10  1  0
  1  2  2  0
  1  6  1  0
  2  3  1  0
  3 20  1  0
  3  4  2  0
 20 21  1  0
 21 22  2  0
 21 31  1  0
 22 23  1  0
 23 24  1  0
 24 25  2  0
 24 26  1  0
 26 27  1  0
 26 31  2  0
 27 28  2  0
 28 29  1  0
 29 30  2  0
 30 31  1  0
  4  5  1  0
  5  6  2  0
  6  7  1  0
 10 11  1  0
 10 19  1  0
 11 12  1  0
 12 13  1  0
 13 14  1  0
 13 18  1  0
 13 19  1  0
 14 15  1  0
 15 16  1  0
 16 17  1  0
 17 18  1  0
M  CHG  1  16   1
M  END
>  <minimizedAffinity>  (243) 
-9.34403

$$$$
cs_full_output_folder/data/smiles/700.pdb
     RDKit          3D

 31 33  0  0  0  0  0  0  0  0999 V2000
   69.9475   39.4401   59.1609 C   0  0  0  0  0  0  0  0  0  0  0  0
   68.8567   38.7238   58.6461 C   0  0  0  0  0  0  0  0  0  0  0  0
   68.0872   39.3427   57.7003 C   0  0  0  0  0  0  0  0  0  0  0  0
   68.3474   40.6118   57.2543 C   0  0  0  0  0  0  0  0  0  0  0  0
   67.5105   41.2470   56.2339 C   0  0  0  0  0  0  0  0  0  0  0  0
   69.4332   41.3291   57.7641 C   0  0  0  0  0  0  0  0  0  0  0  0
   70.2017   40.7125   58.7083 C   0  0  0  0  0  0  0  0  0  0  0  0
   70.9340   38.6530   60.3868 S   0  0  0  0  0  0  0  0  0  0  0  0
   70.3871   39.0293   61.7553 O   0  0  0  0  0  0  0  0  0  0  0  0
   72.3150   39.2108   60.3068 O   0  0  0  0  0  0  0  0  0  0  0  0
   70.8563   36.9606   60.1236 N   0  0  0  0  0  0  0  0  0  0  0  0
   71.1378   34.0801   60.3235 C   0  0  0  0  0  0  0  0  0  0  0  0
   71.6885   34.8524   59.1768 C   0  0  0  0  0  0  0  0  0  0  0  0
   72.3830   34.2387   58.1516 C   0  0  0  0  0  0  0  0  0  0  0  0
   72.8891   34.9420   57.0769 C   0  0  0  0  0  0  0  0  0  0  0  0
   72.7078   36.3179   56.9947 C   0  0  0  0  0  0  0  0  0  0  0  0
   72.0053   36.9495   58.0291 C   0  0  0  0  0  0  0  0  0  0  0  0
   71.5040   36.2351   59.1021 C   0  0  0  0  0  0  0  0  0  0  0  0
   69.6644   42.6648   57.3028 C   0  0  0  0  0  0  0  0  0  0  0  0
   70.9002   42.9898   57.1292 O   0  0  0  0  0  0  0  0  0  0  0  0
   68.7251   43.6533   57.0239 N   0  0  0  0  0  0  0  0  0  0  0  0
   69.0671   44.9608   56.5880 N   0  0  0  0  0  0  0  0  0  0  0  0
   68.5057   45.5830   55.4520 C   0  0  0  0  0  0  0  0  0  0  0  0
   67.6505   44.8545   54.8350 O   0  0  0  0  0  0  0  0  0  0  0  0
   68.8160   46.9164   54.9637 C   0  0  0  0  0  0  0  0  0  0  0  0
   68.9554   47.9024   55.9244 C   0  0  0  0  0  0  0  0  0  0  0  0
   69.2610   49.2275   55.5873 C   0  0  0  0  0  0  0  0  0  0  0  0
   69.4278   49.5703   54.2729 C   0  0  0  0  0  0  0  0  0  0  0  0
   69.2963   48.6230   53.2975 C   0  0  0  0  0  0  0  0  0  0  0  0
   68.9889   47.2938   53.6629 C   0  0  0  0  0  0  0  0  0  0  0  0
   68.8580   46.3430   52.6704 O   0  0  0  0  0  0  0  0  0  0  0  0
 12 13  1  0
 13 14  2  0
 13 18  1  0
 14 15  1  0
 15 16  2  0
 16 17  1  0
 17 18  2  0
 18 11  1  0
 11  8  1  0
  8  9  2  0
  8 10  2  0
  8  1  1  0
  1  2  2  0
  1  7  1  0
  2  3  1  0
  3  4  2  0
  4  5  1  0
  4  6  1  0
  6 19  1  0
  6  7  2  0
 19 20  2  0
 19 21  1  0
 21 22  1  0
 22 23  1  0
 23 24  2  0
 23 25  1  0
 25 26  2  0
 25 30  1  0
 26 27  1  0
 27 28  2  0
 28 29  1  0
 29 30  2  0
 30 31  1  0
M  END
>  <minimizedAffinity>  (244) 
-9.34015

$$$$
cs_full_output_folder/data/smiles/1406.pdb
     RDKit          3D

 26 28  0  0  0  0  0  0  0  0999 V2000
   70.8145   41.8731   58.6955 C   0  0  0  0  0  0  0  0  0  0  0  0
   69.6535   41.5080   57.8841 C   0  0  0  0  0  0  0  0  0  0  0  0
   68.8459   42.3828   57.1596 C   0  0  0  0  0  0  0  0  0  0  0  0
   67.8667   41.6499   56.5512 C   0  0  0  0  0  0  0  0  0  0  0  0
   68.0892   40.3720   56.9059 N   0  0  0  0  0  0  0  0  0  0  0  0
   69.1438   40.2700   57.6948 N   0  0  0  0  0  0  0  0  0  0  0  0
   69.7293   39.1110   58.2849 C   0  0  0  0  0  0  0  0  0  0  0  0
   70.9649   38.6442   57.8766 C   0  0  0  0  0  0  0  0  0  0  0  0
   71.5397   37.5266   58.4636 C   0  0  0  0  0  0  0  0  0  0  0  0
   70.9006   36.8456   59.4698 C   0  0  0  0  0  0  0  0  0  0  0  0
   71.6891   35.2969   60.2818 Br  0  0  0  0  0  0  0  0  0  0  0  0
   69.6645   37.3008   59.8878 C   0  0  0  0  0  0  0  0  0  0  0  0
   69.1135   38.4095   59.2935 C   0  0  0  0  0  0  0  0  0  0  0  0
   69.0804   43.8147   57.1017 C   0  0  0  0  0  0  0  0  0  0  0  0
   69.8159   44.3781   57.9784 O   0  0  0  0  0  0  0  0  0  0  0  0
   68.5031   44.6059   56.0923 N   0  0  0  0  0  0  0  0  0  0  0  0
   68.6799   46.0616   55.9888 C   0  0  0  0  0  0  0  0  0  0  0  0
   68.6600   46.3621   54.5310 C   0  0  0  0  0  0  0  0  0  0  0  0
   67.8895   45.5705   53.6637 C   0  0  0  0  0  0  0  0  0  0  0  0
   67.8891   45.8854   52.3173 C   0  0  0  0  0  0  0  0  0  0  0  0
   68.5939   46.9241   51.7608 C   0  0  0  0  0  0  0  0  0  0  0  0
   69.3443   47.6917   52.6211 C   0  0  0  0  0  0  0  0  0  0  0  0
   69.3605   47.3940   53.9819 C   0  0  0  0  0  0  0  0  0  0  0  0
   70.1014   48.8036   52.0934 C   0  0  0  0  0  0  0  0  0  0  0  0
   71.2092   49.2727   52.8407 N   0  0  0  0  0  0  0  0  0  0  0  0
   69.8381   49.3828   51.0181 O   0  0  0  0  0  0  0  0  0  0  0  0
  1  2  1  0
  2  3  2  0
  2  6  1  0
  3 14  1  0
  3  4  1  0
 14 15  2  0
 14 16  1  0
 16 17  1  0
 17 18  1  0
 18 19  2  0
 18 23  1  0
 19 20  1  0
 20 21  2  0
 21 22  1  0
 22 24  1  0
 22 23  2  0
 24 25  1  0
 24 26  2  0
  4  5  2  0
  5  6  1  0
  6  7  1  0
  7  8  2  0
  7 13  1  0
  8  9  1  0
  9 10  2  0
 10 11  1  0
 10 12  1  0
 12 13  2  0
M  END
>  <minimizedAffinity>  (245) 
-9.33843

$$$$
cs_full_output_folder/data/smiles/326.pdb
     RDKit          3D

 33 37  0  0  0  0  0  0  0  0999 V2000
   71.6658   47.0389   58.9236 C   0  0  0  0  0  0  0  0  0  0  0  0
   70.6707   47.7533   58.2367 C   0  0  0  0  0  0  0  0  0  0  0  0
   69.7798   47.1197   57.4153 C   0  0  0  0  0  0  0  0  0  0  0  0
   69.9069   45.7409   57.2925 C   0  0  0  0  0  0  0  0  0  0  0  0
   70.8752   45.0153   57.9539 C   0  0  0  0  0  0  0  0  0  0  0  0
   71.7688   45.6844   58.7850 C   0  0  0  0  0  0  0  0  0  0  0  0
   72.7194   44.9623   59.4336 F   0  0  0  0  0  0  0  0  0  0  0  0
   72.2625   47.9564   60.9810 O   0  0  0  0  0  0  0  0  0  0  0  0
   72.6003   47.7551   59.7937 C   0  0  0  0  0  0  0  0  0  0  0  0
   73.8550   48.2208   59.3419 N   0  0  0  0  0  0  0  0  0  0  0  0
   74.6525   48.9100   60.3323 C   0  0  0  0  0  0  0  0  0  0  0  0
   74.5953   50.4015   60.0397 C   0  0  0  0  0  0  0  0  0  0  0  0
   73.4472   50.7124   59.1298 C   0  0  0  0  0  0  0  0  0  0  0  0
   73.7502   50.3949   57.7283 N   0  0  0  0  0  0  0  0  0  0  0  0
   73.1675   51.2980   56.8352 C   0  0  0  0  0  0  0  0  0  0  0  0
   72.4453   52.2617   57.2820 O   0  0  0  0  0  0  0  0  0  0  0  0
   74.5413   49.3008   57.2347 C   0  0  0  0  0  0  0  0  0  0  0  0
   74.2334   47.9853   57.9711 C   0  0  0  0  0  0  0  0  0  0  0  0
   73.3112   51.2473   55.3690 C   0  0  0  0  0  0  0  0  0  0  0  0
   72.6803   52.3600   54.5677 C   0  0  0  0  0  0  0  0  0  0  0  0
   74.1762   52.3474   54.7735 C   0  0  0  0  0  0  0  0  0  0  0  0
   68.6914   47.7727   56.6515 C   0  0  0  0  0  0  0  0  0  0  0  0
   69.1663   48.0474   55.2886 C   0  0  0  0  0  0  0  0  0  0  0  0
   70.0977   49.0199   55.1444 N   0  0  0  0  0  0  0  0  0  0  0  0
   70.6386   49.3163   53.9810 N   0  0  0  0  0  0  0  0  0  0  0  0
   70.3102   48.6789   52.8444 C   0  0  0  0  0  0  0  0  0  0  0  0
   70.8305   48.9638   51.7333 O   0  0  0  0  0  0  0  0  0  0  0  0
   69.3646   47.6788   52.9286 C   0  0  0  0  0  0  0  0  0  0  0  0
   68.9532   46.9805   51.8078 C   0  0  0  0  0  0  0  0  0  0  0  0
   67.9982   45.9936   51.8831 C   0  0  0  0  0  0  0  0  0  0  0  0
   67.4419   45.7035   53.1302 C   0  0  0  0  0  0  0  0  0  0  0  0
   67.8296   46.3818   54.2706 C   0  0  0  0  0  0  0  0  0  0  0  0
   68.7843   47.3589   54.1691 C   0  0  0  0  0  0  0  0  0  0  0  0
  8  9  2  0
  9  1  1  0
  9 10  1  0
  1  2  2  0
  1  6  1  0
  2  3  1  0
  3 22  1  0
  3  4  2  0
 22 23  1  0
 23 24  2  0
 23 33  1  0
 24 25  1  0
 25 26  1  0
 26 27  2  0
 26 28  1  0
 28 29  1  0
 28 33  2  0
 29 30  2  0
 30 31  1  0
 31 32  2  0
 32 33  1  0
  4  5  1  0
  5  6  2  0
  6  7  1  0
 10 11  1  0
 10 18  1  0
 11 12  1  0
 12 13  1  0
 13 14  1  0
 14 15  1  0
 14 17  1  0
 15 16  2  0
 15 19  1  0
 19 20  1  0
 19 21  1  0
 20 21  1  0
 17 18  1  0
M  END
>  <minimizedAffinity>  (246) 
-9.33814

$$$$
cs_full_output_folder/data/smiles/4078.pdb
     RDKit          3D

 28 30  0  0  0  0  0  0  0  0999 V2000
   68.5443   46.2543   54.3520 C   0  0  0  0  0  0  0  0  0  0  0  0
   67.9862   45.7829   53.1797 C   0  0  0  0  0  0  0  0  0  0  0  0
   68.0855   46.4500   51.9709 C   0  0  0  0  0  0  0  0  0  0  0  0
   68.7847   47.6609   51.9392 C   0  0  0  0  0  0  0  0  0  0  0  0
   69.3550   48.1658   53.0803 C   0  0  0  0  0  0  0  0  0  0  0  0
   69.2162   47.4462   54.2531 C   0  0  0  0  0  0  0  0  0  0  0  0
   68.5002   46.1079   56.6524 O   0  0  0  0  0  0  0  0  0  0  0  0
   68.3902   45.4837   55.5816 C   0  0  0  0  0  0  0  0  0  0  0  0
   68.1301   44.1116   55.6189 N   0  0  0  0  0  0  0  0  0  0  0  0
   67.9578   43.2385   56.6781 N   0  0  0  0  0  0  0  0  0  0  0  0
   67.4475   41.9380   56.7220 C   0  0  0  0  0  0  0  0  0  0  0  0
   67.0694   41.4366   55.6015 O   0  0  0  0  0  0  0  0  0  0  0  0
   67.2881   41.0743   57.8702 C   0  0  0  0  0  0  0  0  0  0  0  0
   66.5673   41.5386   58.9797 C   0  0  0  0  0  0  0  0  0  0  0  0
   66.3535   40.7643   60.0963 C   0  0  0  0  0  0  0  0  0  0  0  0
   66.8563   39.4855   60.1491 C   0  0  0  0  0  0  0  0  0  0  0  0
   67.5628   39.0017   59.0892 C   0  0  0  0  0  0  0  0  0  0  0  0
   67.7685   39.8177   57.9525 C   0  0  0  0  0  0  0  0  0  0  0  0
   68.5037   39.2795   56.9315 F   0  0  0  0  0  0  0  0  0  0  0  0
   70.2276   49.6873   53.0156 S   0  0  0  0  0  0  0  0  0  0  0  0
   71.6919   49.3558   53.0498 O   0  0  0  0  0  0  0  0  0  0  0  0
   69.9289   50.4206   51.7160 O   0  0  0  0  0  0  0  0  0  0  0  0
   69.8217   50.6507   54.3034 N   0  0  0  0  0  0  0  0  0  0  0  0
   70.7687   50.9211   55.2971 C   0  0  0  0  0  0  0  0  0  0  0  0
   70.5463   52.3582   55.7914 C   0  0  0  0  0  0  0  0  0  0  0  0
   69.1637   52.4954   56.3941 C   0  0  0  0  0  0  0  0  0  0  0  0
   68.1822   51.5292   55.7710 C   0  0  0  0  0  0  0  0  0  0  0  0
   68.5849   51.3149   54.3142 C   0  0  0  0  0  0  0  0  0  0  0  0
  7  8  2  0
  8  9  1  0
  8  1  1  0
  9 10  1  0
 10 11  1  0
 11 12  2  0
 11 13  1  0
 13 14  2  0
 13 18  1  0
 14 15  1  0
 15 16  2  0
 16 17  1  0
 17 18  2  0
 18 19  1  0
  1  2  2  0
  1  6  1  0
  2  3  1  0
  3  4  2  0
  4  5  1  0
  5 20  1  0
  5  6  2  0
 20 21  2  0
 20 22  2  0
 20 23  1  0
 23 24  1  0
 23 28  1  0
 24 25  1  0
 25 26  1  0
 26 27  1  0
 27 28  1  0
M  END
>  <minimizedAffinity>  (247) 
-9.33740

$$$$
cs_full_output_folder/data/smiles/4352.pdb
     RDKit          3D

 29 31  0  0  0  0  0  0  0  0999 V2000
   69.7179   48.6420   53.5271 C   0  0  0  0  0  0  0  0  0  0  0  0
   69.3105   48.3024   52.2555 C   0  0  0  0  0  0  0  0  0  0  0  0
   68.6248   47.1166   52.0410 C   0  0  0  0  0  0  0  0  0  0  0  0
   68.3558   46.2834   53.1203 C   0  0  0  0  0  0  0  0  0  0  0  0
   68.7509   46.5980   54.4005 C   0  0  0  0  0  0  0  0  0  0  0  0
   69.4304   47.7856   54.5720 C   0  0  0  0  0  0  0  0  0  0  0  0
   70.5714   50.1232   53.7763 S   0  0  0  0  0  0  0  0  0  0  0  0
   72.0548   49.8737   53.6328 O   0  0  0  0  0  0  0  0  0  0  0  0
   70.2052   51.0522   52.6257 O   0  0  0  0  0  0  0  0  0  0  0  0
   68.2366   52.0680   54.5407 C   0  0  0  0  0  0  0  0  0  0  0  0
   68.8283   51.0501   55.5250 C   0  0  2  0  0  0  0  0  0  0  0  0
   68.4765   51.3641   56.9281 C   0  0  0  0  0  0  0  0  0  0  0  0
   69.3682   50.8082   57.9725 C   0  0  0  0  0  0  0  0  0  0  0  0
   70.4458   49.9002   57.4298 C   0  0  0  0  0  0  0  0  0  0  0  0
   71.0956   50.6355   56.2814 C   0  0  0  0  0  0  0  0  0  0  0  0
   70.2010   50.9205   55.2224 N   0  0  0  0  0  0  0  0  0  0  0  0
   68.4787   45.7385   55.5468 C   0  0  0  0  0  0  0  0  0  0  0  0
   68.4988   46.2287   56.7062 O   0  0  0  0  0  0  0  0  0  0  0  0
   68.1870   44.3600   55.4559 N   0  0  0  0  0  0  0  0  0  0  0  0
   67.9269   43.5375   56.5564 N   0  0  0  0  0  0  0  0  0  0  0  0
   67.3130   42.2689   56.3566 C   0  0  0  0  0  0  0  0  0  0  0  0
   67.0339   41.9618   55.1578 O   0  0  0  0  0  0  0  0  0  0  0  0
   67.0031   41.3385   57.4664 C   0  0  0  0  0  0  0  0  0  0  0  0
   68.2588   40.6555   57.8540 C   0  0  0  0  0  0  0  0  0  0  0  0
   68.3205   39.3024   58.0939 C   0  0  0  0  0  0  0  0  0  0  0  0
   69.5060   38.7009   58.4526 C   0  0  0  0  0  0  0  0  0  0  0  0
   70.6357   39.4793   58.5693 C   0  0  0  0  0  0  0  0  0  0  0  0
   70.5492   40.8364   58.3243 C   0  0  0  0  0  0  0  0  0  0  0  0
   69.3708   41.3843   57.9752 N   0  0  0  0  0  0  0  0  0  0  0  0
 11 10  1  6
 11 12  1  0
 11 16  1  0
 12 13  1  0
 13 14  1  0
 14 15  1  0
 15 16  1  0
 16  7  1  0
  7  8  2  0
  7  9  2  0
  7  1  1  0
  1  2  2  0
  1  6  1  0
  2  3  1  0
  3  4  2  0
  4  5  1  0
  5 17  1  0
  5  6  2  0
 17 18  2  0
 17 19  1  0
 19 20  1  0
 20 21  1  0
 21 22  2  0
 21 23  1  0
 23 24  1  0
 24 25  2  0
 24 29  1  0
 25 26  1  0
 26 27  2  0
 27 28  1  0
 28 29  2  0
M  END
>  <minimizedAffinity>  (248) 
-9.33458

$$$$
cs_full_output_folder/data/smiles/7027.pdb
     RDKit          3D

 33 37  0  0  0  0  0  0  0  0999 V2000
   71.9177   46.7917   58.9494 C   0  0  0  0  0  0  0  0  0  0  0  0
   70.6579   46.9516   58.3751 C   0  0  0  0  0  0  0  0  0  0  0  0
   70.3034   48.0048   57.5753 C   0  0  0  0  0  0  0  0  0  0  0  0
   71.2796   48.9684   57.3317 C   0  0  0  0  0  0  0  0  0  0  0  0
   72.5327   48.8468   57.8796 C   0  0  0  0  0  0  0  0  0  0  0  0
   72.8522   47.7668   58.6824 C   0  0  0  0  0  0  0  0  0  0  0  0
   74.0995   47.6499   59.2254 F   0  0  0  0  0  0  0  0  0  0  0  0
   71.8146   40.9812   58.9823 C   0  0  2  0  0  0  0  0  0  0  0  0
   71.3791   42.1720   58.1659 C   0  0  0  0  0  0  0  0  0  0  0  0
   72.4009   42.5775   57.1527 C   0  0  0  0  0  0  0  0  0  0  0  0
   73.6762   42.9843   57.8159 C   0  0  1  0  0  0  0  0  0  0  0  0
   73.7566   44.4679   58.0969 C   0  0  0  0  0  0  0  0  0  0  0  0
   73.0802   44.5905   59.3740 N   0  0  0  0  0  0  0  0  0  0  0  0
   72.2303   45.6449   59.7945 C   0  0  0  0  0  0  0  0  0  0  0  0
   71.7280   45.5890   60.9362 O   0  0  0  0  0  0  0  0  0  0  0  0
   73.4555   43.4145   60.1337 C   0  0  0  0  0  0  0  0  0  0  0  0
   73.9014   42.3744   59.1584 C   0  0  1  0  0  0  0  0  0  0  0  0
   73.2574   41.0358   59.3605 C   0  0  0  0  0  0  0  0  0  0  0  0
   72.2788   38.6730   58.8311 C   0  0  0  0  0  0  0  0  0  0  0  0
   71.3965   39.7273   58.4157 N   0  0  0  0  0  0  0  0  0  0  0  0
   70.0501   39.3643   58.5785 C   0  0  0  0  0  0  0  0  0  0  0  0
   68.9566   48.1168   56.9813 C   0  0  0  0  0  0  0  0  0  0  0  0
   68.7154   47.3314   55.7810 C   0  0  0  0  0  0  0  0  0  0  0  0
   68.0856   46.1267   55.9255 N   0  0  0  0  0  0  0  0  0  0  0  0
   67.7806   45.3472   54.9095 N   0  0  0  0  0  0  0  0  0  0  0  0
   68.0669   45.6797   53.6408 C   0  0  0  0  0  0  0  0  0  0  0  0
   67.7646   44.9204   52.6898 O   0  0  0  0  0  0  0  0  0  0  0  0
   68.7032   46.8831   53.4264 C   0  0  0  0  0  0  0  0  0  0  0  0
   69.0254   47.2554   52.1365 C   0  0  0  0  0  0  0  0  0  0  0  0
   69.6754   48.4496   51.8921 C   0  0  0  0  0  0  0  0  0  0  0  0
   69.9948   49.2652   52.9751 C   0  0  0  0  0  0  0  0  0  0  0  0
   69.6789   48.9056   54.2647 C   0  0  0  0  0  0  0  0  0  0  0  0
   69.0295   47.7137   54.5072 C   0  0  0  0  0  0  0  0  0  0  0  0
 19 20  1  0
 20 21  1  0
  8 20  1  6
  8  9  1  0
  8 18  1  0
  9 10  1  0
 11 10  1  1
 11 12  1  0
 11 17  1  0
 12 13  1  0
 13 14  1  0
 13 16  1  0
 14 15  2  0
 14  1  1  0
  1  2  2  0
  1  6  1  0
  2  3  1  0
  3 22  1  0
  3  4  2  0
 22 23  1  0
 23 24  2  0
 23 33  1  0
 24 25  1  0
 25 26  1  0
 26 27  2  0
 26 28  1  0
 28 29  1  0
 28 33  2  0
 29 30  2  0
 30 31  1  0
 31 32  2  0
 32 33  1  0
  4  5  1  0
  5  6  2  0
  6  7  1  0
 17 16  1  1
 17 18  1  0
M  CHG  1  20   1
M  END
>  <minimizedAffinity>  (249) 
-9.33342

$$$$
cs_full_output_folder/data/smiles/8509.pdb
     RDKit          3D

 30 33  0  0  0  0  0  0  0  0999 V2000
   72.3325   49.5007   58.0962 C   0  0  0  0  0  0  0  0  0  0  0  0
   71.3250   48.9687   57.3299 C   0  0  0  0  0  0  0  0  0  0  0  0
   70.1558   49.6284   57.0689 C   0  0  0  0  0  0  0  0  0  0  0  0
   69.9812   50.8800   57.5942 C   0  0  0  0  0  0  0  0  0  0  0  0
   70.9589   51.4452   58.3606 C   0  0  0  0  0  0  0  0  0  0  0  0
   72.1485   50.7635   58.6227 C   0  0  0  0  0  0  0  0  0  0  0  0
   73.1194   51.3246   59.3838 F   0  0  0  0  0  0  0  0  0  0  0  0
   77.2355   49.8812   56.2587 C   0  0  0  0  0  0  0  0  0  0  0  0
   75.8836   49.8524   55.5964 C   0  0  0  0  0  0  0  0  0  0  0  0
   74.7366   50.0647   56.5572 C   0  0  0  0  0  0  0  0  0  0  0  0
   74.7409   49.0478   57.5865 N   0  0  0  0  0  0  0  0  0  0  0  0
   73.5817   48.7491   58.3547 C   0  0  0  0  0  0  0  0  0  0  0  0
   73.6390   47.8568   59.2364 O   0  0  0  0  0  0  0  0  0  0  0  0
   75.9905   48.3452   57.7990 C   0  0  0  0  0  0  0  0  0  0  0  0
   77.1777   49.2712   57.6322 C   0  0  0  0  0  0  0  0  0  0  0  0
   79.5004   48.8580   55.7179 N   0  0  0  0  0  0  0  0  0  0  0  0
   78.1762   49.1802   55.3637 C   0  0  0  0  0  0  0  0  0  0  0  0
   77.7752   48.8508   54.2188 O   0  0  0  0  0  0  0  0  0  0  0  0
   69.0734   49.0149   56.2383 C   0  0  0  0  0  0  0  0  0  0  0  0
   69.3795   48.8316   54.8371 C   0  0  0  0  0  0  0  0  0  0  0  0
   70.1687   49.7667   54.2374 N   0  0  0  0  0  0  0  0  0  0  0  0
   70.5174   49.7242   52.9835 N   0  0  0  0  0  0  0  0  0  0  0  0
   70.1075   48.7350   52.1965 C   0  0  0  0  0  0  0  0  0  0  0  0
   70.4665   48.7314   50.9913 O   0  0  0  0  0  0  0  0  0  0  0  0
   69.3017   47.7425   52.7263 C   0  0  0  0  0  0  0  0  0  0  0  0
   68.9366   47.8011   54.0746 C   0  0  0  0  0  0  0  0  0  0  0  0
   68.0866   46.7572   54.6564 C   0  0  0  0  0  0  0  0  0  0  0  0
   68.0798   45.4905   53.7837 C   0  0  0  0  0  0  0  0  0  0  0  0
   67.6485   45.9880   52.3961 C   0  0  0  0  0  0  0  0  0  0  0  0
   68.8740   46.6663   51.8171 C   0  0  0  0  0  0  0  0  0  0  0  0
 16 17  1  0
 17 18  2  0
 17  8  1  0
  8  9  1  0
  8 15  1  0
  9 10  1  0
 10 11  1  0
 11 12  1  0
 11 14  1  0
 12 13  2  0
 12  1  1  0
  1  2  2  0
  1  6  1  0
  2  3  1  0
  3 19  1  0
  3  4  2  0
 19 20  1  0
 20 21  2  0
 20 26  1  0
 21 22  1  0
 22 23  1  0
 23 24  2  0
 23 25  1  0
 25 26  2  0
 25 30  1  0
 26 27  1  0
 27 28  1  0
 28 29  1  0
 29 30  1  0
  4  5  1  0
  5  6  2  0
  6  7  1  0
 14 15  1  0
M  END
>  <minimizedAffinity>  (250) 
-9.33129

$$$$
cs_full_output_folder/data/smiles/3182.pdb
     RDKit          3D

 31 34  0  0  0  0  0  0  0  0999 V2000
   70.7822   43.3985   58.0277 C   0  0  0  0  0  0  0  0  0  0  0  0
   72.1515   43.4613   58.1818 C   0  0  0  0  0  0  0  0  0  0  0  0
   72.8894   42.3402   58.4037 N   0  0  0  0  0  0  0  0  0  0  0  0
   74.2489   42.4321   58.5526 O   0  0  0  0  0  0  0  0  0  0  0  0
   72.3428   41.1178   58.4855 C   0  0  0  0  0  0  0  0  0  0  0  0
   70.9797   41.0099   58.3366 C   0  0  0  0  0  0  0  0  0  0  0  0
   70.2111   42.1478   58.1105 C   0  0  0  0  0  0  0  0  0  0  0  0
   68.9187   41.7312   58.0074 C   0  0  0  0  0  0  0  0  0  0  0  0
   68.9268   40.3950   58.1677 N   0  0  0  0  0  0  0  0  0  0  0  0
   70.1525   39.9483   58.3666 N   0  0  0  0  0  0  0  0  0  0  0  0
   70.5969   38.6092   58.5797 C   0  0  0  0  0  0  0  0  0  0  0  0
   71.5818   38.0382   57.8205 C   0  0  0  0  0  0  0  0  0  0  0  0
   71.9664   36.7244   58.0847 C   0  0  0  0  0  0  0  0  0  0  0  0
   71.3752   35.9921   59.0912 C   0  0  0  0  0  0  0  0  0  0  0  0
   71.7267   34.7149   59.3716 F   0  0  0  0  0  0  0  0  0  0  0  0
   70.3793   36.5589   59.8629 C   0  0  0  0  0  0  0  0  0  0  0  0
   70.0219   37.8492   59.5818 C   0  0  0  0  0  0  0  0  0  0  0  0
   69.8469   45.4611   58.7486 O   0  0  0  0  0  0  0  0  0  0  0  0
   70.0139   44.6261   57.7898 C   0  0  0  0  0  0  0  0  0  0  0  0
   69.4817   44.8445   56.5017 N   0  0  0  0  0  0  0  0  0  0  0  0
   68.7173   46.0261   56.2054 C   0  0  0  0  0  0  0  0  0  0  0  0
   68.6683   46.3642   54.7658 C   0  0  0  0  0  0  0  0  0  0  0  0
   67.9117   45.5876   53.8766 C   0  0  0  0  0  0  0  0  0  0  0  0
   67.8434   45.8483   52.5301 C   0  0  0  0  0  0  0  0  0  0  0  0
   68.5358   46.9118   52.0091 C   0  0  0  0  0  0  0  0  0  0  0  0
   69.2854   47.6928   52.8494 C   0  0  0  0  0  0  0  0  0  0  0  0
   69.3463   47.4170   54.2057 C   0  0  0  0  0  0  0  0  0  0  0  0
   70.0292   48.8377   52.2723 C   0  0  0  0  0  0  0  0  0  0  0  0
   69.2043   49.9418   52.1437 F   0  0  0  0  0  0  0  0  0  0  0  0
   70.5516   48.4975   51.0408 F   0  0  0  0  0  0  0  0  0  0  0  0
   71.0736   49.2231   53.0963 F   0  0  0  0  0  0  0  0  0  0  0  0
 18 19  2  0
 19 20  1  0
 19  1  1  0
 20 21  1  0
 21 22  1  0
 22 23  2  0
 22 27  1  0
 23 24  1  0
 24 25  2  0
 25 26  1  0
 26 28  1  0
 26 27  2  0
 28 29  1  0
 28 30  1  0
 28 31  1  0
  1  2  2  0
  1  7  1  0
  2  3  1  0
  3  4  1  0
  3  5  2  0
  5  6  1  0
  6  7  2  0
  6 10  1  0
  7  8  1  0
  8  9  2  0
  9 10  1  0
 10 11  1  0
 11 12  2  0
 11 17  1  0
 12 13  1  0
 13 14  2  0
 14 15  1  0
 14 16  1  0
 16 17  2  0
M  CHG  1   3   1
M  END
>  <minimizedAffinity>  (251) 
-9.33081

$$$$
cs_full_output_folder/data/smiles/6348.pdb
     RDKit          3D

 31 34  0  0  0  0  0  0  0  0999 V2000
   68.7363   50.6931   56.8634 C   0  0  0  0  0  0  0  0  0  0  0  0
   69.2234   49.4614   56.5711 C   0  0  0  0  0  0  0  0  0  0  0  0
   68.5646   48.2574   56.8553 C   0  0  0  0  0  0  0  0  0  0  0  0
   67.3518   48.3585   57.4705 C   0  0  0  0  0  0  0  0  0  0  0  0
   66.8188   49.6188   57.7868 C   0  0  0  0  0  0  0  0  0  0  0  0
   67.5064   50.7733   57.4864 C   0  0  0  0  0  0  0  0  0  0  0  0
   67.0190   52.0049   57.7797 F   0  0  0  0  0  0  0  0  0  0  0  0
   73.9335   49.5747   56.3051 O   0  0  0  0  0  0  0  0  0  0  0  0
   73.7775   50.8005   56.0904 C   0  0  0  0  0  0  0  0  0  0  0  0
   73.0717   51.5933   57.0221 N   0  0  0  0  0  0  0  0  0  0  0  0
   72.8838   53.0285   56.7819 C   0  0  0  0  0  0  0  0  0  0  0  0
   71.4220   53.3875   57.0062 C   0  0  0  0  0  0  0  0  0  0  0  0
   70.6451   52.2141   57.3109 N   0  0  0  0  0  0  0  0  0  0  0  0
   69.5089   51.9048   56.5225 C   0  0  0  0  0  0  0  0  0  0  0  0
   69.1882   52.6358   55.5818 O   0  0  0  0  0  0  0  0  0  0  0  0
   71.0785   51.3991   58.4278 C   0  0  0  0  0  0  0  0  0  0  0  0
   72.5276   51.0066   58.2203 C   0  0  0  0  0  0  0  0  0  0  0  0
   74.3321   51.4386   54.8565 C   0  0  0  0  0  0  0  0  0  0  0  0
   73.9302   50.6914   53.7605 F   0  0  0  0  0  0  0  0  0  0  0  0
   69.2038   46.9649   56.5134 C   0  0  0  0  0  0  0  0  0  0  0  0
   68.6640   46.5032   55.2327 C   0  0  0  0  0  0  0  0  0  0  0  0
   67.8478   45.4056   55.2842 N   0  0  0  0  0  0  0  0  0  0  0  0
   67.3149   44.8289   54.2289 N   0  0  0  0  0  0  0  0  0  0  0  0
   67.5676   45.3245   53.0121 C   0  0  0  0  0  0  0  0  0  0  0  0
   67.0778   44.8010   51.9813 O   0  0  0  0  0  0  0  0  0  0  0  0
   68.3804   46.4308   52.8779 C   0  0  0  0  0  0  0  0  0  0  0  0
   68.6752   47.0067   51.6469 C   0  0  0  0  0  0  0  0  0  0  0  0
   69.4821   48.1230   51.5357 C   0  0  0  0  0  0  0  0  0  0  0  0
   70.0224   48.7007   52.6847 C   0  0  0  0  0  0  0  0  0  0  0  0
   69.7348   48.1362   53.9096 C   0  0  0  0  0  0  0  0  0  0  0  0
   68.9346   47.0282   54.0022 C   0  0  0  0  0  0  0  0  0  0  0  0
  8  9  2  0
  9 18  1  0
  9 10  1  0
 18 19  1  0
 10 11  1  0
 10 17  1  0
 11 12  1  0
 12 13  1  0
 13 14  1  0
 13 16  1  0
 14 15  2  0
 14  1  1  0
  1  2  2  0
  1  6  1  0
  2  3  1  0
  3 20  1  0
  3  4  2  0
 20 21  1  0
 21 22  2  0
 21 31  1  0
 22 23  1  0
 23 24  1  0
 24 25  2  0
 24 26  1  0
 26 27  1  0
 26 31  2  0
 27 28  2  0
 28 29  1  0
 29 30  2  0
 30 31  1  0
  4  5  1  0
  5  6  2  0
  6  7  1  0
 16 17  1  0
M  END
>  <minimizedAffinity>  (252) 
-9.32745

$$$$
cs_full_output_folder/data/smiles/450.pdb
     RDKit          3D

 28 30  0  0  0  0  0  0  0  0999 V2000
   68.3854   45.9613   54.1917 C   0  0  0  0  0  0  0  0  0  0  0  0
   67.7768   45.5626   53.0303 C   0  0  0  0  0  0  0  0  0  0  0  0
   67.9056   46.3190   51.8611 C   0  0  0  0  0  0  0  0  0  0  0  0
   68.6502   47.4783   51.8738 C   0  0  0  0  0  0  0  0  0  0  0  0
   69.2798   47.9085   53.0366 C   0  0  0  0  0  0  0  0  0  0  0  0
   69.1273   47.1428   54.1453 C   0  0  0  0  0  0  0  0  0  0  0  0
   67.8360   43.8838   55.4577 N   0  0  0  0  0  0  0  0  0  0  0  0
   68.2775   45.2123   55.4184 C   0  0  0  0  0  0  0  0  0  0  0  0
   68.5932   45.7728   56.4972 O   0  0  0  0  0  0  0  0  0  0  0  0
   67.5348   41.7515   56.6059 C   0  0  0  0  0  0  0  0  0  0  0  0
   67.4669   41.2248   55.4482 O   0  0  0  0  0  0  0  0  0  0  0  0
   67.7285   43.1453   56.6599 N   0  0  0  0  0  0  0  0  0  0  0  0
   65.7857   41.0296   61.1820 C   0  0  0  0  0  0  0  0  0  0  0  0
   66.5562   40.5650   60.0045 C   0  0  0  0  0  0  0  0  0  0  0  0
   67.1401   39.3223   60.0659 C   0  0  0  0  0  0  0  0  0  0  0  0
   67.8619   38.8782   58.9714 C   0  0  0  0  0  0  0  0  0  0  0  0
   67.9945   39.6704   57.8359 C   0  0  0  0  0  0  0  0  0  0  0  0
   67.4129   40.9147   57.7689 C   0  0  0  0  0  0  0  0  0  0  0  0
   66.7008   41.3344   58.8666 C   0  0  0  0  0  0  0  0  0  0  0  0
   70.1996   49.3910   52.9531 S   0  0  0  0  0  0  0  0  0  0  0  0
   69.7826   50.1284   51.7191 O   0  0  0  0  0  0  0  0  0  0  0  0
   71.6492   49.0371   52.7850 O   0  0  0  0  0  0  0  0  0  0  0  0
   70.0056   50.2567   54.3805 N   0  0  0  0  0  0  0  0  0  0  0  0
   70.8344   49.9382   55.4768 C   0  0  0  0  0  0  0  0  0  0  0  0
   70.1722   49.3562   56.6806 C   0  0  0  0  0  0  0  0  0  0  0  0
   68.6930   49.5843   56.7293 C   0  0  0  0  0  0  0  0  0  0  0  0
   68.4165   50.9439   56.1120 C   0  0  0  0  0  0  0  0  0  0  0  0
   68.7459   50.8467   54.6353 C   0  0  0  0  0  0  0  0  0  0  0  0
 13 14  1  0
 14 15  2  0
 14 19  1  0
 15 16  1  0
 16 17  2  0
 17 18  1  0
 18 10  1  0
 18 19  2  0
 10 11  2  0
 10 12  1  0
 12  7  1  0
  7  8  1  0
  8  9  2  0
  8  1  1  0
  1  2  2  0
  1  6  1  0
  2  3  1  0
  3  4  2  0
  4  5  1  0
  5 20  1  0
  5  6  2  0
 20 21  2  0
 20 22  2  0
 20 23  1  0
 23 24  1  0
 23 28  1  0
 24 25  1  0
 25 26  1  0
 26 27  1  0
 27 28  1  0
M  END
>  <minimizedAffinity>  (253) 
-9.32153

$$$$
cs_full_output_folder/data/smiles/8672.pdb
     RDKit          3D

 31 35  0  0  0  0  0  0  0  0999 V2000
   71.4883   47.2668   58.7520 C   0  0  0  0  0  0  0  0  0  0  0  0
   70.5105   47.9043   57.9861 C   0  0  0  0  0  0  0  0  0  0  0  0
   69.6667   47.2096   57.1877 C   0  0  0  0  0  0  0  0  0  0  0  0
   69.7815   45.8128   57.1316 C   0  0  0  0  0  0  0  0  0  0  0  0
   70.7328   45.1930   57.8777 C   0  0  0  0  0  0  0  0  0  0  0  0
   71.5877   45.8980   58.6849 C   0  0  0  0  0  0  0  0  0  0  0  0
   72.5228   45.1957   59.4073 F   0  0  0  0  0  0  0  0  0  0  0  0
   77.8822   48.1812   57.4385 N   0  0  0  0  0  0  0  0  0  0  0  0
   77.5514   49.5405   57.0659 C   0  0  2  0  0  0  0  0  0  0  0  0
   77.7691   50.4208   58.2640 C   0  0  0  0  0  0  0  0  0  0  0  0
   76.6472   50.4054   59.2415 C   0  0  0  0  0  0  0  0  0  0  0  0
   75.7649   49.1933   59.1762 C   0  0  1  0  0  0  0  0  0  0  0  0
   74.4424   49.5596   59.8519 C   0  0  0  0  0  0  0  0  0  0  0  0
   73.4833   48.7710   59.1057 N   0  0  0  0  0  0  0  0  0  0  0  0
   72.3833   48.0229   59.6019 C   0  0  0  0  0  0  0  0  0  0  0  0
   72.1912   48.0285   60.8435 O   0  0  0  0  0  0  0  0  0  0  0  0
   73.8804   48.9000   57.7165 C   0  0  0  0  0  0  0  0  0  0  0  0
   75.3685   48.7847   57.7983 C   0  0  1  0  0  0  0  0  0  0  0  0
   76.0774   49.5824   56.7263 C   0  0  0  0  0  0  0  0  0  0  0  0
   68.6062   47.8313   56.3290 C   0  0  0  0  0  0  0  0  0  0  0  0
   69.0566   48.0149   54.9557 C   0  0  0  0  0  0  0  0  0  0  0  0
   69.9376   49.0337   54.7115 N   0  0  0  0  0  0  0  0  0  0  0  0
   70.3855   49.3395   53.5287 N   0  0  0  0  0  0  0  0  0  0  0  0
   70.0116   48.6653   52.4348 C   0  0  0  0  0  0  0  0  0  0  0  0
   70.4334   48.9465   51.2933 O   0  0  0  0  0  0  0  0  0  0  0  0
   69.1289   47.6177   52.5598 C   0  0  0  0  0  0  0  0  0  0  0  0
   68.7151   46.8797   51.4900 C   0  0  0  0  0  0  0  0  0  0  0  0
   67.8384   45.8244   51.6477 C   0  0  0  0  0  0  0  0  0  0  0  0
   67.3874   45.5285   52.9094 C   0  0  0  0  0  0  0  0  0  0  0  0
   67.7988   46.2668   53.9929 C   0  0  0  0  0  0  0  0  0  0  0  0
   68.6652   47.3134   53.8419 C   0  0  0  0  0  0  0  0  0  0  0  0
  9  8  1  1
  9 10  1  0
  9 19  1  0
 10 11  1  0
 12 11  1  6
 12 13  1  0
 12 18  1  0
 13 14  1  0
 14 15  1  0
 14 17  1  0
 15 16  2  0
 15  1  1  0
  1  2  2  0
  1  6  1  0
  2  3  1  0
  3 20  1  0
  3  4  2  0
 20 21  1  0
 21 22  2  0
 21 31  1  0
 22 23  1  0
 23 24  1  0
 24 25  2  0
 24 26  1  0
 26 27  1  0
 26 31  2  0
 27 28  2  0
 28 29  1  0
 29 30  2  0
 30 31  1  0
  4  5  1  0
  5  6  2  0
  6  7  1  0
 18 17  1  1
 18 19  1  0
M  CHG  1   8   1
M  END
>  <minimizedAffinity>  (254) 
-9.31982

$$$$
cs_full_output_folder/data/smiles/91.pdb
     RDKit          3D

 28 30  0  0  0  0  0  0  0  0999 V2000
   68.5462   46.3644   54.0856 C   0  0  0  0  0  0  0  0  0  0  0  0
   68.2810   45.9824   52.7882 C   0  0  0  0  0  0  0  0  0  0  0  0
   68.6125   46.7368   51.6830 C   0  0  0  0  0  0  0  0  0  0  0  0
   69.2553   47.9580   51.9121 C   0  0  0  0  0  0  0  0  0  0  0  0
   69.5403   48.3810   53.1868 C   0  0  0  0  0  0  0  0  0  0  0  0
   69.1913   47.5983   54.2453 C   0  0  0  0  0  0  0  0  0  0  0  0
   70.3403   49.9092   53.4017 S   0  0  0  0  0  0  0  0  0  0  0  0
   71.8280   49.7012   53.5119 O   0  0  0  0  0  0  0  0  0  0  0  0
   70.0113   50.7812   52.2073 O   0  0  0  0  0  0  0  0  0  0  0  0
   69.7914   50.6143   54.8490 N   0  0  0  0  0  0  0  0  0  0  0  0
   68.9519   51.7479   54.6832 C   0  0  0  0  0  0  0  0  0  0  0  0
   68.8259   52.6705   55.8196 C   0  0  0  0  0  0  0  0  0  0  0  0
   69.9127   52.7418   56.7275 N   0  0  0  0  0  0  0  0  0  0  0  0
   70.9580   53.6454   56.3818 C   0  0  0  0  0  0  0  0  0  0  0  0
   70.3355   51.4264   57.0969 C   0  0  0  0  0  0  0  0  0  0  0  0
   70.7683   50.6901   55.8795 C   0  0  0  0  0  0  0  0  0  0  0  0
   68.1890   45.5565   55.2466 C   0  0  0  0  0  0  0  0  0  0  0  0
   68.2838   46.0847   56.3827 O   0  0  0  0  0  0  0  0  0  0  0  0
   67.7582   44.2651   55.2047 O   0  0  0  0  0  0  0  0  0  0  0  0
   68.9648   41.2169   57.8591 C   0  0  0  0  0  0  0  0  0  0  0  0
   67.8167   41.0993   57.1050 C   0  0  0  0  0  0  0  0  0  0  0  0
   67.4313   42.1039   56.2392 C   0  0  0  0  0  0  0  0  0  0  0  0
   68.1649   43.2631   56.0840 C   0  0  0  0  0  0  0  0  0  0  0  0
   69.3157   43.3815   56.8389 C   0  0  0  0  0  0  0  0  0  0  0  0
   69.6969   42.3750   57.7035 C   0  0  0  0  0  0  0  0  0  0  0  0
   68.6077   38.8821   58.5026 C   0  0  0  0  0  0  0  0  0  0  0  0
   69.3952   40.1374   58.8013 C   0  0  0  0  0  0  0  0  0  0  0  0
   70.8625   39.7946   58.5555 C   0  0  0  0  0  0  0  0  0  0  0  0
 26 27  1  0
 27 28  1  0
 27 20  1  0
 20 21  2  0
 20 25  1  0
 21 22  1  0
 22 23  2  0
 23 19  1  0
 23 24  1  0
 19 17  1  0
 17 18  2  0
 17  1  1  0
  1  2  2  0
  1  6  1  0
  2  3  1  0
  3  4  2  0
  4  5  1  0
  5  7  1  0
  5  6  2  0
  7  8  2  0
  7  9  2  0
  7 10  1  0
 10 11  1  0
 10 16  1  0
 11 12  1  0
 12 13  1  0
 13 14  1  0
 13 15  1  0
 15 16  1  0
 24 25  2  0
M  CHG  1  13   1
M  END
>  <minimizedAffinity>  (255) 
-9.31961

$$$$
cs_full_output_folder/data/smiles/5415.pdb
     RDKit          3D

 28 29  0  0  0  0  0  0  0  0999 V2000
   70.7385   45.3002   58.2749 C   0  0  0  0  0  0  0  0  0  0  0  0
   71.8585   46.3847   58.8357 S   0  0  0  0  0  0  0  0  0  0  0  0
   70.2081   42.8304   58.4097 C   0  0  0  0  0  0  0  0  0  0  0  0
   68.9786   43.0505   58.4016 O   0  0  0  0  0  0  0  0  0  0  0  0
   71.0740   43.9394   58.3473 N   0  0  0  0  0  0  0  0  0  0  0  0
   71.5472   38.7375   58.6385 C   0  0  0  0  0  0  0  0  0  0  0  0
   70.2192   39.0379   58.4353 C   0  0  0  0  0  0  0  0  0  0  0  0
   69.7720   40.3655   58.3595 C   0  0  0  0  0  0  0  0  0  0  0  0
   70.6351   41.4268   58.4844 C   0  0  0  0  0  0  0  0  0  0  0  0
   71.9664   41.1054   58.6884 C   0  0  0  0  0  0  0  0  0  0  0  0
   72.4114   39.8040   58.7640 C   0  0  0  0  0  0  0  0  0  0  0  0
   73.3275   37.2802   59.5038 C   0  0  0  0  0  0  0  0  0  0  0  0
   72.0408   37.3299   58.7224 C   0  0  0  0  0  0  0  0  0  0  0  0
   72.3238   36.7381   57.3592 C   0  0  0  0  0  0  0  0  0  0  0  0
   71.0251   36.4565   59.4363 C   0  0  0  0  0  0  0  0  0  0  0  0
   69.5483   45.8483   57.7734 N   0  0  0  0  0  0  0  0  0  0  0  0
   69.4399   46.2904   56.4374 N   0  0  0  0  0  0  0  0  0  0  0  0
   68.6110   45.6138   55.5075 C   0  0  0  0  0  0  0  0  0  0  0  0
   67.9869   44.6101   55.9374 O   0  0  0  0  0  0  0  0  0  0  0  0
   68.4778   46.0520   54.1069 C   0  0  0  0  0  0  0  0  0  0  0  0
   67.7568   45.3352   53.1813 C   0  0  0  0  0  0  0  0  0  0  0  0
   67.6528   45.7807   51.8619 C   0  0  0  0  0  0  0  0  0  0  0  0
   68.2753   46.9520   51.4725 C   0  0  0  0  0  0  0  0  0  0  0  0
   68.9949   47.6718   52.3884 C   0  0  0  0  0  0  0  0  0  0  0  0
   69.0887   47.2148   53.6953 C   0  0  0  0  0  0  0  0  0  0  0  0
   69.6256   48.8732   51.9612 N   0  0  2  0  0  0  0  0  0  0  0  0
   70.5353   48.6356   50.9867 O   0  0  0  0  0  0  0  0  0  0  0  0
   70.4867   49.6271   53.2829 Cl  0  0  0  0  0  0  0  0  0  0  0  0
 12 13  1  0
 13 14  1  0
 13 15  1  0
 13  6  1  0
  6  7  2  0
  6 11  1  0
  7  8  1  0
  8  9  2  0
  9  3  1  0
  9 10  1  0
  3  4  2  0
  3  5  1  0
  5  1  1  0
  1  2  2  0
  1 16  1  0
 16 17  1  0
 17 18  1  0
 18 19  2  0
 18 20  1  0
 20 21  2  0
 20 25  1  0
 21 22  1  0
 22 23  2  0
 23 24  1  0
 24 26  1  0
 24 25  2  0
 26 27  1  6
 26 28  1  0
 10 11  2  0
M  CHG  2  26   1  27  -1
M  END
>  <minimizedAffinity>  (256) 
-9.31951

$$$$
cs_full_output_folder/data/smiles/4417.pdb
     RDKit          3D

 28 29  0  0  0  0  0  0  0  0999 V2000
   70.4203   44.8547   58.3331 C   0  0  0  0  0  0  0  0  0  0  0  0
   72.0253   44.8291   58.1056 S   0  0  0  0  0  0  0  0  0  0  0  0
   69.5171   42.6168   57.9605 C   0  0  0  0  0  0  0  0  0  0  0  0
   69.8850   42.7323   56.7709 O   0  0  0  0  0  0  0  0  0  0  0  0
   69.7459   43.6873   58.8511 N   0  0  0  0  0  0  0  0  0  0  0  0
   68.8520   41.3719   58.3876 C   0  0  0  0  0  0  0  0  0  0  0  0
   71.5455   38.0074   58.7229 C   0  0  0  0  0  0  0  0  0  0  0  0
   70.1694   37.8669   58.7350 C   0  0  0  0  0  0  0  0  0  0  0  0
   69.3436   38.9566   58.6400 C   0  0  0  0  0  0  0  0  0  0  0  0
   69.8510   40.2611   58.5269 C   0  0  0  0  0  0  0  0  0  0  0  0
   71.2035   40.3936   58.5168 C   0  0  0  0  0  0  0  0  0  0  0  0
   72.0558   39.2771   58.6137 C   0  0  0  0  0  0  0  0  0  0  0  0
   72.6426   36.2085   57.4224 C   0  0  0  0  0  0  0  0  0  0  0  0
   72.4128   36.7831   58.8149 C   0  0  0  0  0  0  0  0  0  0  0  0
   73.7808   37.2404   59.2946 C   0  0  0  0  0  0  0  0  0  0  0  0
   69.6495   45.9957   57.9762 N   0  0  0  0  0  0  0  0  0  0  0  0
   69.5832   46.4006   56.6482 N   0  0  0  0  0  0  0  0  0  0  0  0
   68.7195   45.8325   55.6907 C   0  0  0  0  0  0  0  0  0  0  0  0
   67.9584   44.9026   56.0581 O   0  0  0  0  0  0  0  0  0  0  0  0
   68.6964   46.2971   54.2934 C   0  0  0  0  0  0  0  0  0  0  0  0
   67.8585   45.6965   53.3872 C   0  0  0  0  0  0  0  0  0  0  0  0
   67.8049   46.1096   52.0558 C   0  0  0  0  0  0  0  0  0  0  0  0
   68.5873   47.1273   51.6094 C   0  0  0  0  0  0  0  0  0  0  0  0
   69.4413   47.7448   52.5130 C   0  0  0  0  0  0  0  0  0  0  0  0
   69.4921   47.3324   53.8359 C   0  0  0  0  0  0  0  0  0  0  0  0
   70.2672   48.8124   52.0370 N   0  0  0  0  0  0  0  0  0  0  0  0
   69.9952   49.3877   50.9680 O   0  0  0  0  0  0  0  0  0  0  0  0
   71.3473   49.1647   52.7942 O   0  0  0  0  0  0  0  0  0  0  0  0
 13 14  1  0
 14 15  1  0
 14  7  1  0
  7  8  2  0
  7 12  1  0
  8  9  1  0
  9 10  2  0
 10  6  1  0
 10 11  1  0
  6  3  1  0
  3  4  2  0
  3  5  1  0
  5  1  1  0
  1  2  2  0
  1 16  1  0
 16 17  1  0
 17 18  1  0
 18 19  2  0
 18 20  1  0
 20 21  2  0
 20 25  1  0
 21 22  1  0
 22 23  2  0
 23 24  1  0
 24 26  1  0
 24 25  2  0
 26 27  2  0
 26 28  1  0
 11 12  2  0
M  CHG  2  26   1  28  -1
M  END
>  <minimizedAffinity>  (257) 
-9.31913

$$$$
cs_full_output_folder/data/smiles/94.pdb
     RDKit          3D

 27 28  0  0  0  0  0  0  0  0999 V2000
   69.9224   49.1813   52.6048 S   0  0  0  0  0  0  0  0  0  0  0  0
   69.8512   49.2041   51.0910 O   0  0  0  0  0  0  0  0  0  0  0  0
   71.4168   49.2038   52.9148 O   0  0  0  0  0  0  0  0  0  0  0  0
   69.1788   47.7563   53.2032 C   0  0  0  0  0  0  0  0  0  0  0  0
   69.2281   47.4555   54.5424 C   0  0  0  0  0  0  0  0  0  0  0  0
   69.8607   48.2723   55.4207 F   0  0  0  0  0  0  0  0  0  0  0  0
   68.6356   46.3160   55.0392 C   0  0  0  0  0  0  0  0  0  0  0  0
   68.6693   45.9931   56.3669 F   0  0  0  0  0  0  0  0  0  0  0  0
   67.9676   45.4281   54.2068 C   0  0  0  0  0  0  0  0  0  0  0  0
   67.3773   44.2950   54.6869 F   0  0  0  0  0  0  0  0  0  0  0  0
   67.9224   45.7358   52.8627 C   0  0  0  0  0  0  0  0  0  0  0  0
   67.2714   44.8813   52.0124 F   0  0  0  0  0  0  0  0  0  0  0  0
   68.5227   46.8890   52.3658 C   0  0  0  0  0  0  0  0  0  0  0  0
   68.4235   47.1070   51.0193 F   0  0  0  0  0  0  0  0  0  0  0  0
   69.2799   50.6277   53.2259 N   0  0  0  0  0  0  0  0  0  0  0  0
   71.2699   53.2662   55.8910 C   0  0  0  0  0  0  0  0  0  0  0  0
   69.8932   53.1998   55.8071 C   0  0  0  0  0  0  0  0  0  0  0  0
   69.2441   52.3440   54.9425 C   0  0  0  0  0  0  0  0  0  0  0  0
   69.9590   51.5048   54.1118 C   0  0  0  0  0  0  0  0  0  0  0  0
   71.3342   51.5716   54.1965 C   0  0  0  0  0  0  0  0  0  0  0  0
   71.9870   52.4267   55.0607 C   0  0  0  0  0  0  0  0  0  0  0  0
   73.4136   52.4580   55.1093 N   0  0  0  0  0  0  0  0  0  0  0  0
   74.2058   51.3130   55.3544 C   0  0  0  0  0  0  0  0  0  0  0  0
   75.6211   51.4327   55.3858 N   0  0  0  0  0  0  0  0  0  0  0  0
   73.6367   50.2099   55.5396 O   0  0  0  0  0  0  0  0  0  0  0  0
   72.3245   53.6354   58.0272 C   0  0  0  0  0  0  0  0  0  0  0  0
   71.9038   54.1387   56.7721 O   0  0  0  0  0  0  0  0  0  0  0  0
 26 27  1  0
 27 16  1  0
 16 17  2  0
 16 21  1  0
 17 18  1  0
 18 19  2  0
 19 15  1  0
 19 20  1  0
 15  1  1  0
  1  2  2  0
  1  3  2  0
  1  4  1  0
  4  5  2  0
  4 13  1  0
  5  6  1  0
  5  7  1  0
  7  8  1  0
  7  9  2  0
  9 10  1  0
  9 11  1  0
 11 12  1  0
 11 13  2  0
 13 14  1  0
 20 21  2  0
 21 22  1  0
 22 23  1  0
 23 24  1  0
 23 25  2  0
M  END
>  <minimizedAffinity>  (258) 
-9.31663

$$$$
cs_full_output_folder/data/smiles/199.pdb
     RDKit          3D

 32 36  0  0  0  0  0  0  0  0999 V2000
   71.3198   46.7739   58.8304 C   0  0  0  0  0  0  0  0  0  0  0  0
   70.5047   47.6574   58.1012 C   0  0  0  0  0  0  0  0  0  0  0  0
   69.6652   47.2255   57.1275 C   0  0  0  0  0  0  0  0  0  0  0  0
   69.5835   45.8599   56.8155 C   0  0  0  0  0  0  0  0  0  0  0  0
   70.3639   44.9920   57.5089 C   0  0  0  0  0  0  0  0  0  0  0  0
   70.2879   43.6646   57.2079 F   0  0  0  0  0  0  0  0  0  0  0  0
   71.2242   45.4473   58.5081 C   0  0  0  0  0  0  0  0  0  0  0  0
   71.9563   44.4731   59.1330 F   0  0  0  0  0  0  0  0  0  0  0  0
   71.7570   47.3082   61.0462 O   0  0  0  0  0  0  0  0  0  0  0  0
   72.2241   47.2169   59.8759 C   0  0  0  0  0  0  0  0  0  0  0  0
   73.5736   47.5443   59.6596 N   0  0  0  0  0  0  0  0  0  0  0  0
   74.2084   47.4800   58.3473 C   0  0  0  0  0  0  0  0  0  0  0  0
   75.3462   46.5124   58.4416 C   0  0  0  0  0  0  0  0  0  0  0  0
   75.6967   46.0653   59.7345 N   0  0  0  0  0  0  0  0  0  0  0  0
   75.5336   46.9178   60.8372 C   0  0  0  0  0  0  0  0  0  0  0  0
   74.4537   47.9673   60.7302 C   0  0  0  0  0  0  0  0  0  0  0  0
   75.5871   44.6593   59.9478 C   0  0  0  0  0  0  0  0  0  0  0  0
   75.4992   43.8977   58.6166 C   0  0  0  0  0  0  0  0  0  0  0  0
   74.7028   42.6192   58.7089 C   0  0  0  0  0  0  0  0  0  0  0  0
   76.1869   42.5752   58.5494 C   0  0  0  0  0  0  0  0  0  0  0  0
   68.7965   48.1049   56.3300 C   0  0  0  0  0  0  0  0  0  0  0  0
   69.2610   48.2748   54.9179 C   0  0  0  0  0  0  0  0  0  0  0  0
   70.2415   49.2023   54.6564 N   0  0  0  0  0  0  0  0  0  0  0  0
   70.7423   49.3321   53.4404 N   0  0  0  0  0  0  0  0  0  0  0  0
   70.3038   48.5603   52.4371 C   0  0  0  0  0  0  0  0  0  0  0  0
   70.7665   48.6573   51.2483 O   0  0  0  0  0  0  0  0  0  0  0  0
   69.3256   47.6137   52.6246 C   0  0  0  0  0  0  0  0  0  0  0  0
   68.8526   46.8332   51.5797 C   0  0  0  0  0  0  0  0  0  0  0  0
   67.8557   45.9159   51.7820 C   0  0  0  0  0  0  0  0  0  0  0  0
   67.3565   45.8110   53.0585 C   0  0  0  0  0  0  0  0  0  0  0  0
   67.8009   46.5648   54.1107 C   0  0  0  0  0  0  0  0  0  0  0  0
   68.8005   47.4841   53.9163 C   0  0  0  0  0  0  0  0  0  0  0  0
  9 10  2  0
 10  1  1  0
 10 11  1  0
  1  2  2  0
  1  7  1  0
  2  3  1  0
  3 21  1  0
  3  4  2  0
 21 22  1  0
 22 23  2  0
 22 32  1  0
 23 24  1  0
 24 25  1  0
 25 26  2  0
 25 27  1  0
 27 28  1  0
 27 32  2  0
 28 29  2  0
 29 30  1  0
 30 31  2  0
 31 32  1  0
  4  5  1  0
  5  6  1  0
  5  7  2  0
  7  8  1  0
 11 12  1  0
 11 16  1  0
 12 13  1  0
 13 14  1  0
 14 17  1  0
 14 15  1  0
 17 18  1  0
 18 19  1  0
 18 20  1  0
 19 20  1  0
 15 16  1  0
M  CHG  1  14   1
M  END
>  <minimizedAffinity>  (259) 
-9.30610

$$$$
cs_full_output_folder/data/smiles/1599.pdb
     RDKit          3D

 27 28  0  0  0  0  0  0  0  0999 V2000
   69.8458   49.1397   52.6873 S   0  0  0  0  0  0  0  0  0  0  0  0
   69.5169   49.0918   51.2026 O   0  0  0  0  0  0  0  0  0  0  0  0
   71.3293   49.1479   52.7835 O   0  0  0  0  0  0  0  0  0  0  0  0
   69.1498   47.7147   53.4068 C   0  0  0  0  0  0  0  0  0  0  0  0
   68.4781   46.8132   52.6066 C   0  0  0  0  0  0  0  0  0  0  0  0
   68.3269   46.9763   51.2693 F   0  0  0  0  0  0  0  0  0  0  0  0
   67.9074   45.6583   53.1531 C   0  0  0  0  0  0  0  0  0  0  0  0
   67.2415   44.7540   52.3968 F   0  0  0  0  0  0  0  0  0  0  0  0
   68.0352   45.4493   54.5096 C   0  0  0  0  0  0  0  0  0  0  0  0
   67.4802   44.3089   55.0959 O   0  0  0  0  0  0  0  0  0  0  0  0
   68.7169   46.3738   55.2900 C   0  0  0  0  0  0  0  0  0  0  0  0
   68.8282   46.1425   56.6248 F   0  0  0  0  0  0  0  0  0  0  0  0
   69.2845   47.5182   54.7610 C   0  0  0  0  0  0  0  0  0  0  0  0
   69.9355   48.3762   55.5840 F   0  0  0  0  0  0  0  0  0  0  0  0
   69.2205   50.5828   53.3613 N   0  0  0  0  0  0  0  0  0  0  0  0
   71.4097   53.1963   55.8214 C   0  0  0  0  0  0  0  0  0  0  0  0
   70.0385   53.2260   55.7876 C   0  0  0  0  0  0  0  0  0  0  0  0
   69.3072   52.3782   54.9879 C   0  0  0  0  0  0  0  0  0  0  0  0
   69.9679   51.4686   54.1948 C   0  0  0  0  0  0  0  0  0  0  0  0
   71.3444   51.4475   54.2373 C   0  0  0  0  0  0  0  0  0  0  0  0
   72.0902   52.2709   55.0142 C   0  0  0  0  0  0  0  0  0  0  0  0
   73.5019   52.3077   55.1105 N   0  0  0  0  0  0  0  0  0  0  0  0
   74.3602   51.2086   55.3421 C   0  0  0  0  0  0  0  0  0  0  0  0
   75.7967   51.3970   55.4160 N   0  0  0  0  0  0  0  0  0  0  0  0
   73.8790   50.0630   55.4851 O   0  0  0  0  0  0  0  0  0  0  0  0
   72.4166   53.6889   57.9676 C   0  0  0  0  0  0  0  0  0  0  0  0
   72.1053   54.0768   56.6479 O   0  0  0  0  0  0  0  0  0  0  0  0
 26 27  1  0
 27 16  1  0
 16 17  2  0
 16 21  1  0
 17 18  1  0
 18 19  2  0
 19 15  1  0
 19 20  1  0
 15  1  1  0
  1  2  2  0
  1  3  2  0
  1  4  1  0
  4  5  2  0
  4 13  1  0
  5  6  1  0
  5  7  1  0
  7  8  1  0
  7  9  2  0
  9 10  1  0
  9 11  1  0
 11 12  1  0
 11 13  2  0
 13 14  1  0
 20 21  2  0
 21 22  1  0
 22 23  1  0
 23 24  1  0
 23 25  2  0
M  END
>  <minimizedAffinity>  (260) 
-9.30514

$$$$
cs_full_output_folder/data/smiles/6722.pdb
     RDKit          3D

 30 34  0  0  0  0  0  0  0  0999 V2000
   71.4294   46.6877   58.9160 C   0  0  0  0  0  0  0  0  0  0  0  0
   70.5266   47.5014   58.2407 C   0  0  0  0  0  0  0  0  0  0  0  0
   69.6886   46.9808   57.3011 C   0  0  0  0  0  0  0  0  0  0  0  0
   69.7813   45.6037   57.0510 C   0  0  0  0  0  0  0  0  0  0  0  0
   70.6768   44.8004   57.7211 C   0  0  0  0  0  0  0  0  0  0  0  0
   71.5227   45.3356   58.6720 C   0  0  0  0  0  0  0  0  0  0  0  0
   72.4181   44.5871   59.3559 F   0  0  0  0  0  0  0  0  0  0  0  0
   71.8623   47.3455   61.1049 O   0  0  0  0  0  0  0  0  0  0  0  0
   72.2902   47.3312   59.9142 C   0  0  0  0  0  0  0  0  0  0  0  0
   73.5203   47.9019   59.5759 N   0  0  0  0  0  0  0  0  0  0  0  0
   74.3162   48.5143   60.6539 C   0  0  0  0  0  0  0  0  0  0  0  0
   74.3717   49.9925   60.3259 C   0  0  0  0  0  0  0  0  0  0  0  0
   74.9209   50.2440   58.9551 C   0  0  1  0  0  0  0  0  0  0  0  0
   76.3989   49.9641   58.8465 C   0  0  0  0  0  0  0  0  0  0  0  0
   76.6524   49.4476   57.5294 N   0  0  0  0  0  0  0  0  0  0  0  0
   75.4121   49.4152   56.8083 C   0  0  0  0  0  0  0  0  0  0  0  0
   74.3247   49.4317   57.8607 C   0  0  1  0  0  0  0  0  0  0  0  0
   74.1041   47.9723   58.2755 C   0  0  0  0  0  0  0  0  0  0  0  0
   68.7036   47.8133   56.5660 C   0  0  0  0  0  0  0  0  0  0  0  0
   69.1570   48.0396   55.2164 C   0  0  0  0  0  0  0  0  0  0  0  0
   70.1164   48.9989   55.0394 N   0  0  0  0  0  0  0  0  0  0  0  0
   70.6591   49.2716   53.8708 N   0  0  0  0  0  0  0  0  0  0  0  0
   70.3063   48.6188   52.7477 C   0  0  0  0  0  0  0  0  0  0  0  0
   70.8606   48.9191   51.6434 O   0  0  0  0  0  0  0  0  0  0  0  0
   69.3468   47.6389   52.8309 C   0  0  0  0  0  0  0  0  0  0  0  0
   68.9548   46.9675   51.6941 C   0  0  0  0  0  0  0  0  0  0  0  0
   67.9772   45.9971   51.7825 C   0  0  0  0  0  0  0  0  0  0  0  0
   67.4165   45.7259   53.0144 C   0  0  0  0  0  0  0  0  0  0  0  0
   67.8235   46.4114   54.1556 C   0  0  0  0  0  0  0  0  0  0  0  0
   68.7980   47.3775   54.0696 C   0  0  0  0  0  0  0  0  0  0  0  0
  8  9  2  0
  9  1  1  0
  9 10  1  0
  1  2  2  0
  1  6  1  0
  2  3  1  0
  3 19  1  0
  3  4  2  0
 19 20  1  0
 20 21  2  0
 20 30  1  0
 21 22  1  0
 22 23  1  0
 23 24  2  0
 23 25  1  0
 25 26  1  0
 25 30  2  0
 26 27  2  0
 27 28  1  0
 28 29  2  0
 29 30  1  0
  4  5  1  0
  5  6  2  0
  6  7  1  0
 10 11  1  0
 10 18  1  0
 11 12  1  0
 13 12  1  1
 13 14  1  0
 13 17  1  0
 14 15  1  0
 15 16  1  0
 17 16  1  6
 17 18  1  0
M  CHG  1  15   1
M  END
>  <minimizedAffinity>  (261) 
-9.30374

$$$$
cs_full_output_folder/data/smiles/1107.pdb
     RDKit          3D

 28 30  0  0  0  0  0  0  0  0999 V2000
   68.6858   46.5072   54.0174 C   0  0  0  0  0  0  0  0  0  0  0  0
   68.5619   46.1549   52.7032 C   0  0  0  0  0  0  0  0  0  0  0  0
   69.0192   47.0028   51.6878 C   0  0  0  0  0  0  0  0  0  0  0  0
   69.5996   48.2032   52.0289 C   0  0  0  0  0  0  0  0  0  0  0  0
   70.0670   49.0780   51.1052 F   0  0  0  0  0  0  0  0  0  0  0  0
   69.7238   48.5579   53.3783 C   0  0  0  0  0  0  0  0  0  0  0  0
   69.2690   47.7132   54.3656 C   0  0  0  0  0  0  0  0  0  0  0  0
   68.1056   46.0804   56.2844 O   0  0  0  0  0  0  0  0  0  0  0  0
   68.2135   45.6339   55.1118 C   0  0  0  0  0  0  0  0  0  0  0  0
   67.8590   44.2767   54.9292 N   0  0  0  0  0  0  0  0  0  0  0  0
   67.4127   43.4567   55.9697 N   0  0  0  0  0  0  0  0  0  0  0  0
   68.2827   42.6691   56.7701 C   0  0  0  0  0  0  0  0  0  0  0  0
   69.5111   42.7262   56.5136 O   0  0  0  0  0  0  0  0  0  0  0  0
   67.7942   41.8202   57.8514 C   0  0  0  0  0  0  0  0  0  0  0  0
   68.0418   40.4649   57.8616 C   0  0  0  0  0  0  0  0  0  0  0  0
   67.5807   39.6534   58.8861 C   0  0  0  0  0  0  0  0  0  0  0  0
   66.8577   40.2013   59.9245 C   0  0  0  0  0  0  0  0  0  0  0  0
   66.6260   41.5556   59.8898 C   0  0  0  0  0  0  0  0  0  0  0  0
   67.0881   42.3184   58.8782 N   0  0  0  0  0  0  0  0  0  0  0  0
   70.4684   50.0971   53.8102 S   0  0  0  0  0  0  0  0  0  0  0  0
   71.9293   49.9605   54.0152 O   0  0  0  0  0  0  0  0  0  0  0  0
   70.1787   51.0599   52.6969 O   0  0  0  0  0  0  0  0  0  0  0  0
   69.6729   50.7048   55.2204 N   0  0  0  0  0  0  0  0  0  0  0  0
   69.2821   52.0759   55.0475 C   0  0  0  0  0  0  0  0  0  0  0  0
   68.9985   52.7682   56.3558 C   0  0  0  0  0  0  0  0  0  0  0  0
   68.5815   51.7526   57.4099 C   0  0  0  0  0  0  0  0  0  0  0  0
   69.6737   50.7338   57.6513 C   0  0  0  0  0  0  0  0  0  0  0  0
   70.4810   50.5434   56.4047 C   0  0  0  0  0  0  0  0  0  0  0  0
  8  9  2  0
  9 10  1  0
  9  1  1  0
 10 11  1  0
 11 12  1  0
 12 13  2  0
 12 14  1  0
 14 15  2  0
 14 19  1  0
 15 16  1  0
 16 17  2  0
 17 18  1  0
 18 19  2  0
  1  2  2  0
  1  7  1  0
  2  3  1  0
  3  4  2  0
  4  5  1  0
  4  6  1  0
  6 20  1  0
  6  7  2  0
 20 21  2  0
 20 22  2  0
 20 23  1  0
 23 24  1  0
 23 28  1  0
 24 25  1  0
 25 26  1  0
 26 27  1  0
 27 28  1  0
M  END
>  <minimizedAffinity>  (262) 
-9.29955

$$$$
cs_full_output_folder/data/smiles/6471.pdb
     RDKit          3D

 30 33  0  0  0  0  0  0  0  0999 V2000
   71.6028   47.2180   58.8714 C   0  0  0  0  0  0  0  0  0  0  0  0
   70.7381   47.9982   58.1059 C   0  0  0  0  0  0  0  0  0  0  0  0
   69.8294   47.4775   57.2152 C   0  0  0  0  0  0  0  0  0  0  0  0
   69.7963   46.0793   57.0937 C   0  0  0  0  0  0  0  0  0  0  0  0
   70.6454   45.3001   57.8442 C   0  0  0  0  0  0  0  0  0  0  0  0
   71.5465   45.8508   58.7300 C   0  0  0  0  0  0  0  0  0  0  0  0
   72.3759   45.0433   59.4614 F   0  0  0  0  0  0  0  0  0  0  0  0
   76.3653   48.7710   58.3204 N   0  0  0  0  0  0  0  0  0  0  0  0
   75.2624   49.0138   57.4716 C   0  0  0  0  0  0  0  0  0  0  0  0
   74.0654   48.1905   57.8920 C   0  0  0  0  0  0  0  0  0  0  0  0
   73.7695   48.3205   59.2886 N   0  0  0  0  0  0  0  0  0  0  0  0
   72.5500   47.8448   59.8032 C   0  0  0  0  0  0  0  0  0  0  0  0
   72.2657   47.9490   61.0343 O   0  0  0  0  0  0  0  0  0  0  0  0
   74.7232   48.9396   60.1651 C   0  0  0  0  0  0  0  0  0  0  0  0
   76.1271   48.6476   59.7070 C   0  0  0  0  0  0  0  0  0  0  0  0
   77.6963   49.4881   56.3853 C   0  0  0  0  0  0  0  0  0  0  0  0
   77.6039   49.2781   57.8809 C   0  0  0  0  0  0  0  0  0  0  0  0
   77.9744   50.5745   58.5381 C   0  0  0  0  0  0  0  0  0  0  0  0
   68.8826   48.2526   56.3888 C   0  0  0  0  0  0  0  0  0  0  0  0
   69.2824   48.3062   54.9696 C   0  0  0  0  0  0  0  0  0  0  0  0
   70.2448   49.2174   54.6255 N   0  0  0  0  0  0  0  0  0  0  0  0
   70.7106   49.3301   53.3935 N   0  0  0  0  0  0  0  0  0  0  0  0
   70.2645   48.5512   52.3973 C   0  0  0  0  0  0  0  0  0  0  0  0
   70.7540   48.7062   51.2259 O   0  0  0  0  0  0  0  0  0  0  0  0
   69.2963   47.6070   52.6551 C   0  0  0  0  0  0  0  0  0  0  0  0
   68.8171   46.8060   51.6454 C   0  0  0  0  0  0  0  0  0  0  0  0
   67.8398   45.8744   51.9073 C   0  0  0  0  0  0  0  0  0  0  0  0
   67.3793   45.7932   53.2133 C   0  0  0  0  0  0  0  0  0  0  0  0
   67.8464   46.5868   54.2389 C   0  0  0  0  0  0  0  0  0  0  0  0
   68.8242   47.5158   53.9720 C   0  0  0  0  0  0  0  0  0  0  0  0
 16 17  1  0
 17 18  1  0
 17  8  1  0
  8  9  1  0
  8 15  1  0
  9 10  1  0
 10 11  1  0
 11 12  1  0
 11 14  1  0
 12 13  2  0
 12  1  1  0
  1  2  2  0
  1  6  1  0
  2  3  1  0
  3 19  1  0
  3  4  2  0
 19 20  1  0
 20 21  2  0
 20 30  1  0
 21 22  1  0
 22 23  1  0
 23 24  2  0
 23 25  1  0
 25 26  1  0
 25 30  2  0
 26 27  2  0
 27 28  1  0
 28 29  2  0
 29 30  1  0
  4  5  1  0
  5  6  2  0
  6  7  1  0
 14 15  1  0
M  CHG  1   8   1
M  END
>  <minimizedAffinity>  (263) 
-9.29910

$$$$
cs_full_output_folder/data/smiles/598.pdb
     RDKit          3D

 29 30  0  0  0  0  0  0  0  0999 V2000
   70.8793   45.0629   58.7261 C   0  0  0  0  0  0  0  0  0  0  0  0
   72.0441   46.1369   59.0818 S   0  0  0  0  0  0  0  0  0  0  0  0
   71.6887   42.7652   58.2002 C   0  0  0  0  0  0  0  0  0  0  0  0
   72.1376   43.2069   57.0999 O   0  0  0  0  0  0  0  0  0  0  0  0
   71.0478   43.6920   59.0378 N   0  0  0  0  0  0  0  0  0  0  0  0
   72.2368   38.6175   59.0379 C   0  0  0  0  0  0  0  0  0  0  0  0
   73.2440   39.5247   59.2638 C   0  0  0  0  0  0  0  0  0  0  0  0
   73.0647   40.8634   58.9929 C   0  0  0  0  0  0  0  0  0  0  0  0
   71.8810   41.3443   58.4886 C   0  0  0  0  0  0  0  0  0  0  0  0
   70.8720   40.4245   58.2629 C   0  0  0  0  0  0  0  0  0  0  0  0
   71.0558   39.0865   58.5355 C   0  0  0  0  0  0  0  0  0  0  0  0
   72.4967   37.1945   59.3522 C   0  0  0  0  0  0  0  0  0  0  0  0
   72.9397   37.0200   60.7783 C   0  0  0  0  0  0  0  0  0  0  0  0
   71.1450   36.4831   59.2324 C   0  0  0  0  0  0  0  0  0  0  0  0
   72.7260   35.9638   57.1768 C   0  0  0  0  0  0  0  0  0  0  0  0
   73.4213   36.5236   58.3909 C   0  0  0  0  0  0  0  0  0  0  0  0
   69.6991   45.5178   58.1025 N   0  0  0  0  0  0  0  0  0  0  0  0
   69.6447   45.6098   56.6905 N   0  0  0  0  0  0  0  0  0  0  0  0
   68.7839   46.4707   56.0144 C   0  0  0  0  0  0  0  0  0  0  0  0
   68.0209   47.1970   56.7407 O   0  0  0  0  0  0  0  0  0  0  0  0
   68.6818   46.6115   54.5690 C   0  0  0  0  0  0  0  0  0  0  0  0
   67.9358   45.7225   53.8135 C   0  0  0  0  0  0  0  0  0  0  0  0
   67.8804   45.9104   52.4553 C   0  0  0  0  0  0  0  0  0  0  0  0
   68.5327   46.9427   51.8147 C   0  0  0  0  0  0  0  0  0  0  0  0
   69.2743   47.8261   52.5707 C   0  0  0  0  0  0  0  0  0  0  0  0
   69.3386   47.6448   53.9545 C   0  0  0  0  0  0  0  0  0  0  0  0
   69.9644   48.9061   51.9599 N   0  0  0  0  0  0  0  0  0  0  0  0
   70.5581   48.7202   50.9002 O   0  0  0  0  0  0  0  0  0  0  0  0
   69.9750   50.1411   52.5329 O   0  0  0  0  0  0  0  0  0  0  0  0
 15 16  1  0
 16 12  1  0
 12 13  1  0
 12 14  1  0
 12  6  1  0
  6  7  2  0
  6 11  1  0
  7  8  1  0
  8  9  2  0
  9  3  1  0
  9 10  1  0
  3  4  2  0
  3  5  1  0
  5  1  1  0
  1  2  2  0
  1 17  1  0
 17 18  1  0
 18 19  1  0
 19 20  2  0
 19 21  1  0
 21 22  2  0
 21 26  1  0
 22 23  1  0
 23 24  2  0
 24 25  1  0
 25 27  1  0
 25 26  2  0
 27 28  2  0
 27 29  1  0
 10 11  2  0
M  CHG  2  27   1  29  -1
M  END
>  <minimizedAffinity>  (264) 
-9.29781

$$$$
cs_full_output_folder/data/smiles/8954.pdb
     RDKit          3D

 24 26  0  0  0  0  0  0  0  0999 V2000
   66.2604   42.2234   55.0458 O   0  0  0  0  0  0  0  0  0  0  0  0
   67.1327   41.8040   55.8427 C   0  0  0  0  0  0  0  0  0  0  0  0
   67.3012   40.4952   56.4029 N   0  0  0  0  0  0  0  0  0  0  0  0
   68.4272   40.4484   57.2676 C   0  0  0  0  0  0  0  0  0  0  0  0
   68.9858   39.4081   58.0236 C   0  0  0  0  0  0  0  0  0  0  0  0
   70.1061   39.6232   58.7842 C   0  0  0  0  0  0  0  0  0  0  0  0
   70.6442   40.9061   58.7643 C   0  0  0  0  0  0  0  0  0  0  0  0
   70.1076   41.9379   58.0298 C   0  0  0  0  0  0  0  0  0  0  0  0
   68.9720   41.7140   57.2601 C   0  0  0  0  0  0  0  0  0  0  0  0
   68.2166   42.6076   56.3921 C   0  0  0  0  0  0  0  0  0  0  0  0
   68.4343   43.8625   56.1048 N   0  0  0  0  0  0  0  0  0  0  0  0
   70.7469   38.5314   59.5832 C   0  0  0  0  0  0  0  0  0  0  0  0
   71.6767   37.3299   58.3701 Br  0  0  0  0  0  0  0  0  0  0  0  0
   67.6112   44.5463   55.2159 N   0  0  0  0  0  0  0  0  0  0  0  0
   68.1599   45.7177   54.6316 C   0  0  0  0  0  0  0  0  0  0  0  0
   68.7305   46.7208   55.4291 C   0  0  0  0  0  0  0  0  0  0  0  0
   69.2946   47.8249   54.7978 C   0  0  0  0  0  0  0  0  0  0  0  0
   69.2775   47.8982   53.4352 C   0  0  0  0  0  0  0  0  0  0  0  0
   68.7170   46.9212   52.5981 C   0  0  0  0  0  0  0  0  0  0  0  0
   68.1600   45.8261   53.2667 C   0  0  0  0  0  0  0  0  0  0  0  0
   70.0286   49.3265   52.7151 S   0  0  0  0  0  0  0  0  0  0  0  0
   69.2564   50.5287   53.1334 O   0  0  0  0  0  0  0  0  0  0  0  0
   71.4185   49.4364   53.2383 O   0  0  0  0  0  0  0  0  0  0  0  0
   69.9938   49.2438   51.0325 O   0  0  0  0  0  0  0  0  0  0  0  0
  1  2  2  0
  2  3  1  0
  2 10  1  0
  3  4  1  0
  4  5  2  0
  4  9  1  0
  5  6  1  0
  6 12  1  0
  6  7  2  0
 12 13  1  0
  7  8  1  0
  8  9  2  0
  9 10  1  0
 10 11  2  0
 11 14  1  0
 14 15  1  0
 15 16  2  0
 15 20  1  0
 16 17  1  0
 17 18  2  0
 18 21  1  0
 18 19  1  0
 21 22  2  0
 21 23  2  0
 21 24  1  0
 19 20  2  0
M  CHG  1  24  -1
M  END
>  <minimizedAffinity>  (265) 
-9.28906

$$$$
cs_full_output_folder/data/smiles/7993.pdb
     RDKit          3D

 30 34  0  0  0  0  0  0  0  0999 V2000
   71.2933   46.6291   58.8373 C   0  0  0  0  0  0  0  0  0  0  0  0
   70.5826   47.5166   58.0580 C   0  0  0  0  0  0  0  0  0  0  0  0
   69.7076   47.0809   57.0562 C   0  0  0  0  0  0  0  0  0  0  0  0
   69.5864   45.7355   56.8799 C   0  0  0  0  0  0  0  0  0  0  0  0
   70.2812   44.8130   57.6403 C   0  0  0  0  0  0  0  0  0  0  0  0
   71.1262   45.2745   58.6088 C   0  0  0  0  0  0  0  0  0  0  0  0
   71.8201   44.3619   59.3678 F   0  0  0  0  0  0  0  0  0  0  0  0
   76.4948   43.0129   60.3337 C   0  0  0  0  0  0  0  0  0  0  0  0
   75.9006   44.1845   60.1111 C   0  0  0  0  0  0  0  0  0  0  0  0
   75.3949   44.6621   58.8134 C   0  0  0  0  0  0  0  0  0  0  0  0
   75.5928   46.1627   58.8726 C   0  0  1  0  0  0  0  0  0  0  0  0
   74.3470   46.8343   58.4299 C   0  0  0  0  0  0  0  0  0  0  0  0
   73.5960   47.0895   59.6370 N   0  0  0  0  0  0  0  0  0  0  0  0
   72.2138   47.0145   59.8880 C   0  0  0  0  0  0  0  0  0  0  0  0
   71.7684   47.2803   61.0219 O   0  0  0  0  0  0  0  0  0  0  0  0
   74.5974   47.4685   60.6355 C   0  0  0  0  0  0  0  0  0  0  0  0
   75.7429   46.5175   60.3222 C   0  0  1  0  0  0  0  0  0  0  0  0
   75.6226   45.2449   61.1025 C   0  0  0  0  0  0  0  0  0  0  0  0
   68.9526   48.0495   56.2788 C   0  0  0  0  0  0  0  0  0  0  0  0
   69.3523   48.2152   54.8718 C   0  0  0  0  0  0  0  0  0  0  0  0
   70.3113   49.1396   54.5451 N   0  0  0  0  0  0  0  0  0  0  0  0
   70.7377   49.3008   53.3055 N   0  0  0  0  0  0  0  0  0  0  0  0
   70.2590   48.5707   52.2834 C   0  0  0  0  0  0  0  0  0  0  0  0
   70.6583   48.7162   51.0967 O   0  0  0  0  0  0  0  0  0  0  0  0
   69.2997   47.6317   52.5331 C   0  0  0  0  0  0  0  0  0  0  0  0
   68.7882   46.8847   51.5052 C   0  0  0  0  0  0  0  0  0  0  0  0
   67.8177   45.9512   51.7436 C   0  0  0  0  0  0  0  0  0  0  0  0
   67.3639   45.7746   53.0271 C   0  0  0  0  0  0  0  0  0  0  0  0
   67.8748   46.5219   54.0607 C   0  0  0  0  0  0  0  0  0  0  0  0
   68.8543   47.4663   53.8414 C   0  0  0  0  0  0  0  0  0  0  0  0
  8  9  2  0
  9 10  1  0
  9 18  1  0
 11 10  1  1
 11 12  1  0
 11 17  1  0
 12 13  1  0
 13 14  1  0
 13 16  1  0
 14 15  2  0
 14  1  1  0
  1  2  2  0
  1  6  1  0
  2  3  1  0
  3 19  1  0
  3  4  2  0
 19 20  1  0
 20 21  2  0
 20 30  1  0
 21 22  1  0
 22 23  1  0
 23 24  2  0
 23 25  1  0
 25 26  1  0
 25 30  2  0
 26 27  2  0
 27 28  1  0
 28 29  2  0
 29 30  1  0
  4  5  1  0
  5  6  2  0
  6  7  1  0
 17 16  1  1
 17 18  1  0
M  END
>  <minimizedAffinity>  (266) 
-9.28877

$$$$
cs_full_output_folder/data/smiles/96.pdb
     RDKit          3D

 25 26  0  0  0  0  0  0  0  0999 V2000
   70.0439   49.1339   52.4982 S   0  0  0  0  0  0  0  0  0  0  0  0
   70.7631   48.6806   51.2362 O   0  0  0  0  0  0  0  0  0  0  0  0
   69.0084   50.1431   52.0694 O   0  0  0  0  0  0  0  0  0  0  0  0
   69.2929   47.7479   53.2338 C   0  0  0  0  0  0  0  0  0  0  0  0
   69.3221   47.5184   54.5828 C   0  0  0  0  0  0  0  0  0  0  0  0
   69.9659   48.3468   55.4441 F   0  0  0  0  0  0  0  0  0  0  0  0
   68.6917   46.4002   55.1165 C   0  0  0  0  0  0  0  0  0  0  0  0
   68.7206   46.1689   56.4667 F   0  0  0  0  0  0  0  0  0  0  0  0
   68.0402   45.5246   54.2969 C   0  0  0  0  0  0  0  0  0  0  0  0
   67.4357   44.4384   54.8739 F   0  0  0  0  0  0  0  0  0  0  0  0
   67.9994   45.7371   52.9396 C   0  0  0  0  0  0  0  0  0  0  0  0
   67.3516   44.8614   52.1461 F   0  0  0  0  0  0  0  0  0  0  0  0
   68.6174   46.8359   52.4125 C   0  0  0  0  0  0  0  0  0  0  0  0
   68.5892   47.0654   51.0655 F   0  0  0  0  0  0  0  0  0  0  0  0
   71.1765   49.8128   53.5872 N   0  0  0  0  0  0  0  0  0  0  0  0
   71.9454   51.6013   54.9808 C   0  0  0  0  0  0  0  0  0  0  0  0
   71.7569   52.7493   55.7263 C   0  0  0  0  0  0  0  0  0  0  0  0
   70.5150   53.3375   55.8353 C   0  0  0  0  0  0  0  0  0  0  0  0
   69.4701   52.7357   55.1702 C   0  0  0  0  0  0  0  0  0  0  0  0
   69.6433   51.5753   54.4119 C   0  0  0  0  0  0  0  0  0  0  0  0
   70.8843   50.9851   54.3018 C   0  0  0  0  0  0  0  0  0  0  0  0
   74.7779   51.9475   55.3044 N   0  0  0  0  0  0  0  0  0  0  0  0
   73.5172   50.8659   54.8523 S   0  0  0  0  0  0  0  0  0  0  0  0
   73.8093   50.3181   53.4987 O   0  0  0  0  0  0  0  0  0  0  0  0
   73.5670   49.7237   55.8487 O   0  0  0  0  0  0  0  0  0  0  0  0
 22 23  1  0
 23 24  2  0
 23 25  2  0
 23 16  1  0
 16 17  2  0
 16 21  1  0
 17 18  1  0
 18 19  2  0
 19 20  1  0
 20 21  2  0
 21 15  1  0
 15  1  1  0
  1  2  2  0
  1  3  2  0
  1  4  1  0
  4  5  2  0
  4 13  1  0
  5  6  1  0
  5  7  1  0
  7  8  1  0
  7  9  2  0
  9 10  1  0
  9 11  1  0
 11 12  1  0
 11 13  2  0
 13 14  1  0
M  END
>  <minimizedAffinity>  (267) 
-9.28620

$$$$
cs_full_output_folder/data/smiles/1377.pdb
     RDKit          3D

 27 28  0  0  0  0  0  0  0  0999 V2000
   69.9292   49.2314   52.6211 S   0  0  0  0  0  0  0  0  0  0  0  0
   69.9903   49.1727   51.1193 O   0  0  0  0  0  0  0  0  0  0  0  0
   71.3418   49.3195   53.1375 O   0  0  0  0  0  0  0  0  0  0  0  0
   69.1718   47.7500   53.1741 C   0  0  0  0  0  0  0  0  0  0  0  0
   69.2200   47.4794   54.5295 C   0  0  0  0  0  0  0  0  0  0  0  0
   69.8447   48.3539   55.3520 F   0  0  0  0  0  0  0  0  0  0  0  0
   68.6563   46.3512   55.0883 C   0  0  0  0  0  0  0  0  0  0  0  0
   68.7285   46.1285   56.4165 F   0  0  0  0  0  0  0  0  0  0  0  0
   68.0237   45.4647   54.2563 C   0  0  0  0  0  0  0  0  0  0  0  0
   67.4715   44.3578   54.8047 F   0  0  0  0  0  0  0  0  0  0  0  0
   67.9726   45.7283   52.9074 C   0  0  0  0  0  0  0  0  0  0  0  0
   67.3468   44.8584   52.0587 F   0  0  0  0  0  0  0  0  0  0  0  0
   68.5407   46.8613   52.3567 C   0  0  0  0  0  0  0  0  0  0  0  0
   68.4776   47.1139   51.0327 F   0  0  0  0  0  0  0  0  0  0  0  0
   68.9734   50.5585   53.1382 N   0  0  0  0  0  0  0  0  0  0  0  0
   71.2980   52.7513   55.0104 C   0  0  0  0  0  0  0  0  0  0  0  0
   70.7682   51.8906   54.0874 C   0  0  0  0  0  0  0  0  0  0  0  0
   69.4734   51.4418   54.1273 C   0  0  0  0  0  0  0  0  0  0  0  0
   68.6754   51.8993   55.1690 C   0  0  0  0  0  0  0  0  0  0  0  0
   69.1935   52.7581   56.0948 C   0  0  0  0  0  0  0  0  0  0  0  0
   70.4850   53.1910   56.0347 C   0  0  0  0  0  0  0  0  0  0  0  0
   75.0860   52.6842   55.1589 N   0  0  0  0  0  0  0  0  0  0  0  0
   73.7076   52.2816   55.2509 C   0  0  0  0  0  0  0  0  0  0  0  0
   73.3934   51.1143   55.6389 O   0  0  0  0  0  0  0  0  0  0  0  0
   72.6594   53.1800   54.9088 N   0  0  0  0  0  0  0  0  0  0  0  0
   70.9577   54.0534   56.9884 O   0  0  0  0  0  0  0  0  0  0  0  0
   71.8918   53.7829   57.8931 F   0  0  0  0  0  0  0  0  0  0  0  0
 22 23  1  0
 23 24  2  0
 23 25  1  0
 25 16  1  0
 16 17  2  0
 16 21  1  0
 17 18  1  0
 18 15  1  0
 18 19  2  0
 15  1  1  0
  1  2  2  0
  1  3  2  0
  1  4  1  0
  4  5  2  0
  4 13  1  0
  5  6  1  0
  5  7  1  0
  7  8  1  0
  7  9  2  0
  9 10  1  0
  9 11  1  0
 11 12  1  0
 11 13  2  0
 13 14  1  0
 19 20  1  0
 20 21  2  0
 21 26  1  0
 26 27  1  0
M  END
>  <minimizedAffinity>  (268) 
-9.28573

$$$$
cs_full_output_folder/data/smiles/2180.pdb
     RDKit          3D

 33 37  0  0  0  0  0  0  0  0999 V2000
   72.4165   49.5452   57.7629 C   0  0  0  0  0  0  0  0  0  0  0  0
   71.2604   49.2240   57.0498 C   0  0  0  0  0  0  0  0  0  0  0  0
   70.1890   50.0608   56.9693 C   0  0  0  0  0  0  0  0  0  0  0  0
   70.2397   51.2970   57.6270 C   0  0  0  0  0  0  0  0  0  0  0  0
   71.3681   51.6348   58.3357 C   0  0  0  0  0  0  0  0  0  0  0  0
   72.4573   50.7587   58.4022 C   0  0  0  0  0  0  0  0  0  0  0  0
   73.5583   51.1261   59.1145 F   0  0  0  0  0  0  0  0  0  0  0  0
   74.3413   48.6234   56.8700 O   0  0  0  0  0  0  0  0  0  0  0  0
   73.5318   48.6215   57.8318 C   0  0  0  0  0  0  0  0  0  0  0  0
   73.7150   47.7433   58.9358 N   0  0  0  0  0  0  0  0  0  0  0  0
   72.7806   47.7395   60.0365 C   0  0  0  0  0  0  0  0  0  0  0  0
   72.3379   46.3516   60.4514 C   0  0  0  0  0  0  0  0  0  0  0  0
   73.0594   45.4182   59.6261 N   0  0  0  0  0  0  0  0  0  0  0  0
   74.5141   45.5508   59.6702 C   0  0  0  0  0  0  0  0  0  0  0  0
   74.8436   46.8417   58.9785 C   0  0  0  0  0  0  0  0  0  0  0  0
   72.3816   44.4638   58.8619 C   0  0  0  0  0  0  0  0  0  0  0  0
   71.0432   44.5339   58.5901 C   0  0  0  0  0  0  0  0  0  0  0  0
   70.3932   43.5682   57.8061 C   0  0  0  0  0  0  0  0  0  0  0  0
   71.1095   42.5436   57.3090 N   0  0  0  0  0  0  0  0  0  0  0  0
   72.4282   42.4241   57.5442 C   0  0  0  0  0  0  0  0  0  0  0  0
   73.0655   43.3778   58.3181 C   0  0  0  0  0  0  0  0  0  0  0  0
   68.9703   49.7091   56.2032 C   0  0  0  0  0  0  0  0  0  0  0  0
   69.3381   49.3231   54.8177 C   0  0  0  0  0  0  0  0  0  0  0  0
   70.1076   50.1750   54.0977 N   0  0  0  0  0  0  0  0  0  0  0  0
   70.4678   49.9835   52.8472 N   0  0  0  0  0  0  0  0  0  0  0  0
   70.0596   48.8780   52.2208 C   0  0  0  0  0  0  0  0  0  0  0  0
   70.4079   48.6902   51.0062 O   0  0  0  0  0  0  0  0  0  0  0  0
   69.2751   47.9439   52.8611 C   0  0  0  0  0  0  0  0  0  0  0  0
   68.9091   48.1721   54.1848 C   0  0  0  0  0  0  0  0  0  0  0  0
   68.1116   47.1725   54.9128 C   0  0  0  0  0  0  0  0  0  0  0  0
   68.3053   45.8019   54.2602 C   0  0  0  0  0  0  0  0  0  0  0  0
   67.8288   45.9348   52.8170 C   0  0  0  0  0  0  0  0  0  0  0  0
   68.8762   46.7549   52.0816 C   0  0  0  0  0  0  0  0  0  0  0  0
  8  9  2  0
  9  1  1  0
  9 10  1  0
  1  2  2  0
  1  6  1  0
  2  3  1  0
  3 22  1  0
  3  4  2  0
 22 23  1  0
 23 24  2  0
 23 29  1  0
 24 25  1  0
 25 26  1  0
 26 27  2  0
 26 28  1  0
 28 29  2  0
 28 33  1  0
 29 30  1  0
 30 31  1  0
 31 32  1  0
 32 33  1  0
  4  5  1  0
  5  6  2  0
  6  7  1  0
 10 11  1  0
 10 15  1  0
 11 12  1  0
 12 13  1  0
 13 16  1  0
 13 14  1  0
 16 17  2  0
 16 21  1  0
 17 18  1  0
 18 19  2  0
 19 20  1  0
 20 21  2  0
 14 15  1  0
M  END
>  <minimizedAffinity>  (269) 
-9.28464

$$$$
cs_full_output_folder/data/smiles/3785.pdb
     RDKit          3D

 29 31  0  0  0  0  0  0  0  0999 V2000
   69.8626   46.1161   57.2782 C   0  0  0  0  0  0  0  0  0  0  0  0
   69.2750   44.9590   56.7792 C   0  0  0  0  0  0  0  0  0  0  0  0
   69.8485   43.7371   57.0306 C   0  0  0  0  0  0  0  0  0  0  0  0
   71.0058   43.5883   57.7713 C   0  0  0  0  0  0  0  0  0  0  0  0
   71.5753   44.7264   58.2567 C   0  0  0  0  0  0  0  0  0  0  0  0
   71.0033   45.9810   58.0097 C   0  0  0  0  0  0  0  0  0  0  0  0
   69.0719   47.6454   56.9275 S   0  0  0  0  0  0  0  0  0  0  0  0
   67.5779   47.5188   57.1556 O   0  0  0  0  0  0  0  0  0  0  0  0
   69.6324   48.6745   57.8716 O   0  0  0  0  0  0  0  0  0  0  0  0
   69.4077   48.1296   55.3233 N   0  0  0  0  0  0  0  0  0  0  0  0
   70.3029   48.9243   52.7501 C   0  0  0  0  0  0  0  0  0  0  0  0
   69.3476   47.8056   52.9115 C   0  0  0  0  0  0  0  0  0  0  0  0
   68.8875   47.1366   51.8121 C   0  0  0  0  0  0  0  0  0  0  0  0
   67.9907   46.0776   51.8867 C   0  0  0  0  0  0  0  0  0  0  0  0
   67.5595   45.7015   53.1330 C   0  0  0  0  0  0  0  0  0  0  0  0
   68.0234   46.3768   54.2461 C   0  0  0  0  0  0  0  0  0  0  0  0
   68.9123   47.4292   54.1972 C   0  0  0  0  0  0  0  0  0  0  0  0
   71.5403   42.2478   57.9851 C   0  0  0  0  0  0  0  0  0  0  0  0
   72.7394   41.9847   57.7101 O   0  0  0  0  0  0  0  0  0  0  0  0
   70.7650   41.1775   58.5028 N   0  0  0  0  0  0  0  0  0  0  0  0
   71.3445   39.8946   58.6878 N   0  0  0  0  0  0  0  0  0  0  0  0
   70.6251   38.7029   58.4304 C   0  0  0  0  0  0  0  0  0  0  0  0
   69.4361   38.8575   58.0268 O   0  0  0  0  0  0  0  0  0  0  0  0
   71.1652   37.3659   58.6011 C   0  0  0  0  0  0  0  0  0  0  0  0
   70.7311   36.4961   59.5720 C   0  0  0  0  0  0  0  0  0  0  0  0
   71.2832   35.2258   59.6921 C   0  0  0  0  0  0  0  0  0  0  0  0
   72.2746   34.8142   58.8438 C   0  0  0  0  0  0  0  0  0  0  0  0
   72.7290   35.6699   57.8583 C   0  0  0  0  0  0  0  0  0  0  0  0
   72.1613   36.9284   57.7620 C   0  0  0  0  0  0  0  0  0  0  0  0
 11 12  1  0
 12 13  2  0
 12 17  1  0
 13 14  1  0
 14 15  2  0
 15 16  1  0
 16 17  2  0
 17 10  1  0
 10  7  1  0
  7  8  2  0
  7  9  2  0
  7  1  1  0
  1  2  2  0
  1  6  1  0
  2  3  1  0
  3  4  2  0
  4 18  1  0
  4  5  1  0
 18 19  2  0
 18 20  1  0
 20 21  1  0
 21 22  1  0
 22 23  2  0
 22 24  1  0
 24 25  2  0
 24 29  1  0
 25 26  1  0
 26 27  2  0
 27 28  1  0
 28 29  2  0
  5  6  2  0
M  END
>  <minimizedAffinity>  (270) 
-9.28397

$$$$
cs_full_output_folder/data/smiles/4058.pdb
     RDKit          3D

 28 30  0  0  0  0  0  0  0  0999 V2000
   68.7304   46.4697   54.4449 C   0  0  0  0  0  0  0  0  0  0  0  0
   68.3198   46.1271   53.1805 C   0  0  0  0  0  0  0  0  0  0  0  0
   68.5356   46.9808   52.1167 C   0  0  0  0  0  0  0  0  0  0  0  0
   69.1681   48.1907   52.3137 C   0  0  0  0  0  0  0  0  0  0  0  0
   69.4003   49.0569   51.3010 F   0  0  0  0  0  0  0  0  0  0  0  0
   69.6071   48.5850   53.5905 C   0  0  0  0  0  0  0  0  0  0  0  0
   69.3631   47.6954   54.5991 C   0  0  0  0  0  0  0  0  0  0  0  0
   68.1527   44.2355   55.4948 N   0  0  0  0  0  0  0  0  0  0  0  0
   68.5248   45.5936   55.6170 C   0  0  0  0  0  0  0  0  0  0  0  0
   68.6838   46.0636   56.7650 O   0  0  0  0  0  0  0  0  0  0  0  0
   67.4192   41.6082   55.3340 O   0  0  0  0  0  0  0  0  0  0  0  0
   67.5767   42.0398   56.5061 C   0  0  0  0  0  0  0  0  0  0  0  0
   67.9574   43.4024   56.6158 N   0  0  0  0  0  0  0  0  0  0  0  0
   67.3694   41.1574   57.6571 C   0  0  0  0  0  0  0  0  0  0  0  0
   66.6076   41.5138   58.7354 C   0  0  0  0  0  0  0  0  0  0  0  0
   66.4391   40.6468   59.8027 C   0  0  0  0  0  0  0  0  0  0  0  0
   67.0312   39.4011   59.8106 C   0  0  0  0  0  0  0  0  0  0  0  0
   67.7919   39.0693   58.7128 C   0  0  0  0  0  0  0  0  0  0  0  0
   67.9671   39.9187   57.6490 C   0  0  0  0  0  0  0  0  0  0  0  0
   70.3827   50.1355   53.7586 S   0  0  0  0  0  0  0  0  0  0  0  0
   70.0565   51.0310   52.5786 O   0  0  0  0  0  0  0  0  0  0  0  0
   71.8868   49.8425   53.7508 O   0  0  0  0  0  0  0  0  0  0  0  0
   69.9996   50.8574   55.2360 N   0  0  0  0  0  0  0  0  0  0  0  0
   70.6311   50.2657   56.3253 C   0  0  0  0  0  0  0  0  0  0  0  0
   69.8845   50.1429   57.5926 C   0  0  0  0  0  0  0  0  0  0  0  0
   68.4513   50.5204   57.6006 C   0  0  0  0  0  0  0  0  0  0  0  0
   68.2314   51.7054   56.6910 C   0  0  0  0  0  0  0  0  0  0  0  0
   68.6597   51.2674   55.3018 C   0  0  0  0  0  0  0  0  0  0  0  0
 11 12  2  0
 12 13  1  0
 12 14  1  0
 13  8  1  0
  8  9  1  0
  9 10  2  0
  9  1  1  0
  1  2  2  0
  1  7  1  0
  2  3  1  0
  3  4  2  0
  4  5  1  0
  4  6  1  0
  6 20  1  0
  6  7  2  0
 20 21  2  0
 20 22  2  0
 20 23  1  0
 23 24  1  0
 23 28  1  0
 24 25  1  0
 25 26  1  0
 26 27  1  0
 27 28  1  0
 14 15  2  0
 14 19  1  0
 15 16  1  0
 16 17  2  0
 17 18  1  0
 18 19  2  0
M  END
>  <minimizedAffinity>  (271) 
-9.28291

$$$$
cs_full_output_folder/data/smiles/1202.pdb
     RDKit          3D

 32 36  0  0  0  0  0  0  0  0999 V2000
   71.8280   47.2805   58.8715 C   0  0  0  0  0  0  0  0  0  0  0  0
   70.7368   47.6668   58.1353 C   0  0  0  0  0  0  0  0  0  0  0  0
   70.8115   48.6933   57.1840 C   0  0  0  0  0  0  0  0  0  0  0  0
   72.0221   49.2956   57.0192 C   0  0  0  0  0  0  0  0  0  0  0  0
   73.1517   48.9176   57.7604 C   0  0  0  0  0  0  0  0  0  0  0  0
   73.0345   47.9086   58.6811 C   0  0  0  0  0  0  0  0  0  0  0  0
   74.1167   47.5278   59.4085 F   0  0  0  0  0  0  0  0  0  0  0  0
   71.7658   46.5385   61.0729 O   0  0  0  0  0  0  0  0  0  0  0  0
   71.7609   46.2179   59.8591 C   0  0  0  0  0  0  0  0  0  0  0  0
   71.6898   44.8467   59.5165 N   0  0  0  0  0  0  0  0  0  0  0  0
   71.6249   43.8221   60.5245 C   0  0  0  0  0  0  0  0  0  0  0  0
   70.4237   42.8939   60.2771 C   0  0  0  0  0  0  0  0  0  0  0  0
   70.1520   42.8067   58.8619 N   0  0  0  0  0  0  0  0  0  0  0  0
   68.8802   42.4923   58.3605 C   0  0  0  0  0  0  0  0  0  0  0  0
   67.9451   42.2765   59.2023 O   0  0  0  0  0  0  0  0  0  0  0  0
   71.2495   43.0573   57.9665 C   0  0  0  0  0  0  0  0  0  0  0  0
   71.6820   44.4805   58.1269 C   0  0  0  0  0  0  0  0  0  0  0  0
   68.5006   42.3837   56.9395 C   0  0  0  0  0  0  0  0  0  0  0  0
   68.0493   41.0380   56.4068 C   0  0  0  0  0  0  0  0  0  0  0  0
   67.0396   42.0804   56.6926 C   0  0  0  0  0  0  0  0  0  0  0  0
   69.5938   49.0301   56.4147 C   0  0  0  0  0  0  0  0  0  0  0  0
   69.7124   48.9356   54.9745 C   0  0  0  0  0  0  0  0  0  0  0  0
   70.4319   49.8949   54.3067 N   0  0  0  0  0  0  0  0  0  0  0  0
   70.6208   49.8534   53.0001 N   0  0  0  0  0  0  0  0  0  0  0  0
   70.1315   48.8844   52.2263 C   0  0  0  0  0  0  0  0  0  0  0  0
   70.3256   48.8614   50.9654 O   0  0  0  0  0  0  0  0  0  0  0  0
   69.3931   47.8794   52.8238 C   0  0  0  0  0  0  0  0  0  0  0  0
   68.8628   46.8672   52.0525 C   0  0  0  0  0  0  0  0  0  0  0  0
   68.1232   45.8934   52.6862 C   0  0  0  0  0  0  0  0  0  0  0  0
   67.9037   45.9054   54.0447 C   0  0  0  0  0  0  0  0  0  0  0  0
   68.4543   46.9389   54.7782 C   0  0  0  0  0  0  0  0  0  0  0  0
   69.1961   47.9265   54.2021 C   0  0  0  0  0  0  0  0  0  0  0  0
  8  9  2  0
  9  1  1  0
  9 10  1  0
  1  2  2  0
  1  6  1  0
  2  3  1  0
  3 21  1  0
  3  4  2  0
 21 22  1  0
 22 23  2  0
 22 32  1  0
 23 24  1  0
 24 25  1  0
 25 26  2  0
 25 27  1  0
 27 28  1  0
 27 32  2  0
 28 29  2  0
 29 30  1  0
 30 31  2  0
 31 32  1  0
  4  5  1  0
  5  6  2  0
  6  7  1  0
 10 11  1  0
 10 17  1  0
 11 12  1  0
 12 13  1  0
 13 14  1  0
 13 16  1  0
 14 15  2  0
 14 18  1  0
 18 19  1  0
 18 20  1  0
 19 20  1  0
 16 17  1  0
M  END
>  <minimizedAffinity>  (272) 
-9.27852

$$$$
cs_full_output_folder/data/smiles/92.pdb
     RDKit          3D

 33 36  0  0  0  0  0  0  0  0999 V2000
   65.7483   40.2084   60.8310 C   0  0  0  0  0  0  0  0  0  0  0  0
   66.6294   40.6453   59.9394 C   0  0  0  0  0  0  0  0  0  0  0  0
   67.1742   39.7936   59.0737 N   0  0  0  0  0  0  0  0  0  0  0  0
   68.0582   40.2501   58.1681 C   0  0  0  0  0  0  0  0  0  0  0  0
   68.5705   39.4431   57.3535 O   0  0  0  0  0  0  0  0  0  0  0  0
   68.4135   41.5870   58.1150 C   0  0  0  0  0  0  0  0  0  0  0  0
   69.2714   42.0949   57.2448 C   0  0  0  0  0  0  0  0  0  0  0  0
   67.8704   42.4564   58.9827 N   0  0  0  0  0  0  0  0  0  0  0  0
   66.9885   41.9936   59.8846 C   0  0  0  0  0  0  0  0  0  0  0  0
   66.4634   42.7742   60.7079 O   0  0  0  0  0  0  0  0  0  0  0  0
   69.6030   43.5153   57.2440 C   0  0  0  0  0  0  0  0  0  0  0  0
   70.6877   43.9701   57.9619 C   0  0  0  0  0  0  0  0  0  0  0  0
   71.0218   45.3184   57.9704 C   0  0  0  0  0  0  0  0  0  0  0  0
   70.2591   46.2212   57.2499 C   0  0  0  0  0  0  0  0  0  0  0  0
   69.1597   45.8038   56.5149 C   0  0  0  0  0  0  0  0  0  0  0  0
   68.8715   44.4536   56.5399 C   0  0  0  0  0  0  0  0  0  0  0  0
   68.3730   46.7537   55.7374 C   0  0  0  0  0  0  0  0  0  0  0  0
   67.5990   47.5170   56.3386 O   0  0  0  0  0  0  0  0  0  0  0  0
   68.5152   46.7827   54.2872 C   0  0  0  0  0  0  0  0  0  0  0  0
   69.3007   47.7327   53.6505 C   0  0  0  0  0  0  0  0  0  0  0  0
   69.4435   47.8257   52.3041 C   0  0  0  0  0  0  0  0  0  0  0  0
   68.7643   46.9195   51.5268 C   0  0  0  0  0  0  0  0  0  0  0  0
   67.9680   45.9514   52.0961 C   0  0  0  0  0  0  0  0  0  0  0  0
   67.8433   45.8822   53.4714 C   0  0  0  0  0  0  0  0  0  0  0  0
   65.7600   37.8823   61.7951 C   0  0  0  0  0  0  0  0  0  0  0  0
   65.1028   36.7285   61.5172 N   0  0  0  0  0  0  0  0  0  0  0  0
   64.2613   36.9539   60.4899 C   0  0  0  0  0  0  0  0  0  0  0  0
   64.4112   38.2457   60.1464 N   0  0  0  0  0  0  0  0  0  0  0  0
   65.3271   38.8356   60.9341 C   0  0  0  0  0  0  0  0  0  0  0  0
   68.1844   37.9937   62.2961 C   0  0  0  0  0  0  0  0  0  0  0  0
   66.7554   38.0210   62.8689 C   0  0  0  0  0  0  0  0  0  0  0  0
   66.6203   39.2789   63.6687 C   0  0  0  0  0  0  0  0  0  0  0  0
   66.6405   36.7956   63.7631 C   0  0  0  0  0  0  0  0  0  0  0  0
 30 31  1  0
 31 32  1  0
 31 33  1  0
 31 25  1  0
 25 26  1  0
 25 29  2  0
 26 27  1  0
 27 28  2  0
 28 29  1  0
 29  1  1  0
  1  2  2  0
  2  3  1  0
  2  9  1  0
  3  4  1  0
  4  5  2  0
  4  6  1  0
  6  7  2  0
  6  8  1  0
  7 11  1  0
 11 12  2  0
 11 16  1  0
 12 13  1  0
 13 14  2  0
 14 15  1  0
 15 17  1  0
 15 16  2  0
 17 18  2  0
 17 19  1  0
 19 20  2  0
 19 24  1  0
 20 21  1  0
 21 22  2  0
 22 23  1  0
 23 24  2  0
  8  9  1  0
  9 10  2  0
M  CHG  1  28   1
M  END
>  <minimizedAffinity>  (273) 
-9.27845

$$$$
cs_full_output_folder/data/smiles/761.pdb
     RDKit          3D

 31 35  0  0  0  0  0  0  0  0999 V2000
   71.8098   46.6545   58.9560 C   0  0  0  0  0  0  0  0  0  0  0  0
   72.9192   47.4683   58.6485 C   0  0  0  0  0  0  0  0  0  0  0  0
   72.8103   48.5727   57.8318 C   0  0  0  0  0  0  0  0  0  0  0  0
   71.5878   48.8942   57.2996 C   0  0  0  0  0  0  0  0  0  0  0  0
   70.4886   48.1006   57.5946 C   0  0  0  0  0  0  0  0  0  0  0  0
   70.6107   46.9842   58.4234 C   0  0  0  0  0  0  0  0  0  0  0  0
   71.7266   45.5953   61.0256 O   0  0  0  0  0  0  0  0  0  0  0  0
   72.0230   45.5131   59.8144 C   0  0  0  0  0  0  0  0  0  0  0  0
   72.5573   44.3092   59.3199 N   0  0  0  0  0  0  0  0  0  0  0  0
   72.7547   43.1606   60.2275 C   0  0  0  0  0  0  0  0  0  0  0  0
   71.7251   42.1038   59.7644 C   0  0  0  0  0  0  0  0  0  0  0  0
   71.4696   42.2726   58.3652 N   0  0  0  0  0  0  0  0  0  0  0  0
   72.5457   42.7319   57.4661 C   0  0  0  0  0  0  0  0  0  0  0  0
   72.9531   44.1248   57.9341 C   0  0  0  0  0  0  0  0  0  0  0  0
   70.1752   42.0152   57.8430 C   0  0  0  0  0  0  0  0  0  0  0  0
   69.3263   42.7159   57.0767 C   0  0  0  0  0  0  0  0  0  0  0  0
   68.1504   42.1810   56.7240 C   0  0  0  0  0  0  0  0  0  0  0  0
   67.8439   40.9439   57.1469 C   0  0  0  0  0  0  0  0  0  0  0  0
   69.2833   40.4666   58.1126 S   0  0  0  0  0  0  0  0  0  0  0  0
   69.1980   48.4388   56.9918 C   0  0  0  0  0  0  0  0  0  0  0  0
   68.8496   47.5568   55.8907 C   0  0  0  0  0  0  0  0  0  0  0  0
   68.3260   46.3456   56.2324 N   0  0  0  0  0  0  0  0  0  0  0  0
   67.9616   45.4310   55.3720 N   0  0  0  0  0  0  0  0  0  0  0  0
   68.1034   45.6843   54.0659 C   0  0  0  0  0  0  0  0  0  0  0  0
   67.7722   44.8504   53.1938 O   0  0  0  0  0  0  0  0  0  0  0  0
   68.6254   46.8882   53.6652 C   0  0  0  0  0  0  0  0  0  0  0  0
   69.0114   47.8547   54.5823 C   0  0  0  0  0  0  0  0  0  0  0  0
   69.5861   49.1459   54.1627 C   0  0  0  0  0  0  0  0  0  0  0  0
   69.7371   49.3102   52.6752 C   0  0  0  0  0  0  0  0  0  0  0  0
   70.0344   47.9686   52.0507 C   0  0  0  0  0  0  0  0  0  0  0  0
   68.7666   47.1497   52.2257 C   0  0  0  0  0  0  0  0  0  0  0  0
  7  8  2  0
  8  1  1  0
  8  9  1  0
  1  2  2  0
  1  6  1  0
  2  3  1  0
  3  4  2  0
  4  5  1  0
  5 20  1  0
  5  6  2  0
 20 21  1  0
 21 22  2  0
 21 27  1  0
 22 23  1  0
 23 24  1  0
 24 25  2  0
 24 26  1  0
 26 27  2  0
 26 31  1  0
 27 28  1  0
 28 29  1  0
 29 30  1  0
 30 31  1  0
  9 10  1  0
  9 14  1  0
 10 11  1  0
 11 12  1  0
 12 15  1  0
 12 13  1  0
 15 16  2  0
 15 19  1  0
 16 17  1  0
 17 18  2  0
 18 19  1  0
 13 14  1  0
M  END
>  <minimizedAffinity>  (274) 
-9.27613

$$$$
cs_full_output_folder/data/smiles/3743.pdb
     RDKit          3D

 28 30  0  0  0  0  0  0  0  0999 V2000
   68.5238   45.9575   54.3538 C   0  0  0  0  0  0  0  0  0  0  0  0
   67.9060   45.5897   53.1678 C   0  0  0  0  0  0  0  0  0  0  0  0
   67.9267   46.3638   52.0347 C   0  0  0  0  0  0  0  0  0  0  0  0
   68.5993   47.5730   52.0795 C   0  0  0  0  0  0  0  0  0  0  0  0
   69.2320   47.9839   53.2390 C   0  0  0  0  0  0  0  0  0  0  0  0
   69.1797   47.1664   54.3488 C   0  0  0  0  0  0  0  0  0  0  0  0
   67.8283   43.8030   55.4806 N   0  0  0  0  0  0  0  0  0  0  0  0
   68.4543   45.0774   55.5099 C   0  0  0  0  0  0  0  0  0  0  0  0
   68.9657   45.4392   56.5994 O   0  0  0  0  0  0  0  0  0  0  0  0
   67.5979   41.5975   56.5903 C   0  0  0  0  0  0  0  0  0  0  0  0
   67.4452   41.0984   55.4488 O   0  0  0  0  0  0  0  0  0  0  0  0
   67.7994   42.9960   56.6501 N   0  0  0  0  0  0  0  0  0  0  0  0
   66.0277   42.2532   58.7778 N   0  0  0  0  0  0  0  0  0  0  0  0
   66.7771   41.0410   58.8405 C   0  0  0  0  0  0  0  0  0  0  0  0
   66.6982   40.2478   59.9672 C   0  0  0  0  0  0  0  0  0  0  0  0
   67.4128   39.0719   60.0504 C   0  0  0  0  0  0  0  0  0  0  0  0
   68.1988   38.7329   58.9708 C   0  0  0  0  0  0  0  0  0  0  0  0
   68.2733   39.5373   57.8370 C   0  0  0  0  0  0  0  0  0  0  0  0
   67.5584   40.7138   57.7517 C   0  0  0  0  0  0  0  0  0  0  0  0
   70.0707   49.5245   53.2426 S   0  0  0  0  0  0  0  0  0  0  0  0
   69.6271   50.2978   52.0448 O   0  0  0  0  0  0  0  0  0  0  0  0
   71.5513   49.2609   53.2049 O   0  0  0  0  0  0  0  0  0  0  0  0
   69.7348   50.4137   54.6734 N   0  0  0  0  0  0  0  0  0  0  0  0
   68.9153   51.5642   54.3948 C   0  0  0  0  0  0  0  0  0  0  0  0
   68.9378   52.5730   55.5189 C   0  0  0  0  0  0  0  0  0  0  0  0
   70.3146   53.1221   55.7811 C   0  0  0  0  0  0  0  0  0  0  0  0
   71.2986   52.2230   55.0487 C   0  0  0  0  0  0  0  0  0  0  0  0
   70.9450   50.7848   55.3787 C   0  0  0  0  0  0  0  0  0  0  0  0
 13 14  1  0
 14 15  2  0
 14 19  1  0
 15 16  1  0
 16 17  2  0
 17 18  1  0
 18 19  2  0
 19 10  1  0
 10 11  2  0
 10 12  1  0
 12  7  1  0
  7  8  1  0
  8  9  2  0
  8  1  1  0
  1  2  2  0
  1  6  1  0
  2  3  1  0
  3  4  2  0
  4  5  1  0
  5 20  1  0
  5  6  2  0
 20 21  2  0
 20 22  2  0
 20 23  1  0
 23 24  1  0
 23 28  1  0
 24 25  1  0
 25 26  1  0
 26 27  1  0
 27 28  1  0
M  END
>  <minimizedAffinity>  (275) 
-9.27382

$$$$
cs_full_output_folder/data/smiles/1283.pdb
     RDKit          3D

 28 30  0  0  0  0  0  0  0  0999 V2000
   68.3018   45.8454   54.0210 C   0  0  0  0  0  0  0  0  0  0  0  0
   67.6644   45.3577   52.8979 C   0  0  0  0  0  0  0  0  0  0  0  0
   67.7309   46.0315   51.6846 C   0  0  0  0  0  0  0  0  0  0  0  0
   68.4391   47.2057   51.5845 C   0  0  0  0  0  0  0  0  0  0  0  0
   69.0789   47.7078   52.6841 C   0  0  0  0  0  0  0  0  0  0  0  0
   68.9934   47.0058   53.8932 C   0  0  0  0  0  0  0  0  0  0  0  0
   67.6938   43.7356   55.2986 N   0  0  0  0  0  0  0  0  0  0  0  0
   68.1807   45.0777   55.2522 C   0  0  0  0  0  0  0  0  0  0  0  0
   68.5047   45.5670   56.3621 O   0  0  0  0  0  0  0  0  0  0  0  0
   67.4940   41.6350   56.6132 C   0  0  0  0  0  0  0  0  0  0  0  0
   67.4974   40.9685   55.5466 O   0  0  0  0  0  0  0  0  0  0  0  0
   67.5922   43.0305   56.5073 N   0  0  0  0  0  0  0  0  0  0  0  0
   66.9909   38.8883   61.6665 C   0  0  0  0  0  0  0  0  0  0  0  0
   67.1268   39.5868   60.3607 C   0  0  0  0  0  0  0  0  0  0  0  0
   67.8583   39.0547   59.3310 C   0  0  0  0  0  0  0  0  0  0  0  0
   67.9975   39.6948   58.0999 C   0  0  0  0  0  0  0  0  0  0  0  0
   67.3883   40.9104   57.8797 C   0  0  0  0  0  0  0  0  0  0  0  0
   66.6529   41.4309   58.9355 C   0  0  0  0  0  0  0  0  0  0  0  0
   66.5178   40.8033   60.1410 C   0  0  0  0  0  0  0  0  0  0  0  0
   69.9837   49.2013   52.5707 S   0  0  0  0  0  0  0  0  0  0  0  0
   69.7799   49.7235   51.1540 O   0  0  0  0  0  0  0  0  0  0  0  0
   71.4613   48.9317   52.6875 O   0  0  0  0  0  0  0  0  0  0  0  0
   69.4440   50.4069   53.6301 N   0  0  0  0  0  0  0  0  0  0  0  0
   70.1476   51.6372   53.6171 C   0  0  0  0  0  0  0  0  0  0  0  0
   71.2499   51.7900   54.6032 C   0  0  0  0  0  0  0  0  0  0  0  0
   71.3511   50.7497   55.6545 C   0  0  0  0  0  0  0  0  0  0  0  0
   70.1102   50.0087   55.9750 C   0  0  0  0  0  0  0  0  0  0  0  0
   69.0585   50.0090   54.9266 C   0  0  0  0  0  0  0  0  0  0  0  0
 13 14  1  0
 14 15  2  0
 14 19  1  0
 15 16  1  0
 16 17  2  0
 17 10  1  0
 17 18  1  0
 10 11  2  0
 10 12  1  0
 12  7  1  0
  7  8  1  0
  8  9  2  0
  8  1  1  0
  1  2  2  0
  1  6  1  0
  2  3  1  0
  3  4  2  0
  4  5  1  0
  5 20  1  0
  5  6  2  0
 20 21  2  0
 20 22  2  0
 20 23  1  0
 23 24  1  0
 23 28  1  0
 24 25  1  0
 25 26  1  0
 26 27  1  0
 27 28  1  0
 18 19  2  0
M  END
>  <minimizedAffinity>  (276) 
-9.27343

$$$$
cs_full_output_folder/data/smiles/5512.pdb
     RDKit          3D

 33 37  0  0  0  0  0  0  0  0999 V2000
   71.2868   46.6179   58.8210 C   0  0  0  0  0  0  0  0  0  0  0  0
   70.5594   47.5022   58.0626 C   0  0  0  0  0  0  0  0  0  0  0  0
   69.6946   47.0764   57.0476 C   0  0  0  0  0  0  0  0  0  0  0  0
   69.5739   45.7509   56.8102 C   0  0  0  0  0  0  0  0  0  0  0  0
   70.2996   44.8226   57.5630 C   0  0  0  0  0  0  0  0  0  0  0  0
   71.1459   45.2524   58.5563 C   0  0  0  0  0  0  0  0  0  0  0  0
   71.8798   44.3855   59.3246 F   0  0  0  0  0  0  0  0  0  0  0  0
   76.1500   47.7590   62.9106 C   0  0  0  0  0  0  0  0  0  0  0  0
   76.4871   46.8063   61.8257 C   0  0  0  0  0  0  0  0  0  0  0  0
   77.5415   45.9884   61.8655 N   0  0  0  0  0  0  0  0  0  0  0  0
   77.8368   45.1397   60.8931 N   0  0  0  0  0  0  0  0  0  0  0  0
   77.0655   45.0656   59.7977 C   0  0  0  0  0  0  0  0  0  0  0  0
   77.3343   44.2732   58.8803 O   0  0  0  0  0  0  0  0  0  0  0  0
   75.9301   45.8875   59.6603 C   0  0  0  0  0  0  0  0  0  0  0  0
   75.6681   46.7461   60.6913 C   0  0  0  0  0  0  0  0  0  0  0  0
   74.5119   47.6715   60.6853 C   0  0  0  0  0  0  0  0  0  0  0  0
   73.5803   47.2271   59.6835 N   0  0  0  0  0  0  0  0  0  0  0  0
   72.1894   47.0755   59.8799 C   0  0  0  0  0  0  0  0  0  0  0  0
   71.7016   47.3413   61.0028 O   0  0  0  0  0  0  0  0  0  0  0  0
   74.1350   46.9166   58.3827 C   0  0  0  0  0  0  0  0  0  0  0  0
   75.0998   45.7790   58.4401 C   0  0  0  0  0  0  0  0  0  0  0  0
   68.9456   48.1513   56.3108 C   0  0  0  0  0  0  0  0  0  0  0  0
   69.3106   48.2269   54.8936 C   0  0  0  0  0  0  0  0  0  0  0  0
   70.2761   49.1265   54.5273 N   0  0  0  0  0  0  0  0  0  0  0  0
   70.7263   49.2778   53.3202 N   0  0  0  0  0  0  0  0  0  0  0  0
   70.2642   48.5424   52.3073 C   0  0  0  0  0  0  0  0  0  0  0  0
   70.7245   48.7144   51.1449 O   0  0  0  0  0  0  0  0  0  0  0  0
   69.2849   47.6106   52.5971 C   0  0  0  0  0  0  0  0  0  0  0  0
   68.7927   46.8536   51.5563 C   0  0  0  0  0  0  0  0  0  0  0  0
   67.8149   45.9285   51.7950 C   0  0  0  0  0  0  0  0  0  0  0  0
   67.3521   45.7887   53.0921 C   0  0  0  0  0  0  0  0  0  0  0  0
   67.8251   46.5318   54.1500 C   0  0  0  0  0  0  0  0  0  0  0  0
   68.8089   47.4516   53.8782 C   0  0  0  0  0  0  0  0  0  0  0  0
  8  9  1  0
  9 10  2  0
  9 15  1  0
 10 11  1  0
 11 12  1  0
 12 13  2  0
 12 14  1  0
 14 15  2  0
 14 21  1  0
 15 16  1  0
 16 17  1  0
 17 18  1  0
 17 20  1  0
 18 19  2  0
 18  1  1  0
  1  2  2  0
  1  6  1  0
  2  3  1  0
  3 22  1  0
  3  4  2  0
 22 23  1  0
 23 24  2  0
 23 33  1  0
 24 25  1  0
 25 26  1  0
 26 27  2  0
 26 28  1  0
 28 29  1  0
 28 33  2  0
 29 30  2  0
 30 31  1  0
 31 32  2  0
 32 33  1  0
  4  5  1  0
  5  6  2  0
  6  7  1  0
 20 21  1  0
M  END
>  <minimizedAffinity>  (277) 
-9.27149

$$$$
cs_full_output_folder/data/smiles/93.pdb
     RDKit          3D

 32 36  0  0  0  0  0  0  0  0999 V2000
   71.4035   47.1940   58.8937 C   0  0  0  0  0  0  0  0  0  0  0  0
   70.5784   48.0049   58.1339 C   0  0  0  0  0  0  0  0  0  0  0  0
   69.7281   47.5381   57.1685 C   0  0  0  0  0  0  0  0  0  0  0  0
   69.7462   46.1427   56.9951 C   0  0  0  0  0  0  0  0  0  0  0  0
   70.5343   45.2999   57.7115 C   0  0  0  0  0  0  0  0  0  0  0  0
   70.4764   43.9777   57.4663 F   0  0  0  0  0  0  0  0  0  0  0  0
   71.3798   45.8201   58.6789 C   0  0  0  0  0  0  0  0  0  0  0  0
   72.1707   45.0000   59.4012 F   0  0  0  0  0  0  0  0  0  0  0  0
   72.0114   47.5655   61.1233 O   0  0  0  0  0  0  0  0  0  0  0  0
   72.3027   47.6751   59.9078 C   0  0  0  0  0  0  0  0  0  0  0  0
   73.5275   48.2787   59.5541 N   0  0  0  0  0  0  0  0  0  0  0  0
   74.4752   48.7903   60.5158 C   0  0  0  0  0  0  0  0  0  0  0  0
   75.8921   48.5421   60.1773 C   0  0  0  0  0  0  0  0  0  0  0  0
   76.2129   47.9343   58.9481 N   0  0  0  0  0  0  0  0  0  0  0  0
   75.1908   47.5905   58.0414 C   0  0  0  0  0  0  0  0  0  0  0  0
   73.9119   48.4097   58.1587 C   0  0  0  0  0  0  0  0  0  0  0  0
   77.0324   46.7653   59.2085 C   0  0  0  0  0  0  0  0  0  0  0  0
   76.1697   45.5339   59.1183 C   0  0  0  0  0  0  0  0  0  0  0  0
   76.1284   44.6399   60.3211 C   0  0  0  0  0  0  0  0  0  0  0  0
   76.8648   44.2003   59.0564 C   0  0  0  0  0  0  0  0  0  0  0  0
   68.8326   48.3609   56.3201 C   0  0  0  0  0  0  0  0  0  0  0  0
   69.2754   48.3750   54.9244 C   0  0  0  0  0  0  0  0  0  0  0  0
   70.2029   49.3134   54.5727 N   0  0  0  0  0  0  0  0  0  0  0  0
   70.6221   49.4238   53.3265 N   0  0  0  0  0  0  0  0  0  0  0  0
   70.1835   48.6408   52.3154 C   0  0  0  0  0  0  0  0  0  0  0  0
   70.5945   48.7590   51.1297 O   0  0  0  0  0  0  0  0  0  0  0  0
   69.2531   47.6805   52.6070 C   0  0  0  0  0  0  0  0  0  0  0  0
   68.7946   46.8624   51.6131 C   0  0  0  0  0  0  0  0  0  0  0  0
   67.8669   45.8781   51.8839 C   0  0  0  0  0  0  0  0  0  0  0  0
   67.4277   45.7633   53.2079 C   0  0  0  0  0  0  0  0  0  0  0  0
   67.9026   46.5991   54.1909 C   0  0  0  0  0  0  0  0  0  0  0  0
   68.8188   47.5751   53.9304 C   0  0  0  0  0  0  0  0  0  0  0  0
  9 10  2  0
 10  1  1  0
 10 11  1  0
  1  2  2  0
  1  7  1  0
  2  3  1  0
  3 21  1  0
  3  4  2  0
 21 22  1  0
 22 23  2  0
 22 32  1  0
 23 24  1  0
 24 25  1  0
 25 26  2  0
 25 27  1  0
 27 28  1  0
 27 32  2  0
 28 29  2  0
 29 30  1  0
 30 31  2  0
 31 32  1  0
  4  5  1  0
  5  6  1  0
  5  7  2  0
  7  8  1  0
 11 12  1  0
 11 16  1  0
 12 13  1  0
 13 14  1  0
 14 17  1  0
 14 15  1  0
 17 18  1  0
 18 19  1  0
 18 20  1  0
 19 20  1  0
 15 16  1  0
M  CHG  1  14   1
M  END
>  <minimizedAffinity>  (278) 
-9.26818

$$$$
cs_full_output_folder/data/smiles/9314.pdb
     RDKit          3D

 31 34  0  0  0  0  0  0  0  0999 V2000
   71.5938   47.0530   58.9409 C   0  0  0  0  0  0  0  0  0  0  0  0
   70.7577   47.7469   58.1309 C   0  0  0  0  0  0  0  0  0  0  0  0
   69.8953   47.1213   57.2138 C   0  0  0  0  0  0  0  0  0  0  0  0
   69.9333   45.7706   57.1721 C   0  0  0  0  0  0  0  0  0  0  0  0
   70.7850   45.0223   57.9971 C   0  0  0  0  0  0  0  0  0  0  0  0
   71.6095   45.6745   58.8768 C   0  0  0  0  0  0  0  0  0  0  0  0
   72.4415   44.9905   59.6853 F   0  0  0  0  0  0  0  0  0  0  0  0
   76.5818   45.6271   61.0348 C   0  0  0  0  0  0  0  0  0  0  0  0
   76.2457   46.1110   59.6932 C   0  0  0  0  0  0  0  0  0  0  0  0
   76.2572   45.2966   58.7365 O   0  0  0  0  0  0  0  0  0  0  0  0
   75.9079   47.4629   59.4261 N   0  0  0  0  0  0  0  0  0  0  0  0
   75.8652   48.4785   60.4642 C   0  0  0  0  0  0  0  0  0  0  0  0
   74.4962   49.1204   60.4358 C   0  0  0  0  0  0  0  0  0  0  0  0
   73.6642   48.4019   59.4575 N   0  0  0  0  0  0  0  0  0  0  0  0
   72.4658   47.7810   59.8565 C   0  0  0  0  0  0  0  0  0  0  0  0
   72.1054   47.8414   61.0538 O   0  0  0  0  0  0  0  0  0  0  0  0
   74.1395   48.3704   58.1029 C   0  0  1  0  0  0  0  0  0  0  0  0
   74.0529   49.7221   57.4205 C   0  0  0  0  0  0  0  0  0  0  0  0
   75.5823   47.9005   58.0832 C   0  0  0  0  0  0  0  0  0  0  0  0
   69.0046   47.9810   56.3615 C   0  0  0  0  0  0  0  0  0  0  0  0
   69.4474   48.0965   54.9800 C   0  0  0  0  0  0  0  0  0  0  0  0
   70.4272   49.0106   54.6598 N   0  0  0  0  0  0  0  0  0  0  0  0
   70.8101   49.2164   53.4199 N   0  0  0  0  0  0  0  0  0  0  0  0
   70.2834   48.5606   52.3784 C   0  0  0  0  0  0  0  0  0  0  0  0
   70.6438   48.7522   51.1769 O   0  0  0  0  0  0  0  0  0  0  0  0
   69.2926   47.6237   52.6242 C   0  0  0  0  0  0  0  0  0  0  0  0
   68.7285   46.9004   51.6129 C   0  0  0  0  0  0  0  0  0  0  0  0
   67.7572   45.9446   51.8517 C   0  0  0  0  0  0  0  0  0  0  0  0
   67.3439   45.7117   53.1549 C   0  0  0  0  0  0  0  0  0  0  0  0
   67.9373   46.4651   54.1748 C   0  0  0  0  0  0  0  0  0  0  0  0
   68.8994   47.4157   53.9327 C   0  0  0  0  0  0  0  0  0  0  0  0
  8  9  1  0
  9 10  2  0
  9 11  1  0
 11 12  1  0
 11 19  1  0
 12 13  1  0
 13 14  1  0
 14 15  1  0
 14 17  1  0
 15 16  2  0
 15  1  1  0
  1  2  2  0
  1  6  1  0
  2  3  1  0
  3 20  1  0
  3  4  2  0
 20 21  1  0
 21 22  2  0
 21 31  1  0
 22 23  1  0
 23 24  1  0
 24 25  2  0
 24 26  1  0
 26 27  1  0
 26 31  2  0
 27 28  2  0
 28 29  1  0
 29 30  2  0
 30 31  1  0
  4  5  1  0
  5  6  2  0
  6  7  1  0
 17 18  1  1
 17 19  1  0
M  END
>  <minimizedAffinity>  (279) 
-9.26817

$$$$
cs_full_output_folder/data/smiles/9003.pdb
     RDKit          3D

 30 33  0  0  0  0  0  0  0  0999 V2000
   71.5671   46.9187   58.9283 C   0  0  0  0  0  0  0  0  0  0  0  0
   70.7770   47.7836   58.1602 C   0  0  0  0  0  0  0  0  0  0  0  0
   69.8775   47.3772   57.2188 C   0  0  0  0  0  0  0  0  0  0  0  0
   69.7761   45.9787   57.0437 C   0  0  0  0  0  0  0  0  0  0  0  0
   70.5296   45.0909   57.7705 C   0  0  0  0  0  0  0  0  0  0  0  0
   71.4221   45.5715   58.7105 C   0  0  0  0  0  0  0  0  0  0  0  0
   72.2027   44.7333   59.4651 F   0  0  0  0  0  0  0  0  0  0  0  0
   75.8264   49.6211   59.0729 N   0  0  0  0  0  0  0  0  0  0  0  0
   75.1107   49.7216   60.3372 C   0  0  0  0  0  0  0  0  0  0  0  0
   74.6954   48.3243   60.7348 C   0  0  0  0  0  0  0  0  0  0  0  0
   73.8386   47.7974   59.6902 N   0  0  0  0  0  0  0  0  0  0  0  0
   72.4953   47.4565   59.9247 C   0  0  0  0  0  0  0  0  0  0  0  0
   72.0578   47.6367   61.1046 O   0  0  0  0  0  0  0  0  0  0  0  0
   74.4164   47.6397   58.3872 C   0  0  0  0  0  0  0  0  0  0  0  0
   75.4216   48.6845   58.0973 C   0  0  0  0  0  0  0  0  0  0  0  0
   75.9405   48.7430   56.9223 N   0  0  0  0  0  0  0  0  0  0  0  0
   78.0993   50.0938   59.1966 N   0  0  0  0  0  0  0  0  0  0  0  0
   76.9362   50.4751   58.8290 C   0  0  0  0  0  0  0  0  0  0  0  0
   69.0146   48.2436   56.3812 C   0  0  0  0  0  0  0  0  0  0  0  0
   69.4030   48.3583   54.9739 C   0  0  0  0  0  0  0  0  0  0  0  0
   70.3390   49.2393   54.5506 N   0  0  0  0  0  0  0  0  0  0  0  0
   70.7678   49.3542   53.3099 N   0  0  0  0  0  0  0  0  0  0  0  0
   70.2956   48.5773   52.3262 C   0  0  0  0  0  0  0  0  0  0  0  0
   70.7112   48.6909   51.1415 O   0  0  0  0  0  0  0  0  0  0  0  0
   69.3198   47.6361   52.6752 C   0  0  0  0  0  0  0  0  0  0  0  0
   68.8053   46.8404   51.6679 C   0  0  0  0  0  0  0  0  0  0  0  0
   67.8260   45.9133   51.9565 C   0  0  0  0  0  0  0  0  0  0  0  0
   67.3894   45.8155   53.2746 C   0  0  0  0  0  0  0  0  0  0  0  0
   67.9051   46.6050   54.2639 C   0  0  0  0  0  0  0  0  0  0  0  0
   68.8761   47.5245   53.9812 C   0  0  0  0  0  0  0  0  0  0  0  0
 17 18  2  0
 18  8  1  0
  8  9  1  0
  8 15  1  0
  9 10  1  0
 10 11  1  0
 11 12  1  0
 11 14  1  0
 12 13  2  0
 12  1  1  0
  1  2  2  0
  1  6  1  0
  2  3  1  0
  3 19  1  0
  3  4  2  0
 19 20  1  0
 20 21  2  0
 20 30  1  0
 21 22  1  0
 22 23  1  0
 23 24  2  0
 23 25  1  0
 25 26  1  0
 25 30  2  0
 26 27  2  0
 27 28  1  0
 28 29  2  0
 29 30  1  0
  4  5  1  0
  5  6  2  0
  6  7  1  0
 14 15  1  0
 15 16  2  0
M  CHG  1  16   1
M  END
>  <minimizedAffinity>  (280) 
-9.26792

$$$$
cs_full_output_folder/data/smiles/624.pdb
     RDKit          3D

 28 30  0  0  0  0  0  0  0  0999 V2000
   68.2771   45.8180   54.0025 C   0  0  0  0  0  0  0  0  0  0  0  0
   67.6592   45.3174   52.8762 C   0  0  0  0  0  0  0  0  0  0  0  0
   67.7127   45.9827   51.6524 C   0  0  0  0  0  0  0  0  0  0  0  0
   68.4095   47.1731   51.5925 C   0  0  0  0  0  0  0  0  0  0  0  0
   69.0422   47.7096   52.6949 C   0  0  0  0  0  0  0  0  0  0  0  0
   68.9491   46.9955   53.8829 C   0  0  0  0  0  0  0  0  0  0  0  0
   67.6788   43.7340   55.3219 N   0  0  0  0  0  0  0  0  0  0  0  0
   68.1744   45.0605   55.2467 C   0  0  0  0  0  0  0  0  0  0  0  0
   68.5328   45.5721   56.3392 O   0  0  0  0  0  0  0  0  0  0  0  0
   67.5214   41.6083   56.6088 C   0  0  0  0  0  0  0  0  0  0  0  0
   67.5531   40.9812   55.5211 O   0  0  0  0  0  0  0  0  0  0  0  0
   67.5851   43.0181   56.5188 N   0  0  0  0  0  0  0  0  0  0  0  0
   67.2331   38.5555   61.4486 C   0  0  0  0  0  0  0  0  0  0  0  0
   67.2974   39.3598   60.2020 C   0  0  0  0  0  0  0  0  0  0  0  0
   67.9939   38.8836   59.1348 C   0  0  0  0  0  0  0  0  0  0  0  0
   68.0456   39.6391   57.9849 C   0  0  0  0  0  0  0  0  0  0  0  0
   67.4235   40.8641   57.8568 C   0  0  0  0  0  0  0  0  0  0  0  0
   66.7249   41.3218   58.9530 C   0  0  0  0  0  0  0  0  0  0  0  0
   66.6564   40.5737   60.1350 C   0  0  0  0  0  0  0  0  0  0  0  0
   69.9186   49.2211   52.5916 S   0  0  0  0  0  0  0  0  0  0  0  0
   69.8219   49.7876   51.1855 O   0  0  0  0  0  0  0  0  0  0  0  0
   71.3959   48.9686   52.8258 O   0  0  0  0  0  0  0  0  0  0  0  0
   69.3004   50.4032   53.6582 N   0  0  0  0  0  0  0  0  0  0  0  0
   69.2147   49.9686   55.0177 C   0  0  0  0  0  0  0  0  0  0  0  0
   70.5471   49.8604   55.6870 C   0  0  0  0  0  0  0  0  0  0  0  0
   71.2148   51.0576   55.6676 O   0  0  0  0  0  0  0  0  0  0  0  0
   70.6242   52.0442   54.9192 C   0  0  0  0  0  0  0  0  0  0  0  0
   70.1222   51.5760   53.5764 C   0  0  0  0  0  0  0  0  0  0  0  0
 13 14  1  0
 14 15  2  0
 14 19  1  0
 15 16  1  0
 16 17  2  0
 17 10  1  0
 17 18  1  0
 10 11  2  0
 10 12  1  0
 12  7  1  0
  7  8  1  0
  8  9  2  0
  8  1  1  0
  1  2  2  0
  1  6  1  0
  2  3  1  0
  3  4  2  0
  4  5  1  0
  5 20  1  0
  5  6  2  0
 20 21  2  0
 20 22  2  0
 20 23  1  0
 23 24  1  0
 23 28  1  0
 24 25  1  0
 25 26  1  0
 26 27  1  0
 27 28  1  0
 18 19  2  0
M  END
>  <minimizedAffinity>  (281) 
-9.26742

$$$$
cs_full_output_folder/data/smiles/7420.pdb
     RDKit          3D

 32 35  0  0  0  0  0  0  0  0999 V2000
   71.7723   47.5139   58.7563 C   0  0  0  0  0  0  0  0  0  0  0  0
   70.6258   47.8389   58.0717 C   0  0  0  0  0  0  0  0  0  0  0  0
   70.5557   48.8229   57.1250 C   0  0  0  0  0  0  0  0  0  0  0  0
   71.7407   49.5281   56.8542 C   0  0  0  0  0  0  0  0  0  0  0  0
   72.9128   49.2392   57.5126 C   0  0  0  0  0  0  0  0  0  0  0  0
   72.9194   48.2350   58.4561 C   0  0  0  0  0  0  0  0  0  0  0  0
   74.0706   47.9559   59.0987 F   0  0  0  0  0  0  0  0  0  0  0  0
   69.7515   42.1348   59.1994 C   0  0  0  0  0  0  0  0  0  0  0  0
   69.4145   41.5325   60.2482 O   0  0  0  0  0  0  0  0  0  0  0  0
   70.9694   42.8375   59.1580 N   0  0  0  0  0  0  0  0  0  0  0  0
   71.3071   43.5259   57.9185 C   0  0  0  0  0  0  0  0  0  0  0  0
   72.3780   44.5689   58.2119 C   0  0  0  0  0  0  0  0  0  0  0  0
   72.1622   45.1131   59.5369 N   0  0  0  0  0  0  0  0  0  0  0  0
   71.8758   46.4830   59.7677 C   0  0  0  0  0  0  0  0  0  0  0  0
   71.6944   46.8461   60.9576 O   0  0  0  0  0  0  0  0  0  0  0  0
   72.2559   44.2366   60.6639 C   0  0  0  0  0  0  0  0  0  0  0  0
   71.8289   42.8546   60.2956 C   0  0  0  0  0  0  0  0  0  0  0  0
   67.1601   41.8716   56.0300 C   0  0  0  0  0  0  0  0  0  0  0  0
   68.0776   41.9643   57.1557 C   0  0  0  0  0  0  0  0  0  0  0  0
   68.8467   42.0548   58.0997 C   0  0  0  0  0  0  0  0  0  0  0  0
   69.3580   49.2069   56.3421 C   0  0  0  0  0  0  0  0  0  0  0  0
   69.5901   49.0380   54.8908 C   0  0  0  0  0  0  0  0  0  0  0  0
   70.3493   49.9550   54.2168 N   0  0  0  0  0  0  0  0  0  0  0  0
   70.6282   49.8505   52.9362 N   0  0  0  0  0  0  0  0  0  0  0  0
   70.1769   48.8229   52.2012 C   0  0  0  0  0  0  0  0  0  0  0  0
   70.4348   48.7072   50.9745 O   0  0  0  0  0  0  0  0  0  0  0  0
   69.3990   47.8450   52.7951 C   0  0  0  0  0  0  0  0  0  0  0  0
   68.9050   46.7792   52.0842 C   0  0  0  0  0  0  0  0  0  0  0  0
   68.1245   45.8089   52.6530 C   0  0  0  0  0  0  0  0  0  0  0  0
   67.8488   45.9529   54.0096 C   0  0  0  0  0  0  0  0  0  0  0  0
   68.3367   47.0124   54.7296 C   0  0  0  0  0  0  0  0  0  0  0  0
   69.1200   47.9802   54.1484 C   0  0  0  0  0  0  0  0  0  0  0  0
 18 19  1  0
 19 20  3  0
 20  8  1  0
  8  9  2  0
  8 10  1  0
 10 11  1  0
 10 17  1  0
 11 12  1  0
 12 13  1  0
 13 14  1  0
 13 16  1  0
 14 15  2  0
 14  1  1  0
  1  2  2  0
  1  6  1  0
  2  3  1  0
  3 21  1  0
  3  4  2  0
 21 22  1  0
 22 23  2  0
 22 32  1  0
 23 24  1  0
 24 25  1  0
 25 26  2  0
 25 27  1  0
 27 28  1  0
 27 32  2  0
 28 29  2  0
 29 30  1  0
 30 31  2  0
 31 32  1  0
  4  5  1  0
  5  6  2  0
  6  7  1  0
 16 17  1  0
M  END
>  <minimizedAffinity>  (282) 
-9.26695

$$$$
cs_full_output_folder/data/smiles/6893.pdb
     RDKit          3D

 33 37  0  0  0  0  0  0  0  0999 V2000
   71.4139   47.0111   58.7288 C   0  0  0  0  0  0  0  0  0  0  0  0
   70.6199   47.7997   57.9321 C   0  0  0  0  0  0  0  0  0  0  0  0
   69.6962   47.2695   57.0247 C   0  0  0  0  0  0  0  0  0  0  0  0
   69.6326   45.9061   56.9818 C   0  0  0  0  0  0  0  0  0  0  0  0
   70.4094   45.0714   57.7615 C   0  0  0  0  0  0  0  0  0  0  0  0
   71.3009   45.6311   58.6355 C   0  0  0  0  0  0  0  0  0  0  0  0
   72.0844   44.8596   59.4209 F   0  0  0  0  0  0  0  0  0  0  0  0
   76.2278   47.3136   59.4255 N   0  0  0  0  0  0  0  0  0  0  0  0
   75.7823   47.9067   58.1791 C   0  0  0  0  0  0  0  0  0  0  0  0
   74.2750   47.8649   58.0525 C   0  0  0  0  0  0  0  0  0  0  0  0
   73.6587   48.0383   59.3535 N   0  0  0  0  0  0  0  0  0  0  0  0
   72.3452   47.6425   59.6537 C   0  0  0  0  0  0  0  0  0  0  0  0
   71.8869   47.8349   60.8267 O   0  0  0  0  0  0  0  0  0  0  0  0
   74.4830   48.6622   60.3817 C   0  0  0  0  0  0  0  0  0  0  0  0
   75.5842   47.6589   60.7012 C   0  0  0  0  0  0  0  0  0  0  0  0
   79.6640   47.1043   58.9470 O   0  0  0  0  0  0  0  0  0  0  0  0
   78.4961   46.7759   59.2550 C   0  0  0  0  0  0  0  0  0  0  0  0
   77.2868   46.3853   59.4729 C   0  0  0  0  0  0  0  0  0  0  0  0
   77.0059   44.9678   59.7721 C   0  0  0  0  0  0  0  0  0  0  0  0
   75.8881   44.2805   59.0476 C   0  0  0  0  0  0  0  0  0  0  0  0
   77.3274   43.8841   58.7963 C   0  0  0  0  0  0  0  0  0  0  0  0
   68.8733   48.2076   56.2347 C   0  0  0  0  0  0  0  0  0  0  0  0
   69.2677   48.3522   54.8229 C   0  0  0  0  0  0  0  0  0  0  0  0
   70.1598   49.3218   54.4505 N   0  0  0  0  0  0  0  0  0  0  0  0
   70.5935   49.5062   53.2521 N   0  0  0  0  0  0  0  0  0  0  0  0
   70.1574   48.7063   52.2727 C   0  0  0  0  0  0  0  0  0  0  0  0
   70.5468   48.8408   51.0880 O   0  0  0  0  0  0  0  0  0  0  0  0
   69.2618   47.7002   52.5221 C   0  0  0  0  0  0  0  0  0  0  0  0
   68.7849   46.8710   51.5375 C   0  0  0  0  0  0  0  0  0  0  0  0
   67.8659   45.8700   51.8188 C   0  0  0  0  0  0  0  0  0  0  0  0
   67.3990   45.6706   53.0986 C   0  0  0  0  0  0  0  0  0  0  0  0
   67.8901   46.5126   54.0720 C   0  0  0  0  0  0  0  0  0  0  0  0
   68.8149   47.5287   53.8262 C   0  0  0  0  0  0  0  0  0  0  0  0
 16 17  2  0
 17 18  2  0
 18 19  1  0
 18  8  1  0
 19 20  1  0
 19 21  1  0
 20 21  1  0
  8  9  1  0
  8 15  1  0
  9 10  1  0
 10 11  1  0
 11 12  1  0
 11 14  1  0
 12 13  2  0
 12  1  1  0
  1  2  2  0
  1  6  1  0
  2  3  1  0
  3 22  1  0
  3  4  2  0
 22 23  1  0
 23 24  2  0
 23 33  1  0
 24 25  1  0
 25 26  1  0
 26 27  2  0
 26 28  1  0
 28 29  1  0
 28 33  2  0
 29 30  2  0
 30 31  1  0
 31 32  2  0
 32 33  1  0
  4  5  1  0
  5  6  2  0
  6  7  1  0
 14 15  1  0
M  END
>  <minimizedAffinity>  (283) 
-9.26635

$$$$
cs_full_output_folder/data/smiles/8132.pdb
     RDKit          3D

 31 35  0  0  0  0  0  0  0  0999 V2000
   71.4398   46.8686   58.7899 C   0  0  0  0  0  0  0  0  0  0  0  0
   71.3529   45.5235   58.5347 C   0  0  0  0  0  0  0  0  0  0  0  0
   70.4627   45.0459   57.5782 C   0  0  0  0  0  0  0  0  0  0  0  0
   69.6442   45.8819   56.8601 C   0  0  0  0  0  0  0  0  0  0  0  0
   69.7284   47.2409   57.1154 C   0  0  0  0  0  0  0  0  0  0  0  0
   70.6110   47.7131   58.0614 C   0  0  0  0  0  0  0  0  0  0  0  0
   71.8504   48.2080   60.6793 O   0  0  0  0  0  0  0  0  0  0  0  0
   72.3456   47.4344   59.7939 C   0  0  0  0  0  0  0  0  0  0  0  0
   73.7307   47.1789   59.8520 N   0  0  0  0  0  0  0  0  0  0  0  0
   74.2271   46.3047   58.8196 C   0  0  0  0  0  0  0  0  0  0  0  0
   75.7299   46.4577   58.7052 C   0  0  0  0  0  0  0  0  0  0  0  0
   76.1833   47.8253   58.3431 C   0  0  0  0  0  0  0  0  0  0  0  0
   75.5680   48.9113   59.0268 N   0  0  1  0  0  0  0  0  0  0  0  0
   75.5092   48.7598   60.4647 C   0  0  0  0  0  0  0  0  0  0  0  0
   74.4406   47.7983   60.9100 C   0  0  0  0  0  0  0  0  0  0  0  0
   76.3933   50.0916   58.8046 C   0  0  0  0  0  0  0  0  0  0  0  0
   77.8228   49.7668   58.4905 C   0  0  0  0  0  0  0  0  0  0  0  0
   78.4857   50.8216   57.6055 C   0  0  0  0  0  0  0  0  0  0  0  0
   78.9442   50.5748   59.0031 C   0  0  0  0  0  0  0  0  0  0  0  0
   68.8661   48.2144   56.3995 C   0  0  0  0  0  0  0  0  0  0  0  0
   69.3337   48.3062   55.0018 C   0  0  0  0  0  0  0  0  0  0  0  0
   70.3183   49.1956   54.6679 N   0  0  0  0  0  0  0  0  0  0  0  0
   70.7847   49.3060   53.4464 N   0  0  0  0  0  0  0  0  0  0  0  0
   70.3238   48.5505   52.4382 C   0  0  0  0  0  0  0  0  0  0  0  0
   70.7919   48.6786   51.2651 O   0  0  0  0  0  0  0  0  0  0  0  0
   69.3263   47.6190   52.6666 C   0  0  0  0  0  0  0  0  0  0  0  0
   68.8246   46.8286   51.6436 C   0  0  0  0  0  0  0  0  0  0  0  0
   67.8271   45.9211   51.9258 C   0  0  0  0  0  0  0  0  0  0  0  0
   67.3585   45.8270   53.2193 C   0  0  0  0  0  0  0  0  0  0  0  0
   67.8590   46.6203   54.2555 C   0  0  0  0  0  0  0  0  0  0  0  0
   68.8555   47.5284   53.9774 C   0  0  0  0  0  0  0  0  0  0  0  0
  7  8  2  0
  8  1  1  0
  8  9  1  0
  1  2  2  0
  1  6  1  0
  2  3  1  0
  3  4  2  0
  4  5  1  0
  5 20  1  0
  5  6  2  0
 20 21  1  0
 21 22  2  0
 21 31  1  0
 22 23  1  0
 23 24  1  0
 24 25  2  0
 24 26  1  0
 26 27  1  0
 26 31  2  0
 27 28  2  0
 28 29  1  0
 29 30  2  0
 30 31  1  0
  9 10  1  0
  9 15  1  0
 10 11  1  0
 11 12  1  0
 12 13  1  0
 13 16  1  1
 13 14  1  0
 16 17  1  0
 17 18  1  0
 17 19  1  0
 18 19  1  0
 14 15  1  0
M  CHG  1  13   1
M  END
>  <minimizedAffinity>  (284) 
-9.26008

$$$$
cs_full_output_folder/data/smiles/6161.pdb
     RDKit          3D

 32 36  0  0  0  0  0  0  0  0999 V2000
   70.7948   46.1520   58.2955 C   0  0  0  0  0  0  0  0  0  0  0  0
   69.8201   46.7328   57.4625 C   0  0  0  0  0  0  0  0  0  0  0  0
   69.8778   48.0394   57.0747 C   0  0  0  0  0  0  0  0  0  0  0  0
   70.9735   48.7808   57.5569 C   0  0  0  0  0  0  0  0  0  0  0  0
   71.9416   48.2379   58.3735 C   0  0  0  0  0  0  0  0  0  0  0  0
   71.8478   46.9088   58.7452 C   0  0  0  0  0  0  0  0  0  0  0  0
   72.7646   46.3286   59.5425 F   0  0  0  0  0  0  0  0  0  0  0  0
   69.7334   44.3971   59.3677 O   0  0  0  0  0  0  0  0  0  0  0  0
   70.7073   44.7706   58.6775 C   0  0  0  0  0  0  0  0  0  0  0  0
   71.6816   43.7880   58.3083 N   0  0  0  0  0  0  0  0  0  0  0  0
   72.9116   43.7624   57.5573 C   0  0  0  0  0  0  0  0  0  0  0  0
   73.1715   42.3698   58.0197 C   0  0  0  0  0  0  0  0  0  0  0  0
   71.8109   42.3830   58.5458 C   0  0  0  0  0  0  0  0  0  0  0  0
   74.2717   42.3359   58.9415 N   0  0  0  0  0  0  0  0  0  0  0  0
   75.4770   42.9275   58.5242 C   0  0  0  0  0  0  0  0  0  0  0  0
   76.3684   43.0955   59.7415 C   0  0  0  0  0  0  0  0  0  0  0  0
   76.7665   41.6715   60.1356 C   0  0  0  0  0  0  0  0  0  0  0  0
   77.4299   41.1503   59.0405 F   0  0  0  0  0  0  0  0  0  0  0  0
   75.5479   40.8880   60.4732 C   0  0  0  0  0  0  0  0  0  0  0  0
   74.4078   41.0505   59.5407 C   0  0  0  0  0  0  0  0  0  0  0  0
   68.9096   48.7471   56.1949 C   0  0  0  0  0  0  0  0  0  0  0  0
   69.2799   48.6988   54.7896 C   0  0  0  0  0  0  0  0  0  0  0  0
   70.1583   49.6266   54.3127 N   0  0  0  0  0  0  0  0  0  0  0  0
   70.5929   49.6053   53.0538 N   0  0  0  0  0  0  0  0  0  0  0  0
   70.1983   48.6709   52.1640 C   0  0  0  0  0  0  0  0  0  0  0  0
   70.6066   48.6469   50.9797 O   0  0  0  0  0  0  0  0  0  0  0  0
   69.3181   47.7173   52.5839 C   0  0  0  0  0  0  0  0  0  0  0  0
   68.8709   46.7597   51.7205 C   0  0  0  0  0  0  0  0  0  0  0  0
   67.9722   45.8012   52.1049 C   0  0  0  0  0  0  0  0  0  0  0  0
   67.5243   45.8322   53.4119 C   0  0  0  0  0  0  0  0  0  0  0  0
   67.9756   46.7968   54.2829 C   0  0  0  0  0  0  0  0  0  0  0  0
   68.8669   47.7455   53.9037 C   0  0  0  0  0  0  0  0  0  0  0  0
  8  9  2  0
  9  1  1  0
  9 10  1  0
  1  2  2  0
  1  6  1  0
  2  3  1  0
  3 21  1  0
  3  4  2  0
 21 22  1  0
 22 23  2  0
 22 32  1  0
 23 24  1  0
 24 25  1  0
 25 26  2  0
 25 27  1  0
 27 28  1  0
 27 32  2  0
 28 29  2  0
 29 30  1  0
 30 31  2  0
 31 32  1  0
  4  5  1  0
  5  6  2  0
  6  7  1  0
 10 11  1  0
 10 13  1  0
 11 12  1  0
 12 14  1  0
 12 13  1  0
 14 15  1  0
 14 20  1  0
 15 16  1  0
 16 17  1  0
 17 18  1  0
 17 19  1  0
 19 20  1  0
M  CHG  1  14   1
M  END
>  <minimizedAffinity>  (285) 
-9.25679

$$$$
cs_full_output_folder/data/smiles/4342.pdb
     RDKit          3D

 29 31  0  0  0  0  0  0  0  0999 V2000
   69.6304   47.1812   57.0272 C   0  0  0  0  0  0  0  0  0  0  0  0
   69.8336   48.4939   57.3837 C   0  0  0  0  0  0  0  0  0  0  0  0
   70.7434   48.8376   58.3794 C   0  0  0  0  0  0  0  0  0  0  0  0
   71.4860   47.8936   59.0592 C   0  0  0  0  0  0  0  0  0  0  0  0
   71.2757   46.5787   58.6943 C   0  0  0  0  0  0  0  0  0  0  0  0
   70.3745   46.2299   57.7076 C   0  0  0  0  0  0  0  0  0  0  0  0
   68.4937   46.7538   55.7752 S   0  0  0  0  0  0  0  0  0  0  0  0
   67.1339   47.3857   56.0553 O   0  0  0  0  0  0  0  0  0  0  0  0
   68.2482   45.2705   55.8321 O   0  0  0  0  0  0  0  0  0  0  0  0
   67.6210   45.4284   53.1019 C   0  0  0  0  0  0  0  0  0  0  0  0
   68.5266   46.6065   53.0695 C   0  0  0  0  0  0  0  0  0  0  0  0
   68.9580   47.0835   51.8499 C   0  0  0  0  0  0  0  0  0  0  0  0
   69.8057   48.1626   51.7138 C   0  0  0  0  0  0  0  0  0  0  0  0
   70.2541   48.8075   52.8485 C   0  0  0  0  0  0  0  0  0  0  0  0
   69.8264   48.3358   54.0680 C   0  0  0  0  0  0  0  0  0  0  0  0
   68.9663   47.2412   54.2000 C   0  0  0  0  0  0  0  0  0  0  0  0
   72.4296   48.2981   60.0963 C   0  0  0  0  0  0  0  0  0  0  0  0
   73.2198   49.2453   59.8558 O   0  0  0  0  0  0  0  0  0  0  0  0
   72.5278   47.6990   61.3745 N   0  0  0  0  0  0  0  0  0  0  0  0
   73.4684   48.1407   62.3407 N   0  0  0  0  0  0  0  0  0  0  0  0
   74.2799   47.1821   63.0076 C   0  0  0  0  0  0  0  0  0  0  0  0
   74.0978   45.9650   62.6812 O   0  0  0  0  0  0  0  0  0  0  0  0
   75.2683   47.5355   64.0088 C   0  0  0  0  0  0  0  0  0  0  0  0
   74.9905   47.6470   65.3290 C   0  0  0  0  0  0  0  0  0  0  0  0
   75.9642   47.9870   66.2541 C   0  0  0  0  0  0  0  0  0  0  0  0
   77.2604   48.2254   65.8541 C   0  0  0  0  0  0  0  0  0  0  0  0
   77.5609   48.1168   64.5175 C   0  0  0  0  0  0  0  0  0  0  0  0
   76.5659   47.7732   63.6045 C   0  0  0  0  0  0  0  0  0  0  0  0
   76.9018   47.6720   62.2591 O   0  0  0  0  0  0  0  0  0  0  0  0
 10 11  1  0
 11 12  2  0
 11 16  1  0
 12 13  1  0
 13 14  2  0
 14 15  1  0
 15 16  2  0
 16  7  1  0
  7  8  2  0
  7  9  2  0
  7  1  1  0
  1  2  2  0
  1  6  1  0
  2  3  1  0
  3  4  2  0
  4 17  1  0
  4  5  1  0
 17 18  2  0
 17 19  1  0
 19 20  1  0
 20 21  1  0
 21 22  2  0
 21 23  1  0
 23 24  2  0
 23 28  1  0
 24 25  1  0
 25 26  2  0
 26 27  1  0
 27 28  2  0
 28 29  1  0
  5  6  2  0
M  END
>  <minimizedAffinity>  (286) 
-9.25158

$$$$
cs_full_output_folder/data/smiles/1186.pdb
     RDKit          3D

 32 35  0  0  0  0  0  0  0  0999 V2000
   71.4404   46.4515   58.9859 C   0  0  0  0  0  0  0  0  0  0  0  0
   70.5993   47.3590   58.3366 C   0  0  0  0  0  0  0  0  0  0  0  0
   69.7066   47.0048   57.3571 C   0  0  0  0  0  0  0  0  0  0  0  0
   69.6475   45.6468   56.9991 C   0  0  0  0  0  0  0  0  0  0  0  0
   70.4605   44.7250   57.6169 C   0  0  0  0  0  0  0  0  0  0  0  0
   71.3465   45.1352   58.6014 C   0  0  0  0  0  0  0  0  0  0  0  0
   72.1404   44.2147   59.2020 F   0  0  0  0  0  0  0  0  0  0  0  0
   75.7233   48.8968   59.3257 N   0  0  0  0  0  0  0  0  0  0  0  0
   75.8552   48.2361   58.0431 C   0  0  0  0  0  0  0  0  0  0  0  0
   74.4969   47.6902   57.6619 C   0  0  0  0  0  0  0  0  0  0  0  0
   74.2471   46.4833   58.5804 C   0  0  0  0  0  0  0  0  0  0  0  0
   73.7598   46.9671   59.8424 N   0  0  0  0  0  0  0  0  0  0  0  0
   72.3571   46.9361   60.0108 C   0  0  0  0  0  0  0  0  0  0  0  0
   71.8286   47.3383   61.0870 O   0  0  0  0  0  0  0  0  0  0  0  0
   74.5031   47.4806   60.9567 C   0  0  0  0  0  0  0  0  0  0  0  0
   75.7080   48.2876   60.6214 C   0  0  0  0  0  0  0  0  0  0  0  0
   75.6123   50.3242   59.2543 C   0  0  0  0  0  0  0  0  0  0  0  0
   76.6034   50.9641   58.7445 N   0  0  0  0  0  0  0  0  0  0  0  0
   73.2321   50.9625   58.8289 C   0  0  0  0  0  0  0  0  0  0  0  0
   74.4394   51.0727   59.7330 C   0  0  0  0  0  0  0  0  0  0  0  0
   68.7841   47.9430   56.6536 C   0  0  0  0  0  0  0  0  0  0  0  0
   69.2571   48.1408   55.2901 C   0  0  0  0  0  0  0  0  0  0  0  0
   70.2333   49.0843   55.0755 N   0  0  0  0  0  0  0  0  0  0  0  0
   70.7633   49.3251   53.9133 N   0  0  0  0  0  0  0  0  0  0  0  0
   70.3963   48.6665   52.8205 C   0  0  0  0  0  0  0  0  0  0  0  0
   70.9045   48.8963   51.7050 O   0  0  0  0  0  0  0  0  0  0  0  0
   69.4213   47.6997   52.9337 C   0  0  0  0  0  0  0  0  0  0  0  0
   69.0061   47.0066   51.8251 C   0  0  0  0  0  0  0  0  0  0  0  0
   68.0054   46.0358   51.9413 C   0  0  0  0  0  0  0  0  0  0  0  0
   67.4484   45.7853   53.1665 C   0  0  0  0  0  0  0  0  0  0  0  0
   67.8995   46.5138   54.2715 C   0  0  0  0  0  0  0  0  0  0  0  0
   68.8768   47.4628   54.1643 C   0  0  0  0  0  0  0  0  0  0  0  0
 19 20  1  0
 20 17  1  0
 17 18  2  0
 17  8  1  0
  8  9  1  0
  8 16  1  0
  9 10  1  0
 10 11  1  0
 11 12  1  0
 12 13  1  0
 12 15  1  0
 13 14  2  0
 13  1  1  0
  1  2  2  0
  1  6  1  0
  2  3  1  0
  3 21  1  0
  3  4  2  0
 21 22  1  0
 22 23  2  0
 22 32  1  0
 23 24  1  0
 24 25  1  0
 25 26  2  0
 25 27  1  0
 27 28  1  0
 27 32  2  0
 28 29  2  0
 29 30  1  0
 30 31  2  0
 31 32  1  0
  4  5  1  0
  5  6  2  0
  6  7  1  0
 15 16  1  0
M  CHG  1  18   1
M  END
>  <minimizedAffinity>  (287) 
-9.24711

$$$$
cs_full_output_folder/data/smiles/8122.pdb
     RDKit          3D

 30 34  0  0  0  0  0  0  0  0999 V2000
   69.8295   47.4679   57.4044 C   0  0  0  0  0  0  0  0  0  0  0  0
   70.3768   48.5941   58.0410 C   0  0  0  0  0  0  0  0  0  0  0  0
   71.3780   48.4748   58.9677 C   0  0  0  0  0  0  0  0  0  0  0  0
   71.8576   47.2232   59.2838 C   0  0  0  0  0  0  0  0  0  0  0  0
   72.8399   47.1131   60.1990 F   0  0  0  0  0  0  0  0  0  0  0  0
   71.3627   46.0768   58.6943 C   0  0  0  0  0  0  0  0  0  0  0  0
   70.3585   46.2571   57.7703 C   0  0  0  0  0  0  0  0  0  0  0  0
   72.0296   44.4861   59.1594 P   0  0  0  0  0  0  0  0  0  0  0  0
   73.3149   44.7282   59.9612 O   0  0  0  0  0  0  0  0  0  0  0  0
   72.3994   43.4483   57.7275 C   0  0  0  0  0  0  0  0  0  0  0  0
   71.5468   42.1851   57.8510 C   0  0  0  0  0  0  0  0  0  0  0  0
   70.1971   42.4644   58.1628 N   0  0  0  0  0  0  0  0  0  0  0  0
   69.8543   42.8058   59.4637 C   0  0  0  0  0  0  0  0  0  0  0  0
   70.9218   43.5540   60.2394 C   0  0  0  0  0  0  0  0  0  0  0  0
   69.3211   42.7255   57.0864 C   0  0  0  0  0  0  0  0  0  0  0  0
   67.9777   42.0504   57.2063 C   0  0  0  0  0  0  0  0  0  0  0  0
   67.0537   42.1576   55.9958 C   0  0  0  0  0  0  0  0  0  0  0  0
   67.7676   40.8803   56.2825 C   0  0  0  0  0  0  0  0  0  0  0  0
   68.7147   47.6733   56.4437 C   0  0  0  0  0  0  0  0  0  0  0  0
   70.5009   48.9075   51.4114 O   0  0  0  0  0  0  0  0  0  0  0  0
   70.0968   48.6436   52.5632 C   0  0  0  0  0  0  0  0  0  0  0  0
   70.4601   49.3259   53.6593 N   0  0  0  0  0  0  0  0  0  0  0  0
   70.0091   49.0096   54.8499 N   0  0  0  0  0  0  0  0  0  0  0  0
   69.1524   47.9846   55.0716 C   0  0  0  0  0  0  0  0  0  0  0  0
   68.7337   47.2401   54.0001 C   0  0  0  0  0  0  0  0  0  0  0  0
   67.8509   46.1860   54.1400 C   0  0  0  0  0  0  0  0  0  0  0  0
   67.4413   45.4612   53.0316 C   0  0  0  0  0  0  0  0  0  0  0  0
   67.9168   45.7944   51.7849 C   0  0  0  0  0  0  0  0  0  0  0  0
   68.7924   46.8421   51.6510 C   0  0  0  0  0  0  0  0  0  0  0  0
   69.2252   47.5934   52.7415 C   0  0  0  0  0  0  0  0  0  0  0  0
 20 21  2  0
 21 22  1  0
 21 30  1  0
 22 23  1  0
 23 24  2  0
 24 19  1  0
 24 25  1  0
 19  1  1  0
  1  2  2  0
  1  7  1  0
  2  3  1  0
  3  4  2  0
  4  5  1  0
  4  6  1  0
  6  8  1  0
  6  7  2  0
  8  9  2  0
  8 10  1  0
  8 14  1  0
 10 11  1  0
 11 12  1  0
 12 15  1  0
 12 13  1  0
 15 16  1  0
 16 17  1  0
 16 18  1  0
 17 18  1  0
 13 14  1  0
 25 26  1  0
 25 30  2  0
 26 27  2  0
 27 28  1  0
 28 29  2  0
 29 30  1  0
M  CHG  1  12   1
M  END
>  <minimizedAffinity>  (288) 
-9.24214

$$$$
cs_full_output_folder/data/smiles/669.pdb
     RDKit          3D

 32 36  0  0  0  0  0  0  0  0999 V2000
   71.9457   47.5793   58.7384 C   0  0  0  0  0  0  0  0  0  0  0  0
   70.8587   47.8718   57.9783 C   0  0  0  0  0  0  0  0  0  0  0  0
   70.8134   48.8903   57.0153 C   0  0  0  0  0  0  0  0  0  0  0  0
   71.9542   49.6149   56.8570 C   0  0  0  0  0  0  0  0  0  0  0  0
   73.1021   49.3564   57.6138 C   0  0  0  0  0  0  0  0  0  0  0  0
   73.0876   48.3339   58.5539 C   0  0  0  0  0  0  0  0  0  0  0  0
   74.2015   48.0856   59.2870 F   0  0  0  0  0  0  0  0  0  0  0  0
   72.0163   42.5915   58.6448 N   0  0  1  0  0  0  0  0  0  0  0  0
   73.3032   42.6510   58.0983 C   0  0  0  0  0  0  0  0  0  0  0  0
   73.8799   43.9936   57.7962 C   0  0  0  0  0  0  0  0  0  0  0  0
   72.9694   45.1539   58.0104 C   0  0  0  0  0  0  0  0  0  0  0  0
   72.5121   45.2608   59.3772 N   0  0  0  0  0  0  0  0  0  0  0  0
   71.9883   46.5209   59.7318 C   0  0  0  0  0  0  0  0  0  0  0  0
   71.5537   46.7724   60.8749 O   0  0  0  0  0  0  0  0  0  0  0  0
   72.5317   44.2224   60.4102 C   0  0  0  0  0  0  0  0  0  0  0  0
   71.6947   43.0345   59.9110 C   0  0  0  0  0  0  0  0  0  0  0  0
   69.4571   44.6063   57.5291 O   0  0  0  0  0  0  0  0  0  0  0  0
   69.8516   43.4652   57.6908 C   0  0  0  0  0  0  0  0  0  0  0  0
   69.6588   42.0005   58.0258 C   0  0  0  0  0  0  0  0  0  0  0  0
   70.9854   42.5281   57.6756 C   0  0  2  0  0  0  0  0  0  0  0  0
   69.5951   49.1131   56.2167 C   0  0  0  0  0  0  0  0  0  0  0  0
   69.7432   48.8395   54.7726 C   0  0  0  0  0  0  0  0  0  0  0  0
   70.5629   49.6310   54.0073 N   0  0  0  0  0  0  0  0  0  0  0  0
   70.7789   49.4123   52.7280 N   0  0  0  0  0  0  0  0  0  0  0  0
   70.2056   48.3877   52.0739 C   0  0  0  0  0  0  0  0  0  0  0  0
   70.4000   48.1617   50.8536 O   0  0  0  0  0  0  0  0  0  0  0  0
   69.3543   47.5349   52.7856 C   0  0  0  0  0  0  0  0  0  0  0  0
   68.7362   46.4795   52.1366 C   0  0  0  0  0  0  0  0  0  0  0  0
   67.8803   45.6371   52.8113 C   0  0  0  0  0  0  0  0  0  0  0  0
   67.6898   45.9154   54.1486 C   0  0  0  0  0  0  0  0  0  0  0  0
   68.2804   46.9435   54.8188 C   0  0  0  0  0  0  0  0  0  0  0  0
   69.1429   47.7867   54.1306 C   0  0  0  0  0  0  0  0  0  0  0  0
 17 18  2  0
 18 19  1  0
 18 20  1  0
 20 19  1  1
 20  8  1  0
  8  9  1  6
  8 16  1  0
  9 10  1  0
 10 11  1  0
 11 12  1  0
 12 13  1  0
 12 15  1  0
 13 14  2  0
 13  1  1  0
  1  2  2  0
  1  6  1  0
  2  3  1  0
  3 21  1  0
  3  4  2  0
 21 22  1  0
 22 23  2  0
 22 32  1  0
 23 24  1  0
 24 25  1  0
 25 26  2  0
 25 27  1  0
 27 28  1  0
 27 32  2  0
 28 29  2  0
 29 30  1  0
 30 31  2  0
 31 32  1  0
  4  5  1  0
  5  6  2  0
  6  7  1  0
 15 16  1  0
M  CHG  1   8   1
M  END
>  <minimizedAffinity>  (289) 
-9.24094

$$$$
cs_full_output_folder/data/smiles/8336.pdb
     RDKit          3D

 30 33  0  0  0  0  0  0  0  0999 V2000
   71.5708   47.2576   58.5572 C   0  0  0  0  0  0  0  0  0  0  0  0
   70.7093   47.9820   57.7790 C   0  0  0  0  0  0  0  0  0  0  0  0
   69.7077   47.3427   57.0346 C   0  0  0  0  0  0  0  0  0  0  0  0
   69.6122   45.9880   57.1025 C   0  0  0  0  0  0  0  0  0  0  0  0
   70.4663   45.2436   57.8785 C   0  0  0  0  0  0  0  0  0  0  0  0
   71.4378   45.8857   58.5986 C   0  0  0  0  0  0  0  0  0  0  0  0
   72.2828   45.1534   59.3644 F   0  0  0  0  0  0  0  0  0  0  0  0
   74.9952   49.1125   57.6426 N   0  0  0  0  0  0  0  0  0  0  0  0
   75.1765   47.8068   58.0514 C   0  0  0  0  0  0  0  0  0  0  0  0
   74.4523   47.2820   59.2300 C   0  0  0  0  0  0  0  0  0  0  0  0
   72.8439   48.0797   59.4902 P   0  0  0  0  0  0  0  0  0  0  0  0
   72.4772   48.0040   60.9723 O   0  0  0  0  0  0  0  0  0  0  0  0
   73.0610   49.7969   59.0757 C   0  0  0  0  0  0  0  0  0  0  0  0
   73.9889   49.9596   57.9166 C   0  0  0  0  0  0  0  0  0  0  0  0
   76.1366   49.6656   57.0098 C   0  0  0  0  0  0  0  0  0  0  0  0
   78.0444   50.4991   58.4455 C   0  0  0  0  0  0  0  0  0  0  0  0
   77.4608   49.4010   57.6213 C   0  0  0  0  0  0  0  0  0  0  0  0
   78.4322   49.2366   56.4233 C   0  0  0  0  0  0  0  0  0  0  0  0
   68.8241   48.2103   56.1866 C   0  0  0  0  0  0  0  0  0  0  0  0
   69.2755   48.2921   54.7796 C   0  0  0  0  0  0  0  0  0  0  0  0
   70.1925   49.2493   54.4227 N   0  0  0  0  0  0  0  0  0  0  0  0
   70.5990   49.4136   53.1857 N   0  0  0  0  0  0  0  0  0  0  0  0
   70.1462   48.6559   52.1799 C   0  0  0  0  0  0  0  0  0  0  0  0
   70.5216   48.7969   50.9900 O   0  0  0  0  0  0  0  0  0  0  0  0
   69.2208   47.6719   52.4701 C   0  0  0  0  0  0  0  0  0  0  0  0
   68.7271   46.8465   51.4811 C   0  0  0  0  0  0  0  0  0  0  0  0
   67.8200   45.8503   51.7418 C   0  0  0  0  0  0  0  0  0  0  0  0
   67.4163   45.7007   53.0451 C   0  0  0  0  0  0  0  0  0  0  0  0
   67.8845   46.5044   54.0689 C   0  0  0  0  0  0  0  0  0  0  0  0
   68.7896   47.4977   53.7888 C   0  0  0  0  0  0  0  0  0  0  0  0
 16 17  1  0
 17 18  1  0
 17 15  1  0
 15  8  1  0
  8  9  1  0
  8 14  1  0
  9 10  1  0
 10 11  1  0
 11 12  2  0
 11  1  1  0
 11 13  1  0
  1  2  2  0
  1  6  1  0
  2  3  1  0
  3 19  1  0
  3  4  2  0
 19 20  1  0
 20 21  2  0
 20 30  1  0
 21 22  1  0
 22 23  1  0
 23 24  2  0
 23 25  1  0
 25 26  1  0
 25 30  2  0
 26 27  2  0
 27 28  1  0
 28 29  2  0
 29 30  1  0
  4  5  1  0
  5  6  2  0
  6  7  1  0
 13 14  1  0
M  CHG  1   8   1
M  END
>  <minimizedAffinity>  (290) 
-9.24018

$$$$
cs_full_output_folder/data/smiles/5035.pdb
     RDKit          3D

 28 30  0  0  0  0  0  0  0  0999 V2000
   68.3209   45.8870   54.0603 C   0  0  0  0  0  0  0  0  0  0  0  0
   67.7185   45.4232   52.9081 C   0  0  0  0  0  0  0  0  0  0  0  0
   67.7828   46.0735   51.7016 C   0  0  0  0  0  0  0  0  0  0  0  0
   68.4757   47.2495   51.6047 C   0  0  0  0  0  0  0  0  0  0  0  0
   69.0981   47.7567   52.7354 C   0  0  0  0  0  0  0  0  0  0  0  0
   69.0147   47.0713   53.9500 C   0  0  0  0  0  0  0  0  0  0  0  0
   67.7825   43.7851   55.3814 N   0  0  0  0  0  0  0  0  0  0  0  0
   68.2062   45.1376   55.3035 C   0  0  0  0  0  0  0  0  0  0  0  0
   68.4941   45.6983   56.3837 O   0  0  0  0  0  0  0  0  0  0  0  0
   67.4696   41.1097   55.4857 O   0  0  0  0  0  0  0  0  0  0  0  0
   67.5156   41.6721   56.6232 C   0  0  0  0  0  0  0  0  0  0  0  0
   67.6804   43.0833   56.5958 N   0  0  0  0  0  0  0  0  0  0  0  0
   67.4036   40.8935   57.8481 C   0  0  0  0  0  0  0  0  0  0  0  0
   68.0378   39.6883   58.0346 C   0  0  0  0  0  0  0  0  0  0  0  0
   67.9026   38.9736   59.2283 C   0  0  0  0  0  0  0  0  0  0  0  0
   67.1159   39.4877   60.2362 C   0  0  0  0  0  0  0  0  0  0  0  0
   66.4728   40.6876   60.0725 C   0  0  0  0  0  0  0  0  0  0  0  0
   65.6659   41.2684   61.0403 O   0  0  0  0  0  0  0  0  0  0  0  0
   66.6289   41.3639   58.8870 C   0  0  0  0  0  0  0  0  0  0  0  0
   69.9590   49.2676   52.5640 S   0  0  0  0  0  0  0  0  0  0  0  0
   71.4334   48.9553   52.8083 O   0  0  0  0  0  0  0  0  0  0  0  0
   69.7818   49.6889   51.1241 O   0  0  0  0  0  0  0  0  0  0  0  0
   69.4189   50.5049   53.5853 N   0  0  0  0  0  0  0  0  0  0  0  0
   70.1760   51.6773   53.5304 C   0  0  0  0  0  0  0  0  0  0  0  0
   71.2264   51.8456   54.5925 C   0  0  0  0  0  0  0  0  0  0  0  0
   70.6779   51.5196   55.9723 C   0  0  0  0  0  0  0  0  0  0  0  0
   70.0435   50.1393   55.8973 C   0  0  0  0  0  0  0  0  0  0  0  0
   68.9582   50.1406   54.8606 C   0  0  0  0  0  0  0  0  0  0  0  0
 10 11  2  0
 11 12  1  0
 11 13  1  0
 12  7  1  0
  7  8  1  0
  8  9  2  0
  8  1  1  0
  1  2  2  0
  1  6  1  0
  2  3  1  0
  3  4  2  0
  4  5  1  0
  5 20  1  0
  5  6  2  0
 20 21  2  0
 20 22  2  0
 20 23  1  0
 23 24  1  0
 23 28  1  0
 24 25  1  0
 25 26  1  0
 26 27  1  0
 27 28  1  0
 13 14  2  0
 13 19  1  0
 14 15  1  0
 15 16  2  0
 16 17  1  0
 17 18  1  0
 17 19  2  0
M  END
>  <minimizedAffinity>  (291) 
-9.23780

$$$$
cs_full_output_folder/data/smiles/212.pdb
     RDKit          3D

 33 36  0  0  0  0  0  0  0  0999 V2000
   68.2262   41.7144   58.3893 C   0  0  0  0  0  0  0  0  0  0  0  0
   69.5283   41.7751   58.3388 C   0  0  0  0  0  0  0  0  0  0  0  0
   70.1385   43.0830   58.2526 N   0  0  0  0  0  0  0  0  0  0  0  0
   71.5425   43.1822   58.1926 C   0  0  0  0  0  0  0  0  0  0  0  0
   72.0937   44.3634   58.1129 C   0  0  0  0  0  0  0  0  0  0  0  0
   72.3359   41.9396   58.2207 C   0  0  0  0  0  0  0  0  0  0  0  0
   73.5828   42.0925   58.1642 O   0  0  0  0  0  0  0  0  0  0  0  0
   71.7506   40.6526   58.3053 N   0  0  0  0  0  0  0  0  0  0  0  0
   70.3236   40.5564   58.3664 C   0  0  0  0  0  0  0  0  0  0  0  0
   69.8138   39.3325   58.4875 C   0  0  0  0  0  0  0  0  0  0  0  0
   71.3545   45.6269   58.0729 C   0  0  0  0  0  0  0  0  0  0  0  0
   71.7593   46.6963   58.8563 C   0  0  0  0  0  0  0  0  0  0  0  0
   71.0782   47.8847   58.7577 C   0  0  0  0  0  0  0  0  0  0  0  0
   70.0091   48.0536   57.9074 C   0  0  0  0  0  0  0  0  0  0  0  0
   69.5697   46.9889   57.0950 C   0  0  0  0  0  0  0  0  0  0  0  0
   70.2825   45.8215   57.2302 C   0  0  0  0  0  0  0  0  0  0  0  0
   68.4724   47.1964   56.1745 C   0  0  0  0  0  0  0  0  0  0  0  0
   67.3331   47.4541   56.6432 O   0  0  0  0  0  0  0  0  0  0  0  0
   68.6166   47.1257   54.7407 C   0  0  0  0  0  0  0  0  0  0  0  0
   69.3062   48.0610   53.9883 C   0  0  0  0  0  0  0  0  0  0  0  0
   69.3954   47.9540   52.6077 C   0  0  0  0  0  0  0  0  0  0  0  0
   68.7878   46.8992   51.9660 C   0  0  0  0  0  0  0  0  0  0  0  0
   68.1068   45.9696   52.6877 C   0  0  0  0  0  0  0  0  0  0  0  0
   68.0092   46.0601   54.0518 C   0  0  0  0  0  0  0  0  0  0  0  0
   70.6338   38.1269   58.5075 C   0  0  0  0  0  0  0  0  0  0  0  0
   71.5876   37.6899   57.6731 N   0  0  0  0  0  0  0  0  0  0  0  0
   72.0983   36.5293   58.0703 C   0  0  0  0  0  0  0  0  0  0  0  0
   71.4764   36.1750   59.1973 N   0  0  0  0  0  0  0  0  0  0  0  0
   70.5616   37.1540   59.4870 C   0  0  0  0  0  0  0  0  0  0  0  0
   69.6671   37.1609   60.6700 C   0  0  0  0  0  0  0  0  0  0  0  0
   68.2417   37.4756   60.3761 C   0  0  0  0  0  0  0  0  0  0  0  0
   69.6744   35.7552   61.2900 C   0  0  0  0  0  0  0  0  0  0  0  0
   70.2145   38.0783   61.7615 C   0  0  0  0  0  0  0  0  0  0  0  0
  1  2  2  0
  2  3  1  0
  2  9  1  0
  3  4  1  0
  4  5  2  0
  4  6  1  0
  5 11  1  0
 11 12  2  0
 11 16  1  0
 12 13  1  0
 13 14  2  0
 14 15  1  0
 15 17  1  0
 15 16  2  0
 17 18  2  0
 17 19  1  0
 19 20  2  0
 19 24  1  0
 20 21  1  0
 21 22  2  0
 22 23  1  0
 23 24  2  0
  6  7  2  0
  6  8  1  0
  8  9  1  0
  9 10  2  0
 10 25  1  0
 25 26  1  0
 25 29  2  0
 26 27  2  0
 27 28  1  0
 28 29  1  0
 29 30  1  0
 30 31  1  0
 30 32  1  0
 30 33  1  0
M  CHG  1  26   1
M  END
>  <minimizedAffinity>  (292) 
-9.23618

$$$$
cs_full_output_folder/data/smiles/313.pdb
     RDKit          3D

 29 31  0  0  0  0  0  0  0  0999 V2000
   68.4296   46.0306   54.2214 C   0  0  0  0  0  0  0  0  0  0  0  0
   69.1288   47.2293   54.3370 C   0  0  0  0  0  0  0  0  0  0  0  0
   69.3428   48.0939   53.2901 C   0  0  0  0  0  0  0  0  0  0  0  0
   68.8282   47.7345   52.0658 C   0  0  0  0  0  0  0  0  0  0  0  0
   68.1313   46.5719   51.8813 C   0  0  0  0  0  0  0  0  0  0  0  0
   67.9450   45.7295   52.9865 C   0  0  0  0  0  0  0  0  0  0  0  0
   67.2377   44.5909   52.7460 F   0  0  0  0  0  0  0  0  0  0  0  0
   67.7764   43.8415   55.3767 N   0  0  0  0  0  0  0  0  0  0  0  0
   68.2532   45.1624   55.3538 C   0  0  0  0  0  0  0  0  0  0  0  0
   68.5650   45.6272   56.5157 O   0  0  0  0  0  0  0  0  0  0  0  0
   67.4941   41.1659   55.4140 O   0  0  0  0  0  0  0  0  0  0  0  0
   67.5071   41.6901   56.5809 C   0  0  0  0  0  0  0  0  0  0  0  0
   67.6554   43.1044   56.5917 N   0  0  0  0  0  0  0  0  0  0  0  0
   67.3796   40.8744   57.7679 C   0  0  0  0  0  0  0  0  0  0  0  0
   67.9735   39.6466   57.8851 C   0  0  0  0  0  0  0  0  0  0  0  0
   67.8039   38.9133   59.0694 C   0  0  0  0  0  0  0  0  0  0  0  0
   67.0515   39.4041   60.1196 C   0  0  0  0  0  0  0  0  0  0  0  0
   66.4621   40.6345   59.9894 C   0  0  0  0  0  0  0  0  0  0  0  0
   65.4976   41.2951   61.2996 Cl  0  0  0  0  0  0  0  0  0  0  0  0
   66.6358   41.3474   58.8198 C   0  0  0  0  0  0  0  0  0  0  0  0
   70.2338   49.5859   53.5255 S   0  0  0  0  0  0  0  0  0  0  0  0
   71.6882   49.4039   53.2345 O   0  0  0  0  0  0  0  0  0  0  0  0
   69.6907   50.5573   52.4812 O   0  0  0  0  0  0  0  0  0  0  0  0
   69.9179   50.3016   55.0471 N   0  0  0  0  0  0  0  0  0  0  0  0
   71.1438   50.4721   55.7682 C   0  0  0  0  0  0  0  0  0  0  0  0
   72.0301   51.4500   55.0632 C   0  0  0  0  0  0  0  0  0  0  0  0
   71.3374   52.4812   54.5275 O   0  0  0  0  0  0  0  0  0  0  0  0
   70.0894   52.7299   55.0261 C   0  0  0  0  0  0  0  0  0  0  0  0
   69.1791   51.5140   54.8937 C   0  0  0  0  0  0  0  0  0  0  0  0
 11 12  2  0
 12 13  1  0
 12 14  1  0
 13  8  1  0
  8  9  1  0
  9 10  2  0
  9  1  1  0
  1  2  2  0
  1  6  1  0
  2  3  1  0
  3 21  1  0
  3  4  2  0
 21 22  2  0
 21 23  2  0
 21 24  1  0
 24 25  1  0
 24 29  1  0
 25 26  1  0
 26 27  1  0
 27 28  1  0
 28 29  1  0
  4  5  1  0
  5  6  2  0
  6  7  1  0
 14 15  2  0
 14 20  1  0
 15 16  1  0
 16 17  2  0
 17 18  1  0
 18 19  1  0
 18 20  2  0
M  END
>  <minimizedAffinity>  (293) 
-9.23472

$$$$
cs_full_output_folder/data/smiles/7733.pdb
     RDKit          3D

 31 35  0  0  0  0  0  0  0  0999 V2000
   70.7159   46.4199   58.4031 C   0  0  0  0  0  0  0  0  0  0  0  0
   69.8215   46.9305   57.4851 C   0  0  0  0  0  0  0  0  0  0  0  0
   69.7971   48.2470   57.1213 C   0  0  0  0  0  0  0  0  0  0  0  0
   70.7346   49.0937   57.7261 C   0  0  0  0  0  0  0  0  0  0  0  0
   71.6453   48.6376   58.6455 C   0  0  0  0  0  0  0  0  0  0  0  0
   71.6181   47.2993   58.9687 C   0  0  0  0  0  0  0  0  0  0  0  0
   72.5039   46.7930   59.8781 F   0  0  0  0  0  0  0  0  0  0  0  0
   74.1230   41.4572   59.2611 N   0  0  0  0  0  0  0  0  0  0  0  0
   73.3168   42.4041   58.9096 C   0  0  0  0  0  0  0  0  0  0  0  0
   71.8724   42.7215   58.8916 C   0  0  0  0  0  0  0  0  0  0  0  0
   71.8196   44.1302   58.5563 N   0  0  0  0  0  0  0  0  0  0  0  0
   70.7120   44.9964   58.7657 C   0  0  0  0  0  0  0  0  0  0  0  0
   69.6785   44.5328   59.2829 O   0  0  0  0  0  0  0  0  0  0  0  0
   73.0563   44.5819   57.9625 C   0  0  0  0  0  0  0  0  0  0  0  0
   74.0252   43.5285   58.3498 C   0  0  0  0  0  0  0  0  0  0  0  0
   75.3205   43.2176   58.3771 C   0  0  0  0  0  0  0  0  0  0  0  0
   75.4639   41.8821   58.9587 C   0  0  0  0  0  0  0  0  0  0  0  0
   75.0956   39.5562   60.4049 C   0  0  0  0  0  0  0  0  0  0  0  0
   73.8069   40.1724   59.8580 C   0  0  0  0  0  0  0  0  0  0  0  0
   68.8690   48.8539   56.1234 C   0  0  0  0  0  0  0  0  0  0  0  0
   69.2873   48.7185   54.7328 C   0  0  0  0  0  0  0  0  0  0  0  0
   70.2069   49.6053   54.2352 N   0  0  0  0  0  0  0  0  0  0  0  0
   70.6534   49.5089   52.9942 N   0  0  0  0  0  0  0  0  0  0  0  0
   70.2438   48.5494   52.1495 C   0  0  0  0  0  0  0  0  0  0  0  0
   70.6805   48.4696   50.9669 O   0  0  0  0  0  0  0  0  0  0  0  0
   69.3221   47.6264   52.5810 C   0  0  0  0  0  0  0  0  0  0  0  0
   68.8632   46.6319   51.7517 C   0  0  0  0  0  0  0  0  0  0  0  0
   67.9296   45.7096   52.1774 C   0  0  0  0  0  0  0  0  0  0  0  0
   67.4631   45.8159   53.4751 C   0  0  0  0  0  0  0  0  0  0  0  0
   67.9399   46.8225   54.2851 C   0  0  0  0  0  0  0  0  0  0  0  0
   68.8618   47.7390   53.8833 C   0  0  0  0  0  0  0  0  0  0  0  0
 18 19  1  0
 19  8  1  0
  8  9  2  0
  8 17  1  0
  9 10  1  0
  9 15  1  0
 10 11  1  0
 11 12  1  0
 11 14  1  0
 12 13  2  0
 12  1  1  0
  1  2  2  0
  1  6  1  0
  2  3  1  0
  3 20  1  0
  3  4  2  0
 20 21  1  0
 21 22  2  0
 21 31  1  0
 22 23  1  0
 23 24  1  0
 24 25  2  0
 24 26  1  0
 26 27  1  0
 26 31  2  0
 27 28  2  0
 28 29  1  0
 29 30  2  0
 30 31  1  0
  4  5  1  0
  5  6  2  0
  6  7  1  0
 14 15  1  0
 15 16  2  0
 16 17  1  0
M  CHG  1   8   1
M  END
>  <minimizedAffinity>  (294) 
-9.22492

$$$$
cs_full_output_folder/data/smiles/2385.pdb
     RDKit          3D

 32 36  0  0  0  0  0  0  0  0999 V2000
   71.3931   46.8283   58.9750 C   0  0  0  0  0  0  0  0  0  0  0  0
   70.4737   47.6336   58.2906 C   0  0  0  0  0  0  0  0  0  0  0  0
   69.6468   47.1772   57.3319 C   0  0  0  0  0  0  0  0  0  0  0  0
   69.7338   45.8042   57.0210 C   0  0  0  0  0  0  0  0  0  0  0  0
   70.6143   44.9580   57.6536 C   0  0  0  0  0  0  0  0  0  0  0  0
   71.4400   45.5013   58.6360 C   0  0  0  0  0  0  0  0  0  0  0  0
   72.3134   44.6641   59.2656 F   0  0  0  0  0  0  0  0  0  0  0  0
   73.6608   50.2213   58.2966 N   0  0  2  0  0  0  0  0  0  0  0  0
   74.0053   50.6144   59.5806 C   0  0  0  0  0  0  0  0  0  0  0  0
   75.0161   49.7165   60.2364 C   0  0  0  0  0  0  0  0  0  0  0  0
   74.4389   48.3640   60.6445 C   0  0  0  0  0  0  0  0  0  0  0  0
   73.5386   47.8627   59.6209 N   0  0  0  0  0  0  0  0  0  0  0  0
   72.2830   47.3398   60.0060 C   0  0  0  0  0  0  0  0  0  0  0  0
   71.9545   47.3234   61.2296 O   0  0  0  0  0  0  0  0  0  0  0  0
   73.7744   47.8389   58.1916 C   0  0  0  0  0  0  0  0  0  0  0  0
   74.3455   49.1635   57.7123 C   0  0  0  0  0  0  0  0  0  0  0  0
   74.0030   51.6939   56.3150 N   0  0  0  0  0  0  0  0  0  0  0  0
   73.1872   51.2512   57.4147 C   0  0  0  0  0  0  0  0  0  0  0  0
   72.3320   52.2827   58.0618 C   0  0  0  0  0  0  0  0  0  0  0  0
   71.6811   51.2379   57.1764 C   0  0  0  0  0  0  0  0  0  0  0  0
   68.6580   47.9877   56.5677 C   0  0  0  0  0  0  0  0  0  0  0  0
   69.1880   48.2230   55.2139 C   0  0  0  0  0  0  0  0  0  0  0  0
   70.1671   49.1587   55.0264 N   0  0  0  0  0  0  0  0  0  0  0  0
   70.7252   49.3462   53.8454 N   0  0  0  0  0  0  0  0  0  0  0  0
   70.3869   48.6495   52.7541 C   0  0  0  0  0  0  0  0  0  0  0  0
   70.9373   48.8395   51.6156 O   0  0  0  0  0  0  0  0  0  0  0  0
   69.4088   47.6957   52.8743 C   0  0  0  0  0  0  0  0  0  0  0  0
   69.0529   47.0024   51.7432 C   0  0  0  0  0  0  0  0  0  0  0  0
   68.0678   46.0712   51.8370 C   0  0  0  0  0  0  0  0  0  0  0  0
   67.4416   45.8361   53.0598 C   0  0  0  0  0  0  0  0  0  0  0  0
   67.8227   46.5532   54.1935 C   0  0  0  0  0  0  0  0  0  0  0  0
   68.8134   47.4932   54.1219 C   0  0  0  0  0  0  0  0  0  0  0  0
 17 18  1  0
  8 18  1  6
 18 19  1  0
 18 20  1  0
  8  9  1  0
  8 16  1  0
  9 10  1  0
 10 11  1  0
 11 12  1  0
 12 13  1  0
 12 15  1  0
 13 14  2  0
 13  1  1  0
  1  2  2  0
  1  6  1  0
  2  3  1  0
  3 21  1  0
  3  4  2  0
 21 22  1  0
 22 23  2  0
 22 32  1  0
 23 24  1  0
 24 25  1  0
 25 26  2  0
 25 27  1  0
 27 28  1  0
 27 32  2  0
 28 29  2  0
 29 30  1  0
 30 31  2  0
 31 32  1  0
  4  5  1  0
  5  6  2  0
  6  7  1  0
 15 16  1  0
 19 20  1  0
M  CHG  2   8   1  17   1
M  END
>  <minimizedAffinity>  (295) 
-9.22313

$$$$
cs_full_output_folder/data/smiles/6059.pdb
     RDKit          3D

 31 35  0  0  0  0  0  0  0  0999 V2000
   71.5697   46.7393   58.7332 C   0  0  0  0  0  0  0  0  0  0  0  0
   70.6397   47.4964   58.0536 C   0  0  0  0  0  0  0  0  0  0  0  0
   69.6545   46.9857   57.2448 C   0  0  0  0  0  0  0  0  0  0  0  0
   69.6341   45.5930   57.1338 C   0  0  0  0  0  0  0  0  0  0  0  0
   70.5313   44.7776   57.7832 C   0  0  0  0  0  0  0  0  0  0  0  0
   71.5008   45.3720   58.5857 C   0  0  0  0  0  0  0  0  0  0  0  0
   72.4085   44.5928   59.2449 F   0  0  0  0  0  0  0  0  0  0  0  0
   75.9416   47.9048   58.8841 C   0  0  0  0  0  0  0  0  0  0  0  0
   74.9502   46.8674   58.4049 C   0  0  0  0  0  0  0  0  0  0  0  0
   73.9353   47.3947   59.3343 N   0  0  0  0  0  0  0  0  0  0  0  0
   72.5644   47.4093   59.5700 C   0  0  0  0  0  0  0  0  0  0  0  0
   72.0599   48.0320   60.5692 O   0  0  0  0  0  0  0  0  0  0  0  0
   75.0557   48.0254   60.0603 C   0  0  0  0  0  0  0  0  0  0  0  0
   75.3191   49.3297   57.0915 C   0  0  0  0  0  0  0  0  0  0  0  0
   76.3200   48.9314   58.0694 N   0  0  2  0  0  0  0  0  0  0  0  0
   77.5551   49.3906   57.7157 C   0  0  0  0  0  0  0  0  0  0  0  0
   77.6776   50.0787   56.3373 C   0  0  0  0  0  0  0  0  0  0  0  0
   78.7656   50.9654   56.9099 C   0  0  0  0  0  0  0  0  0  0  0  0
   78.1697   50.6254   58.2897 C   0  0  0  0  0  0  0  0  0  0  0  0
   68.6472   47.8168   56.5329 C   0  0  0  0  0  0  0  0  0  0  0  0
   69.1188   48.0298   55.1581 C   0  0  0  0  0  0  0  0  0  0  0  0
   70.0758   48.9990   55.0223 N   0  0  0  0  0  0  0  0  0  0  0  0
   70.6455   49.2881   53.8708 N   0  0  0  0  0  0  0  0  0  0  0  0
   70.3291   48.6518   52.7302 C   0  0  0  0  0  0  0  0  0  0  0  0
   70.8591   48.9092   51.6218 O   0  0  0  0  0  0  0  0  0  0  0  0
   69.3677   47.6664   52.8162 C   0  0  0  0  0  0  0  0  0  0  0  0
   68.9654   46.9619   51.6960 C   0  0  0  0  0  0  0  0  0  0  0  0
   67.9963   45.9876   51.7813 C   0  0  0  0  0  0  0  0  0  0  0  0
   67.4174   45.7086   53.0016 C   0  0  0  0  0  0  0  0  0  0  0  0
   67.7896   46.3873   54.1406 C   0  0  0  0  0  0  0  0  0  0  0  0
   68.7602   47.3564   54.0367 C   0  0  0  0  0  0  0  0  0  0  0  0
 15 14  1  6
 15 16  1  0
 15  8  1  0
 16 17  1  0
 16 19  1  0
 17 18  1  0
 18 19  1  0
  8  9  1  0
  8 13  1  0
  9 10  1  0
 10 11  1  0
 10 13  1  0
 11 12  2  0
 11  1  1  0
  1  2  2  0
  1  6  1  0
  2  3  1  0
  3 20  1  0
  3  4  2  0
 20 21  1  0
 21 22  2  0
 21 31  1  0
 22 23  1  0
 23 24  1  0
 24 25  2  0
 24 26  1  0
 26 27  1  0
 26 31  2  0
 27 28  2  0
 28 29  1  0
 29 30  2  0
 30 31  1  0
  4  5  1  0
  5  6  2  0
  6  7  1  0
M  CHG  1  15   1
M  END
>  <minimizedAffinity>  (296) 
-9.22097

$$$$
cs_full_output_folder/data/smiles/6698.pdb
     RDKit          3D

 33 37  0  0  0  0  0  0  0  0999 V2000
   71.3171   46.5826   58.8747 C   0  0  0  0  0  0  0  0  0  0  0  0
   70.5891   47.4673   58.1255 C   0  0  0  0  0  0  0  0  0  0  0  0
   69.7438   47.0365   57.0861 C   0  0  0  0  0  0  0  0  0  0  0  0
   69.6923   45.6868   56.8678 C   0  0  0  0  0  0  0  0  0  0  0  0
   70.4301   44.7738   57.6242 C   0  0  0  0  0  0  0  0  0  0  0  0
   71.2447   45.2262   58.6305 C   0  0  0  0  0  0  0  0  0  0  0  0
   71.9599   44.3486   59.3645 F   0  0  0  0  0  0  0  0  0  0  0  0
   76.5191   45.6459   59.9200 C   0  0  0  0  0  0  0  0  0  0  0  0
   77.0752   45.6262   61.0583 O   0  0  0  0  0  0  0  0  0  0  0  0
   75.7999   46.7782   59.5438 N   0  0  0  0  0  0  0  0  0  0  0  0
   75.7022   47.9083   60.4425 C   0  0  0  0  0  0  0  0  0  0  0  0
   74.2439   48.2744   60.7018 C   0  0  0  0  0  0  0  0  0  0  0  0
   73.4125   47.7196   59.6462 N   0  0  0  0  0  0  0  0  0  0  0  0
   72.1627   47.1365   59.9260 C   0  0  0  0  0  0  0  0  0  0  0  0
   71.7391   47.0808   61.1119 O   0  0  0  0  0  0  0  0  0  0  0  0
   73.9452   47.7921   58.3029 C   0  0  0  0  0  0  0  0  0  0  0  0
   75.1440   46.8374   58.2647 C   0  0  0  0  0  0  0  0  0  0  0  0
   74.8845   43.0915   60.4013 C   0  0  0  0  0  0  0  0  0  0  0  0
   75.9950   43.1722   59.3887 C   0  0  2  0  0  0  0  0  0  0  0  0
   77.4297   43.3044   59.8416 C   0  0  0  0  0  0  0  0  0  0  0  0
   76.7019   44.4306   59.1023 C   0  0  2  0  0  0  0  0  0  0  0  0
   69.0042   48.0620   56.3190 C   0  0  0  0  0  0  0  0  0  0  0  0
   69.4244   48.1604   54.8953 C   0  0  0  0  0  0  0  0  0  0  0  0
   70.4071   49.0407   54.5503 N   0  0  0  0  0  0  0  0  0  0  0  0
   70.8079   49.2214   53.3129 N   0  0  0  0  0  0  0  0  0  0  0  0
   70.2702   48.5463   52.2924 C   0  0  0  0  0  0  0  0  0  0  0  0
   70.6332   48.6984   51.0930 O   0  0  0  0  0  0  0  0  0  0  0  0
   69.2771   47.6382   52.5344 C   0  0  0  0  0  0  0  0  0  0  0  0
   68.7236   46.9279   51.5095 C   0  0  0  0  0  0  0  0  0  0  0  0
   67.7324   46.0033   51.7652 C   0  0  0  0  0  0  0  0  0  0  0  0
   67.3352   45.8315   53.0640 C   0  0  0  0  0  0  0  0  0  0  0  0
   67.8960   46.5514   54.0959 C   0  0  0  0  0  0  0  0  0  0  0  0
   68.8705   47.4640   53.8571 C   0  0  0  0  0  0  0  0  0  0  0  0
 19 18  1  1
 19 20  1  0
 19 21  1  0
 20 21  1  0
 21  8  1  1
  8  9  2  0
  8 10  1  0
 10 11  1  0
 10 17  1  0
 11 12  1  0
 12 13  1  0
 13 14  1  0
 13 16  1  0
 14 15  2  0
 14  1  1  0
  1  2  2  0
  1  6  1  0
  2  3  1  0
  3 22  1  0
  3  4  2  0
 22 23  1  0
 23 24  2  0
 23 33  1  0
 24 25  1  0
 25 26  1  0
 26 27  2  0
 26 28  1  0
 28 29  1  0
 28 33  2  0
 29 30  2  0
 30 31  1  0
 31 32  2  0
 32 33  1  0
  4  5  1  0
  5  6  2  0
  6  7  1  0
 16 17  1  0
M  END
>  <minimizedAffinity>  (297) 
-9.21822

$$$$
cs_full_output_folder/data/smiles/1436.pdb
     RDKit          3D

 32 36  0  0  0  0  0  0  0  0999 V2000
   71.2640   46.5922   58.7632 C   0  0  0  0  0  0  0  0  0  0  0  0
   70.3827   47.3727   58.0058 C   0  0  0  0  0  0  0  0  0  0  0  0
   69.5494   46.7976   57.0869 C   0  0  0  0  0  0  0  0  0  0  0  0
   69.6010   45.4339   56.9284 C   0  0  0  0  0  0  0  0  0  0  0  0
   70.4504   44.6275   57.6517 C   0  0  0  0  0  0  0  0  0  0  0  0
   71.2786   45.2284   58.5692 C   0  0  0  0  0  0  0  0  0  0  0  0
   72.1550   44.5229   59.3323 F   0  0  0  0  0  0  0  0  0  0  0  0
   74.4649   49.8682   58.8445 N   0  0  0  0  0  0  0  0  0  0  0  0
   74.4174   49.2117   57.5828 C   0  0  0  0  0  0  0  0  0  0  0  0
   74.9396   47.8126   57.5650 C   0  0  0  0  0  0  0  0  0  0  0  0
   74.0059   46.8411   58.2572 C   0  0  0  0  0  0  0  0  0  0  0  0
   73.5251   47.3917   59.5159 N   0  0  0  0  0  0  0  0  0  0  0  0
   72.1329   47.2460   59.7334 C   0  0  0  0  0  0  0  0  0  0  0  0
   71.6415   47.6933   60.7950 O   0  0  0  0  0  0  0  0  0  0  0  0
   74.3096   48.0439   60.5154 C   0  0  0  0  0  0  0  0  0  0  0  0
   74.7463   49.4279   60.1841 C   0  0  0  0  0  0  0  0  0  0  0  0
   74.8481   52.1019   59.4781 N   0  0  0  0  0  0  0  0  0  0  0  0
   74.1681   51.2914   58.7548 C   0  0  0  0  0  0  0  0  0  0  0  0
   73.1096   51.7697   57.8508 C   0  0  0  0  0  0  0  0  0  0  0  0
   72.3813   53.0162   58.0929 C   0  0  0  0  0  0  0  0  0  0  0  0
   71.6984   51.7012   58.4078 C   0  0  0  0  0  0  0  0  0  0  0  0
   68.6203   47.5954   56.2672 C   0  0  0  0  0  0  0  0  0  0  0  0
   69.0788   47.8356   54.8822 C   0  0  0  0  0  0  0  0  0  0  0  0
   69.9925   48.8060   54.6027 N   0  0  0  0  0  0  0  0  0  0  0  0
   70.4228   49.0681   53.3792 N   0  0  0  0  0  0  0  0  0  0  0  0
   70.0133   48.4120   52.2807 C   0  0  0  0  0  0  0  0  0  0  0  0
   70.5229   48.7556   51.0224 O   0  0  0  0  0  0  0  0  0  0  0  0
   69.0889   47.4069   52.4366 C   0  0  0  0  0  0  0  0  0  0  0  0
   68.4789   46.5574   51.5466 C   0  0  0  0  0  0  0  0  0  0  0  0
   67.6414   45.7472   52.2796 C   0  0  0  0  0  0  0  0  0  0  0  0
   67.7234   46.0868   53.6343 C   0  0  0  0  0  0  0  0  0  0  0  0
   68.6159   47.1230   53.8031 C   0  0  0  0  0  0  0  0  0  0  0  0
 17 18  2  0
 18 19  1  0
 18  8  1  0
 19 20  1  0
 19 21  1  0
 20 21  1  0
  8  9  1  0
  8 16  1  0
  9 10  1  0
 10 11  1  0
 11 12  1  0
 12 13  1  0
 12 15  1  0
 13 14  2  0
 13  1  1  0
  1  2  2  0
  1  6  1  0
  2  3  1  0
  3 22  1  0
  3  4  2  0
 22 23  1  0
 23 24  2  0
 23 32  1  0
 24 25  1  0
 25 26  1  0
 26 27  1  0
 26 28  2  0
 28 29  1  0
 28 32  1  0
 29 30  2  0
 30 31  1  0
 31 32  2  0
  4  5  1  0
  5  6  2  0
  6  7  1  0
 15 16  1  0
M  CHG  1  17   1
M  END
>  <minimizedAffinity>  (298) 
-9.21706

$$$$
cs_full_output_folder/data/smiles/3068.pdb
     RDKit          3D

 30 33  0  0  0  0  0  0  0  0999 V2000
   70.9059   46.4302   58.5550 C   0  0  0  0  0  0  0  0  0  0  0  0
   71.5923   47.4252   59.2057 C   0  0  0  0  0  0  0  0  0  0  0  0
   71.2974   48.7651   58.9176 C   0  0  0  0  0  0  0  0  0  0  0  0
   70.3310   49.0880   57.9960 C   0  0  0  0  0  0  0  0  0  0  0  0
   69.6136   48.0883   57.3165 C   0  0  0  0  0  0  0  0  0  0  0  0
   69.9399   46.8182   57.6321 C   0  0  0  0  0  0  0  0  0  0  0  0
   71.6786   44.1187   57.8487 N   0  0  0  0  0  0  0  0  0  0  0  0
   71.1581   45.0076   58.8134 C   0  0  0  0  0  0  0  0  0  0  0  0
   70.9040   44.5361   59.9504 O   0  0  0  0  0  0  0  0  0  0  0  0
   72.5344   40.0826   58.7926 C   0  0  0  0  0  0  0  0  0  0  0  0
   71.2754   40.4313   58.3581 C   0  0  0  0  0  0  0  0  0  0  0  0
   70.9549   41.7535   58.0365 C   0  0  0  0  0  0  0  0  0  0  0  0
   71.9125   42.7304   58.1539 C   0  0  0  0  0  0  0  0  0  0  0  0
   73.1673   42.3641   58.5896 C   0  0  0  0  0  0  0  0  0  0  0  0
   73.4992   41.0658   58.9104 C   0  0  0  0  0  0  0  0  0  0  0  0
   72.0807   37.6701   58.4896 C   0  0  0  0  0  0  0  0  0  0  0  0
   72.8395   38.7362   59.1137 N   0  0  0  0  0  0  0  0  0  0  0  0
   73.8801   38.3782   60.0437 C   0  0  0  0  0  0  0  0  0  0  0  0
   68.6289   48.5883   56.3647 C   0  0  0  0  0  0  0  0  0  0  0  0
   69.0572   48.7787   54.9805 C   0  0  0  0  0  0  0  0  0  0  0  0
   69.4910   49.9789   54.5248 N   0  0  0  0  0  0  0  0  0  0  0  0
   69.8409   50.1935   53.2764 N   0  0  0  0  0  0  0  0  0  0  0  0
   69.7896   49.2118   52.3495 C   0  0  0  0  0  0  0  0  0  0  0  0
   70.1188   49.3955   51.1481 O   0  0  0  0  0  0  0  0  0  0  0  0
   69.3595   47.9766   52.7495 C   0  0  0  0  0  0  0  0  0  0  0  0
   68.9891   47.7530   54.0830 C   0  0  0  0  0  0  0  0  0  0  0  0
   68.5847   46.3577   54.3661 C   0  0  0  0  0  0  0  0  0  0  0  0
   67.5101   45.8811   53.4176 C   0  0  0  0  0  0  0  0  0  0  0  0
   67.8682   46.1957   51.9795 C   0  0  0  0  0  0  0  0  0  0  0  0
   69.2453   46.8082   51.8401 C   0  0  0  0  0  0  0  0  0  0  0  0
 16 17  1  0
 17 18  1  0
 17 10  1  0
 10 11  2  0
 10 15  1  0
 11 12  1  0
 12 13  2  0
 13  7  1  0
 13 14  1  0
  7  8  1  0
  8  9  2  0
  8  1  1  0
  1  2  2  0
  1  6  1  0
  2  3  1  0
  3  4  2  0
  4  5  1  0
  5 19  1  0
  5  6  2  0
 19 20  1  0
 20 21  2  0
 20 26  1  0
 21 22  1  0
 22 23  1  0
 23 24  2  0
 23 25  1  0
 25 26  2  0
 25 30  1  0
 26 27  1  0
 27 28  1  0
 28 29  1  0
 29 30  1  0
 14 15  2  0
M  END
>  <minimizedAffinity>  (299) 
-9.21501

$$$$
cs_full_output_folder/data/smiles/6757.pdb
     RDKit          3D

 32 36  0  0  0  0  0  0  0  0999 V2000
   71.5227   46.0187   59.0855 C   0  0  0  0  0  0  0  0  0  0  0  0
   70.3470   46.3915   58.4493 C   0  0  0  0  0  0  0  0  0  0  0  0
   70.2239   47.5260   57.7045 C   0  0  0  0  0  0  0  0  0  0  0  0
   71.3756   48.3240   57.6085 C   0  0  0  0  0  0  0  0  0  0  0  0
   72.5573   47.9813   58.2293 C   0  0  0  0  0  0  0  0  0  0  0  0
   72.6275   46.8281   58.9665 C   0  0  0  0  0  0  0  0  0  0  0  0
   73.7793   46.4582   59.5931 F   0  0  0  0  0  0  0  0  0  0  0  0
   71.8029   44.8940   61.0812 O   0  0  0  0  0  0  0  0  0  0  0  0
   71.5362   44.7796   59.8472 C   0  0  0  0  0  0  0  0  0  0  0  0
   71.2684   43.5396   59.2347 N   0  0  0  0  0  0  0  0  0  0  0  0
   71.3004   42.3623   60.0450 C   0  0  0  0  0  0  0  0  0  0  0  0
   71.1880   41.0804   59.2326 C   0  0  0  0  0  0  0  0  0  0  0  0
   70.0479   41.2686   58.3227 N   0  0  0  0  0  0  0  0  0  0  0  0
   69.0728   40.2529   58.1491 C   0  0  0  0  0  0  0  0  0  0  0  0
   69.3020   39.0778   58.4727 O   0  0  0  0  0  0  0  0  0  0  0  0
   67.7720   40.6250   57.5719 C   0  0  0  0  0  0  0  0  0  0  0  0
   67.8788   41.7193   56.5479 C   0  0  0  0  0  0  0  0  0  0  0  0
   68.9228   42.7071   56.7868 C   0  0  0  0  0  0  0  0  0  0  0  0
   69.9230   42.4858   57.6122 C   0  0  0  0  0  0  0  0  0  0  0  0
   70.9786   43.5061   57.8307 C   0  0  0  0  0  0  0  0  0  0  0  0
   69.0030   47.9551   56.9962 C   0  0  0  0  0  0  0  0  0  0  0  0
   68.7241   47.2142   55.7532 C   0  0  0  0  0  0  0  0  0  0  0  0
   68.0517   46.0250   55.7976 N   0  0  0  0  0  0  0  0  0  0  0  0
   67.7175   45.3138   54.7649 N   0  0  0  0  0  0  0  0  0  0  0  0
   68.0187   45.7088   53.5121 C   0  0  0  0  0  0  0  0  0  0  0  0
   67.6794   44.9985   52.5291 O   0  0  0  0  0  0  0  0  0  0  0  0
   68.6989   46.8999   53.3767 C   0  0  0  0  0  0  0  0  0  0  0  0
   69.0303   47.3202   52.1061 C   0  0  0  0  0  0  0  0  0  0  0  0
   69.7256   48.5049   51.9394 C   0  0  0  0  0  0  0  0  0  0  0  0
   70.0839   49.2646   53.0636 C   0  0  0  0  0  0  0  0  0  0  0  0
   69.7497   48.8392   54.3271 C   0  0  0  0  0  0  0  0  0  0  0  0
   69.0540   47.6551   54.4945 C   0  0  0  0  0  0  0  0  0  0  0  0
  8  9  2  0
  9  1  1  0
  9 10  1  0
  1  2  2  0
  1  6  1  0
  2  3  1  0
  3 21  1  0
  3  4  2  0
 21 22  1  0
 22 23  2  0
 22 32  1  0
 23 24  1  0
 24 25  1  0
 25 26  2  0
 25 27  1  0
 27 28  1  0
 27 32  2  0
 28 29  2  0
 29 30  1  0
 30 31  2  0
 31 32  1  0
  4  5  1  0
  5  6  2  0
  6  7  1  0
 10 11  1  0
 10 20  1  0
 11 12  1  0
 12 13  1  0
 13 14  1  0
 13 19  1  0
 14 15  2  0
 14 16  1  0
 16 17  1  0
 17 18  1  0
 18 19  2  0
 19 20  1  0
M  END
>  <minimizedAffinity>  (300) 
-9.21085

$$$$
cs_full_output_folder/data/smiles/7903.pdb
     RDKit          3D

 30 33  0  0  0  0  0  0  0  0999 V2000
   71.4725   47.1061   58.7645 C   0  0  0  0  0  0  0  0  0  0  0  0
   70.5325   47.7719   58.0097 C   0  0  0  0  0  0  0  0  0  0  0  0
   69.6573   47.1386   57.1530 C   0  0  0  0  0  0  0  0  0  0  0  0
   69.7067   45.7700   57.0284 C   0  0  0  0  0  0  0  0  0  0  0  0
   70.6396   45.0729   57.7723 C   0  0  0  0  0  0  0  0  0  0  0  0
   70.6793   43.7284   57.6433 F   0  0  0  0  0  0  0  0  0  0  0  0
   71.5092   45.7157   58.6262 C   0  0  0  0  0  0  0  0  0  0  0  0
   72.4248   45.0289   59.3567 F   0  0  0  0  0  0  0  0  0  0  0  0
   75.8927   49.6504   58.1357 N   0  0  0  0  0  0  0  0  0  0  0  0
   75.9279   49.0541   59.4279 C   0  0  0  0  0  0  0  0  0  0  0  0
   74.5736   48.9984   60.1147 C   0  0  0  0  0  0  0  0  0  0  0  0
   73.6369   48.3153   59.2505 N   0  0  0  0  0  0  0  0  0  0  0  0
   72.3886   47.7891   59.6657 C   0  0  0  0  0  0  0  0  0  0  0  0
   72.0337   47.9080   60.8659 O   0  0  0  0  0  0  0  0  0  0  0  0
   74.0382   48.1753   57.8652 C   0  0  0  0  0  0  0  0  0  0  0  0
   74.6146   49.5343   57.4680 C   0  0  0  0  0  0  0  0  0  0  0  0
   77.0118   49.9752   56.0139 C   0  0  0  0  0  0  0  0  0  0  0  0
   76.8936   49.1006   57.2406 C   0  0  0  0  0  0  0  0  0  0  0  0
   68.6514   47.8968   56.3472 C   0  0  0  0  0  0  0  0  0  0  0  0
   69.1241   48.1117   54.9772 C   0  0  0  0  0  0  0  0  0  0  0  0
   70.0167   49.0861   54.7140 N   0  0  0  0  0  0  0  0  0  0  0  0
   70.4824   49.3362   53.5229 N   0  0  0  0  0  0  0  0  0  0  0  0
   70.1094   48.6356   52.4266 C   0  0  0  0  0  0  0  0  0  0  0  0
   70.5673   48.8895   51.2844 O   0  0  0  0  0  0  0  0  0  0  0  0
   69.1999   47.6244   52.6128 C   0  0  0  0  0  0  0  0  0  0  0  0
   68.7455   46.8461   51.5891 C   0  0  0  0  0  0  0  0  0  0  0  0
   67.8247   45.8202   51.7756 C   0  0  0  0  0  0  0  0  0  0  0  0
   67.3569   45.5927   53.0746 C   0  0  0  0  0  0  0  0  0  0  0  0
   67.7998   46.3629   54.1182 C   0  0  0  0  0  0  0  0  0  0  0  0
   68.7083   47.3641   53.8924 C   0  0  0  0  0  0  0  0  0  0  0  0
 17 18  1  0
 18  9  1  0
  9 10  1  0
  9 16  1  0
 10 11  1  0
 11 12  1  0
 12 13  1  0
 12 15  1  0
 13 14  2  0
 13  1  1  0
  1  2  2  0
  1  7  1  0
  2  3  1  0
  3 19  1  0
  3  4  2  0
 19 20  1  0
 20 21  2  0
 20 30  1  0
 21 22  1  0
 22 23  1  0
 23 24  2  0
 23 25  1  0
 25 26  1  0
 25 30  2  0
 26 27  2  0
 27 28  1  0
 28 29  2  0
 29 30  1  0
  4  5  1  0
  5  6  1  0
  5  7  2  0
  7  8  1  0
 15 16  1  0
M  CHG  1   9   1
M  END
>  <minimizedAffinity>  (301) 
-9.21018

$$$$
cs_full_output_folder/data/smiles/994.pdb
     RDKit          3D

 25 27  0  0  0  0  0  0  0  0999 V2000
   68.3767   43.7300   56.0834 N   0  0  0  0  0  0  0  0  0  0  0  0
   68.2551   42.5054   56.4200 C   0  0  0  0  0  0  0  0  0  0  0  0
   67.2032   41.6268   55.9229 C   0  0  0  0  0  0  0  0  0  0  0  0
   66.2752   41.9026   55.1057 O   0  0  0  0  0  0  0  0  0  0  0  0
   67.4315   40.3649   56.5528 N   0  0  0  0  0  0  0  0  0  0  0  0
   68.5865   40.4711   57.4076 C   0  0  0  0  0  0  0  0  0  0  0  0
   69.2013   39.5444   58.2176 C   0  0  0  0  0  0  0  0  0  0  0  0
   70.3240   39.8421   58.9790 C   0  0  0  0  0  0  0  0  0  0  0  0
   70.8430   41.1353   58.9145 C   0  0  0  0  0  0  0  0  0  0  0  0
   70.2223   42.0564   58.1027 C   0  0  0  0  0  0  0  0  0  0  0  0
   69.1085   41.7445   57.3534 C   0  0  0  0  0  0  0  0  0  0  0  0
   67.5352   44.4189   55.2004 N   0  0  0  0  0  0  0  0  0  0  0  0
   69.2734   47.9203   53.4897 C   0  0  0  0  0  0  0  0  0  0  0  0
   68.6885   46.9650   52.6957 C   0  0  0  0  0  0  0  0  0  0  0  0
   68.1256   45.8304   53.2737 C   0  0  0  0  0  0  0  0  0  0  0  0
   68.1229   45.6099   54.6334 C   0  0  0  0  0  0  0  0  0  0  0  0
   68.7113   46.5736   55.4237 C   0  0  0  0  0  0  0  0  0  0  0  0
   69.2745   47.7075   54.8540 C   0  0  0  0  0  0  0  0  0  0  0  0
   69.8901   49.4090   51.1170 N   0  0  0  0  0  0  0  0  0  0  0  0
   70.0030   49.3753   52.8562 S   0  0  0  0  0  0  0  0  0  0  0  0
   69.3087   50.6050   53.3622 O   0  0  0  0  0  0  0  0  0  0  0  0
   71.4551   49.4850   53.2110 O   0  0  0  0  0  0  0  0  0  0  0  0
   70.8923   38.7748   59.8125 C   0  0  0  0  0  0  0  0  0  0  0  0
   70.7015   37.3884   59.2836 C   0  0  0  0  0  0  0  0  0  0  0  0
   72.1629   37.0876   58.0180 Br  0  0  0  0  0  0  0  0  0  0  0  0
 19 20  1  0
 20 21  2  0
 20 22  2  0
 20 13  1  0
 13 14  2  0
 13 18  1  0
 14 15  1  0
 15 16  2  0
 16 12  1  0
 16 17  1  0
 12  1  1  0
  1  2  2  0
  2  3  1  0
  2 11  1  0
  3  4  2  0
  3  5  1  0
  5  6  1  0
  6  7  1  0
  6 11  2  0
  7  8  2  0
  8 23  1  0
  8  9  1  0
 23 24  1  0
 24 25  1  0
  9 10  2  0
 10 11  1  0
 17 18  2  0
M  END
>  <minimizedAffinity>  (302) 
-9.20941

$$$$
cs_full_output_folder/data/smiles/2789.pdb
     RDKit          3D

 32 36  0  0  0  0  0  0  0  0999 V2000
   72.2280   46.3295   58.5853 C   0  0  0  0  0  0  0  0  0  0  0  0
   72.7128   47.3056   59.4848 C   0  0  0  0  0  0  0  0  0  0  0  0
   72.1512   48.5506   59.5920 C   0  0  0  0  0  0  0  0  0  0  0  0
   71.0767   48.8595   58.7973 C   0  0  0  0  0  0  0  0  0  0  0  0
   70.5420   47.9350   57.8827 C   0  0  0  0  0  0  0  0  0  0  0  0
   71.1468   46.7111   57.8214 C   0  0  0  0  0  0  0  0  0  0  0  0
   73.9103   44.9791   57.7324 O   0  0  0  0  0  0  0  0  0  0  0  0
   72.8745   45.0380   58.4989 C   0  0  0  0  0  0  0  0  0  0  0  0
   72.4695   43.8788   59.1701 N   0  0  0  0  0  0  0  0  0  0  0  0
   71.3224   43.8681   60.0379 C   0  0  0  0  0  0  0  0  0  0  0  0
   70.8883   42.4218   60.2264 C   0  0  0  0  0  0  0  0  0  0  0  0
   70.9817   41.7862   58.9278 N   0  0  0  0  0  0  0  0  0  0  0  0
   72.3448   41.5534   58.4603 C   0  0  0  0  0  0  0  0  0  0  0  0
   73.2542   42.6572   58.9594 C   0  0  0  0  0  0  0  0  0  0  0  0
   69.8680   41.4139   58.1304 C   0  0  0  0  0  0  0  0  0  0  0  0
   69.2942   42.3213   57.2603 C   0  0  0  0  0  0  0  0  0  0  0  0
   68.1870   41.9618   56.4826 C   0  0  0  0  0  0  0  0  0  0  0  0
   67.6278   40.7051   56.5486 C   0  0  0  0  0  0  0  0  0  0  0  0
   68.2087   39.8055   57.4207 C   0  0  0  0  0  0  0  0  0  0  0  0
   69.3111   40.1549   58.1984 C   0  0  0  0  0  0  0  0  0  0  0  0
   69.3673   48.3761   57.0922 C   0  0  0  0  0  0  0  0  0  0  0  0
   68.9389   47.4282   56.0534 C   0  0  0  0  0  0  0  0  0  0  0  0
   68.4921   46.2009   56.4523 N   0  0  0  0  0  0  0  0  0  0  0  0
   68.0640   45.2832   55.6369 N   0  0  0  0  0  0  0  0  0  0  0  0
   68.0403   45.5134   54.3093 C   0  0  0  0  0  0  0  0  0  0  0  0
   67.6299   44.6369   53.5159 O   0  0  0  0  0  0  0  0  0  0  0  0
   68.4626   46.7010   53.8044 C   0  0  0  0  0  0  0  0  0  0  0  0
   68.9181   47.6689   54.6996 C   0  0  0  0  0  0  0  0  0  0  0  0
   69.3922   48.9552   54.1605 C   0  0  0  0  0  0  0  0  0  0  0  0
   69.9340   48.9056   52.7658 C   0  0  0  0  0  0  0  0  0  0  0  0
   69.8804   47.5772   52.0975 C   0  0  0  0  0  0  0  0  0  0  0  0
   68.4812   47.0213   52.3480 C   0  0  0  0  0  0  0  0  0  0  0  0
  7  8  2  0
  8  1  1  0
  8  9  1  0
  1  2  2  0
  1  6  1  0
  2  3  1  0
  3  4  2  0
  4  5  1  0
  5 21  1  0
  5  6  2  0
 21 22  1  0
 22 23  2  0
 22 28  1  0
 23 24  1  0
 24 25  1  0
 25 26  2  0
 25 27  1  0
 27 28  2  0
 27 32  1  0
 28 29  1  0
 29 30  1  0
 30 31  1  0
 31 32  1  0
  9 10  1  0
  9 14  1  0
 10 11  1  0
 11 12  1  0
 12 15  1  0
 12 13  1  0
 15 16  2  0
 15 20  1  0
 16 17  1  0
 17 18  2  0
 18 19  1  0
 19 20  2  0
 13 14  1  0
M  END
>  <minimizedAffinity>  (303) 
-9.20744

$$$$
cs_full_output_folder/data/smiles/4780.pdb
     RDKit          3D

 32 36  0  0  0  0  0  0  0  0999 V2000
   71.5312   47.1343   58.9000 C   0  0  0  0  0  0  0  0  0  0  0  0
   70.5081   47.7291   58.1581 C   0  0  0  0  0  0  0  0  0  0  0  0
   69.6843   47.0176   57.3540 C   0  0  0  0  0  0  0  0  0  0  0  0
   69.8578   45.6396   57.2626 C   0  0  0  0  0  0  0  0  0  0  0  0
   70.8509   45.0222   57.9790 C   0  0  0  0  0  0  0  0  0  0  0  0
   71.6859   45.7826   58.7976 C   0  0  0  0  0  0  0  0  0  0  0  0
   72.6442   45.1186   59.4812 F   0  0  0  0  0  0  0  0  0  0  0  0
   76.2655   49.0459   58.1043 N   0  0  2  0  0  0  0  0  0  0  0  0
   76.8945   49.4327   56.8651 C   0  0  0  0  0  0  0  0  0  0  0  0
   75.9727   49.7667   55.7522 C   0  0  0  0  0  0  0  0  0  0  0  0
   74.7598   50.5064   56.1875 C   0  0  0  0  0  0  0  0  0  0  0  0
   74.2439   50.1458   57.5283 C   0  0  1  0  0  0  0  0  0  0  0  0
   73.7456   48.7074   57.6382 C   0  0  0  0  0  0  0  0  0  0  0  0
   73.5033   48.6632   59.0744 N   0  0  0  0  0  0  0  0  0  0  0  0
   72.4559   47.9338   59.6986 C   0  0  0  0  0  0  0  0  0  0  0  0
   72.2719   47.9405   60.9422 O   0  0  0  0  0  0  0  0  0  0  0  0
   74.4984   49.4707   59.7259 C   0  0  0  0  0  0  0  0  0  0  0  0
   75.3590   50.0454   58.5942 C   0  0  1  0  0  0  0  0  0  0  0  0
   78.2770   50.0445   58.9360 C   0  0  0  0  0  0  0  0  0  0  0  0
   77.3358   48.8504   59.0660 C   0  0  0  0  0  0  0  0  0  0  0  0
   68.6222   47.6584   56.5429 C   0  0  0  0  0  0  0  0  0  0  0  0
   69.1837   47.8913   55.2173 C   0  0  0  0  0  0  0  0  0  0  0  0
   70.1121   48.8770   55.1166 N   0  0  0  0  0  0  0  0  0  0  0  0
   70.6143   49.2512   53.9622 N   0  0  0  0  0  0  0  0  0  0  0  0
   70.2406   48.6785   52.8082 C   0  0  0  0  0  0  0  0  0  0  0  0
   70.7122   49.0241   51.6786 O   0  0  0  0  0  0  0  0  0  0  0  0
   69.2949   47.6557   52.8082 C   0  0  0  0  0  0  0  0  0  0  0  0
   68.9147   47.0385   51.6363 C   0  0  0  0  0  0  0  0  0  0  0  0
   67.9959   46.0172   51.7048 C   0  0  0  0  0  0  0  0  0  0  0  0
   67.4921   45.6499   52.9424 C   0  0  0  0  0  0  0  0  0  0  0  0
   67.8736   46.2661   54.1032 C   0  0  0  0  0  0  0  0  0  0  0  0
   68.7846   47.2868   54.0541 C   0  0  0  0  0  0  0  0  0  0  0  0
 19 20  1  0
  8 20  1  1
  8  9  1  0
  8 18  1  0
  9 10  1  0
 10 11  1  0
 12 11  1  6
 12 13  1  0
 12 18  1  0
 13 14  1  0
 14 15  1  0
 14 17  1  0
 15 16  2  0
 15  1  1  0
  1  2  2  0
  1  6  1  0
  2  3  1  0
  3 21  1  0
  3  4  2  0
 21 22  1  0
 22 23  2  0
 22 32  1  0
 23 24  1  0
 24 25  1  0
 25 26  2  0
 25 27  1  0
 27 28  1  0
 27 32  2  0
 28 29  2  0
 29 30  1  0
 30 31  2  0
 31 32  1  0
  4  5  1  0
  5  6  2  0
  6  7  1  0
 18 17  1  1
M  CHG  1   8   1
M  END
>  <minimizedAffinity>  (304) 
-9.20351

$$$$
cs_full_output_folder/data/smiles/6981.pdb
     RDKit          3D

 30 33  0  0  0  0  0  0  0  0999 V2000
   71.2718   47.0048   58.8330 C   0  0  0  0  0  0  0  0  0  0  0  0
   70.4426   47.8018   58.0775 C   0  0  0  0  0  0  0  0  0  0  0  0
   69.6612   47.2010   57.1148 C   0  0  0  0  0  0  0  0  0  0  0  0
   69.7282   45.8370   56.9340 C   0  0  0  0  0  0  0  0  0  0  0  0
   70.5463   45.0210   57.6744 C   0  0  0  0  0  0  0  0  0  0  0  0
   71.3226   45.6447   58.6349 C   0  0  0  0  0  0  0  0  0  0  0  0
   72.1419   44.8260   59.3758 F   0  0  0  0  0  0  0  0  0  0  0  0
   76.0055   47.8713   59.0322 P   0  0  0  0  0  0  0  0  0  0  0  0
   77.2163   48.4423   58.3193 O   0  0  0  0  0  0  0  0  0  0  0  0
   74.6811   47.7090   57.8033 C   0  0  0  0  0  0  0  0  0  0  0  0
   73.6160   48.7119   58.1898 C   0  0  0  0  0  0  0  0  0  0  0  0
   73.2427   48.4216   59.5582 N   0  0  0  0  0  0  0  0  0  0  0  0
   72.1201   47.6039   59.8661 C   0  0  0  0  0  0  0  0  0  0  0  0
   71.8231   47.3726   61.0685 O   0  0  0  0  0  0  0  0  0  0  0  0
   74.0329   48.9811   60.6118 C   0  0  0  0  0  0  0  0  0  0  0  0
   75.5036   49.0092   60.3366 C   0  0  0  0  0  0  0  0  0  0  0  0
   75.6049   45.1967   59.0763 C   0  0  0  0  0  0  0  0  0  0  0  0
   76.4727   46.2672   59.7233 C   0  0  0  0  0  0  0  0  0  0  0  0
   68.7627   48.0610   56.2965 C   0  0  0  0  0  0  0  0  0  0  0  0
   69.3178   48.2668   54.9356 C   0  0  0  0  0  0  0  0  0  0  0  0
   70.2691   49.1659   54.6425 N   0  0  0  0  0  0  0  0  0  0  0  0
   70.7356   49.3130   53.4035 N   0  0  0  0  0  0  0  0  0  0  0  0
   70.2863   48.5771   52.3784 C   0  0  0  0  0  0  0  0  0  0  0  0
   70.7293   48.7172   51.2046 O   0  0  0  0  0  0  0  0  0  0  0  0
   69.3050   47.6377   52.6385 C   0  0  0  0  0  0  0  0  0  0  0  0
   68.8384   46.8757   51.5816 C   0  0  0  0  0  0  0  0  0  0  0  0
   67.8618   45.9364   51.8241 C   0  0  0  0  0  0  0  0  0  0  0  0
   67.3578   45.7626   53.1106 C   0  0  0  0  0  0  0  0  0  0  0  0
   67.8396   46.5325   54.1321 C   0  0  0  0  0  0  0  0  0  0  0  0
   68.8224   47.4833   53.9149 C   0  0  0  0  0  0  0  0  0  0  0  0
 17 18  1  0
 18  8  1  0
  8  9  2  0
  8 10  1  0
  8 16  1  0
 10 11  1  0
 11 12  1  0
 12 13  1  0
 12 15  1  0
 13 14  2  0
 13  1  1  0
  1  2  2  0
  1  6  1  0
  2  3  1  0
  3 19  1  0
  3  4  2  0
 19 20  1  0
 20 21  2  0
 20 30  1  0
 21 22  1  0
 22 23  1  0
 23 24  2  0
 23 25  1  0
 25 26  1  0
 25 30  2  0
 26 27  2  0
 27 28  1  0
 28 29  2  0
 29 30  1  0
  4  5  1  0
  5  6  2  0
  6  7  1  0
 15 16  1  0
M  END
>  <minimizedAffinity>  (305) 
-9.20215

$$$$
cs_full_output_folder/data/smiles/4264.pdb
     RDKit          3D

 27 29  0  0  0  0  0  0  0  0999 V2000
   71.7655   43.8519   58.3254 S   0  0  0  0  0  0  0  0  0  0  0  0
   73.1197   40.9058   59.0370 C   0  0  0  0  0  0  0  0  0  0  0  0
   71.7265   41.0338   58.5341 C   0  0  0  0  0  0  0  0  0  0  0  0
   71.0729   42.2099   58.2091 C   0  0  0  0  0  0  0  0  0  0  0  0
   69.8263   41.8406   57.7980 C   0  0  0  0  0  0  0  0  0  0  0  0
   69.7614   40.5143   57.8835 N   0  0  0  0  0  0  0  0  0  0  0  0
   70.9085   39.9943   58.3294 N   0  0  0  0  0  0  0  0  0  0  0  0
   71.1241   38.5930   58.5233 C   0  0  0  0  0  0  0  0  0  0  0  0
   70.4281   37.9326   59.5266 C   0  0  0  0  0  0  0  0  0  0  0  0
   70.5722   36.5976   59.7817 C   0  0  0  0  0  0  0  0  0  0  0  0
   71.4380   35.8541   59.0242 C   0  0  0  0  0  0  0  0  0  0  0  0
   71.6486   34.1299   59.3269 Cl  0  0  0  0  0  0  0  0  0  0  0  0
   72.1501   36.4997   58.0074 C   0  0  0  0  0  0  0  0  0  0  0  0
   71.9942   37.8515   57.7601 C   0  0  0  0  0  0  0  0  0  0  0  0
   70.4672   45.0678   58.0758 C   0  0  0  0  0  0  0  0  0  0  0  0
   69.7884   45.5141   59.0329 O   0  0  0  0  0  0  0  0  0  0  0  0
   70.1890   45.5468   56.7687 N   0  0  0  0  0  0  0  0  0  0  0  0
   69.1901   46.5090   56.4259 C   0  0  0  0  0  0  0  0  0  0  0  0
   68.9432   46.6720   54.9790 C   0  0  0  0  0  0  0  0  0  0  0  0
   68.1016   45.7794   54.3014 C   0  0  0  0  0  0  0  0  0  0  0  0
   67.8515   45.9192   52.9565 C   0  0  0  0  0  0  0  0  0  0  0  0
   68.4439   46.9593   52.2653 C   0  0  0  0  0  0  0  0  0  0  0  0
   69.2705   47.8459   52.9069 C   0  0  0  0  0  0  0  0  0  0  0  0
   69.5099   47.6876   54.2652 C   0  0  0  0  0  0  0  0  0  0  0  0
   69.8926   48.9407   52.1751 C   0  0  0  0  0  0  0  0  0  0  0  0
   69.9108   50.2424   52.7458 N   0  0  0  0  0  0  0  0  0  0  0  0
   70.4030   48.7193   51.0492 O   0  0  0  0  0  0  0  0  0  0  0  0
  2  3  1  0
  3  4  2  0
  3  7  1  0
  4  1  1  0
  4  5  1  0
  1 15  1  0
 15 16  2  0
 15 17  1  0
 17 18  1  0
 18 19  1  0
 19 20  2  0
 19 24  1  0
 20 21  1  0
 21 22  2  0
 22 23  1  0
 23 25  1  0
 23 24  2  0
 25 26  1  0
 25 27  2  0
  5  6  2  0
  6  7  1  0
  7  8  1  0
  8  9  2  0
  8 14  1  0
  9 10  1  0
 10 11  2  0
 11 12  1  0
 11 13  1  0
 13 14  2  0
M  END
>  <minimizedAffinity>  (306) 
-9.20012

$$$$
cs_full_output_folder/data/smiles/7518.pdb
     RDKit          3D

 32 36  0  0  0  0  0  0  0  0999 V2000
   71.3828   47.1348   58.7243 C   0  0  0  0  0  0  0  0  0  0  0  0
   70.4493   47.8292   57.9901 C   0  0  0  0  0  0  0  0  0  0  0  0
   69.5507   47.2123   57.1271 C   0  0  0  0  0  0  0  0  0  0  0  0
   69.6072   45.8216   57.0077 C   0  0  0  0  0  0  0  0  0  0  0  0
   70.5168   45.1153   57.7192 C   0  0  0  0  0  0  0  0  0  0  0  0
   71.4129   45.7629   58.5835 C   0  0  0  0  0  0  0  0  0  0  0  0
   72.3128   45.0320   59.2840 F   0  0  0  0  0  0  0  0  0  0  0  0
   75.0270   49.4978   58.3495 C   0  0  0  0  0  0  0  0  0  0  0  0
   74.7012   48.9775   59.6922 C   0  0  0  0  0  0  0  0  0  0  0  0
   73.5562   48.3014   59.1389 N   0  0  0  0  0  0  0  0  0  0  0  0
   72.3237   47.7867   59.6135 C   0  0  0  0  0  0  0  0  0  0  0  0
   72.0441   47.8984   60.8215 O   0  0  0  0  0  0  0  0  0  0  0  0
   74.1890   48.3535   57.8476 C   0  0  0  0  0  0  0  0  0  0  0  0
   78.9093   50.8680   58.0950 C   0  0  0  0  0  0  0  0  0  0  0  0
   78.8701   49.5515   57.4974 N   0  0  0  0  0  0  0  0  0  0  0  0
   78.1056   49.5336   56.2699 C   0  0  0  0  0  0  0  0  0  0  0  0
   76.6066   49.6418   56.4963 C   0  0  0  0  0  0  0  0  0  0  0  0
   76.3419   49.4361   57.8605 N   0  0  0  0  0  0  0  0  0  0  0  0
   76.9834   48.2248   58.3158 C   0  0  0  0  0  0  0  0  0  0  0  0
   78.4653   48.5200   58.4227 C   0  0  0  0  0  0  0  0  0  0  0  0
   68.5367   47.9145   56.3353 C   0  0  0  0  0  0  0  0  0  0  0  0
   69.0016   48.1226   54.9677 C   0  0  0  0  0  0  0  0  0  0  0  0
   69.9115   49.1199   54.7193 N   0  0  0  0  0  0  0  0  0  0  0  0
   70.4148   49.3636   53.5446 N   0  0  0  0  0  0  0  0  0  0  0  0
   70.0716   48.6453   52.4768 C   0  0  0  0  0  0  0  0  0  0  0  0
   70.5668   48.8950   51.3612 O   0  0  0  0  0  0  0  0  0  0  0  0
   69.1470   47.5969   52.6071 C   0  0  0  0  0  0  0  0  0  0  0  0
   68.7935   46.8629   51.5094 C   0  0  0  0  0  0  0  0  0  0  0  0
   67.8831   45.8450   51.6543 C   0  0  0  0  0  0  0  0  0  0  0  0
   67.3605   45.6082   52.9182 C   0  0  0  0  0  0  0  0  0  0  0  0
   67.7097   46.3392   54.0227 C   0  0  0  0  0  0  0  0  0  0  0  0
   68.6382   47.3779   53.8859 C   0  0  0  0  0  0  0  0  0  0  0  0
 14 15  1  0
 15 16  1  0
 15 20  1  0
 16 17  1  0
 17 18  1  0
 18  8  1  0
 18 19  1  0
  8  9  1  0
  8 13  1  0
  9 10  1  0
 10 11  1  0
 10 13  1  0
 11 12  2  0
 11  1  1  0
  1  2  2  0
  1  6  1  0
  2  3  1  0
  3 21  1  0
  3  4  2  0
 21 22  1  0
 22 23  2  0
 22 32  1  0
 23 24  1  0
 24 25  1  0
 25 26  2  0
 25 27  1  0
 27 28  1  0
 27 32  2  0
 28 29  2  0
 29 30  1  0
 30 31  2  0
 31 32  1  0
  4  5  1  0
  5  6  2  0
  6  7  1  0
 19 20  1  0
M  CHG  2  15   1  18   1
M  END
>  <minimizedAffinity>  (307) 
-9.19799

$$$$
cs_full_output_folder/data/smiles/4370.pdb
     RDKit          3D

 29 31  0  0  0  0  0  0  0  0999 V2000
   68.3240   45.8677   54.0929 C   0  0  0  0  0  0  0  0  0  0  0  0
   67.7489   45.4232   52.9248 C   0  0  0  0  0  0  0  0  0  0  0  0
   67.8576   46.1738   51.7478 C   0  0  0  0  0  0  0  0  0  0  0  0
   68.5492   47.3646   51.7744 C   0  0  0  0  0  0  0  0  0  0  0  0
   69.1310   47.8333   52.9133 C   0  0  0  0  0  0  0  0  0  0  0  0
   69.0034   47.0679   54.0534 C   0  0  0  0  0  0  0  0  0  0  0  0
   67.7471   43.7702   55.4007 N   0  0  0  0  0  0  0  0  0  0  0  0
   68.2205   45.1016   55.3293 C   0  0  0  0  0  0  0  0  0  0  0  0
   68.5662   45.6243   56.4355 O   0  0  0  0  0  0  0  0  0  0  0  0
   67.5222   41.6331   56.5979 C   0  0  0  0  0  0  0  0  0  0  0  0
   67.4964   41.0971   55.4367 O   0  0  0  0  0  0  0  0  0  0  0  0
   67.6540   43.0424   56.6067 N   0  0  0  0  0  0  0  0  0  0  0  0
   67.1450   38.3284   61.3433 C   0  0  0  0  0  0  0  0  0  0  0  0
   67.2364   39.1888   60.1207 C   0  0  0  0  0  0  0  0  0  0  0  0
   67.9544   38.7847   59.0172 C   0  0  0  0  0  0  0  0  0  0  0  0
   68.0380   39.5757   57.8936 C   0  0  0  0  0  0  0  0  0  0  0  0
   67.4190   40.8058   57.8006 C   0  0  0  0  0  0  0  0  0  0  0  0
   66.7030   41.2138   58.8993 C   0  0  0  0  0  0  0  0  0  0  0  0
   66.6124   40.4137   60.0456 C   0  0  0  0  0  0  0  0  0  0  0  0
   70.0025   49.3528   52.9026 S   0  0  0  0  0  0  0  0  0  0  0  0
   69.7839   50.0783   51.5920 O   0  0  0  0  0  0  0  0  0  0  0  0
   71.4803   48.9850   52.9045 O   0  0  0  0  0  0  0  0  0  0  0  0
   69.7035   50.3279   54.2505 N   0  0  0  0  0  0  0  0  0  0  0  0
   70.0241   51.6895   53.9688 C   0  0  0  0  0  0  0  0  0  0  0  0
   71.3749   52.1457   54.3996 C   0  0  0  0  0  0  0  0  0  0  0  0
   71.9612   51.3853   55.5482 C   0  0  0  0  0  0  0  0  0  0  0  0
   70.8175   50.8401   56.3783 C   0  0  0  0  0  0  0  0  0  0  0  0
   70.0900   49.8289   55.5166 C   0  0  1  0  0  0  0  0  0  0  0  0
   68.9653   49.2737   56.3477 C   0  0  0  0  0  0  0  0  0  0  0  0
 13 14  1  0
 14 15  2  0
 14 19  1  0
 15 16  1  0
 16 17  2  0
 17 10  1  0
 17 18  1  0
 10 11  2  0
 10 12  1  0
 12  7  1  0
  7  8  1  0
  8  9  2  0
  8  1  1  0
  1  2  2  0
  1  6  1  0
  2  3  1  0
  3  4  2  0
  4  5  1  0
  5 20  1  0
  5  6  2  0
 20 21  2  0
 20 22  2  0
 20 23  1  0
 23 24  1  0
 23 28  1  0
 24 25  1  0
 25 26  1  0
 26 27  1  0
 27 28  1  0
 28 29  1  1
 18 19  2  0
M  END
>  <minimizedAffinity>  (308) 
-9.19794

$$$$
cs_full_output_folder/data/smiles/1620.pdb
     RDKit          3D

 32 36  0  0  0  0  0  0  0  0999 V2000
   70.6812   49.2537   58.6442 C   0  0  0  0  0  0  0  0  0  0  0  0
   70.2491   48.3026   57.7360 C   0  0  0  0  0  0  0  0  0  0  0  0
   69.1031   48.4341   56.9913 C   0  0  0  0  0  0  0  0  0  0  0  0
   68.3516   49.5813   57.1677 C   0  0  0  0  0  0  0  0  0  0  0  0
   68.7489   50.5521   58.0639 C   0  0  0  0  0  0  0  0  0  0  0  0
   69.9004   50.3974   58.7969 C   0  0  0  0  0  0  0  0  0  0  0  0
   70.3445   51.3152   59.6946 F   0  0  0  0  0  0  0  0  0  0  0  0
   74.0913   50.1162   56.9022 N   0  0  0  0  0  0  0  0  0  0  0  0
   74.8936   48.9788   57.3550 C   0  0  0  0  0  0  0  0  0  0  0  0
   75.4733   49.3500   58.7012 C   0  0  0  0  0  0  0  0  0  0  0  0
   74.3555   49.5697   59.6937 C   0  0  0  0  0  0  0  0  0  0  0  0
   73.1079   49.7285   58.9960 N   0  0  0  0  0  0  0  0  0  0  0  0
   71.9104   49.0416   59.4015 C   0  0  0  0  0  0  0  0  0  0  0  0
   71.9890   48.2936   60.3901 O   0  0  0  0  0  0  0  0  0  0  0  0
   73.1135   50.6293   57.8447 C   0  0  0  0  0  0  0  0  0  0  0  0
   74.8946   49.9558   54.7281 N   0  0  0  0  0  0  0  0  0  0  0  0
   74.2761   50.6748   55.6036 C   0  0  0  0  0  0  0  0  0  0  0  0
   73.7588   52.0195   55.3415 C   0  0  0  0  0  0  0  0  0  0  0  0
   73.6496   52.5717   53.9761 C   0  0  0  0  0  0  0  0  0  0  0  0
   72.3961   52.0303   54.6160 C   0  0  0  0  0  0  0  0  0  0  0  0
   68.6906   47.3847   56.0346 C   0  0  0  0  0  0  0  0  0  0  0  0
   69.1445   47.7997   54.6805 C   0  0  0  0  0  0  0  0  0  0  0  0
   70.0141   48.8035   54.4714 N   0  0  0  0  0  0  0  0  0  0  0  0
   70.4171   49.1706   53.2656 N   0  0  0  0  0  0  0  0  0  0  0  0
   69.9802   48.5616   52.1518 C   0  0  0  0  0  0  0  0  0  0  0  0
   70.3529   48.8975   50.9871 O   0  0  0  0  0  0  0  0  0  0  0  0
   69.0845   47.5228   52.3021 C   0  0  0  0  0  0  0  0  0  0  0  0
   68.6187   46.8756   51.1694 C   0  0  0  0  0  0  0  0  0  0  0  0
   67.7258   45.8446   51.3737 C   0  0  0  0  0  0  0  0  0  0  0  0
   67.2909   45.4431   52.6187 C   0  0  0  0  0  0  0  0  0  0  0  0
   67.7721   46.1042   53.7272 C   0  0  0  0  0  0  0  0  0  0  0  0
   68.6629   47.1372   53.5700 C   0  0  0  0  0  0  0  0  0  0  0  0
 16 17  2  0
 17 18  1  0
 17  8  1  0
 18 19  1  0
 18 20  1  0
 19 20  1  0
  8  9  1  0
  8 15  1  0
  9 10  1  0
 10 11  1  0
 11 12  1  0
 12 13  1  0
 12 15  1  0
 13 14  2  0
 13  1  1  0
  1  2  2  0
  1  6  1  0
  2  3  1  0
  3 21  1  0
  3  4  2  0
 21 22  1  0
 22 23  2  0
 22 32  1  0
 23 24  1  0
 24 25  1  0
 25 26  2  0
 25 27  1  0
 27 28  1  0
 27 32  2  0
 28 29  2  0
 29 30  1  0
 30 31  2  0
 31 32  1  0
  4  5  1  0
  5  6  2  0
  6  7  1  0
M  CHG  1  16   1
M  END
>  <minimizedAffinity>  (309) 
-9.19635

$$$$
cs_full_output_folder/data/smiles/5163.pdb
     RDKit          3D

 33 36  0  0  0  0  0  0  0  0999 V2000
   71.8990   48.6040   58.0209 C   0  0  0  0  0  0  0  0  0  0  0  0
   72.5669   48.7981   59.2417 C   0  0  0  0  0  0  0  0  0  0  0  0
   72.4916   47.8909   60.2633 C   0  0  0  0  0  0  0  0  0  0  0  0
   71.7412   46.7358   60.1239 C   0  0  0  0  0  0  0  0  0  0  0  0
   71.0679   46.4990   58.9517 C   0  0  0  0  0  0  0  0  0  0  0  0
   71.1721   47.4466   57.9370 C   0  0  0  0  0  0  0  0  0  0  0  0
   69.5439   50.5902   54.3464 C   0  0  0  0  0  0  0  0  0  0  0  0
   70.9750   50.9647   54.1879 C   0  0  0  0  0  0  0  0  0  0  0  0
   71.7295   51.4330   55.3630 C   0  0  0  0  0  0  0  0  0  0  0  0
   71.2093   50.5783   56.5006 N   0  0  0  0  0  0  0  0  0  0  0  0
   72.0482   49.5941   56.9964 C   0  0  0  0  0  0  0  0  0  0  0  0
   73.2155   49.5657   56.4026 O   0  0  0  0  0  0  0  0  0  0  0  0
   69.8778   50.9930   56.8216 C   0  0  0  0  0  0  0  0  0  0  0  0
   68.9898   50.4722   55.7166 C   0  0  0  0  0  0  0  0  0  0  0  0
   68.7248   46.9784   53.8042 C   0  0  0  0  0  0  0  0  0  0  0  0
   69.0906   46.8218   52.4951 C   0  0  0  0  0  0  0  0  0  0  0  0
   69.6024   47.8687   51.7493 C   0  0  0  0  0  0  0  0  0  0  0  0
   69.7335   49.1001   52.3828 C   0  0  0  0  0  0  0  0  0  0  0  0
   69.3780   49.2810   53.6829 C   0  0  0  0  0  0  0  0  0  0  0  0
   68.8726   48.2361   54.4057 C   0  0  0  0  0  0  0  0  0  0  0  0
   68.1590   46.0999   55.9980 N   0  0  0  0  0  0  0  0  0  0  0  0
   68.1870   45.8280   54.5643 C   0  0  0  0  0  0  0  0  0  0  0  0
   70.2440   45.3483   58.7226 N   0  0  0  0  0  0  0  0  0  0  0  0
   70.7548   44.1712   58.1414 C   0  0  0  0  0  0  0  0  0  0  0  0
   71.9789   44.1937   57.8236 O   0  0  0  0  0  0  0  0  0  0  0  0
   70.0106   42.9572   57.8810 C   0  0  0  0  0  0  0  0  0  0  0  0
   70.2762   41.7265   58.4463 C   0  0  0  0  0  0  0  0  0  0  0  0
   69.5167   40.6235   58.1248 C   0  0  0  0  0  0  0  0  0  0  0  0
   68.4689   40.7360   57.2223 C   0  0  0  0  0  0  0  0  0  0  0  0
   67.7011   39.6092   56.9005 O   0  0  0  0  0  0  0  0  0  0  0  0
   68.1758   41.9409   56.6417 C   0  0  0  0  0  0  0  0  0  0  0  0
   67.1279   42.0707   55.7349 O   0  0  0  0  0  0  0  0  0  0  0  0
   68.9551   43.0193   56.9859 C   0  0  0  0  0  0  0  0  0  0  0  0
 21 22  1  0
 22 15  1  0
 15 16  2  0
 15 20  1  0
 16 17  1  0
 17 18  2  0
 18 19  1  0
 19  7  1  0
 19 20  2  0
  7  8  1  0
  7 14  1  0
  8  9  1  0
  9 10  1  0
 10 11  1  0
 10 13  1  0
 11 12  2  0
 11  1  1  0
  1  2  2  0
  1  6  1  0
  2  3  1  0
  3  4  2  0
  4  5  1  0
  5 23  1  0
  5  6  2  0
 23 24  1  0
 24 25  2  0
 24 26  1  0
 26 27  2  0
 26 33  1  0
 27 28  1  0
 28 29  2  0
 29 30  1  0
 29 31  1  0
 31 32  1  0
 31 33  2  0
 13 14  1  0
M  CHG  1  21   1
M  END
>  <minimizedAffinity>  (310) 
-9.19529

$$$$
cs_full_output_folder/data/smiles/5368.pdb
     RDKit          3D

 29 31  0  0  0  0  0  0  0  0999 V2000
   69.4972   48.3778   53.3422 C   0  0  0  0  0  0  0  0  0  0  0  0
   69.0185   47.9525   52.1237 C   0  0  0  0  0  0  0  0  0  0  0  0
   68.3446   46.7510   51.9738 C   0  0  0  0  0  0  0  0  0  0  0  0
   68.1410   45.9374   53.0964 C   0  0  0  0  0  0  0  0  0  0  0  0
   68.6124   46.3440   54.3254 C   0  0  0  0  0  0  0  0  0  0  0  0
   69.2758   47.5437   54.4286 C   0  0  0  0  0  0  0  0  0  0  0  0
   70.3435   49.8929   53.5034 S   0  0  0  0  0  0  0  0  0  0  0  0
   70.0336   50.6982   52.2371 O   0  0  0  0  0  0  0  0  0  0  0  0
   71.8067   49.5820   53.3858 O   0  0  0  0  0  0  0  0  0  0  0  0
   71.4686   49.6833   56.3425 C   0  0  0  0  0  0  0  0  0  0  0  0
   70.1990   50.4750   56.1218 C   0  0  1  0  0  0  0  0  0  0  0  0
   70.1254   51.6578   57.0990 C   0  0  0  0  0  0  0  0  0  0  0  0
   68.7461   52.2181   56.9937 C   0  0  0  0  0  0  0  0  0  0  0  0
   67.8733   51.5454   55.9996 C   0  0  0  0  0  0  0  0  0  0  0  0
   68.5072   51.1976   54.6998 C   0  0  0  0  0  0  0  0  0  0  0  0
   69.9090   50.8397   54.7997 N   0  0  0  0  0  0  0  0  0  0  0  0
   68.4300   45.5416   55.5225 C   0  0  0  0  0  0  0  0  0  0  0  0
   68.5642   46.0589   56.6724 O   0  0  0  0  0  0  0  0  0  0  0  0
   68.0993   44.1611   55.5346 N   0  0  0  0  0  0  0  0  0  0  0  0
   67.9306   43.4191   56.7072 N   0  0  0  0  0  0  0  0  0  0  0  0
   67.5204   42.0669   56.5735 C   0  0  0  0  0  0  0  0  0  0  0  0
   67.3244   41.5845   55.4311 O   0  0  0  0  0  0  0  0  0  0  0  0
   67.3059   41.1759   57.7437 C   0  0  0  0  0  0  0  0  0  0  0  0
   68.5271   40.4077   58.0780 C   0  0  0  0  0  0  0  0  0  0  0  0
   68.4548   39.0679   58.3868 C   0  0  0  0  0  0  0  0  0  0  0  0
   69.6110   38.3724   58.6964 C   0  0  0  0  0  0  0  0  0  0  0  0
   70.8419   38.9864   58.7046 C   0  0  0  0  0  0  0  0  0  0  0  0
   70.8857   40.3075   58.3968 N   0  0  0  0  0  0  0  0  0  0  0  0
   69.7690   40.9999   58.0930 C   0  0  0  0  0  0  0  0  0  0  0  0
 11 10  1  6
 11 12  1  0
 11 16  1  0
 12 13  1  0
 13 14  1  0
 14 15  1  0
 15 16  1  0
 16  7  1  0
  7  8  2  0
  7  9  2  0
  7  1  1  0
  1  2  2  0
  1  6  1  0
  2  3  1  0
  3  4  2  0
  4  5  1  0
  5 17  1  0
  5  6  2  0
 17 18  2  0
 17 19  1  0
 19 20  1  0
 20 21  1  0
 21 22  2  0
 21 23  1  0
 23 24  1  0
 24 25  2  0
 24 29  1  0
 25 26  1  0
 26 27  2  0
 27 28  1  0
 28 29  2  0
M  END
>  <minimizedAffinity>  (311) 
-9.19235

$$$$
cs_full_output_folder/data/smiles/5945.pdb
     RDKit          3D

 31 35  0  0  0  0  0  0  0  0999 V2000
   71.6654   47.1243   59.0491 C   0  0  0  0  0  0  0  0  0  0  0  0
   70.6455   47.7484   58.3633 C   0  0  0  0  0  0  0  0  0  0  0  0
   69.8358   47.0921   57.4799 C   0  0  0  0  0  0  0  0  0  0  0  0
   70.0453   45.7461   57.2633 C   0  0  0  0  0  0  0  0  0  0  0  0
   71.0563   45.0685   57.9250 C   0  0  0  0  0  0  0  0  0  0  0  0
   71.8486   45.7672   58.8063 C   0  0  0  0  0  0  0  0  0  0  0  0
   72.8351   45.1187   59.4540 F   0  0  0  0  0  0  0  0  0  0  0  0
   72.2448   47.8499   61.1878 O   0  0  0  0  0  0  0  0  0  0  0  0
   72.5598   47.8007   59.9870 C   0  0  0  0  0  0  0  0  0  0  0  0
   73.7815   48.3971   59.5374 N   0  0  0  0  0  0  0  0  0  0  0  0
   74.7358   49.0629   60.3796 C   0  0  0  0  0  0  0  0  0  0  0  0
   75.8780   49.4388   59.4688 C   0  0  0  0  0  0  0  0  0  0  0  0
   75.7420   48.4138   58.3652 C   0  0  1  0  0  0  0  0  0  0  0  0
   74.2404   48.4308   58.1460 C   0  0  0  0  0  0  0  0  0  0  0  0
   76.4707   48.7307   57.2032 N   0  0  0  0  0  0  0  0  0  0  0  0
   77.5896   49.5507   57.2538 C   0  0  0  0  0  0  0  0  0  0  0  0
   77.9978   50.4778   56.1926 C   0  0  0  0  0  0  0  0  0  0  0  0
   78.8613   49.3918   55.6037 C   0  0  0  0  0  0  0  0  0  0  0  0
   78.8722   48.7485   56.9897 C   0  0  0  0  0  0  0  0  0  0  0  0
   68.7426   47.7566   56.7325 C   0  0  0  0  0  0  0  0  0  0  0  0
   69.2790   48.0631   55.3741 C   0  0  0  0  0  0  0  0  0  0  0  0
   70.2073   49.0268   55.1765 N   0  0  0  0  0  0  0  0  0  0  0  0
   70.7059   49.3244   53.9968 N   0  0  0  0  0  0  0  0  0  0  0  0
   70.3191   48.6811   52.8954 C   0  0  0  0  0  0  0  0  0  0  0  0
   70.8109   48.9797   51.7548 O   0  0  0  0  0  0  0  0  0  0  0  0
   69.3805   47.6924   53.0167 C   0  0  0  0  0  0  0  0  0  0  0  0
   68.9734   47.0211   51.8785 C   0  0  0  0  0  0  0  0  0  0  0  0
   68.0293   46.0227   51.9789 C   0  0  0  0  0  0  0  0  0  0  0  0
   67.5135   45.7193   53.2234 C   0  0  0  0  0  0  0  0  0  0  0  0
   67.9058   46.3784   54.3795 C   0  0  0  0  0  0  0  0  0  0  0  0
   68.8430   47.3648   54.2597 C   0  0  0  0  0  0  0  0  0  0  0  0
  8  9  2  0
  9  1  1  0
  9 10  1  0
  1  2  2  0
  1  6  1  0
  2  3  1  0
  3 20  1  0
  3  4  2  0
 20 21  1  0
 21 22  2  0
 21 31  1  0
 22 23  1  0
 23 24  1  0
 24 25  2  0
 24 26  1  0
 26 27  1  0
 26 31  2  0
 27 28  2  0
 28 29  1  0
 29 30  2  0
 30 31  1  0
  4  5  1  0
  5  6  2  0
  6  7  1  0
 10 11  1  0
 10 14  1  0
 11 12  1  0
 12 13  1  0
 13 15  1  6
 13 14  1  0
 15 16  1  0
 16 17  1  0
 16 19  1  0
 17 18  1  0
 18 19  1  0
M  CHG  1  15   1
M  END
>  <minimizedAffinity>  (312) 
-9.19065

$$$$
cs_full_output_folder/data/smiles/4467.pdb
     RDKit          3D

 30 33  0  0  0  0  0  0  0  0999 V2000
   71.3086   46.7815   58.8666 C   0  0  0  0  0  0  0  0  0  0  0  0
   70.5198   47.6280   58.1167 C   0  0  0  0  0  0  0  0  0  0  0  0
   69.6770   47.2119   57.1224 C   0  0  0  0  0  0  0  0  0  0  0  0
   69.6216   45.8322   56.8568 C   0  0  0  0  0  0  0  0  0  0  0  0
   70.4033   44.9693   57.5956 C   0  0  0  0  0  0  0  0  0  0  0  0
   71.2397   45.4365   58.5916 C   0  0  0  0  0  0  0  0  0  0  0  0
   72.0189   44.5980   59.3319 F   0  0  0  0  0  0  0  0  0  0  0  0
   76.0166   49.8435   59.6183 C   0  0  0  0  0  0  0  0  0  0  0  0
   75.7596   48.4994   60.2327 C   0  0  1  0  0  0  0  0  0  0  0  0
   76.5526   48.4112   61.3869 F   0  0  0  0  0  0  0  0  0  0  0  0
   74.3313   48.3187   60.6748 C   0  0  0  0  0  0  0  0  0  0  0  0
   73.4843   47.8190   59.6354 N   0  0  0  0  0  0  0  0  0  0  0  0
   72.1951   47.3066   59.9289 C   0  0  0  0  0  0  0  0  0  0  0  0
   71.7521   47.2763   61.0982 O   0  0  0  0  0  0  0  0  0  0  0  0
   73.9793   47.8559   58.2758 C   0  0  0  0  0  0  0  0  0  0  0  0
   75.2605   47.0760   58.2179 C   0  0  0  0  0  0  0  0  0  0  0  0
   76.2384   47.4343   59.3070 C   0  0  1  0  0  0  0  0  0  0  0  0
   77.4184   47.8113   58.6719 F   0  0  0  0  0  0  0  0  0  0  0  0
   68.8016   48.1215   56.3093 C   0  0  0  0  0  0  0  0  0  0  0  0
   69.2525   48.2615   54.9093 C   0  0  0  0  0  0  0  0  0  0  0  0
   70.2240   49.1812   54.5949 N   0  0  0  0  0  0  0  0  0  0  0  0
   70.6935   49.3104   53.3738 N   0  0  0  0  0  0  0  0  0  0  0  0
   70.2720   48.5646   52.3413 C   0  0  0  0  0  0  0  0  0  0  0  0
   70.7270   48.6898   51.1666 O   0  0  0  0  0  0  0  0  0  0  0  0
   69.2994   47.6195   52.5724 C   0  0  0  0  0  0  0  0  0  0  0  0
   68.8604   46.8667   51.5072 C   0  0  0  0  0  0  0  0  0  0  0  0
   67.8752   45.9377   51.7572 C   0  0  0  0  0  0  0  0  0  0  0  0
   67.3590   45.7776   53.0209 C   0  0  0  0  0  0  0  0  0  0  0  0
   67.8238   46.5525   54.0727 C   0  0  0  0  0  0  0  0  0  0  0  0
   68.8072   47.4904   53.8681 C   0  0  0  0  0  0  0  0  0  0  0  0
  9  8  1  6
  9 10  1  0
  9 11  1  0
  9 17  1  0
 11 12  1  0
 12 13  1  0
 12 15  1  0
 13 14  2  0
 13  1  1  0
  1  2  2  0
  1  6  1  0
  2  3  1  0
  3 19  1  0
  3  4  2  0
 19 20  1  0
 20 21  2  0
 20 30  1  0
 21 22  1  0
 22 23  1  0
 23 24  2  0
 23 25  1  0
 25 26  1  0
 25 30  2  0
 26 27  2  0
 27 28  1  0
 28 29  2  0
 29 30  1  0
  4  5  1  0
  5  6  2  0
  6  7  1  0
 15 16  1  0
 16 17  1  0
 17 18  1  6
M  END
>  <minimizedAffinity>  (313) 
-9.18897

$$$$
cs_full_output_folder/data/smiles/2501.pdb
     RDKit          3D

 33 37  0  0  0  0  0  0  0  0999 V2000
   71.4431   47.4561   58.7164 C   0  0  0  0  0  0  0  0  0  0  0  0
   70.5222   48.1588   57.9489 C   0  0  0  0  0  0  0  0  0  0  0  0
   69.6326   47.5627   57.1243 C   0  0  0  0  0  0  0  0  0  0  0  0
   69.6523   46.1722   57.0557 C   0  0  0  0  0  0  0  0  0  0  0  0
   70.5419   45.4550   57.7954 C   0  0  0  0  0  0  0  0  0  0  0  0
   71.4327   46.0890   58.6219 C   0  0  0  0  0  0  0  0  0  0  0  0
   72.3046   45.3237   59.3448 F   0  0  0  0  0  0  0  0  0  0  0  0
   77.7744   48.2467   59.8882 N   0  0  0  0  0  0  0  0  0  0  0  0
   77.3235   48.0988   58.6129 C   0  0  0  0  0  0  0  0  0  0  0  0
   76.0172   48.5372   58.5929 C   0  0  0  0  0  0  0  0  0  0  0  0
   75.7004   48.9456   59.8713 C   0  0  0  0  0  0  0  0  0  0  0  0
   76.7768   48.7550   60.6114 N   0  0  0  0  0  0  0  0  0  0  0  0
   74.3399   49.4730   60.1544 C   0  0  0  0  0  0  0  0  0  0  0  0
   73.4692   48.8918   59.1739 N   0  0  0  0  0  0  0  0  0  0  0  0
   72.3938   48.0891   59.5914 C   0  0  0  0  0  0  0  0  0  0  0  0
   72.2394   47.8995   60.8470 O   0  0  0  0  0  0  0  0  0  0  0  0
   73.7459   49.1578   57.7927 C   0  0  0  0  0  0  0  0  0  0  0  0
   75.0858   48.5838   57.4508 C   0  0  0  0  0  0  0  0  0  0  0  0
   79.6304   46.7024   59.6133 C   0  0  0  0  0  0  0  0  0  0  0  0
   79.0995   47.9089   60.3696 C   0  0  0  0  0  0  0  0  0  0  0  0
   80.0220   49.0660   60.0237 C   0  0  0  0  0  0  0  0  0  0  0  0
   68.6481   48.2644   56.2797 C   0  0  0  0  0  0  0  0  0  0  0  0
   69.1587   48.3179   54.8905 C   0  0  0  0  0  0  0  0  0  0  0  0
   70.0740   49.2805   54.5740 N   0  0  0  0  0  0  0  0  0  0  0  0
   70.5481   49.4544   53.3569 N   0  0  0  0  0  0  0  0  0  0  0  0
   70.1398   48.6709   52.3551 C   0  0  0  0  0  0  0  0  0  0  0  0
   70.5984   48.8396   51.1745 O   0  0  0  0  0  0  0  0  0  0  0  0
   69.2246   47.6775   52.5815 C   0  0  0  0  0  0  0  0  0  0  0  0
   68.8171   46.8567   51.5416 C   0  0  0  0  0  0  0  0  0  0  0  0
   67.9154   45.8663   51.8229 C   0  0  0  0  0  0  0  0  0  0  0  0
   67.4229   45.6818   53.0879 C   0  0  0  0  0  0  0  0  0  0  0  0
   67.8259   46.4984   54.1253 C   0  0  0  0  0  0  0  0  0  0  0  0
   68.7301   47.5057   53.8824 C   0  0  0  0  0  0  0  0  0  0  0  0
 19 20  1  0
 20 21  1  0
 20  8  1  0
  8  9  1  0
  8 12  1  0
  9 10  2  0
 10 11  1  0
 10 18  1  0
 11 12  2  0
 11 13  1  0
 13 14  1  0
 14 15  1  0
 14 17  1  0
 15 16  2  0
 15  1  1  0
  1  2  2  0
  1  6  1  0
  2  3  1  0
  3 22  1  0
  3  4  2  0
 22 23  1  0
 23 24  2  0
 23 33  1  0
 24 25  1  0
 25 26  1  0
 26 27  2  0
 26 28  1  0
 28 29  1  0
 28 33  2  0
 29 30  2  0
 30 31  1  0
 31 32  2  0
 32 33  1  0
  4  5  1  0
  5  6  2  0
  6  7  1  0
 17 18  1  0
M  END
>  <minimizedAffinity>  (314) 
-9.18783

$$$$
cs_full_output_folder/data/smiles/5835.pdb
     RDKit          3D

 24 26  0  0  0  0  0  0  0  0999 V2000
   68.4725   43.7881   56.1596 N   0  0  0  0  0  0  0  0  0  0  0  0
   68.2819   42.5502   56.4522 C   0  0  0  0  0  0  0  0  0  0  0  0
   67.1758   41.7599   55.9277 C   0  0  0  0  0  0  0  0  0  0  0  0
   66.2741   42.1565   55.1396 O   0  0  0  0  0  0  0  0  0  0  0  0
   67.3458   40.4568   56.5045 N   0  0  0  0  0  0  0  0  0  0  0  0
   68.4935   40.4281   57.3435 C   0  0  0  0  0  0  0  0  0  0  0  0
   69.0516   39.4150   58.0985 C   0  0  0  0  0  0  0  0  0  0  0  0
   70.2030   39.6419   58.8507 C   0  0  0  0  0  0  0  0  0  0  0  0
   70.7930   40.8983   58.8405 C   0  0  0  0  0  0  0  0  0  0  0  0
   70.2097   41.8801   58.0776 C   0  0  0  0  0  0  0  0  0  0  0  0
   69.0725   41.6808   57.3260 C   0  0  0  0  0  0  0  0  0  0  0  0
   70.8174   38.5708   59.6673 C   0  0  0  0  0  0  0  0  0  0  0  0
   71.5774   37.2258   58.5183 Br  0  0  0  0  0  0  0  0  0  0  0  0
   67.6555   44.5281   55.3133 N   0  0  0  0  0  0  0  0  0  0  0  0
   69.2672   47.9487   53.4797 C   0  0  0  0  0  0  0  0  0  0  0  0
   68.6881   46.9839   52.7189 C   0  0  0  0  0  0  0  0  0  0  0  0
   68.1528   45.8489   53.3267 C   0  0  0  0  0  0  0  0  0  0  0  0
   68.1910   45.6664   54.6887 C   0  0  0  0  0  0  0  0  0  0  0  0
   68.7819   46.6544   55.4437 C   0  0  0  0  0  0  0  0  0  0  0  0
   69.3232   47.7992   54.8471 C   0  0  0  0  0  0  0  0  0  0  0  0
   69.8631   49.4358   51.1097 N   0  0  0  0  0  0  0  0  0  0  0  0
   69.9680   49.4093   52.8141 S   0  0  0  0  0  0  0  0  0  0  0  0
   71.4148   49.4728   53.2092 O   0  0  0  0  0  0  0  0  0  0  0  0
   69.3011   50.6259   53.3861 O   0  0  0  0  0  0  0  0  0  0  0  0
 21 22  1  0
 22 23  2  0
 22 24  2  0
 22 15  1  0
 15 16  2  0
 15 20  1  0
 16 17  1  0
 17 18  2  0
 18 14  1  0
 18 19  1  0
 14  1  1  0
  1  2  2  0
  2  3  1  0
  2 11  1  0
  3  4  2  0
  3  5  1  0
  5  6  1  0
  6  7  1  0
  6 11  2  0
  7  8  2  0
  8 12  1  0
  8  9  1  0
 12 13  1  0
  9 10  2  0
 10 11  1  0
 19 20  2  0
M  END
>  <minimizedAffinity>  (315) 
-9.18431

$$$$
cs_full_output_folder/data/smiles/8570.pdb
     RDKit          3D

 31 34  0  0  0  0  0  0  0  0999 V2000
   70.6188   45.7693   58.1382 C   0  0  0  0  0  0  0  0  0  0  0  0
   69.7861   46.5601   57.3478 C   0  0  0  0  0  0  0  0  0  0  0  0
   70.0082   47.8840   57.0901 C   0  0  0  0  0  0  0  0  0  0  0  0
   71.1041   48.4874   57.6311 C   0  0  0  0  0  0  0  0  0  0  0  0
   71.9616   47.7344   58.4280 C   0  0  0  0  0  0  0  0  0  0  0  0
   71.7102   46.3887   58.6720 C   0  0  0  0  0  0  0  0  0  0  0  0
   72.5413   45.6794   59.4409 F   0  0  0  0  0  0  0  0  0  0  0  0
   69.6722   41.5031   58.2815 N   0  0  0  0  0  0  0  0  0  0  0  0
   71.0566   41.5453   58.0461 C   0  0  0  0  0  0  0  0  0  0  0  0
   71.6055   42.9489   58.3810 C   0  0  0  0  0  0  0  0  0  0  0  0
   70.1994   44.0623   58.3277 P   0  0  0  0  0  0  0  0  0  0  0  0
   69.2663   43.8467   59.7208 O   0  0  0  0  0  0  0  0  0  0  0  0
   69.1622   43.5029   56.9155 C   0  0  0  0  0  0  0  0  0  0  0  0
   68.9807   42.0360   57.0907 C   0  0  0  0  0  0  0  0  0  0  0  0
   69.0214   40.2971   58.5888 C   0  0  0  0  0  0  0  0  0  0  0  0
   67.6677   38.7175   59.7990 C   0  0  0  0  0  0  0  0  0  0  0  0
   68.1734   40.1859   59.7902 C   0  0  0  0  0  0  0  0  0  0  0  0
   66.9780   41.0722   59.8320 C   0  0  0  0  0  0  0  0  0  0  0  0
   68.9769   40.3000   61.0862 C   0  0  0  0  0  0  0  0  0  0  0  0
   69.0100   48.6225   56.2385 C   0  0  0  0  0  0  0  0  0  0  0  0
   69.4086   48.5754   54.8219 C   0  0  0  0  0  0  0  0  0  0  0  0
   70.3082   49.4890   54.3398 N   0  0  0  0  0  0  0  0  0  0  0  0
   70.6874   49.5286   53.0932 N   0  0  0  0  0  0  0  0  0  0  0  0
   70.1976   48.6492   52.1988 C   0  0  0  0  0  0  0  0  0  0  0  0
   70.5715   48.6941   50.9869 O   0  0  0  0  0  0  0  0  0  0  0  0
   69.2802   47.6814   52.5898 C   0  0  0  0  0  0  0  0  0  0  0  0
   68.7739   46.7763   51.6995 C   0  0  0  0  0  0  0  0  0  0  0  0
   67.8732   45.8296   52.1117 C   0  0  0  0  0  0  0  0  0  0  0  0
   67.4769   45.7835   53.4120 C   0  0  0  0  0  0  0  0  0  0  0  0
   68.0020   46.7116   54.2973 C   0  0  0  0  0  0  0  0  0  0  0  0
   68.9079   47.6780   53.9226 C   0  0  0  0  0  0  0  0  0  0  0  0
 16 17  1  0
 17 18  1  0
 17 19  1  0
 17 15  1  0
 15  8  1  0
  8  9  1  0
  8 14  1  0
  9 10  1  0
 10 11  1  0
 11 12  1  0
 11  1  1  0
 11 13  1  0
  1  2  2  0
  1  6  1  0
  2  3  1  0
  3 20  1  0
  3  4  2  0
 20 21  1  0
 21 22  2  0
 21 31  1  0
 22 23  1  0
 23 24  1  0
 24 25  2  0
 24 26  1  0
 26 27  1  0
 26 31  2  0
 27 28  2  0
 28 29  1  0
 29 30  2  0
 30 31  1  0
  4  5  1  0
  5  6  2  0
  6  7  1  0
 13 14  1  0
M  CHG  2   8   1  11   1
M  END
>  <minimizedAffinity>  (316) 
-9.18428

$$$$
cs_full_output_folder/data/smiles/7618.pdb
     RDKit          3D

 32 36  0  0  0  0  0  0  0  0999 V2000
   71.2863   46.4951   58.8511 C   0  0  0  0  0  0  0  0  0  0  0  0
   70.6314   47.4597   58.0729 C   0  0  0  0  0  0  0  0  0  0  0  0
   69.7638   47.1602   57.0618 C   0  0  0  0  0  0  0  0  0  0  0  0
   69.5331   45.8190   56.8074 C   0  0  0  0  0  0  0  0  0  0  0  0
   70.1427   44.8270   57.5326 C   0  0  0  0  0  0  0  0  0  0  0  0
   71.0094   45.1840   58.5430 C   0  0  0  0  0  0  0  0  0  0  0  0
   71.6106   44.2032   59.2590 F   0  0  0  0  0  0  0  0  0  0  0  0
   75.4564   43.9429   60.1934 N   0  0  1  0  0  0  0  0  0  0  0  0
   75.8616   45.0032   61.0790 C   0  0  0  0  0  0  0  0  0  0  0  0
   75.8144   46.2839   60.2861 C   0  0  2  0  0  0  0  0  0  0  0  0
   74.6317   47.1455   60.6737 C   0  0  0  0  0  0  0  0  0  0  0  0
   73.5919   46.8015   59.7159 N   0  0  0  0  0  0  0  0  0  0  0  0
   72.1989   46.8796   59.9159 C   0  0  0  0  0  0  0  0  0  0  0  0
   71.7704   47.2859   61.0246 O   0  0  0  0  0  0  0  0  0  0  0  0
   74.2078   46.3441   58.4811 C   0  0  0  0  0  0  0  0  0  0  0  0
   75.6008   45.8894   58.8558 C   0  0  2  0  0  0  0  0  0  0  0  0
   75.7227   44.3845   58.8463 C   0  0  0  0  0  0  0  0  0  0  0  0
   77.0134   42.1351   59.5726 C   0  0  0  0  0  0  0  0  0  0  0  0
   75.9792   42.6551   60.5180 C   0  0  2  0  0  0  0  0  0  0  0  0
   74.9288   41.7676   60.6610 F   0  0  0  0  0  0  0  0  0  0  0  0
   69.0933   48.2128   56.2431 C   0  0  0  0  0  0  0  0  0  0  0  0
   69.4875   48.2410   54.8369 C   0  0  0  0  0  0  0  0  0  0  0  0
   70.4755   49.1105   54.4536 N   0  0  0  0  0  0  0  0  0  0  0  0
   70.8552   49.2315   53.1978 N   0  0  0  0  0  0  0  0  0  0  0  0
   70.3157   48.5234   52.1971 C   0  0  0  0  0  0  0  0  0  0  0  0
   70.7075   48.6664   50.9895 O   0  0  0  0  0  0  0  0  0  0  0  0
   69.3150   47.6267   52.5089 C   0  0  0  0  0  0  0  0  0  0  0  0
   68.7449   46.8728   51.5235 C   0  0  0  0  0  0  0  0  0  0  0  0
   67.7579   45.9673   51.8367 C   0  0  0  0  0  0  0  0  0  0  0  0
   67.3494   45.8250   53.1441 C   0  0  0  0  0  0  0  0  0  0  0  0
   67.9181   46.5814   54.1443 C   0  0  0  0  0  0  0  0  0  0  0  0
   68.9118   47.4975   53.8413 C   0  0  0  0  0  0  0  0  0  0  0  0
 19 18  1  6
 19 20  1  0
 19  8  1  0
  8  9  1  1
  8 17  1  0
 10  9  1  1
 10 11  1  0
 10 16  1  0
 11 12  1  0
 12 13  1  0
 12 15  1  0
 13 14  2  0
 13  1  1  0
  1  2  2  0
  1  6  1  0
  2  3  1  0
  3 21  1  0
  3  4  2  0
 21 22  1  0
 22 23  2  0
 22 32  1  0
 23 24  1  0
 24 25  1  0
 25 26  2  0
 25 27  1  0
 27 28  1  0
 27 32  2  0
 28 29  2  0
 29 30  1  0
 30 31  2  0
 31 32  1  0
  4  5  1  0
  5  6  2  0
  6  7  1  0
 16 15  1  1
 16 17  1  0
M  CHG  1   8   1
M  END
>  <minimizedAffinity>  (317) 
-9.18405

$$$$
cs_full_output_folder/data/smiles/5348.pdb
     RDKit          3D

 29 32  0  0  0  0  0  0  0  0999 V2000
   71.2636   46.6707   58.8349 C   0  0  0  0  0  0  0  0  0  0  0  0
   70.4802   47.5167   58.0595 C   0  0  0  0  0  0  0  0  0  0  0  0
   69.6304   47.1087   57.0724 C   0  0  0  0  0  0  0  0  0  0  0  0
   69.5800   45.7194   56.8647 C   0  0  0  0  0  0  0  0  0  0  0  0
   70.3289   44.8289   57.5973 C   0  0  0  0  0  0  0  0  0  0  0  0
   71.1718   45.3199   58.5850 C   0  0  0  0  0  0  0  0  0  0  0  0
   72.1575   44.1882   59.5527 S   0  0  0  0  0  0  0  0  0  0  0  0
   73.8421   50.3072   59.6649 C   0  0  0  0  0  0  0  0  0  0  0  0
   74.9939   49.3725   59.9654 C   0  0  2  0  0  0  0  0  0  0  0  0
   75.8710   49.9537   60.8659 F   0  0  0  0  0  0  0  0  0  0  0  0
   75.7545   49.0939   58.7055 C   0  0  0  0  0  0  0  0  0  0  0  0
   75.4098   47.7616   58.0947 C   0  0  0  0  0  0  0  0  0  0  0  0
   73.9507   47.4544   58.1654 C   0  0  0  0  0  0  0  0  0  0  0  0
   73.4771   47.5742   59.5492 N   0  0  0  0  0  0  0  0  0  0  0  0
   72.1487   47.1855   59.8714 C   0  0  0  0  0  0  0  0  0  0  0  0
   71.7703   47.2985   61.0609 O   0  0  0  0  0  0  0  0  0  0  0  0
   74.4089   48.0870   60.5085 C   0  0  0  0  0  0  0  0  0  0  0  0
   68.7923   47.9834   56.2197 C   0  0  0  0  0  0  0  0  0  0  0  0
   69.2694   48.1178   54.8280 C   0  0  0  0  0  0  0  0  0  0  0  0
   70.2386   49.0415   54.5267 N   0  0  0  0  0  0  0  0  0  0  0  0
   70.6798   49.2444   53.3055 N   0  0  0  0  0  0  0  0  0  0  0  0
   70.2064   48.5547   52.2573 C   0  0  0  0  0  0  0  0  0  0  0  0
   70.6429   48.7677   51.1051 O   0  0  0  0  0  0  0  0  0  0  0  0
   69.2225   47.5949   52.4549 C   0  0  0  0  0  0  0  0  0  0  0  0
   68.7255   46.8595   51.3942 C   0  0  0  0  0  0  0  0  0  0  0  0
   67.7573   45.8973   51.6006 C   0  0  0  0  0  0  0  0  0  0  0  0
   67.3314   45.7210   52.8995 C   0  0  0  0  0  0  0  0  0  0  0  0
   67.8068   46.4364   53.9697 C   0  0  0  0  0  0  0  0  0  0  0  0
   68.7777   47.4025   53.7577 C   0  0  0  0  0  0  0  0  0  0  0  0
  9  8  1  6
  9 10  1  0
  9 11  1  0
  9 17  1  0
 11 12  1  0
 12 13  1  0
 13 14  1  0
 14 15  1  0
 14 17  1  0
 15 16  2  0
 15  1  1  0
  1  2  2  0
  1  6  1  0
  2  3  1  0
  3 18  1  0
  3  4  2  0
 18 19  1  0
 19 20  2  0
 19 29  1  0
 20 21  1  0
 21 22  1  0
 22 23  2  0
 22 24  1  0
 24 25  1  0
 24 29  2  0
 25 26  2  0
 26 27  1  0
 27 28  2  0
 28 29  1  0
  4  5  1  0
  5  6  2  0
  6  7  1  0
M  END
>  <minimizedAffinity>  (318) 
-9.18351

$$$$
cs_full_output_folder/data/smiles/2903.pdb
     RDKit          3D

 26 28  0  0  0  0  0  0  0  0999 V2000
   69.1146   40.3762   57.7498 N   0  0  0  0  0  0  0  0  0  0  0  0
   68.1219   40.4957   56.8885 N   0  0  0  0  0  0  0  0  0  0  0  0
   68.0201   41.7791   56.4409 C   0  0  0  0  0  0  0  0  0  0  0  0
   69.0019   42.5237   57.0425 C   0  0  0  0  0  0  0  0  0  0  0  0
   69.6702   41.6069   57.8583 C   0  0  0  0  0  0  0  0  0  0  0  0
   70.8195   41.9126   58.7279 C   0  0  0  0  0  0  0  0  0  0  0  0
   69.3238   36.6089   60.8806 C   0  0  0  0  0  0  0  0  0  0  0  0
   69.6538   37.4563   59.9326 C   0  0  0  0  0  0  0  0  0  0  0  0
   70.8874   37.4417   59.1553 C   0  0  0  0  0  0  0  0  0  0  0  0
   70.8015   38.4609   58.3280 C   0  0  0  0  0  0  0  0  0  0  0  0
   69.5605   39.2071   58.4762 C   0  0  0  0  0  0  0  0  0  0  0  0
   68.8954   38.5949   59.4319 C   0  0  0  0  0  0  0  0  0  0  0  0
   67.1722   39.1124   60.0957 Br  0  0  0  0  0  0  0  0  0  0  0  0
   69.3222   43.9422   56.9363 C   0  0  0  0  0  0  0  0  0  0  0  0
   70.3362   44.3928   57.4812 O   0  0  0  0  0  0  0  0  0  0  0  0
   68.4687   44.8086   56.2036 N   0  0  0  0  0  0  0  0  0  0  0  0
   68.6277   46.2129   55.9931 C   0  0  0  0  0  0  0  0  0  0  0  0
   68.5726   46.4800   54.4969 C   0  0  0  0  0  0  0  0  0  0  0  0
   67.8497   45.6868   53.6514 C   0  0  0  0  0  0  0  0  0  0  0  0
   67.8343   45.8645   52.2647 C   0  0  0  0  0  0  0  0  0  0  0  0
   68.5987   46.8998   51.7752 C   0  0  0  0  0  0  0  0  0  0  0  0
   69.3333   47.7146   52.5820 C   0  0  0  0  0  0  0  0  0  0  0  0
   69.3264   47.5079   53.9688 C   0  0  0  0  0  0  0  0  0  0  0  0
   70.1663   48.8097   52.0405 C   0  0  0  0  0  0  0  0  0  0  0  0
   69.6624   49.6832   51.0505 N   0  0  0  0  0  0  0  0  0  0  0  0
   71.3323   48.9668   52.4615 O   0  0  0  0  0  0  0  0  0  0  0  0
  7  8  2  0
  8  9  1  0
  8 12  1  0
  9 10  2  0
 10 11  1  0
 11  1  1  0
 11 12  2  0
  1  2  1  0
  1  5  1  0
  2  3  2  0
  3  4  1  0
  4 14  1  0
  4  5  2  0
 14 15  2  0
 14 16  1  0
 16 17  1  0
 17 18  1  0
 18 19  2  0
 18 23  1  0
 19 20  1  0
 20 21  2  0
 21 22  1  0
 22 24  1  0
 22 23  2  0
 24 25  1  0
 24 26  2  0
  5  6  1  0
 12 13  1  0
M  END
>  <minimizedAffinity>  (319) 
-9.18226

$$$$
cs_full_output_folder/data/smiles/6714.pdb
     RDKit          3D

 33 38  0  0  0  0  0  0  0  0999 V2000
   70.7818   46.3123   58.3530 C   0  0  0  0  0  0  0  0  0  0  0  0
   69.8404   46.8501   57.4674 C   0  0  0  0  0  0  0  0  0  0  0  0
   69.8523   48.1633   57.0849 C   0  0  0  0  0  0  0  0  0  0  0  0
   70.8603   48.9729   57.6209 C   0  0  0  0  0  0  0  0  0  0  0  0
   71.7992   48.4821   58.4910 C   0  0  0  0  0  0  0  0  0  0  0  0
   71.7576   47.1513   58.8550 C   0  0  0  0  0  0  0  0  0  0  0  0
   72.7167   46.7133   59.7240 F   0  0  0  0  0  0  0  0  0  0  0  0
   69.3055   39.5595   57.8708 O   0  0  0  0  0  0  0  0  0  0  0  0
   69.6018   40.1490   58.9675 C   0  0  0  0  0  0  0  0  0  0  0  0
   70.6412   41.1018   59.0050 N   0  0  0  0  0  0  0  0  0  0  0  0
   71.4708   41.5588   57.8481 C   0  0  0  0  0  0  0  0  0  0  0  0
   71.9930   42.6146   58.7200 C   0  0  0  0  0  0  0  0  0  0  0  0
   73.4629   42.8697   58.7481 C   0  0  0  0  0  0  0  0  0  0  0  0
   73.0669   44.0601   57.8614 C   0  0  0  0  0  0  0  0  0  0  0  0
   71.7589   43.9786   58.4839 N   0  0  0  0  0  0  0  0  0  0  0  0
   70.7266   44.9226   58.7239 C   0  0  0  0  0  0  0  0  0  0  0  0
   69.6651   44.5188   59.3121 O   0  0  0  0  0  0  0  0  0  0  0  0
   71.3742   41.9651   59.9131 C   0  0  0  0  0  0  0  0  0  0  0  0
   68.7983   39.7603   60.1347 C   0  0  0  0  0  0  0  0  0  0  0  0
   69.2494   38.4973   60.8315 C   0  0  0  0  0  0  0  0  0  0  0  0
   67.9572   38.5303   60.0927 C   0  0  0  0  0  0  0  0  0  0  0  0
   68.9179   48.8228   56.1483 C   0  0  0  0  0  0  0  0  0  0  0  0
   69.3280   48.7311   54.7359 C   0  0  0  0  0  0  0  0  0  0  0  0
   70.2377   49.6093   54.2161 N   0  0  0  0  0  0  0  0  0  0  0  0
   70.6613   49.5160   52.9763 N   0  0  0  0  0  0  0  0  0  0  0  0
   70.2419   48.5666   52.1288 C   0  0  0  0  0  0  0  0  0  0  0  0
   70.6619   48.4924   50.9379 O   0  0  0  0  0  0  0  0  0  0  0  0
   69.3170   47.6392   52.5819 C   0  0  0  0  0  0  0  0  0  0  0  0
   68.8465   46.6547   51.7358 C   0  0  0  0  0  0  0  0  0  0  0  0
   67.9175   45.7430   52.1715 C   0  0  0  0  0  0  0  0  0  0  0  0
   67.4583   45.8289   53.4782 C   0  0  0  0  0  0  0  0  0  0  0  0
   67.9382   46.8178   54.3106 C   0  0  0  0  0  0  0  0  0  0  0  0
   68.8656   47.7428   53.9111 C   0  0  0  0  0  0  0  0  0  0  0  0
  8  9  2  0
  9 19  1  0
  9 10  1  0
 19 20  1  0
 19 21  1  0
 20 21  1  0
 10 11  1  0
 10 18  1  0
 11 12  1  0
 12 13  1  0
 12 15  1  0
 12 18  1  0
 13 14  1  0
 14 15  1  0
 15 16  1  0
 16 17  2  0
 16  1  1  0
  1  2  2  0
  1  6  1  0
  2  3  1  0
  3 22  1  0
  3  4  2  0
 22 23  1  0
 23 24  2  0
 23 33  1  0
 24 25  1  0
 25 26  1  0
 26 27  2  0
 26 28  1  0
 28 29  1  0
 28 33  2  0
 29 30  2  0
 30 31  1  0
 31 32  2  0
 32 33  1  0
  4  5  1  0
  5  6  2  0
  6  7  1  0
M  END
>  <minimizedAffinity>  (320) 
-9.18103

$$$$
cs_full_output_folder/data/smiles/1123.pdb
     RDKit          3D

 33 37  0  0  0  0  0  0  0  0999 V2000
   72.2685   44.5912   59.3788 C   0  0  0  0  0  0  0  0  0  0  0  0
   71.3561   45.4605   58.6188 C   0  0  0  0  0  0  0  0  0  0  0  0
   70.5324   44.9505   57.6376 C   0  0  0  0  0  0  0  0  0  0  0  0
   69.6798   45.7417   56.9227 C   0  0  0  0  0  0  0  0  0  0  0  0
   69.6256   47.0943   57.1742 C   0  0  0  0  0  0  0  0  0  0  0  0
   70.4514   47.5943   58.1546 C   0  0  0  0  0  0  0  0  0  0  0  0
   71.3294   46.8319   58.9022 C   0  0  0  0  0  0  0  0  0  0  0  0
   72.1972   47.3816   59.9362 C   0  0  0  0  0  0  0  0  0  0  0  0
   71.7557   47.2513   61.1305 O   0  0  0  0  0  0  0  0  0  0  0  0
   73.4346   48.0197   59.7088 N   0  0  0  0  0  0  0  0  0  0  0  0
   74.1398   48.5175   60.8669 C   0  0  0  0  0  0  0  0  0  0  0  0
   75.4551   49.1619   60.4987 C   0  0  0  0  0  0  0  0  0  0  0  0
   76.4999   48.1239   60.1595 C   0  0  0  0  0  0  0  0  0  0  0  0
   75.8602   47.1005   59.3410 N   0  0  0  0  0  0  0  0  0  0  0  0
   75.1496   47.3348   58.1044 C   0  0  0  0  0  0  0  0  0  0  0  0
   73.8578   48.0852   58.3473 C   0  0  0  0  0  0  0  0  0  0  0  0
   75.9608   45.7731   59.8250 C   0  0  0  0  0  0  0  0  0  0  0  0
   75.4084   45.4633   60.9613 N   0  0  0  0  0  0  0  0  0  0  0  0
   76.6821   44.7288   59.0672 C   0  0  0  0  0  0  0  0  0  0  0  0
   76.8643   43.3572   59.6491 C   0  0  0  0  0  0  0  0  0  0  0  0
   75.8146   43.5722   58.5738 C   0  0  0  0  0  0  0  0  0  0  0  0
   68.7046   47.9634   56.3621 C   0  0  0  0  0  0  0  0  0  0  0  0
   69.1313   48.1338   54.9713 C   0  0  0  0  0  0  0  0  0  0  0  0
   70.0518   49.1124   54.6940 N   0  0  0  0  0  0  0  0  0  0  0  0
   70.5159   49.3289   53.4832 N   0  0  0  0  0  0  0  0  0  0  0  0
   70.1315   48.6164   52.4188 C   0  0  0  0  0  0  0  0  0  0  0  0
   70.5923   48.8387   51.2482 O   0  0  0  0  0  0  0  0  0  0  0  0
   69.2079   47.6122   52.6086 C   0  0  0  0  0  0  0  0  0  0  0  0
   68.8001   46.8747   51.5167 C   0  0  0  0  0  0  0  0  0  0  0  0
   67.8713   45.8838   51.7380 C   0  0  0  0  0  0  0  0  0  0  0  0
   67.3753   45.6499   53.0136 C   0  0  0  0  0  0  0  0  0  0  0  0
   67.8010   46.4038   54.0919 C   0  0  0  0  0  0  0  0  0  0  0  0
   68.7194   47.3883   53.8970 C   0  0  0  0  0  0  0  0  0  0  0  0
  1  2  1  0
  2  3  2  0
  2  7  1  0
  3  4  1  0
  4  5  2  0
  5 22  1  0
  5  6  1  0
 22 23  1  0
 23 24  2  0
 23 33  1  0
 24 25  1  0
 25 26  1  0
 26 27  2  0
 26 28  1  0
 28 29  1  0
 28 33  2  0
 29 30  2  0
 30 31  1  0
 31 32  2  0
 32 33  1  0
  6  7  2  0
  7  8  1  0
  8  9  2  0
  8 10  1  0
 10 11  1  0
 10 16  1  0
 11 12  1  0
 12 13  1  0
 13 14  1  0
 14 17  1  0
 14 15  1  0
 17 18  2  0
 17 19  1  0
 19 20  1  0
 19 21  1  0
 20 21  1  0
 15 16  1  0
M  CHG  1  18   1
M  END
>  <minimizedAffinity>  (321) 
-9.18056

$$$$
cs_full_output_folder/data/smiles/6686.pdb
     RDKit          3D

 31 35  0  0  0  0  0  0  0  0999 V2000
   71.8160   47.7972   58.7837 C   0  0  0  0  0  0  0  0  0  0  0  0
   70.5974   47.9853   58.1939 C   0  0  0  0  0  0  0  0  0  0  0  0
   70.4603   48.8953   57.1397 C   0  0  0  0  0  0  0  0  0  0  0  0
   71.5609   49.5704   56.7306 C   0  0  0  0  0  0  0  0  0  0  0  0
   72.7909   49.3756   57.3311 C   0  0  0  0  0  0  0  0  0  0  0  0
   72.9512   48.4917   58.3642 C   0  0  0  0  0  0  0  0  0  0  0  0
   74.1331   48.2758   58.9744 F   0  0  0  0  0  0  0  0  0  0  0  0
   71.8479   47.2433   61.0652 O   0  0  0  0  0  0  0  0  0  0  0  0
   71.9360   46.8386   59.8869 C   0  0  0  0  0  0  0  0  0  0  0  0
   72.1506   45.4591   59.6456 N   0  0  0  0  0  0  0  0  0  0  0  0
   72.2715   44.8583   58.3308 C   0  0  0  0  0  0  0  0  0  0  0  0
   73.2096   43.7065   58.6032 C   0  0  2  0  0  0  0  0  0  0  0  0
   73.0314   42.5702   57.6527 C   0  0  0  0  0  0  0  0  0  0  0  0
   71.7421   41.9073   58.0679 C   0  0  0  0  0  0  0  0  0  0  0  0
   70.7146   42.2222   57.2090 F   0  0  0  0  0  0  0  0  0  0  0  0
   71.9307   40.5412   57.9890 F   0  0  0  0  0  0  0  0  0  0  0  0
   71.4778   42.3640   59.4840 C   0  0  0  0  0  0  0  0  0  0  0  0
   72.6824   43.1721   59.9137 C   0  0  2  0  0  0  0  0  0  0  0  0
   72.2865   44.4157   60.6427 C   0  0  0  0  0  0  0  0  0  0  0  0
   69.0899   49.0035   56.5555 C   0  0  0  0  0  0  0  0  0  0  0  0
   68.7861   47.8884   55.6279 C   0  0  0  0  0  0  0  0  0  0  0  0
   68.1707   46.7844   56.1083 N   0  0  0  0  0  0  0  0  0  0  0  0
   67.8313   45.7776   55.3429 N   0  0  0  0  0  0  0  0  0  0  0  0
   68.0894   45.8100   54.0309 C   0  0  0  0  0  0  0  0  0  0  0  0
   67.7595   44.8413   53.3021 O   0  0  0  0  0  0  0  0  0  0  0  0
   68.7068   46.8852   53.4701 C   0  0  0  0  0  0  0  0  0  0  0  0
   69.0026   46.9556   52.1322 C   0  0  0  0  0  0  0  0  0  0  0  0
   69.6312   48.0184   51.5572 C   0  0  0  0  0  0  0  0  0  0  0  0
   69.9866   49.0705   52.3729 C   0  0  0  0  0  0  0  0  0  0  0  0
   69.6981   49.0223   53.7292 C   0  0  0  0  0  0  0  0  0  0  0  0
   69.0633   47.9491   54.2957 C   0  0  0  0  0  0  0  0  0  0  0  0
  8  9  2  0
  9  1  1  0
  9 10  1  0
  1  2  2  0
  1  6  1  0
  2  3  1  0
  3 20  1  0
  3  4  2  0
 20 21  1  0
 21 22  2  0
 21 31  1  0
 22 23  1  0
 23 24  1  0
 24 25  2  0
 24 26  1  0
 26 27  1  0
 26 31  2  0
 27 28  2  0
 28 29  1  0
 29 30  2  0
 30 31  1  0
  4  5  1  0
  5  6  2  0
  6  7  1  0
 10 11  1  0
 10 19  1  0
 12 11  1  6
 12 13  1  0
 12 18  1  0
 13 14  1  0
 14 15  1  0
 14 16  1  0
 14 17  1  0
 18 17  1  6
 18 19  1  0
M  END
>  <minimizedAffinity>  (322) 
-9.17885

$$$$
cs_full_output_folder/data/smiles/8741.pdb
     RDKit          3D

 31 35  0  0  0  0  0  0  0  0999 V2000
   71.5493   46.6254   58.8636 C   0  0  0  0  0  0  0  0  0  0  0  0
   70.6477   47.4336   58.1764 C   0  0  0  0  0  0  0  0  0  0  0  0
   69.7117   46.9624   57.2928 C   0  0  0  0  0  0  0  0  0  0  0  0
   69.6642   45.5766   57.0707 C   0  0  0  0  0  0  0  0  0  0  0  0
   70.5476   44.7619   57.7405 C   0  0  0  0  0  0  0  0  0  0  0  0
   71.4830   45.2719   58.6291 C   0  0  0  0  0  0  0  0  0  0  0  0
   72.3516   44.4633   59.2877 F   0  0  0  0  0  0  0  0  0  0  0  0
   72.0856   47.5430   60.9340 O   0  0  0  0  0  0  0  0  0  0  0  0
   72.5135   47.2313   59.7884 C   0  0  0  0  0  0  0  0  0  0  0  0
   73.8682   47.4656   59.4314 N   0  0  0  0  0  0  0  0  0  0  0  0
   74.6842   47.2513   58.2591 C   0  0  0  0  0  0  0  0  0  0  0  0
   75.7100   48.2001   58.8150 C   0  0  0  0  0  0  0  0  0  0  0  0
   75.0092   48.0191   60.1021 C   0  0  0  0  0  0  0  0  0  0  0  0
   75.6728   49.4834   58.1824 N   0  0  0  0  0  0  0  0  0  0  0  0
   76.4588   50.4810   58.8769 C   0  0  0  0  0  0  0  0  0  0  0  0
   77.9153   50.1793   58.7914 C   0  0  0  0  0  0  0  0  0  0  0  0
   78.3304   50.2948   57.3245 C   0  0  0  0  0  0  0  0  0  0  0  0
   77.4924   49.3264   56.5429 C   0  0  0  0  0  0  0  0  0  0  0  0
   76.0151   49.5037   56.7989 C   0  0  0  0  0  0  0  0  0  0  0  0
   68.7426   47.8226   56.5740 C   0  0  0  0  0  0  0  0  0  0  0  0
   69.1820   48.0278   55.1955 C   0  0  0  0  0  0  0  0  0  0  0  0
   70.1437   48.9807   54.9900 N   0  0  0  0  0  0  0  0  0  0  0  0
   70.6749   49.2680   53.8405 N   0  0  0  0  0  0  0  0  0  0  0  0
   70.3028   48.6215   52.7165 C   0  0  0  0  0  0  0  0  0  0  0  0
   70.8425   48.9267   51.6103 O   0  0  0  0  0  0  0  0  0  0  0  0
   69.3400   47.6514   52.8445 C   0  0  0  0  0  0  0  0  0  0  0  0
   68.9204   46.9728   51.7293 C   0  0  0  0  0  0  0  0  0  0  0  0
   67.9403   45.9976   51.8353 C   0  0  0  0  0  0  0  0  0  0  0  0
   67.4047   45.7305   53.0863 C   0  0  0  0  0  0  0  0  0  0  0  0
   67.8147   46.4008   54.2129 C   0  0  0  0  0  0  0  0  0  0  0  0
   68.7803   47.3555   54.0839 C   0  0  0  0  0  0  0  0  0  0  0  0
  8  9  2  0
  9  1  1  0
  9 10  1  0
  1  2  2  0
  1  6  1  0
  2  3  1  0
  3 20  1  0
  3  4  2  0
 20 21  1  0
 21 22  2  0
 21 31  1  0
 22 23  1  0
 23 24  1  0
 24 25  2  0
 24 26  1  0
 26 27  1  0
 26 31  2  0
 27 28  2  0
 28 29  1  0
 29 30  2  0
 30 31  1  0
  4  5  1  0
  5  6  2  0
  6  7  1  0
 10 11  1  0
 10 13  1  0
 11 12  1  0
 12 14  1  0
 12 13  1  0
 14 15  1  0
 14 19  1  0
 15 16  1  0
 16 17  1  0
 17 18  1  0
 18 19  1  0
M  CHG  1  14   1
M  END
>  <minimizedAffinity>  (323) 
-9.17693

$$$$
cs_full_output_folder/data/smiles/8748.pdb
     RDKit          3D

 33 38  0  0  0  0  0  0  0  0999 V2000
   71.7031   47.1337   58.9846 C   0  0  0  0  0  0  0  0  0  0  0  0
   70.7513   47.7206   58.1858 C   0  0  0  0  0  0  0  0  0  0  0  0
   69.9391   47.0010   57.2970 C   0  0  0  0  0  0  0  0  0  0  0  0
   70.0972   45.6568   57.2189 C   0  0  0  0  0  0  0  0  0  0  0  0
   71.0508   45.0208   58.0128 C   0  0  0  0  0  0  0  0  0  0  0  0
   71.8358   45.7572   58.8783 C   0  0  0  0  0  0  0  0  0  0  0  0
   72.7625   45.1407   59.6499 F   0  0  0  0  0  0  0  0  0  0  0  0
   72.2303   47.9722   61.1103 O   0  0  0  0  0  0  0  0  0  0  0  0
   72.5483   47.8657   59.9056 C   0  0  0  0  0  0  0  0  0  0  0  0
   73.7349   48.4621   59.4455 N   0  0  0  0  0  0  0  0  0  0  0  0
   74.5596   49.1887   60.3920 C   0  0  0  0  0  0  0  0  0  0  0  0
   75.8136   49.7305   59.7950 C   0  0  0  0  0  0  0  0  0  0  0  0
   76.4178   48.6883   58.8946 C   0  0  1  0  0  0  0  0  0  0  0  0
   75.5042   48.4988   57.7142 C   0  0  2  0  0  0  0  0  0  0  0  0
   75.7709   49.7722   56.9198 C   0  0  0  0  0  0  0  0  0  0  0  0
   77.2456   49.9765   57.1393 C   0  0  0  0  0  0  0  0  0  0  0  0
   77.6304   49.1697   58.2563 N   0  0  2  0  0  0  0  0  0  0  0  0
   74.0767   48.3220   58.0525 C   0  0  0  0  0  0  0  0  0  0  0  0
   78.4358   48.0360   57.9219 C   0  0  0  0  0  0  0  0  0  0  0  0
   79.6461   48.1475   57.0799 C   0  0  0  0  0  0  0  0  0  0  0  0
   79.8084   48.0268   58.5843 C   0  0  0  0  0  0  0  0  0  0  0  0
   68.9764   47.8035   56.4953 C   0  0  0  0  0  0  0  0  0  0  0  0
   69.3450   47.9860   55.0943 C   0  0  0  0  0  0  0  0  0  0  0  0
   70.2593   48.9565   54.7696 N   0  0  0  0  0  0  0  0  0  0  0  0
   70.6360   49.2279   53.5535 N   0  0  0  0  0  0  0  0  0  0  0  0
   70.1745   48.5899   52.4735 C   0  0  0  0  0  0  0  0  0  0  0  0
   70.5382   48.8519   51.2972 O   0  0  0  0  0  0  0  0  0  0  0  0
   69.2471   47.5911   52.6986 C   0  0  0  0  0  0  0  0  0  0  0  0
   68.7205   46.8694   51.6487 C   0  0  0  0  0  0  0  0  0  0  0  0
   67.7975   45.8589   51.8628 C   0  0  0  0  0  0  0  0  0  0  0  0
   67.4237   45.5970   53.1491 C   0  0  0  0  0  0  0  0  0  0  0  0
   67.9465   46.3153   54.2035 C   0  0  0  0  0  0  0  0  0  0  0  0
   68.8509   47.3099   54.0090 C   0  0  0  0  0  0  0  0  0  0  0  0
  8  9  2  0
  9  1  1  0
  9 10  1  0
  1  2  2  0
  1  6  1  0
  2  3  1  0
  3 22  1  0
  3  4  2  0
 22 23  1  0
 23 24  2  0
 23 33  1  0
 24 25  1  0
 25 26  1  0
 26 27  2  0
 26 28  1  0
 28 29  1  0
 28 33  2  0
 29 30  2  0
 30 31  1  0
 31 32  2  0
 32 33  1  0
  4  5  1  0
  5  6  2  0
  6  7  1  0
 10 11  1  0
 10 18  1  0
 11 12  1  0
 13 12  1  1
 13 14  1  0
 13 17  1  0
 14 15  1  6
 14 18  1  0
 15 16  1  0
 16 17  1  0
 17 19  1  6
 19 20  1  0
 19 21  1  0
 20 21  1  0
M  CHG  1  17   1
M  END
>  <minimizedAffinity>  (324) 
-9.17635

$$$$
cs_full_output_folder/data/smiles/8045.pdb
     RDKit          3D

 31 35  0  0  0  0  0  0  0  0999 V2000
   71.4426   47.0984   58.8678 C   0  0  0  0  0  0  0  0  0  0  0  0
   70.4828   47.7355   58.0839 C   0  0  0  0  0  0  0  0  0  0  0  0
   69.6751   47.0708   57.2100 C   0  0  0  0  0  0  0  0  0  0  0  0
   69.8291   45.6787   57.1065 C   0  0  0  0  0  0  0  0  0  0  0  0
   70.7632   45.0159   57.8623 C   0  0  0  0  0  0  0  0  0  0  0  0
   71.5562   45.7344   58.7309 C   0  0  0  0  0  0  0  0  0  0  0  0
   72.4841   45.0611   59.4736 F   0  0  0  0  0  0  0  0  0  0  0  0
   72.0222   47.7181   61.0175 O   0  0  0  0  0  0  0  0  0  0  0  0
   72.2830   47.8696   59.7955 C   0  0  0  0  0  0  0  0  0  0  0  0
   73.3143   48.7240   59.3289 N   0  0  0  0  0  0  0  0  0  0  0  0
   74.1884   49.5175   60.1533 C   0  0  0  0  0  0  0  0  0  0  0  0
   74.8947   50.4700   59.2560 C   0  0  0  0  0  0  0  0  0  0  0  0
   74.1300   50.3959   57.9680 C   0  0  1  0  0  0  0  0  0  0  0  0
   73.6853   48.9520   57.9601 C   0  0  0  0  0  0  0  0  0  0  0  0
   73.0404   51.2396   57.8341 N   0  0  0  0  0  0  0  0  0  0  0  0
   73.1576   52.6199   58.1006 C   0  0  0  0  0  0  0  0  0  0  0  0
   71.9894   53.3020   57.3707 C   0  0  0  0  0  0  0  0  0  0  0  0
   71.0158   52.1496   57.2532 C   0  0  0  0  0  0  0  0  0  0  0  0
   71.9786   50.9950   56.9703 C   0  0  0  0  0  0  0  0  0  0  0  0
   68.6397   47.6941   56.3341 C   0  0  0  0  0  0  0  0  0  0  0  0
   69.0930   47.9539   54.9615 C   0  0  0  0  0  0  0  0  0  0  0  0
   69.9635   48.9802   54.7385 N   0  0  0  0  0  0  0  0  0  0  0  0
   70.4053   49.3289   53.5632 N   0  0  0  0  0  0  0  0  0  0  0  0
   70.0296   48.6884   52.4492 C   0  0  0  0  0  0  0  0  0  0  0  0
   70.4198   48.9810   51.3021 O   0  0  0  0  0  0  0  0  0  0  0  0
   69.1529   47.6408   52.5985 C   0  0  0  0  0  0  0  0  0  0  0  0
   68.7299   46.9258   51.4923 C   0  0  0  0  0  0  0  0  0  0  0  0
   67.8612   45.8665   51.6351 C   0  0  0  0  0  0  0  0  0  0  0  0
   67.3933   45.4956   52.8867 C   0  0  0  0  0  0  0  0  0  0  0  0
   67.8151   46.2085   53.9880 C   0  0  0  0  0  0  0  0  0  0  0  0
   68.6756   47.2635   53.8622 C   0  0  0  0  0  0  0  0  0  0  0  0
  8  9  2  0
  9  1  1  0
  9 10  1  0
  1  2  2  0
  1  6  1  0
  2  3  1  0
  3 20  1  0
  3  4  2  0
 20 21  1  0
 21 22  2  0
 21 31  1  0
 22 23  1  0
 23 24  1  0
 24 25  2  0
 24 26  1  0
 26 27  1  0
 26 31  2  0
 27 28  2  0
 28 29  1  0
 29 30  2  0
 30 31  1  0
  4  5  1  0
  5  6  2  0
  6  7  1  0
 10 11  1  0
 10 14  1  0
 11 12  1  0
 12 13  1  0
 13 15  1  1
 13 14  1  0
 15 16  1  0
 15 19  1  0
 16 17  1  0
 17 18  1  0
 18 19  1  0
M  CHG  1  15   1
M  END
>  <minimizedAffinity>  (325) 
-9.17597

$$$$
cs_full_output_folder/data/smiles/973.pdb
     RDKit          3D

 33 37  0  0  0  0  0  0  0  0999 V2000
   70.8425   45.7879   58.5298 C   0  0  0  0  0  0  0  0  0  0  0  0
   70.0300   46.4435   57.6408 C   0  0  0  0  0  0  0  0  0  0  0  0
   70.1542   47.7824   57.2918 C   0  0  0  0  0  0  0  0  0  0  0  0
   71.1684   48.4694   57.8948 C   0  0  0  0  0  0  0  0  0  0  0  0
   72.0224   47.8358   58.8108 C   0  0  0  0  0  0  0  0  0  0  0  0
   71.8540   46.4957   59.1232 C   0  0  0  0  0  0  0  0  0  0  0  0
   72.6478   45.8359   59.9981 F   0  0  0  0  0  0  0  0  0  0  0  0
   72.9554   42.2185   59.9850 N   0  0  1  0  0  0  0  0  0  0  0  0
   74.0919   42.5112   59.1429 C   0  0  0  0  0  0  0  0  0  0  0  0
   73.7280   42.7904   57.7138 C   0  0  0  0  0  0  0  0  0  0  0  0
   72.5483   43.7234   57.5707 C   0  0  0  0  0  0  0  0  0  0  0  0
   71.4099   43.3246   58.3229 N   0  0  0  0  0  0  0  0  0  0  0  0
   70.5773   44.3661   58.7906 C   0  0  0  0  0  0  0  0  0  0  0  0
   69.5263   44.1486   59.4785 O   0  0  0  0  0  0  0  0  0  0  0  0
   70.9639   41.9966   58.6980 C   0  0  0  0  0  0  0  0  0  0  0  0
   72.0764   41.2362   59.3944 C   0  0  0  0  0  0  0  0  0  0  0  0
   73.3689   44.0853   63.8217 N   0  0  0  0  0  0  0  0  0  0  0  0
   73.3834   43.1562   62.9046 C   0  0  0  0  0  0  0  0  0  0  0  0
   72.3670   42.2376   62.3355 C   0  0  0  0  0  0  0  0  0  0  0  0
   73.3594   41.7871   61.3086 C   0  0  0  0  0  0  0  0  0  0  0  0
   74.3942   42.5750   62.0027 C   0  0  0  0  0  0  0  0  0  0  0  0
   69.2335   48.4360   56.3669 C   0  0  0  0  0  0  0  0  0  0  0  0
   69.6376   48.4289   54.9412 C   0  0  0  0  0  0  0  0  0  0  0  0
   70.5793   49.2822   54.5042 N   0  0  0  0  0  0  0  0  0  0  0  0
   70.9138   49.3275   53.2474 N   0  0  0  0  0  0  0  0  0  0  0  0
   70.3541   48.5390   52.3157 C   0  0  0  0  0  0  0  0  0  0  0  0
   70.7131   48.6180   51.0929 O   0  0  0  0  0  0  0  0  0  0  0  0
   69.3813   47.6389   52.6953 C   0  0  0  0  0  0  0  0  0  0  0  0
   68.8007   46.8044   51.7434 C   0  0  0  0  0  0  0  0  0  0  0  0
   67.8513   45.9198   52.1863 C   0  0  0  0  0  0  0  0  0  0  0  0
   67.4706   45.8366   53.4974 C   0  0  0  0  0  0  0  0  0  0  0  0
   68.0553   46.6734   54.4394 C   0  0  0  0  0  0  0  0  0  0  0  0
   69.0293   47.5965   54.0348 C   0  0  0  0  0  0  0  0  0  0  0  0
 17 18  2  0
 18 19  1  0
 18 21  1  0
 19 20  1  0
  8 20  1  1
 20 21  1  0
  8  9  1  0
  8 16  1  0
  9 10  1  0
 10 11  1  0
 11 12  1  0
 12 13  1  0
 12 15  1  0
 13 14  2  0
 13  1  1  0
  1  2  2  0
  1  6  1  0
  2  3  1  0
  3 22  1  0
  3  4  2  0
 22 23  1  0
 23 24  2  0
 23 33  1  0
 24 25  1  0
 25 26  1  0
 26 27  2  0
 26 28  1  0
 28 29  1  0
 28 33  2  0
 29 30  2  0
 30 31  1  0
 31 32  2  0
 32 33  1  0
  4  5  1  0
  5  6  2  0
  6  7  1  0
 15 16  1  0
M  CHG  1   8   1
M  END
>  <minimizedAffinity>  (326) 
-9.17282

$$$$
cs_full_output_folder/data/smiles/912.pdb
     RDKit          3D

 23 25  0  0  0  0  0  0  0  0999 V2000
   69.4503   47.8984   56.2768 C   0  0  0  0  0  0  0  0  0  0  0  0
   70.4992   48.7544   50.9395 O   0  0  0  0  0  0  0  0  0  0  0  0
   70.2134   48.4916   52.1284 C   0  0  0  0  0  0  0  0  0  0  0  0
   70.8608   49.1570   53.1109 N   0  0  0  0  0  0  0  0  0  0  0  0
   70.6149   48.9362   54.3828 N   0  0  0  0  0  0  0  0  0  0  0  0
   69.6933   48.0247   54.8257 C   0  0  0  0  0  0  0  0  0  0  0  0
   69.0283   47.3394   53.8443 C   0  0  0  0  0  0  0  0  0  0  0  0
   68.0959   46.3860   54.1856 C   0  0  0  0  0  0  0  0  0  0  0  0
   67.4297   45.6780   53.1791 C   0  0  0  0  0  0  0  0  0  0  0  0
   67.6771   45.9028   51.8442 C   0  0  0  0  0  0  0  0  0  0  0  0
   68.6106   46.8543   51.4944 C   0  0  0  0  0  0  0  0  0  0  0  0
   69.2687   47.5533   52.4825 C   0  0  0  0  0  0  0  0  0  0  0  0
   68.5406   48.9451   56.7988 C   0  0  0  0  0  0  0  0  0  0  0  0
   67.3933   48.6773   57.4848 C   0  0  0  0  0  0  0  0  0  0  0  0
   66.6187   49.7600   57.9174 C   0  0  0  0  0  0  0  0  0  0  0  0
   66.9704   51.0644   57.6787 C   0  0  0  0  0  0  0  0  0  0  0  0
   68.1483   51.3508   56.9760 C   0  0  0  0  0  0  0  0  0  0  0  0
   68.8942   50.2741   56.5589 C   0  0  0  0  0  0  0  0  0  0  0  0
   68.4934   52.6715   56.7439 O   0  0  0  0  0  0  0  0  0  0  0  0
   69.5750   52.8975   55.8279 C   0  0  0  0  0  0  0  0  0  0  0  0
   70.7062   54.1208   56.4434 S   0  0  0  0  0  0  0  0  0  0  0  0
   72.2103   53.7485   56.0341 C   0  0  0  0  0  0  0  0  0  0  0  0
   72.6254   52.0266   54.9279 I   0  0  0  0  0  0  0  0  0  0  0  0
  2  3  2  0
  3  4  1  0
  3 12  1  0
  4  5  1  0
  5  6  2  0
  6  1  1  0
  6  7  1  0
  1 13  1  0
 13 14  2  0
 13 18  1  0
 14 15  1  0
 15 16  2  0
 16 17  1  0
 17 19  1  0
 17 18  2  0
 19 20  1  0
 20 21  1  0
 21 22  2  0
 22 23  1  0
  7  8  1  0
  7 12  2  0
  8  9  2  0
  9 10  1  0
 10 11  2  0
 11 12  1  0
M  END
>  <minimizedAffinity>  (327) 
-9.16727

$$$$
cs_full_output_folder/data/smiles/1611.pdb
     RDKit          3D

 30 33  0  0  0  0  0  0  0  0999 V2000
   71.5175   46.9499   58.8902 C   0  0  0  0  0  0  0  0  0  0  0  0
   70.6978   47.7786   58.1111 C   0  0  0  0  0  0  0  0  0  0  0  0
   69.8270   47.3242   57.1742 C   0  0  0  0  0  0  0  0  0  0  0  0
   69.7406   45.9451   56.9720 C   0  0  0  0  0  0  0  0  0  0  0  0
   70.5272   45.0962   57.7141 C   0  0  0  0  0  0  0  0  0  0  0  0
   71.4034   45.5976   58.6613 C   0  0  0  0  0  0  0  0  0  0  0  0
   72.1576   44.7134   59.3693 F   0  0  0  0  0  0  0  0  0  0  0  0
   72.0073   47.6666   61.0473 O   0  0  0  0  0  0  0  0  0  0  0  0
   72.4287   47.4991   59.8789 C   0  0  0  0  0  0  0  0  0  0  0  0
   73.7728   47.8531   59.5735 N   0  0  0  0  0  0  0  0  0  0  0  0
   74.2616   47.6613   58.2263 C   0  0  0  0  0  0  0  0  0  0  0  0
   75.7367   47.4670   58.2905 C   0  0  0  0  0  0  0  0  0  0  0  0
   76.3461   48.6399   58.8505 N   0  0  0  0  0  0  0  0  0  0  0  0
   75.9198   48.9345   60.1873 C   0  0  0  0  0  0  0  0  0  0  0  0
   74.6124   48.3857   60.5843 C   0  0  0  0  0  0  0  0  0  0  0  0
   76.3071   49.7875   57.9797 C   0  0  0  0  0  0  0  0  0  0  0  0
   77.6097   50.1177   57.3300 C   0  0  0  0  0  0  0  0  0  0  0  0
   77.3321   51.1407   56.3933 O   0  0  0  0  0  0  0  0  0  0  0  0
   68.9250   48.1371   56.3286 C   0  0  0  0  0  0  0  0  0  0  0  0
   69.3356   48.2689   54.9316 C   0  0  0  0  0  0  0  0  0  0  0  0
   70.2903   49.1812   54.6026 N   0  0  0  0  0  0  0  0  0  0  0  0
   70.7688   49.3582   53.3997 N   0  0  0  0  0  0  0  0  0  0  0  0
   70.3034   48.6008   52.3972 C   0  0  0  0  0  0  0  0  0  0  0  0
   70.7096   48.7045   51.2043 O   0  0  0  0  0  0  0  0  0  0  0  0
   69.3245   47.6423   52.6346 C   0  0  0  0  0  0  0  0  0  0  0  0
   68.8418   46.8724   51.5838 C   0  0  0  0  0  0  0  0  0  0  0  0
   67.8610   45.9382   51.8487 C   0  0  0  0  0  0  0  0  0  0  0  0
   67.3721   45.7757   53.1316 C   0  0  0  0  0  0  0  0  0  0  0  0
   67.8547   46.5378   54.1590 C   0  0  0  0  0  0  0  0  0  0  0  0
   68.8415   47.4808   53.9130 C   0  0  0  0  0  0  0  0  0  0  0  0
  8  9  2  0
  9  1  1  0
  9 10  1  0
  1  2  2  0
  1  6  1  0
  2  3  1  0
  3 19  1  0
  3  4  2  0
 19 20  1  0
 20 21  2  0
 20 30  1  0
 21 22  1  0
 22 23  1  0
 23 24  2  0
 23 25  1  0
 25 26  1  0
 25 30  2  0
 26 27  2  0
 27 28  1  0
 28 29  2  0
 29 30  1  0
  4  5  1  0
  5  6  2  0
  6  7  1  0
 10 11  1  0
 10 15  1  0
 11 12  1  0
 12 13  1  0
 13 16  1  0
 13 14  1  0
 16 17  1  0
 17 18  1  0
 14 15  1  0
M  CHG  1  13   1
M  END
>  <minimizedAffinity>  (328) 
-9.16361

$$$$
cs_full_output_folder/data/smiles/6219.pdb
     RDKit          3D

 30 34  0  0  0  0  0  0  0  0999 V2000
   71.4322   46.8895   58.8693 C   0  0  0  0  0  0  0  0  0  0  0  0
   70.4969   47.6716   58.2558 C   0  0  0  0  0  0  0  0  0  0  0  0
   69.6248   47.1146   57.3714 C   0  0  0  0  0  0  0  0  0  0  0  0
   69.6660   45.7433   57.0718 C   0  0  0  0  0  0  0  0  0  0  0  0
   70.6127   44.9740   57.6987 C   0  0  0  0  0  0  0  0  0  0  0  0
   71.4944   45.5564   58.5986 C   0  0  0  0  0  0  0  0  0  0  0  0
   72.4170   44.7255   59.1903 F   0  0  0  0  0  0  0  0  0  0  0  0
   77.6379   50.9286   57.3838 O   0  0  0  0  0  0  0  0  0  0  0  0
   76.8966   50.1312   57.9183 C   0  0  0  0  0  0  0  0  0  0  0  0
   76.3803   50.1723   59.3163 C   0  0  0  0  0  0  0  0  0  0  0  0
   75.0202   49.5854   59.2206 C   0  0  2  0  0  0  0  0  0  0  0  0
   74.8265   48.3146   60.0649 C   0  0  0  0  0  0  0  0  0  0  0  0
   73.7234   47.7652   59.3552 N   0  0  0  0  0  0  0  0  0  0  0  0
   72.4383   47.4499   59.8017 C   0  0  0  0  0  0  0  0  0  0  0  0
   72.0375   47.6120   60.9909 O   0  0  0  0  0  0  0  0  0  0  0  0
   74.2202   47.6217   58.0056 C   0  0  0  0  0  0  0  0  0  0  0  0
   74.8820   48.9961   57.8114 C   0  0  2  0  0  0  0  0  0  0  0  0
   76.2959   48.8874   57.3212 C   0  0  0  0  0  0  0  0  0  0  0  0
   68.5750   47.8928   56.6031 C   0  0  0  0  0  0  0  0  0  0  0  0
   69.1651   48.0717   55.2510 C   0  0  0  0  0  0  0  0  0  0  0  0
   70.1665   49.0215   55.0949 N   0  0  0  0  0  0  0  0  0  0  0  0
   70.6952   49.2676   53.9205 N   0  0  0  0  0  0  0  0  0  0  0  0
   70.3154   48.6309   52.8034 C   0  0  0  0  0  0  0  0  0  0  0  0
   70.8699   48.9203   51.6884 O   0  0  0  0  0  0  0  0  0  0  0  0
   69.3429   47.6805   52.8565 C   0  0  0  0  0  0  0  0  0  0  0  0
   68.9468   46.9759   51.7459 C   0  0  0  0  0  0  0  0  0  0  0  0
   68.0079   46.0048   51.7859 C   0  0  0  0  0  0  0  0  0  0  0  0
   67.4340   45.7427   53.0497 C   0  0  0  0  0  0  0  0  0  0  0  0
   67.8294   46.4481   54.1721 C   0  0  0  0  0  0  0  0  0  0  0  0
   68.7793   47.4202   54.1124 C   0  0  0  0  0  0  0  0  0  0  0  0
  8  9  2  0
  9 10  1  0
  9 18  1  0
 11 10  1  6
 11 12  1  0
 11 17  1  0
 12 13  1  0
 13 14  1  0
 13 16  1  0
 14 15  2  0
 14  1  1  0
  1  2  2  0
  1  6  1  0
  2  3  1  0
  3 19  1  0
  3  4  2  0
 19 20  1  0
 20 21  2  0
 20 30  1  0
 21 22  1  0
 22 23  1  0
 23 24  2  0
 23 25  1  0
 25 26  1  0
 25 30  2  0
 26 27  2  0
 27 28  1  0
 28 29  2  0
 29 30  1  0
  4  5  1  0
  5  6  2  0
  6  7  1  0
 17 16  1  1
 17 18  1  0
M  END
>  <minimizedAffinity>  (329) 
-9.16031

$$$$
cs_full_output_folder/data/smiles/3747.pdb
     RDKit          3D

 30 33  0  0  0  0  0  0  0  0999 V2000
   69.2150   43.5636   56.8460 C   0  0  0  0  0  0  0  0  0  0  0  0
   70.0832   44.2743   57.6427 C   0  0  0  0  0  0  0  0  0  0  0  0
   70.2429   45.6395   57.5680 C   0  0  0  0  0  0  0  0  0  0  0  0
   69.4821   46.3344   56.6302 C   0  0  0  0  0  0  0  0  0  0  0  0
   68.6007   45.6294   55.8176 C   0  0  0  0  0  0  0  0  0  0  0  0
   68.5033   44.2989   55.9539 N   0  0  0  0  0  0  0  0  0  0  0  0
   67.8204   42.3022   58.8826 O   0  0  0  0  0  0  0  0  0  0  0  0
   68.3448   41.5579   58.0027 C   0  0  0  0  0  0  0  0  0  0  0  0
   69.0647   42.1557   56.9439 N   0  0  0  0  0  0  0  0  0  0  0  0
   68.1301   39.7944   58.1709 S   0  0  0  0  0  0  0  0  0  0  0  0
   69.6723   38.9959   58.5877 C   0  0  0  0  0  0  0  0  0  0  0  0
   69.5895   37.7570   59.1736 C   0  0  0  0  0  0  0  0  0  0  0  0
   70.7475   37.0985   59.5180 C   0  0  0  0  0  0  0  0  0  0  0  0
   71.9705   37.6792   59.2739 C   0  0  0  0  0  0  0  0  0  0  0  0
   72.0887   38.9281   58.6827 C   0  0  0  0  0  0  0  0  0  0  0  0
   70.9039   39.5531   58.3550 C   0  0  0  0  0  0  0  0  0  0  0  0
   67.7839   46.3879   54.8269 C   0  0  0  0  0  0  0  0  0  0  0  0
   68.6604   47.1114   53.8887 C   0  0  0  0  0  0  0  0  0  0  0  0
   68.7507   46.7163   52.5556 C   0  0  0  0  0  0  0  0  0  0  0  0
   69.5629   47.3940   51.6715 C   0  0  0  0  0  0  0  0  0  0  0  0
   70.2928   48.4757   52.1238 C   0  0  0  0  0  0  0  0  0  0  0  0
   70.2274   48.8931   53.4362 C   0  0  0  0  0  0  0  0  0  0  0  0
   69.4030   48.1938   54.2977 C   0  0  0  0  0  0  0  0  0  0  0  0
   70.9920   50.0362   53.9408 C   0  0  0  0  0  0  0  0  0  0  0  0
   72.2427   50.0100   53.7261 O   0  0  0  0  0  0  0  0  0  0  0  0
   70.3497   51.0904   54.6211 N   0  0  0  0  0  0  0  0  0  0  0  0
   68.9419   51.1769   54.8889 C   0  0  0  0  0  0  0  0  0  0  0  0
   68.7110   52.6869   54.8245 C   0  0  0  0  0  0  0  0  0  0  0  0
   69.8860   53.1494   55.5799 N   0  0  0  0  0  0  0  0  0  0  0  0
   70.9696   52.2648   55.1773 C   0  0  0  0  0  0  0  0  0  0  0  0
  7  8  2  0
  8  9  1  0
  8 10  1  0
  9  1  1  0
  1  2  2  0
  1  6  1  0
  2  3  1  0
  3  4  2  0
  4  5  1  0
  5 17  1  0
  5  6  2  0
 17 18  1  0
 18 19  2  0
 18 23  1  0
 19 20  1  0
 20 21  2  0
 21 22  1  0
 22 24  1  0
 22 23  2  0
 24 25  2  0
 24 26  1  0
 26 27  1  0
 26 30  1  0
 27 28  1  0
 28 29  1  0
 29 30  1  0
 10 11  1  0
 11 12  2  0
 11 16  1  0
 12 13  1  0
 13 14  2  0
 14 15  1  0
 15 16  2  0
M  CHG  1  29   1
M  END
>  <minimizedAffinity>  (330) 
-9.15881

$$$$
cs_full_output_folder/data/smiles/6731.pdb
     RDKit          3D

 29 32  0  0  0  0  0  0  0  0999 V2000
   71.1702   46.1917   58.6225 C   0  0  0  0  0  0  0  0  0  0  0  0
   70.5481   47.1854   57.9200 C   0  0  0  0  0  0  0  0  0  0  0  0
   69.5947   46.9527   56.9206 C   0  0  0  0  0  0  0  0  0  0  0  0
   69.2900   45.6443   56.6571 C   0  0  0  0  0  0  0  0  0  0  0  0
   69.9057   44.6266   57.3536 C   0  0  0  0  0  0  0  0  0  0  0  0
   70.8522   44.8799   58.3453 C   0  0  0  0  0  0  0  0  0  0  0  0
   71.4210   43.8446   58.9932 F   0  0  0  0  0  0  0  0  0  0  0  0
   74.5585   44.4690   59.3318 N   0  0  0  0  0  0  0  0  0  0  0  0
   74.2961   45.4881   58.3992 C   0  0  0  0  0  0  0  0  0  0  0  0
   74.0154   46.8004   59.1287 C   0  0  0  0  0  0  0  0  0  0  0  0
   72.3877   46.5381   59.8907 P   0  0  0  0  0  0  0  0  0  0  0  0
   71.9308   47.7867   60.8949 O   0  0  0  0  0  0  0  0  0  0  0  0
   72.6394   44.9748   60.8269 C   0  0  0  0  0  0  0  0  0  0  0  0
   74.0646   44.5350   60.6342 C   0  0  0  0  0  0  0  0  0  0  0  0
   74.8236   42.1324   59.8553 C   0  0  0  0  0  0  0  0  0  0  0  0
   75.0170   43.2290   58.8281 C   0  0  0  0  0  0  0  0  0  0  0  0
   74.1536   42.8633   57.6117 C   0  0  0  0  0  0  0  0  0  0  0  0
   69.0155   48.1279   56.2199 C   0  0  0  0  0  0  0  0  0  0  0  0
   69.4279   48.1768   54.8130 C   0  0  0  0  0  0  0  0  0  0  0  0
   70.4298   49.0353   54.4439 N   0  0  0  0  0  0  0  0  0  0  0  0
   70.8382   49.1758   53.2009 N   0  0  0  0  0  0  0  0  0  0  0  0
   70.3031   48.4858   52.1942 C   0  0  0  0  0  0  0  0  0  0  0  0
   70.7382   48.6646   51.0172 O   0  0  0  0  0  0  0  0  0  0  0  0
   69.2907   47.6000   52.4721 C   0  0  0  0  0  0  0  0  0  0  0  0
   68.7372   46.8731   51.4450 C   0  0  0  0  0  0  0  0  0  0  0  0
   67.7228   45.9656   51.7294 C   0  0  0  0  0  0  0  0  0  0  0  0
   67.2944   45.8183   53.0510 C   0  0  0  0  0  0  0  0  0  0  0  0
   67.8701   46.5620   54.0575 C   0  0  0  0  0  0  0  0  0  0  0  0
   68.8659   47.4580   53.7927 C   0  0  0  0  0  0  0  0  0  0  0  0
 15 16  1  0
 16 17  1  0
 16  8  1  0
  8  9  1  0
  8 14  1  0
  9 10  1  0
 10 11  1  0
 11 12  1  0
 11  1  1  0
 11 13  1  0
  1  2  2  0
  1  6  1  0
  2  3  1  0
  3 18  1  0
  3  4  2  0
 18 19  1  0
 19 20  2  0
 19 29  1  0
 20 21  1  0
 21 22  1  0
 22 23  2  0
 22 24  1  0
 24 25  1  0
 24 29  2  0
 25 26  2  0
 26 27  1  0
 27 28  2  0
 28 29  1  0
  4  5  1  0
  5  6  2  0
  6  7  1  0
 13 14  1  0
M  CHG  2   8   1  11   1
M  END
>  <minimizedAffinity>  (331) 
-9.15814

$$$$
cs_full_output_folder/data/smiles/8743.pdb
     RDKit          3D

 31 34  0  0  0  0  0  0  0  0999 V2000
   71.6358   45.0414   58.4106 C   0  0  0  0  0  0  0  0  0  0  0  0
   70.6264   45.6102   57.6545 C   0  0  0  0  0  0  0  0  0  0  0  0
   70.2170   46.9078   57.7327 C   0  0  0  0  0  0  0  0  0  0  0  0
   70.9128   47.6842   58.6763 C   0  0  0  0  0  0  0  0  0  0  0  0
   71.9213   47.1842   59.4575 C   0  0  0  0  0  0  0  0  0  0  0  0
   72.2870   45.8402   59.3202 C   0  0  0  0  0  0  0  0  0  0  0  0
   73.2812   45.3144   60.0778 F   0  0  0  0  0  0  0  0  0  0  0  0
   69.2798   41.4222   58.4855 N   0  0  0  0  0  0  0  0  0  0  0  0
   70.3590   40.5044   58.6669 C   0  0  0  0  0  0  0  0  0  0  0  0
   71.6442   41.2418   58.9827 C   0  0  0  0  0  0  0  0  0  0  0  0
   71.3355   42.6765   59.0587 N   0  0  0  0  0  0  0  0  0  0  0  0
   72.0152   43.6372   58.2608 C   0  0  0  0  0  0  0  0  0  0  0  0
   72.8950   43.2308   57.4793 O   0  0  0  0  0  0  0  0  0  0  0  0
   70.2815   43.0087   60.0083 C   0  0  0  0  0  0  0  0  0  0  0  0
   68.9985   42.2668   59.6029 C   0  0  0  0  0  0  0  0  0  0  0  0
   67.8192   41.2892   56.5252 C   0  0  0  0  0  0  0  0  0  0  0  0
   68.0900   40.8400   57.9619 C   0  0  0  0  0  0  0  0  0  0  0  0
   68.2164   39.3202   57.8959 C   0  0  0  0  0  0  0  0  0  0  0  0
   66.8662   41.1520   58.7923 C   0  0  0  0  0  0  0  0  0  0  0  0
   69.1536   47.5728   56.9494 C   0  0  0  0  0  0  0  0  0  0  0  0
   68.7784   46.9247   55.7007 C   0  0  0  0  0  0  0  0  0  0  0  0
   68.0592   45.7624   55.6981 N   0  0  0  0  0  0  0  0  0  0  0  0
   67.6610   45.1780   54.5929 N   0  0  0  0  0  0  0  0  0  0  0  0
   67.9233   45.6679   53.3779 C   0  0  0  0  0  0  0  0  0  0  0  0
   67.5264   45.0843   52.3299 O   0  0  0  0  0  0  0  0  0  0  0  0
   68.6464   46.8382   53.2888 C   0  0  0  0  0  0  0  0  0  0  0  0
   68.9523   47.3703   52.0434 C   0  0  0  0  0  0  0  0  0  0  0  0
   69.6843   48.5223   51.9613 C   0  0  0  0  0  0  0  0  0  0  0  0
   70.1139   49.1504   53.1000 C   0  0  0  0  0  0  0  0  0  0  0  0
   69.8040   48.6135   54.3210 C   0  0  0  0  0  0  0  0  0  0  0  0
   69.0715   47.4615   54.4666 C   0  0  0  0  0  0  0  0  0  0  0  0
 16 17  1  0
 17 18  1  0
 17 19  1  0
 17  8  1  0
  8  9  1  0
  8 15  1  0
  9 10  1  0
 10 11  1  0
 11 12  1  0
 11 14  1  0
 12 13  2  0
 12  1  1  0
  1  2  2  0
  1  6  1  0
  2  3  1  0
  3 20  1  0
  3  4  2  0
 20 21  1  0
 21 22  2  0
 21 31  1  0
 22 23  1  0
 23 24  1  0
 24 25  2  0
 24 26  1  0
 26 27  1  0
 26 31  2  0
 27 28  2  0
 28 29  1  0
 29 30  2  0
 30 31  1  0
  4  5  1  0
  5  6  2  0
  6  7  1  0
 14 15  1  0
M  CHG  1   8   1
M  END
>  <minimizedAffinity>  (332) 
-9.15809

$$$$
cs_full_output_folder/data/smiles/772.pdb
     RDKit          3D

 29 32  0  0  0  0  0  0  0  0999 V2000
   68.6919   46.6582   54.3475 C   0  0  0  0  0  0  0  0  0  0  0  0
   68.6045   46.1034   53.0826 C   0  0  0  0  0  0  0  0  0  0  0  0
   68.7692   46.8264   51.9365 C   0  0  0  0  0  0  0  0  0  0  0  0
   69.0394   48.1840   51.9975 C   0  0  0  0  0  0  0  0  0  0  0  0
   69.1307   48.7581   53.2213 C   0  0  0  0  0  0  0  0  0  0  0  0
   68.9589   48.0034   54.3950 C   0  0  0  0  0  0  0  0  0  0  0  0
   68.5936   46.2705   56.6732 O   0  0  0  0  0  0  0  0  0  0  0  0
   68.5014   45.8002   55.5004 C   0  0  0  0  0  0  0  0  0  0  0  0
   68.2124   44.4352   55.3922 N   0  0  0  0  0  0  0  0  0  0  0  0
   68.0249   43.5895   56.5037 N   0  0  0  0  0  0  0  0  0  0  0  0
   67.4856   42.2899   56.4150 C   0  0  0  0  0  0  0  0  0  0  0  0
   67.1541   41.8583   55.2867 O   0  0  0  0  0  0  0  0  0  0  0  0
   67.2965   41.4260   57.5713 C   0  0  0  0  0  0  0  0  0  0  0  0
   66.5816   41.5196   58.6800 C   0  0  0  0  0  0  0  0  0  0  0  0
   66.5796   40.5578   59.6155 C   0  0  0  0  0  0  0  0  0  0  0  0
   67.3850   39.4478   59.3386 C   0  0  0  0  0  0  0  0  0  0  0  0
   68.1181   39.8163   57.7516 S   0  0  0  0  0  0  0  0  0  0  0  0
   69.3995   50.2014   53.4175 C   0  0  0  0  0  0  0  0  0  0  0  0
   70.4775   50.3843   54.3695 C   0  0  0  0  0  0  0  0  0  0  0  0
   71.7651   50.1343   53.9859 N   0  0  0  0  0  0  0  0  0  0  0  0
   72.7959   50.2407   54.8011 N   0  0  0  0  0  0  0  0  0  0  0  0
   72.6202   50.6090   56.0831 C   0  0  0  0  0  0  0  0  0  0  0  0
   73.6207   50.7060   56.8557 O   0  0  0  0  0  0  0  0  0  0  0  0
   71.3764   50.8781   56.5553 C   0  0  0  0  0  0  0  0  0  0  0  0
   70.3044   50.7532   55.6476 C   0  0  0  0  0  0  0  0  0  0  0  0
   68.9999   51.1002   56.2327 C   0  0  0  0  0  0  0  0  0  0  0  0
   68.8651   50.2726   57.4833 C   0  0  0  0  0  0  0  0  0  0  0  0
   69.8420   50.8089   58.5022 C   0  0  0  0  0  0  0  0  0  0  0  0
   71.1434   51.2755   57.9516 C   0  0  0  0  0  0  0  0  0  0  0  0
  7  8  2  0
  8  9  1  0
  8  1  1  0
  9 10  1  0
 10 11  1  0
 11 12  2  0
 11 13  1  0
 13 14  2  0
 13 17  1  0
 14 15  1  0
 15 16  2  0
 16 17  1  0
  1  2  2  0
  1  6  1  0
  2  3  1  0
  3  4  2  0
  4  5  1  0
  5 18  1  0
  5  6  2  0
 18 19  1  0
 19 20  2  0
 19 25  1  0
 20 21  1  0
 21 22  1  0
 22 23  2  0
 22 24  1  0
 24 25  2  0
 24 29  1  0
 25 26  1  0
 26 27  1  0
 27 28  1  0
 28 29  1  0
M  END
>  <minimizedAffinity>  (333) 
-9.15719

$$$$
cs_full_output_folder/data/smiles/8673.pdb
     RDKit          3D

 30 34  0  0  0  0  0  0  0  0999 V2000
   71.8658   48.7178   58.3810 C   0  0  0  0  0  0  0  0  0  0  0  0
   70.8421   48.2850   57.5863 C   0  0  0  0  0  0  0  0  0  0  0  0
   69.8721   49.1407   57.1695 C   0  0  0  0  0  0  0  0  0  0  0  0
   69.9114   50.4527   57.5445 C   0  0  0  0  0  0  0  0  0  0  0  0
   70.9445   50.9327   58.3554 C   0  0  0  0  0  0  0  0  0  0  0  0
   71.9177   50.0312   58.7620 C   0  0  0  0  0  0  0  0  0  0  0  0
   72.9023   50.5346   59.5461 F   0  0  0  0  0  0  0  0  0  0  0  0
   72.9299   47.7728   58.8560 C   0  0  0  0  0  0  0  0  0  0  0  0
   71.7351   47.2249   60.8010 O   0  0  0  0  0  0  0  0  0  0  0  0
   72.3450   46.7597   59.7749 C   0  0  0  0  0  0  0  0  0  0  0  0
   72.4134   45.3724   59.5969 N   0  0  0  0  0  0  0  0  0  0  0  0
   71.9268   44.2939   60.4289 C   0  0  0  0  0  0  0  0  0  0  0  0
   71.6225   43.1402   59.4974 C   0  0  1  0  0  0  0  0  0  0  0  0
   70.1422   42.8147   59.4846 C   0  0  0  0  0  0  0  0  0  0  0  0
   69.5275   43.6017   58.4467 N   0  0  0  0  0  0  0  0  0  0  0  0
   70.5063   44.6009   58.0704 C   0  0  0  0  0  0  0  0  0  0  0  0
   71.7906   43.7820   58.1345 C   0  0  1  0  0  0  0  0  0  0  0  0
   72.9821   44.7041   58.4121 C   0  0  0  0  0  0  0  0  0  0  0  0
   68.8003   48.6619   56.2573 C   0  0  0  0  0  0  0  0  0  0  0  0
   69.1996   48.6358   54.8346 C   0  0  0  0  0  0  0  0  0  0  0  0
   70.0194   49.6010   54.3904 N   0  0  0  0  0  0  0  0  0  0  0  0
   70.4575   49.6777   53.1581 N   0  0  0  0  0  0  0  0  0  0  0  0
   70.0901   48.7588   52.2486 C   0  0  0  0  0  0  0  0  0  0  0  0
   70.5200   48.8376   51.0453 O   0  0  0  0  0  0  0  0  0  0  0  0
   69.2455   47.7329   52.6325 C   0  0  0  0  0  0  0  0  0  0  0  0
   68.8623   46.7927   51.7081 C   0  0  0  0  0  0  0  0  0  0  0  0
   68.0172   45.7761   52.0936 C   0  0  0  0  0  0  0  0  0  0  0  0
   67.5639   45.7171   53.4182 C   0  0  0  0  0  0  0  0  0  0  0  0
   67.9454   46.6493   54.3329 C   0  0  0  0  0  0  0  0  0  0  0  0
   68.7894   47.6673   53.9523 C   0  0  0  0  0  0  0  0  0  0  0  0
  9 10  2  0
 10  8  1  0
 10 11  1  0
  8  1  1  0
  1  2  2  0
  1  6  1  0
  2  3  1  0
  3 19  1  0
  3  4  2  0
 19 20  1  0
 20 21  2  0
 20 30  1  0
 21 22  1  0
 22 23  1  0
 23 24  2  0
 23 25  1  0
 25 26  1  0
 25 30  2  0
 26 27  2  0
 27 28  1  0
 28 29  2  0
 29 30  1  0
  4  5  1  0
  5  6  2  0
  6  7  1  0
 11 12  1  0
 11 18  1  0
 13 12  1  1
 13 14  1  0
 13 17  1  0
 14 15  1  0
 15 16  1  0
 17 16  1  1
 17 18  1  0
M  CHG  1  15   1
M  END
>  <minimizedAffinity>  (334) 
-9.15709

$$$$
cs_full_output_folder/data/smiles/1730.pdb
     RDKit          3D

 28 30  0  0  0  0  0  0  0  0999 V2000
   68.1575   45.9151   54.3395 C   0  0  0  0  0  0  0  0  0  0  0  0
   68.5350   46.7957   55.3331 C   0  0  0  0  0  0  0  0  0  0  0  0
   69.2013   47.9738   55.0614 C   0  0  0  0  0  0  0  0  0  0  0  0
   69.5243   48.3282   53.7686 C   0  0  0  0  0  0  0  0  0  0  0  0
   69.1515   47.4549   52.7692 C   0  0  0  0  0  0  0  0  0  0  0  0
   68.4846   46.2792   53.0484 C   0  0  0  0  0  0  0  0  0  0  0  0
   68.9040   44.1764   56.3426 O   0  0  0  0  0  0  0  0  0  0  0  0
   67.8770   43.8212   55.6842 C   0  0  0  0  0  0  0  0  0  0  0  0
   67.2241   42.6181   56.0105 N   0  0  0  0  0  0  0  0  0  0  0  0
   67.4687   44.7021   54.6417 N   0  0  0  0  0  0  0  0  0  0  0  0
   67.6868   41.7977   57.0561 N   0  0  0  0  0  0  0  0  0  0  0  0
   67.9929   40.4401   56.8669 C   0  0  0  0  0  0  0  0  0  0  0  0
   67.8202   40.0114   55.6819 O   0  0  0  0  0  0  0  0  0  0  0  0
   68.4705   39.5744   57.9237 C   0  0  0  0  0  0  0  0  0  0  0  0
   67.6343   38.9111   58.7811 C   0  0  0  0  0  0  0  0  0  0  0  0
   68.1197   38.0866   59.7861 C   0  0  0  0  0  0  0  0  0  0  0  0
   69.4643   37.9129   59.9471 C   0  0  0  0  0  0  0  0  0  0  0  0
   70.3274   38.5676   59.0994 C   0  0  0  0  0  0  0  0  0  0  0  0
   69.8239   39.3975   58.0889 C   0  0  0  0  0  0  0  0  0  0  0  0
   70.3733   49.8263   53.4161 S   0  0  0  0  0  0  0  0  0  0  0  0
   69.9004   50.3607   52.1133 O   0  0  0  0  0  0  0  0  0  0  0  0
   71.8589   49.5792   53.3058 O   0  0  0  0  0  0  0  0  0  0  0  0
   70.1263   50.9083   54.7172 N   0  0  0  0  0  0  0  0  0  0  0  0
   71.2423   51.8260   54.8476 C   0  0  0  0  0  0  0  0  0  0  0  0
   70.9437   52.9539   55.7950 C   0  0  0  0  0  0  0  0  0  0  0  0
   69.6813   52.7039   56.5954 C   0  0  0  0  0  0  0  0  0  0  0  0
   68.5230   52.5034   55.6401 C   0  0  0  0  0  0  0  0  0  0  0  0
   68.9073   51.6568   54.4705 C   0  0  0  0  0  0  0  0  0  0  0  0
  7  8  2  0
  8  9  1  0
  8 10  1  0
  9 11  1  0
 11 12  1  0
 12 13  2  0
 12 14  1  0
 14 15  2  0
 14 19  1  0
 15 16  1  0
 16 17  2  0
 17 18  1  0
 18 19  2  0
 10  1  1  0
  1  2  2  0
  1  6  1  0
  2  3  1  0
  3  4  2  0
  4 20  1  0
  4  5  1  0
 20 21  2  0
 20 22  2  0
 20 23  1  0
 23 24  1  0
 23 28  1  0
 24 25  1  0
 25 26  1  0
 26 27  1  0
 27 28  1  0
  5  6  2  0
M  END
>  <minimizedAffinity>  (335) 
-9.15557

$$$$
cs_full_output_folder/data/smiles/1580.pdb
     RDKit          3D

 27 29  0  0  0  0  0  0  0  0999 V2000
   69.5287   43.4105   57.1860 C   0  0  0  0  0  0  0  0  0  0  0  0
   70.6262   43.8152   57.6329 O   0  0  0  0  0  0  0  0  0  0  0  0
   68.6587   44.3246   56.5448 N   0  0  0  0  0  0  0  0  0  0  0  0
   71.3099   41.3319   58.5392 C   0  0  0  0  0  0  0  0  0  0  0  0
   69.9789   41.0477   57.9506 C   0  0  0  0  0  0  0  0  0  0  0  0
   69.1814   42.0024   57.3383 C   0  0  0  0  0  0  0  0  0  0  0  0
   68.0620   41.3000   56.9471 C   0  0  0  0  0  0  0  0  0  0  0  0
   68.2226   40.0006   57.3244 N   0  0  0  0  0  0  0  0  0  0  0  0
   69.3935   39.8389   57.9394 N   0  0  0  0  0  0  0  0  0  0  0  0
   69.9435   38.6428   58.4856 C   0  0  0  0  0  0  0  0  0  0  0  0
   71.0759   38.0907   57.9140 C   0  0  0  0  0  0  0  0  0  0  0  0
   71.6601   36.9424   58.3804 C   0  0  0  0  0  0  0  0  0  0  0  0
   71.1274   36.2922   59.4557 C   0  0  0  0  0  0  0  0  0  0  0  0
   71.8021   34.8299   60.1150 Cl  0  0  0  0  0  0  0  0  0  0  0  0
   69.9905   36.8077   60.0652 C   0  0  0  0  0  0  0  0  0  0  0  0
   69.4225   37.9690   59.5708 C   0  0  0  0  0  0  0  0  0  0  0  0
   68.9300   45.7375   56.3476 C   0  0  0  0  0  0  0  0  0  0  0  0
   68.7752   46.1417   54.9305 C   0  0  0  0  0  0  0  0  0  0  0  0
   68.0317   45.3679   54.0394 C   0  0  0  0  0  0  0  0  0  0  0  0
   67.8636   45.7099   52.7258 C   0  0  0  0  0  0  0  0  0  0  0  0
   68.4530   46.8705   52.2433 C   0  0  0  0  0  0  0  0  0  0  0  0
   69.1899   47.6569   53.0843 C   0  0  0  0  0  0  0  0  0  0  0  0
   69.3464   47.2870   54.4238 C   0  0  0  0  0  0  0  0  0  0  0  0
   69.9567   49.1334   52.5233 S   0  0  0  0  0  0  0  0  0  0  0  0
   69.1623   50.5099   53.2294 N   0  0  0  0  0  0  0  0  0  0  0  0
   69.9058   49.2540   51.0341 O   0  0  0  0  0  0  0  0  0  0  0  0
   71.4235   49.1165   52.9218 O   0  0  0  0  0  0  0  0  0  0  0  0
  4  5  1  0
  5  6  2  0
  5  9  1  0
  6  1  1  0
  6  7  1  0
  1  2  2  0
  1  3  1  0
  3 17  1  0
 17 18  1  0
 18 19  2  0
 18 23  1  0
 19 20  1  0
 20 21  2  0
 21 22  1  0
 22 24  1  0
 22 23  2  0
 24 25  1  0
 24 26  2  0
 24 27  2  0
  7  8  2  0
  8  9  1  0
  9 10  1  0
 10 11  2  0
 10 16  1  0
 11 12  1  0
 12 13  2  0
 13 14  1  0
 13 15  1  0
 15 16  2  0
M  END
>  <minimizedAffinity>  (336) 
-9.15508

$$$$
cs_full_output_folder/data/smiles/1808.pdb
     RDKit          3D

 31 35  0  0  0  0  0  0  0  0999 V2000
   71.6667   47.1722   59.0720 C   0  0  0  0  0  0  0  0  0  0  0  0
   70.6089   47.6326   58.3421 C   0  0  0  0  0  0  0  0  0  0  0  0
   69.8473   46.8287   57.4740 C   0  0  0  0  0  0  0  0  0  0  0  0
   70.2482   45.5326   57.4129 C   0  0  0  0  0  0  0  0  0  0  0  0
   71.3189   45.0142   58.1361 C   0  0  0  0  0  0  0  0  0  0  0  0
   72.0259   45.8458   58.9676 C   0  0  0  0  0  0  0  0  0  0  0  0
   73.0769   45.3418   59.6785 F   0  0  0  0  0  0  0  0  0  0  0  0
   72.3432   47.8537   61.2028 O   0  0  0  0  0  0  0  0  0  0  0  0
   72.4366   48.0413   59.9663 C   0  0  0  0  0  0  0  0  0  0  0  0
   73.2593   49.0608   59.4660 N   0  0  0  0  0  0  0  0  0  0  0  0
   73.3467   49.2616   58.0408 C   0  0  0  0  0  0  0  0  0  0  0  0
   74.7790   48.9753   57.6570 C   0  0  0  0  0  0  0  0  0  0  0  0
   75.6366   49.8329   58.4223 N   0  0  0  0  0  0  0  0  0  0  0  0
   77.0217   49.8408   58.1136 C   0  0  0  0  0  0  0  0  0  0  0  0
   77.8627   50.5659   58.7374 O   0  0  0  0  0  0  0  0  0  0  0  0
   75.1070   50.6593   59.4691 C   0  0  0  0  0  0  0  0  0  0  0  0
   74.0419   49.9313   60.3078 C   0  0  0  0  0  0  0  0  0  0  0  0
   77.5929   48.9935   57.0295 C   0  0  0  0  0  0  0  0  0  0  0  0
   79.0298   49.0903   56.6722 C   0  0  0  0  0  0  0  0  0  0  0  0
   78.0096   49.6777   55.7916 C   0  0  0  0  0  0  0  0  0  0  0  0
   68.7308   47.4508   56.7155 C   0  0  0  0  0  0  0  0  0  0  0  0
   68.5150   46.8840   55.3750 C   0  0  0  0  0  0  0  0  0  0  0  0
   67.8596   45.6908   55.2152 N   0  0  0  0  0  0  0  0  0  0  0  0
   67.6723   45.1150   54.0498 N   0  0  0  0  0  0  0  0  0  0  0  0
   68.1076   45.6443   52.8958 C   0  0  0  0  0  0  0  0  0  0  0  0
   68.7820   46.8603   52.9911 C   0  0  0  0  0  0  0  0  0  0  0  0
   69.2382   47.4477   51.8210 C   0  0  0  0  0  0  0  0  0  0  0  0
   69.8964   48.6562   51.8922 C   0  0  0  0  0  0  0  0  0  0  0  0
   70.0979   49.2729   53.1084 C   0  0  0  0  0  0  0  0  0  0  0  0
   69.6387   48.6712   54.2479 C   0  0  0  0  0  0  0  0  0  0  0  0
   68.9794   47.4659   54.2128 C   0  0  0  0  0  0  0  0  0  0  0  0
  8  9  2  0
  9  1  1  0
  9 10  1  0
  1  2  2  0
  1  6  1  0
  2  3  1  0
  3 21  1  0
  3  4  2  0
 21 22  1  0
 22 23  2  0
 22 31  1  0
 23 24  1  0
 24 25  2  0
 25 26  1  0
 26 27  1  0
 26 31  2  0
 27 28  2  0
 28 29  1  0
 29 30  2  0
 30 31  1  0
  4  5  1  0
  5  6  2  0
  6  7  1  0
 10 11  1  0
 10 17  1  0
 11 12  1  0
 12 13  1  0
 13 14  1  0
 13 16  1  0
 14 15  2  0
 14 18  1  0
 18 19  1  0
 18 20  1  0
 19 20  1  0
 16 17  1  0
M  END
>  <minimizedAffinity>  (337) 
-9.15460

$$$$
cs_full_output_folder/data/smiles/7571.pdb
     RDKit          3D

 30 33  0  0  0  0  0  0  0  0999 V2000
   71.3014   46.4476   58.8702 C   0  0  0  0  0  0  0  0  0  0  0  0
   70.6217   47.3568   58.0984 C   0  0  0  0  0  0  0  0  0  0  0  0
   69.7499   46.9939   57.0607 C   0  0  0  0  0  0  0  0  0  0  0  0
   69.5975   45.6684   56.8372 C   0  0  0  0  0  0  0  0  0  0  0  0
   70.2528   44.7002   57.5789 C   0  0  0  0  0  0  0  0  0  0  0  0
   71.0981   45.1015   58.5869 C   0  0  0  0  0  0  0  0  0  0  0  0
   71.7580   44.1941   59.3357 F   0  0  0  0  0  0  0  0  0  0  0  0
   76.1857   47.6836   62.8933 C   0  0  0  0  0  0  0  0  0  0  0  0
   76.6142   46.8850   61.7638 N   0  0  0  0  0  0  0  0  0  0  0  0
   75.7783   46.7168   60.7988 C   0  0  0  0  0  0  0  0  0  0  0  0
   74.4307   47.3080   60.8294 C   0  0  0  0  0  0  0  0  0  0  0  0
   73.5988   46.8558   59.7360 N   0  0  0  0  0  0  0  0  0  0  0  0
   72.1918   46.8899   59.9349 C   0  0  0  0  0  0  0  0  0  0  0  0
   71.6565   47.2882   60.9975 O   0  0  0  0  0  0  0  0  0  0  0  0
   74.1279   46.3809   58.4811 C   0  0  0  0  0  0  0  0  0  0  0  0
   75.3022   45.4539   58.6560 C   0  0  0  0  0  0  0  0  0  0  0  0
   76.1967   45.9367   59.6960 N   0  0  0  0  0  0  0  0  0  0  0  0
   77.5905   45.5853   59.5706 C   0  0  0  0  0  0  0  0  0  0  0  0
   69.1123   48.1105   56.3154 C   0  0  0  0  0  0  0  0  0  0  0  0
   69.4971   48.1852   54.8987 C   0  0  0  0  0  0  0  0  0  0  0  0
   70.4809   49.0557   54.4953 N   0  0  0  0  0  0  0  0  0  0  0  0
   70.8504   49.1994   53.2525 N   0  0  0  0  0  0  0  0  0  0  0  0
   70.3225   48.5205   52.2238 C   0  0  0  0  0  0  0  0  0  0  0  0
   70.6749   48.6576   51.0357 O   0  0  0  0  0  0  0  0  0  0  0  0
   69.3192   47.6147   52.5373 C   0  0  0  0  0  0  0  0  0  0  0  0
   68.7362   46.8750   51.5365 C   0  0  0  0  0  0  0  0  0  0  0  0
   67.7483   45.9668   51.8398 C   0  0  0  0  0  0  0  0  0  0  0  0
   67.3446   45.7983   53.1453 C   0  0  0  0  0  0  0  0  0  0  0  0
   67.9536   46.5601   54.1252 C   0  0  0  0  0  0  0  0  0  0  0  0
   68.9329   47.4706   53.8678 C   0  0  0  0  0  0  0  0  0  0  0  0
  8  9  1  0
  9 10  2  0
 10 11  1  0
 10 17  1  0
 11 12  1  0
 12 13  1  0
 12 15  1  0
 13 14  2  0
 13  1  1  0
  1  2  2  0
  1  6  1  0
  2  3  1  0
  3 19  1  0
  3  4  2  0
 19 20  1  0
 20 21  2  0
 20 30  1  0
 21 22  1  0
 22 23  1  0
 23 24  2  0
 23 25  1  0
 25 26  1  0
 25 30  2  0
 26 27  2  0
 27 28  1  0
 28 29  2  0
 29 30  1  0
  4  5  1  0
  5  6  2  0
  6  7  1  0
 15 16  1  0
 16 17  1  0
 17 18  1  0
M  CHG  1   9   1
M  END
>  <minimizedAffinity>  (338) 
-9.15426

$$$$
cs_full_output_folder/data/smiles/2771.pdb
     RDKit          3D

 26 28  0  0  0  0  0  0  0  0999 V2000
   70.7465   42.0209   58.6933 C   0  0  0  0  0  0  0  0  0  0  0  0
   69.6332   41.4370   57.9346 C   0  0  0  0  0  0  0  0  0  0  0  0
   68.8018   42.2021   57.0997 C   0  0  0  0  0  0  0  0  0  0  0  0
   67.9075   41.3348   56.5451 C   0  0  0  0  0  0  0  0  0  0  0  0
   68.1965   40.1205   57.0307 N   0  0  0  0  0  0  0  0  0  0  0  0
   69.2443   40.1860   57.8758 N   0  0  0  0  0  0  0  0  0  0  0  0
   69.6828   38.9763   58.5324 C   0  0  0  0  0  0  0  0  0  0  0  0
   70.7896   38.3427   58.2749 C   0  0  0  0  0  0  0  0  0  0  0  0
   71.2268   37.1044   58.9563 C   0  0  0  0  0  0  0  0  0  0  0  0
   70.4477   36.6140   59.8839 C   0  0  0  0  0  0  0  0  0  0  0  0
   70.9121   35.0036   60.8419 Br  0  0  0  0  0  0  0  0  0  0  0  0
   69.2842   37.2908   60.1515 O   0  0  0  0  0  0  0  0  0  0  0  0
   68.7692   38.4212   59.5742 C   0  0  0  0  0  0  0  0  0  0  0  0
   68.8920   43.6565   56.8899 C   0  0  0  0  0  0  0  0  0  0  0  0
   69.5554   44.2847   57.7263 O   0  0  0  0  0  0  0  0  0  0  0  0
   68.2642   44.2974   55.8051 N   0  0  0  0  0  0  0  0  0  0  0  0
   68.3635   45.7139   55.6182 C   0  0  0  0  0  0  0  0  0  0  0  0
   68.4017   46.1162   54.1939 C   0  0  0  0  0  0  0  0  0  0  0  0
   67.6776   45.4949   53.2175 C   0  0  0  0  0  0  0  0  0  0  0  0
   67.7389   45.8997   51.8828 C   0  0  0  0  0  0  0  0  0  0  0  0
   68.5363   46.9444   51.5065 C   0  0  0  0  0  0  0  0  0  0  0  0
   69.2840   47.5966   52.4708 C   0  0  0  0  0  0  0  0  0  0  0  0
   69.2047   47.1796   53.7718 C   0  0  0  0  0  0  0  0  0  0  0  0
   70.1372   48.7168   52.0899 C   0  0  0  0  0  0  0  0  0  0  0  0
   71.2287   49.1469   52.8712 N   0  0  0  0  0  0  0  0  0  0  0  0
   69.9125   49.3444   51.0211 O   0  0  0  0  0  0  0  0  0  0  0  0
  1  2  1  0
  2  3  2  0
  2  6  1  0
  3 14  1  0
  3  4  1  0
 14 15  2  0
 14 16  1  0
 16 17  1  0
 17 18  1  0
 18 19  2  0
 18 23  1  0
 19 20  1  0
 20 21  2  0
 21 22  1  0
 22 24  1  0
 22 23  2  0
 24 25  1  0
 24 26  2  0
  4  5  2  0
  5  6  1  0
  6  7  1  0
  7  8  2  0
  7 13  1  0
  8  9  1  0
  9 10  2  0
 10 11  1  0
 10 12  1  0
 12 13  1  0
M  END
>  <minimizedAffinity>  (339) 
-9.15418

$$$$
cs_full_output_folder/data/smiles/6305.pdb
     RDKit          3D

 30 33  0  0  0  0  0  0  0  0999 V2000
   71.7433   46.9920   58.9986 C   0  0  0  0  0  0  0  0  0  0  0  0
   70.7637   47.6527   58.2902 C   0  0  0  0  0  0  0  0  0  0  0  0
   69.9244   46.9611   57.4136 C   0  0  0  0  0  0  0  0  0  0  0  0
   70.1175   45.6098   57.2918 C   0  0  0  0  0  0  0  0  0  0  0  0
   71.1071   44.9247   58.0030 C   0  0  0  0  0  0  0  0  0  0  0  0
   71.9073   45.6300   58.8482 C   0  0  0  0  0  0  0  0  0  0  0  0
   72.8780   44.9615   59.5469 F   0  0  0  0  0  0  0  0  0  0  0  0
   76.2677   49.5466   58.6647 C   0  0  1  0  0  0  0  0  0  0  0  0
   75.2781   50.1495   59.6299 C   0  0  0  0  0  0  0  0  0  0  0  0
   74.6888   49.0076   60.4520 C   0  0  0  0  0  0  0  0  0  0  0  0
   73.8570   48.2595   59.5379 N   0  0  0  0  0  0  0  0  0  0  0  0
   72.6038   47.7508   59.9057 C   0  0  0  0  0  0  0  0  0  0  0  0
   72.1715   47.9445   61.0728 O   0  0  0  0  0  0  0  0  0  0  0  0
   74.3747   48.0476   58.2005 C   0  0  0  0  0  0  0  0  0  0  0  0
   75.8726   48.2094   58.1370 C   0  0  2  0  0  0  0  0  0  0  0  0
   76.6058   47.0767   58.8282 C   0  0  0  0  0  0  0  0  0  0  0  0
   77.4830   50.0991   56.8051 C   0  0  0  0  0  0  0  0  0  0  0  0
   76.3829   50.4488   57.5889 O   0  0  0  0  0  0  0  0  0  0  0  0
   68.8891   47.7622   56.7211 C   0  0  0  0  0  0  0  0  0  0  0  0
   69.3115   48.0636   55.3557 C   0  0  0  0  0  0  0  0  0  0  0  0
   70.2350   49.0568   55.1461 N   0  0  0  0  0  0  0  0  0  0  0  0
   70.6854   49.3424   53.9500 N   0  0  0  0  0  0  0  0  0  0  0  0
   70.2890   48.6992   52.8514 C   0  0  0  0  0  0  0  0  0  0  0  0
   70.7571   49.0167   51.7302 O   0  0  0  0  0  0  0  0  0  0  0  0
   69.3585   47.6902   53.0070 C   0  0  0  0  0  0  0  0  0  0  0  0
   68.9280   47.0243   51.8834 C   0  0  0  0  0  0  0  0  0  0  0  0
   67.9926   46.0238   51.9887 C   0  0  0  0  0  0  0  0  0  0  0  0
   67.5070   45.7102   53.2243 C   0  0  0  0  0  0  0  0  0  0  0  0
   67.9374   46.3787   54.3715 C   0  0  0  0  0  0  0  0  0  0  0  0
   68.8751   47.3827   54.2746 C   0  0  0  0  0  0  0  0  0  0  0  0
 17 18  1  0
  8 18  1  6
  8  9  1  0
  8 15  1  0
  9 10  1  0
 10 11  1  0
 11 12  1  0
 11 14  1  0
 12 13  2  0
 12  1  1  0
  1  2  2  0
  1  6  1  0
  2  3  1  0
  3 19  1  0
  3  4  2  0
 19 20  1  0
 20 21  2  0
 20 30  1  0
 21 22  1  0
 22 23  1  0
 23 24  2  0
 23 25  1  0
 25 26  1  0
 25 30  2  0
 26 27  2  0
 27 28  1  0
 28 29  2  0
 29 30  1  0
  4  5  1  0
  5  6  2  0
  6  7  1  0
 14 15  1  0
 15 16  1  1
M  END
>  <minimizedAffinity>  (340) 
-9.15326

$$$$
cs_full_output_folder/data/smiles/485.pdb
     RDKit          3D

 32 36  0  0  0  0  0  0  0  0999 V2000
   70.6852   46.0109   58.2810 C   0  0  0  0  0  0  0  0  0  0  0  0
   71.7999   46.7832   58.6811 C   0  0  0  0  0  0  0  0  0  0  0  0
   71.9906   48.0869   58.3057 C   0  0  0  0  0  0  0  0  0  0  0  0
   71.0604   48.7001   57.4962 C   0  0  0  0  0  0  0  0  0  0  0  0
   69.9594   48.0061   57.0771 C   0  0  0  0  0  0  0  0  0  0  0  0
   69.8087   46.6742   57.4888 C   0  0  0  0  0  0  0  0  0  0  0  0
   69.6172   44.3181   59.4978 O   0  0  0  0  0  0  0  0  0  0  0  0
   70.6635   44.6574   58.7357 C   0  0  0  0  0  0  0  0  0  0  0  0
   71.5038   43.5618   58.5700 N   0  0  0  0  0  0  0  0  0  0  0  0
   72.7015   43.4840   57.8276 C   0  0  0  0  0  0  0  0  0  0  0  0
   73.8455   42.9495   58.6951 C   0  0  0  0  0  0  0  0  0  0  0  0
   73.8227   43.5553   60.0760 C   0  0  0  0  0  0  0  0  0  0  0  0
   72.7870   43.1050   60.9405 N   0  0  0  0  0  0  0  0  0  0  0  0
   73.0206   43.3723   62.3090 C   0  0  0  0  0  0  0  0  0  0  0  0
   72.0889   42.8403   63.0953 O   0  0  0  0  0  0  0  0  0  0  0  0
   71.5105   42.4270   60.7015 C   0  0  0  0  0  0  0  0  0  0  0  0
   71.0416   42.3242   59.3113 C   0  0  0  0  0  0  0  0  0  0  0  0
   74.0617   44.0965   62.9878 C   0  0  0  0  0  0  0  0  0  0  0  0
   74.4687   44.1945   64.3743 C   0  0  0  0  0  0  0  0  0  0  0  0
   75.2109   43.1721   63.5058 C   0  0  0  0  0  0  0  0  0  0  0  0
   69.0089   48.6520   56.1680 C   0  0  0  0  0  0  0  0  0  0  0  0
   69.3859   48.6247   54.7539 C   0  0  0  0  0  0  0  0  0  0  0  0
   70.2646   49.5477   54.2869 N   0  0  0  0  0  0  0  0  0  0  0  0
   70.6574   49.5735   53.0198 N   0  0  0  0  0  0  0  0  0  0  0  0
   70.2268   48.7028   52.1133 C   0  0  0  0  0  0  0  0  0  0  0  0
   70.5698   48.6868   50.8991 O   0  0  0  0  0  0  0  0  0  0  0  0
   69.3265   47.7312   52.5201 C   0  0  0  0  0  0  0  0  0  0  0  0
   68.8128   46.7899   51.6719 C   0  0  0  0  0  0  0  0  0  0  0  0
   67.9192   45.8477   52.1117 C   0  0  0  0  0  0  0  0  0  0  0  0
   67.5101   45.8237   53.4434 C   0  0  0  0  0  0  0  0  0  0  0  0
   68.0108   46.7577   54.3180 C   0  0  0  0  0  0  0  0  0  0  0  0
   68.9154   47.7083   53.8570 C   0  0  0  0  0  0  0  0  0  0  0  0
  7  8  2  0
  8  1  1  0
  8  9  1  0
  1  2  2  0
  1  6  1  0
  2  3  1  0
  3  4  2  0
  4  5  1  0
  5 21  1  0
  5  6  2  0
 21 22  1  0
 22 23  2  0
 22 32  1  0
 23 24  1  0
 24 25  1  0
 25 26  2  0
 25 27  1  0
 27 28  1  0
 27 32  2  0
 28 29  2  0
 29 30  1  0
 30 31  2  0
 31 32  1  0
  9 10  1  0
  9 17  1  0
 10 11  1  0
 11 12  1  0
 12 13  1  0
 13 14  1  0
 13 16  1  0
 14 15  2  0
 14 18  1  0
 18 19  1  0
 18 20  1  0
 19 20  1  0
 16 17  1  0
M  END
>  <minimizedAffinity>  (341) 
-9.15129

$$$$
cs_full_output_folder/data/smiles/5677.pdb
     RDKit          3D

 29 32  0  0  0  0  0  0  0  0999 V2000
   70.1598   41.4880   57.9126 N   0  0  0  0  0  0  0  0  0  0  0  0
   69.4457   40.4000   57.9303 C   0  0  0  0  0  0  0  0  0  0  0  0
   68.2605   40.4380   57.2192 N   0  0  0  0  0  0  0  0  0  0  0  0
   67.8437   41.5101   56.5476 C   0  0  0  0  0  0  0  0  0  0  0  0
   66.7713   41.7768   55.7792 N   0  0  0  0  0  0  0  0  0  0  0  0
   66.8312   42.9965   55.3113 N   0  0  0  0  0  0  0  0  0  0  0  0
   67.9727   43.6337   55.7509 C   0  0  0  0  0  0  0  0  0  0  0  0
   68.5902   42.6725   56.5238 C   0  0  0  0  0  0  0  0  0  0  0  0
   69.7615   42.6261   57.2252 C   0  0  0  0  0  0  0  0  0  0  0  0
   70.4970   43.6373   57.2435 O   0  0  0  0  0  0  0  0  0  0  0  0
   69.7452   39.1633   58.6560 C   0  0  0  0  0  0  0  0  0  0  0  0
   68.8247   38.8335   59.6899 C   0  0  0  0  0  0  0  0  0  0  0  0
   68.8825   37.7091   60.4247 C   0  0  0  0  0  0  0  0  0  0  0  0
   69.8807   36.7888   60.1969 C   0  0  0  0  0  0  0  0  0  0  0  0
   69.9761   35.3115   61.1423 Cl  0  0  0  0  0  0  0  0  0  0  0  0
   70.7751   37.0902   59.2066 C   0  0  0  0  0  0  0  0  0  0  0  0
   70.7132   38.2661   58.4412 C   0  0  0  0  0  0  0  0  0  0  0  0
   68.3574   44.9744   55.3633 C   0  0  0  0  0  0  0  0  0  0  0  0
   68.0997   45.2909   54.0114 C   0  0  0  0  0  0  0  0  0  0  0  0
   68.3302   46.5229   53.4672 C   0  0  0  0  0  0  0  0  0  0  0  0
   68.8387   47.5420   54.2383 C   0  0  0  0  0  0  0  0  0  0  0  0
   69.0934   47.2553   55.5530 C   0  0  0  0  0  0  0  0  0  0  0  0
   68.8520   45.9803   56.1049 C   0  0  0  0  0  0  0  0  0  0  0  0
   69.0848   48.8745   53.6344 C   0  0  0  0  0  0  0  0  0  0  0  0
   70.1263   48.7655   52.5875 C   0  0  0  0  0  0  0  0  0  0  0  0
   71.3290   48.9455   52.8985 O   0  0  0  0  0  0  0  0  0  0  0  0
   69.8248   48.4683   51.2631 O   0  0  0  0  0  0  0  0  0  0  0  0
   71.1494   42.0838   60.0021 C   0  0  0  0  0  0  0  0  0  0  0  0
   71.4228   41.6382   58.5858 C   0  0  0  0  0  0  0  0  0  0  0  0
 28 29  1  0
 29  1  1  0
  1  2  1  0
  1  9  1  0
  2 11  1  0
  2  3  2  0
 11 12  2  0
 11 17  1  0
 12 13  1  0
 13 14  2  0
 14 15  1  0
 14 16  1  0
 16 17  2  0
  3  4  1  0
  4  5  2  0
  4  8  1  0
  5  6  1  0
  6  7  1  0
  7 18  1  0
  7  8  2  0
 18 19  2  0
 18 23  1  0
 19 20  1  0
 20 21  2  0
 21 24  1  0
 21 22  1  0
 24 25  1  0
 25 26  2  0
 25 27  1  0
 22 23  2  0
  8  9  1  0
  9 10  2  0
M  END
>  <minimizedAffinity>  (342) 
-9.14966

$$$$
cs_full_output_folder/data/smiles/3657.pdb
     RDKit          3D

 22 24  0  0  0  0  0  0  0  0999 V2000
   70.4964   48.7807   50.9355 O   0  0  0  0  0  0  0  0  0  0  0  0
   70.2622   48.5686   52.1489 C   0  0  0  0  0  0  0  0  0  0  0  0
   70.9034   49.2397   53.1435 N   0  0  0  0  0  0  0  0  0  0  0  0
   70.6668   49.0255   54.4062 N   0  0  0  0  0  0  0  0  0  0  0  0
   69.7615   48.1193   54.8570 C   0  0  0  0  0  0  0  0  0  0  0  0
   69.0792   47.4051   53.9142 C   0  0  0  0  0  0  0  0  0  0  0  0
   68.1593   46.4562   54.2877 C   0  0  0  0  0  0  0  0  0  0  0  0
   67.4601   45.7054   53.3887 C   0  0  0  0  0  0  0  0  0  0  0  0
   67.6985   45.9216   52.0376 C   0  0  0  0  0  0  0  0  0  0  0  0
   68.6261   46.8776   51.6426 C   0  0  0  0  0  0  0  0  0  0  0  0
   69.3309   47.6325   52.5459 C   0  0  0  0  0  0  0  0  0  0  0  0
   69.5485   48.0357   56.2866 C   0  0  0  0  0  0  0  0  0  0  0  0
   68.5786   49.0272   56.8193 C   0  0  0  0  0  0  0  0  0  0  0  0
   67.4056   48.7428   57.4570 C   0  0  0  0  0  0  0  0  0  0  0  0
   66.5952   49.7957   57.8801 C   0  0  0  0  0  0  0  0  0  0  0  0
   66.9631   51.0980   57.6627 C   0  0  0  0  0  0  0  0  0  0  0  0
   68.1591   51.4253   57.0114 C   0  0  0  0  0  0  0  0  0  0  0  0
   68.9226   50.3568   56.6144 C   0  0  0  0  0  0  0  0  0  0  0  0
   68.4986   52.7556   56.8089 O   0  0  0  0  0  0  0  0  0  0  0  0
   69.5296   53.0704   55.9157 C   0  0  0  0  0  0  0  0  0  0  0  0
   70.3951   54.0679   56.5414 N   0  0  0  0  0  0  0  0  0  0  0  0
   72.1247   53.1580   57.2659 I   0  0  0  0  0  0  0  0  0  0  0  0
  1  2  2  0
  2  3  1  0
  2 11  1  0
  3  4  1  0
  4  5  2  0
  5 12  1  0
  5  6  1  0
 12 13  1  0
 13 14  2  0
 13 18  1  0
 14 15  1  0
 15 16  2  0
 16 17  1  0
 17 19  1  0
 17 18  2  0
 19 20  1  0
 20 21  1  0
 21 22  1  0
  6  7  1  0
  6 11  2  0
  7  8  2  0
  8  9  1  0
  9 10  2  0
 10 11  1  0
M  END
>  <minimizedAffinity>  (343) 
-9.14649

$$$$
cs_full_output_folder/data/smiles/98.pdb
     RDKit          3D

 28 30  0  0  0  0  0  0  0  0999 V2000
   68.4196   46.0217   54.1355 C   0  0  0  0  0  0  0  0  0  0  0  0
   67.8808   45.6032   52.9379 C   0  0  0  0  0  0  0  0  0  0  0  0
   67.9993   46.2979   51.7683 C   0  0  0  0  0  0  0  0  0  0  0  0
   68.6876   47.4866   51.7493 C   0  0  0  0  0  0  0  0  0  0  0  0
   69.2400   47.9421   52.9166 C   0  0  0  0  0  0  0  0  0  0  0  0
   69.1084   47.2149   54.1062 C   0  0  0  0  0  0  0  0  0  0  0  0
   67.8147   43.8867   55.3803 N   0  0  0  0  0  0  0  0  0  0  0  0
   68.2534   45.2284   55.3446 C   0  0  0  0  0  0  0  0  0  0  0  0
   68.5161   45.7658   56.4508 O   0  0  0  0  0  0  0  0  0  0  0  0
   67.5277   41.7471   56.5989 C   0  0  0  0  0  0  0  0  0  0  0  0
   67.5515   41.1393   55.4851 O   0  0  0  0  0  0  0  0  0  0  0  0
   67.6610   43.1404   56.5513 N   0  0  0  0  0  0  0  0  0  0  0  0
   66.9619   38.5272   61.3734 C   0  0  0  0  0  0  0  0  0  0  0  0
   67.0973   39.3746   60.1454 C   0  0  0  0  0  0  0  0  0  0  0  0
   66.4939   40.6062   60.0418 C   0  0  0  0  0  0  0  0  0  0  0  0
   66.6262   41.3908   58.8923 C   0  0  0  0  0  0  0  0  0  0  0  0
   67.3672   40.9576   57.8154 C   0  0  0  0  0  0  0  0  0  0  0  0
   67.9659   39.7206   57.9334 C   0  0  0  0  0  0  0  0  0  0  0  0
   67.8383   38.9414   59.0684 C   0  0  0  0  0  0  0  0  0  0  0  0
   70.1334   49.4305   53.0123 S   0  0  0  0  0  0  0  0  0  0  0  0
   71.5926   49.0904   52.8923 O   0  0  0  0  0  0  0  0  0  0  0  0
   69.8011   50.3731   51.8887 O   0  0  0  0  0  0  0  0  0  0  0  0
   69.8955   50.2566   54.4904 N   0  0  0  0  0  0  0  0  0  0  0  0
   71.0756   51.0300   54.8019 C   0  0  0  0  0  0  0  0  0  0  0  0
   70.8851   51.9828   55.9348 C   0  0  0  0  0  0  0  0  0  0  0  0
   69.6559   52.6084   55.9541 O   0  0  0  0  0  0  0  0  0  0  0  0
   69.0054   52.5254   54.7212 C   0  0  0  0  0  0  0  0  0  0  0  0
   68.6869   51.0386   54.5212 C   0  0  0  0  0  0  0  0  0  0  0  0
 13 14  1  0
 14 15  2  0
 14 19  1  0
 15 16  1  0
 16 17  2  0
 17 10  1  0
 17 18  1  0
 10 11  2  0
 10 12  1  0
 12  7  1  0
  7  8  1  0
  8  9  2  0
  8  1  1  0
  1  2  2  0
  1  6  1  0
  2  3  1  0
  3  4  2  0
  4  5  1  0
  5 20  1  0
  5  6  2  0
 20 21  2  0
 20 22  2  0
 20 23  1  0
 23 24  1  0
 23 28  1  0
 24 25  1  0
 25 26  1  0
 26 27  1  0
 27 28  1  0
 18 19  2  0
M  END
>  <minimizedAffinity>  (344) 
-9.14618

$$$$
cs_full_output_folder/data/smiles/8315.pdb
     RDKit          3D

 26 27  0  0  0  0  0  0  0  0999 V2000
   70.0011   49.2609   52.6463 S   0  0  0  0  0  0  0  0  0  0  0  0
   70.1996   49.0727   51.1651 O   0  0  0  0  0  0  0  0  0  0  0  0
   71.3399   49.4150   53.3093 O   0  0  0  0  0  0  0  0  0  0  0  0
   69.2435   47.8099   53.2785 C   0  0  0  0  0  0  0  0  0  0  0  0
   68.5672   46.9221   52.4820 C   0  0  0  0  0  0  0  0  0  0  0  0
   68.4858   47.1867   51.1568 F   0  0  0  0  0  0  0  0  0  0  0  0
   67.9895   45.7946   53.0309 C   0  0  0  0  0  0  0  0  0  0  0  0
   67.3236   44.9210   52.2406 F   0  0  0  0  0  0  0  0  0  0  0  0
   68.0903   45.5539   54.3905 C   0  0  0  0  0  0  0  0  0  0  0  0
   67.5307   44.4507   54.9582 F   0  0  0  0  0  0  0  0  0  0  0  0
   68.7691   46.4418   55.2041 C   0  0  0  0  0  0  0  0  0  0  0  0
   68.8563   46.1879   56.5309 F   0  0  0  0  0  0  0  0  0  0  0  0
   69.3352   47.5614   54.6204 C   0  0  0  0  0  0  0  0  0  0  0  0
   69.9913   48.4144   55.4239 F   0  0  0  0  0  0  0  0  0  0  0  0
   69.0705   50.6604   52.9832 N   0  0  0  0  0  0  0  0  0  0  0  0
   70.1151   52.8458   55.7884 C   0  0  0  0  0  0  0  0  0  0  0  0
   69.0975   52.5443   56.7244 C   0  0  0  0  0  0  0  0  0  0  0  0
   68.1177   51.6458   56.4006 C   0  0  0  0  0  0  0  0  0  0  0  0
   68.0576   51.0001   55.1928 C   0  0  0  0  0  0  0  0  0  0  0  0
   69.0421   51.2780   54.2617 C   0  0  0  0  0  0  0  0  0  0  0  0
   70.0345   52.1908   54.5934 C   0  0  0  0  0  0  0  0  0  0  0  0
   71.3647   54.0092   56.2384 S   0  0  0  0  0  0  0  0  0  0  0  0
   72.0783   52.4739   58.2128 O   0  0  0  0  0  0  0  0  0  0  0  0
   72.3136   53.4986   57.6381 C   0  0  0  0  0  0  0  0  0  0  0  0
   73.4568   54.3504   58.1521 C   0  0  0  0  0  0  0  0  0  0  0  0
   74.4172   54.4587   57.1801 O   0  0  0  0  0  0  0  0  0  0  0  0
 23 24  2  0
 24 25  1  0
 24 22  1  0
 25 26  1  0
 22 16  1  0
 16 17  2  0
 16 21  1  0
 17 18  1  0
 18 19  2  0
 19 20  1  0
 20 15  1  0
 20 21  2  0
 15  1  1  0
  1  2  2  0
  1  3  2  0
  1  4  1  0
  4  5  2  0
  4 13  1  0
  5  6  1  0
  5  7  1  0
  7  8  1  0
  7  9  2  0
  9 10  1  0
  9 11  1  0
 11 12  1  0
 11 13  2  0
 13 14  1  0
M  END
>  <minimizedAffinity>  (345) 
-9.14480

$$$$
cs_full_output_folder/data/smiles/6789.pdb
     RDKit          3D

 32 36  0  0  0  0  0  0  0  0999 V2000
   72.0303   47.7739   58.7997 C   0  0  0  0  0  0  0  0  0  0  0  0
   70.9426   47.9642   58.1087 C   0  0  0  0  0  0  0  0  0  0  0  0
   70.7598   48.9975   57.1237 C   0  0  0  0  0  0  0  0  0  0  0  0
   71.8073   49.8169   56.9186 C   0  0  0  0  0  0  0  0  0  0  0  0
   73.0776   49.7116   57.6221 C   0  0  0  0  0  0  0  0  0  0  0  0
   73.2162   48.6594   58.6189 C   0  0  1  0  0  0  0  0  0  0  0  0
   73.4767   49.2403   59.8723 F   0  0  0  0  0  0  0  0  0  0  0  0
   71.6553   47.0537   60.9510 O   0  0  0  0  0  0  0  0  0  0  0  0
   72.1686   46.6923   59.7986 C   0  0  0  0  0  0  0  0  0  0  0  0
   72.6990   45.4478   59.7604 N   0  0  0  0  0  0  0  0  0  0  0  0
   73.4021   44.7243   58.7611 C   0  0  0  0  0  0  0  0  0  0  0  0
   72.2959   43.8967   58.0538 C   0  0  0  0  0  0  0  0  0  0  0  0
   71.6637   43.1501   59.1293 N   0  0  0  0  0  0  0  0  0  0  0  0
   70.5753   42.3101   58.8333 C   0  0  0  0  0  0  0  0  0  0  0  0
   70.0455   41.7201   59.8671 O   0  0  0  0  0  0  0  0  0  0  0  0
   72.1262   43.2364   60.5009 C   0  0  0  0  0  0  0  0  0  0  0  0
   72.4931   44.5939   60.9826 C   0  0  0  0  0  0  0  0  0  0  0  0
   69.9465   41.9948   57.5657 C   0  0  0  0  0  0  0  0  0  0  0  0
   69.0442   43.1523   57.0554 C   0  0  0  0  0  0  0  0  0  0  0  0
   68.5527   41.7658   57.2587 C   0  0  0  0  0  0  0  0  0  0  0  0
   69.5454   49.2109   56.3520 C   0  0  0  0  0  0  0  0  0  0  0  0
   69.6757   48.9971   54.9158 C   0  0  0  0  0  0  0  0  0  0  0  0
   70.4242   49.8889   54.2024 N   0  0  0  0  0  0  0  0  0  0  0  0
   70.6603   49.7590   52.9138 N   0  0  0  0  0  0  0  0  0  0  0  0
   70.1879   48.7426   52.1881 C   0  0  0  0  0  0  0  0  0  0  0  0
   70.4609   48.6932   50.9635 O   0  0  0  0  0  0  0  0  0  0  0  0
   69.4160   47.7927   52.8349 C   0  0  0  0  0  0  0  0  0  0  0  0
   68.8933   46.7537   52.1130 C   0  0  0  0  0  0  0  0  0  0  0  0
   68.0971   45.8169   52.7353 C   0  0  0  0  0  0  0  0  0  0  0  0
   67.8575   45.9680   54.0837 C   0  0  0  0  0  0  0  0  0  0  0  0
   68.3895   47.0149   54.7965 C   0  0  0  0  0  0  0  0  0  0  0  0
   69.1806   47.9461   54.1837 C   0  0  0  0  0  0  0  0  0  0  0  0
  8  9  2  0
  9  1  1  0
  9 10  1  0
  1  2  2  0
  1  6  1  0
  2  3  1  0
  3 21  1  0
  3  4  2  0
 21 22  1  0
 22 23  2  0
 22 32  1  0
 23 24  1  0
 24 25  1  0
 25 26  2  0
 25 27  1  0
 27 28  1  0
 27 32  2  0
 28 29  2  0
 29 30  1  0
 30 31  2  0
 31 32  1  0
  4  5  1  0
  5  6  1  0
  6  7  1  1
 10 11  1  0
 10 17  1  0
 11 12  1  0
 12 13  1  0
 13 14  1  0
 13 16  1  0
 14 15  2  0
 14 18  1  0
 18 19  1  0
 18 20  1  0
 19 20  1  0
 16 17  1  0
M  END
>  <minimizedAffinity>  (346) 
-9.14455

$$$$
cs_full_output_folder/data/smiles/8718.pdb
     RDKit          3D

 29 31  0  0  0  0  0  0  0  0999 V2000
   69.5313   44.7487   57.2768 N   0  0  0  0  0  0  0  0  0  0  0  0
   69.8261   46.1290   57.2585 C   0  0  0  0  0  0  0  0  0  0  0  0
   70.9254   46.5270   57.7055 O   0  0  0  0  0  0  0  0  0  0  0  0
   70.3759   43.7473   57.8192 C   0  0  2  0  0  0  0  0  0  0  0  0
   69.6654   42.3883   57.7273 C   0  0  0  0  0  0  0  0  0  0  0  0
   68.4999   42.2548   57.0496 C   0  0  0  0  0  0  0  0  0  0  0  0
   67.8427   41.0349   56.9229 C   0  0  0  0  0  0  0  0  0  0  0  0
   68.4203   39.9100   57.5250 C   0  0  0  0  0  0  0  0  0  0  0  0
   67.8216   38.7046   57.4251 F   0  0  0  0  0  0  0  0  0  0  0  0
   69.5947   40.0572   58.2040 C   0  0  0  0  0  0  0  0  0  0  0  0
   70.1745   38.9708   58.8047 F   0  0  0  0  0  0  0  0  0  0  0  0
   70.2352   41.2784   58.3200 C   0  0  0  0  0  0  0  0  0  0  0  0
   72.4737   44.5780   60.9607 C   0  0  0  0  0  0  0  0  0  0  0  0
   72.0252   44.3189   59.5861 N   0  0  0  0  0  0  0  0  0  0  0  0
   70.6656   43.9379   59.2930 C   0  0  0  0  0  0  0  0  0  0  0  0
   69.8217   43.7964   60.1868 O   0  0  0  0  0  0  0  0  0  0  0  0
   68.8643   47.1285   56.7174 C   0  0  0  0  0  0  0  0  0  0  0  0
   69.2465   47.7603   55.4486 C   0  0  0  0  0  0  0  0  0  0  0  0
   70.0142   48.8677   55.3966 N   0  0  0  0  0  0  0  0  0  0  0  0
   70.4080   49.4570   54.2912 N   0  0  0  0  0  0  0  0  0  0  0  0
   71.2535   50.6675   54.2811 C   0  0  0  0  0  0  0  0  0  0  0  0
   70.0341   48.9426   53.0870 C   0  0  0  0  0  0  0  0  0  0  0  0
   70.4106   49.5095   52.0171 O   0  0  0  0  0  0  0  0  0  0  0  0
   69.2461   47.8041   53.0552 C   0  0  0  0  0  0  0  0  0  0  0  0
   68.8693   47.2816   51.8465 C   0  0  0  0  0  0  0  0  0  0  0  0
   68.0756   46.1355   51.7812 C   0  0  0  0  0  0  0  0  0  0  0  0
   67.6820   45.5496   52.9431 C   0  0  0  0  0  0  0  0  0  0  0  0
   68.0669   46.0804   54.1595 C   0  0  0  0  0  0  0  0  0  0  0  0
   68.8528   47.2135   54.2600 C   0  0  0  0  0  0  0  0  0  0  0  0
 13 14  1  0
 14 15  1  0
 15 16  2  0
 15  4  1  0
  4  1  1  1
  4  5  1  0
  1  2  1  0
  2  3  2  0
  2 17  1  0
 17 18  1  0
 18 19  2  0
 18 29  1  0
 19 20  1  0
 20 21  1  0
 20 22  1  0
 22 23  2  0
 22 24  1  0
 24 25  1  0
 24 29  2  0
 25 26  2  0
 26 27  1  0
 27 28  2  0
 28 29  1  0
  5  6  2  0
  5 12  1  0
  6  7  1  0
  7  8  2  0
  8  9  1  0
  8 10  1  0
 10 11  1  0
 10 12  2  0
M  END
>  <minimizedAffinity>  (347) 
-9.14212

$$$$
cs_full_output_folder/data/smiles/3214.pdb
     RDKit          3D

 30 33  0  0  0  0  0  0  0  0999 V2000
   71.5154   47.1169   58.8815 C   0  0  0  0  0  0  0  0  0  0  0  0
   70.5871   47.7451   58.0913 C   0  0  0  0  0  0  0  0  0  0  0  0
   69.7401   47.0608   57.2095 C   0  0  0  0  0  0  0  0  0  0  0  0
   69.8473   45.6989   57.1327 C   0  0  0  0  0  0  0  0  0  0  0  0
   70.7936   45.0513   57.9371 C   0  0  0  0  0  0  0  0  0  0  0  0
   71.6149   45.7439   58.7975 C   0  0  0  0  0  0  0  0  0  0  0  0
   72.5367   45.1419   59.5846 F   0  0  0  0  0  0  0  0  0  0  0  0
   76.4117   49.1719   58.9047 N   0  0  0  0  0  0  0  0  0  0  0  0
   76.0174   49.5787   57.5892 C   0  0  0  0  0  0  0  0  0  0  0  0
   74.5525   49.8130   57.5161 C   0  0  0  0  0  0  0  0  0  0  0  0
   73.8482   48.5045   57.9041 C   0  0  0  0  0  0  0  0  0  0  0  0
   73.5392   48.5589   59.3186 N   0  0  0  0  0  0  0  0  0  0  0  0
   72.3956   47.8763   59.7984 C   0  0  0  0  0  0  0  0  0  0  0  0
   72.1109   47.9057   61.0049 O   0  0  0  0  0  0  0  0  0  0  0  0
   74.3425   49.2843   60.2777 C   0  0  0  0  0  0  0  0  0  0  0  0
   75.7988   49.0349   60.1661 C   0  0  0  0  0  0  0  0  0  0  0  0
   78.7687   49.7106   59.0567 C   0  0  0  0  0  0  0  0  0  0  0  0
   77.8135   48.8107   58.9373 C   0  0  0  0  0  0  0  0  0  0  0  0
   68.7832   47.8328   56.3734 C   0  0  0  0  0  0  0  0  0  0  0  0
   69.2108   48.0482   54.9941 C   0  0  0  0  0  0  0  0  0  0  0  0
   70.0936   49.0566   54.6970 N   0  0  0  0  0  0  0  0  0  0  0  0
   70.4817   49.3288   53.4677 N   0  0  0  0  0  0  0  0  0  0  0  0
   70.0335   48.6288   52.4061 C   0  0  0  0  0  0  0  0  0  0  0  0
   70.4501   48.9514   51.2673 O   0  0  0  0  0  0  0  0  0  0  0  0
   69.1441   47.5957   52.6050 C   0  0  0  0  0  0  0  0  0  0  0  0
   68.6802   46.8540   51.5486 C   0  0  0  0  0  0  0  0  0  0  0  0
   67.8116   45.8231   51.7666 C   0  0  0  0  0  0  0  0  0  0  0  0
   67.3970   45.5200   53.0382 C   0  0  0  0  0  0  0  0  0  0  0  0
   67.8753   46.2773   54.0809 C   0  0  0  0  0  0  0  0  0  0  0  0
   68.7538   47.3331   53.9245 C   0  0  0  0  0  0  0  0  0  0  0  0
 17 18  2  0
 18  8  1  0
  8  9  1  0
  8 16  1  0
  9 10  1  0
 10 11  1  0
 11 12  1  0
 12 13  1  0
 12 15  1  0
 13 14  2  0
 13  1  1  0
  1  2  2  0
  1  6  1  0
  2  3  1  0
  3 19  1  0
  3  4  2  0
 19 20  1  0
 20 21  2  0
 20 30  1  0
 21 22  1  0
 22 23  1  0
 23 24  2  0
 23 25  1  0
 25 26  1  0
 25 30  2  0
 26 27  2  0
 27 28  1  0
 28 29  2  0
 29 30  1  0
  4  5  1  0
  5  6  2  0
  6  7  1  0
 15 16  1  0
M  END
>  <minimizedAffinity>  (348) 
-9.13979

$$$$
cs_full_output_folder/data/smiles/2271.pdb
     RDKit          3D

 26 27  0  0  0  0  0  0  0  0999 V2000
   70.0469   49.2330   52.5131 S   0  0  0  0  0  0  0  0  0  0  0  0
   69.9973   49.1444   50.9846 O   0  0  0  0  0  0  0  0  0  0  0  0
   71.5150   49.1279   52.9438 O   0  0  0  0  0  0  0  0  0  0  0  0
   69.2583   47.8163   53.0964 C   0  0  0  0  0  0  0  0  0  0  0  0
   69.2519   47.5527   54.4458 C   0  0  0  0  0  0  0  0  0  0  0  0
   69.8549   48.3818   55.3525 F   0  0  0  0  0  0  0  0  0  0  0  0
   68.6361   46.4308   54.9844 C   0  0  0  0  0  0  0  0  0  0  0  0
   68.6515   46.2038   56.3295 F   0  0  0  0  0  0  0  0  0  0  0  0
   68.0061   45.5415   54.1688 C   0  0  0  0  0  0  0  0  0  0  0  0
   67.4157   44.4571   54.7260 F   0  0  0  0  0  0  0  0  0  0  0  0
   67.9979   45.7820   52.8067 C   0  0  0  0  0  0  0  0  0  0  0  0
   67.3563   44.8705   52.0034 F   0  0  0  0  0  0  0  0  0  0  0  0
   68.6142   46.9014   52.2858 C   0  0  0  0  0  0  0  0  0  0  0  0
   68.6044   47.1351   50.9549 F   0  0  0  0  0  0  0  0  0  0  0  0
   69.4735   50.7229   53.0416 N   0  0  0  0  0  0  0  0  0  0  0  0
   71.7193   52.5664   55.4260 C   0  0  0  0  0  0  0  0  0  0  0  0
   70.7856   53.2411   56.1691 C   0  0  0  0  0  0  0  0  0  0  0  0
   69.4322   53.0739   55.8621 C   0  0  0  0  0  0  0  0  0  0  0  0
   69.0169   52.2632   54.8487 C   0  0  0  0  0  0  0  0  0  0  0  0
   67.3225   52.0367   54.4431 Cl  0  0  0  0  0  0  0  0  0  0  0  0
   69.9502   51.5599   54.0686 C   0  0  0  0  0  0  0  0  0  0  0  0
   71.2706   51.7366   54.3858 C   0  0  0  0  0  0  0  0  0  0  0  0
   75.4597   53.1584   55.0962 N   0  0  0  0  0  0  0  0  0  0  0  0
   74.0823   53.1412   54.7452 C   0  0  0  0  0  0  0  0  0  0  0  0
   73.7373   53.5715   53.6368 O   0  0  0  0  0  0  0  0  0  0  0  0
   73.1215   52.6476   55.6319 N   0  0  0  0  0  0  0  0  0  0  0  0
 23 24  1  0
 24 25  2  0
 24 26  1  0
 26 16  1  0
 16 17  2  0
 16 22  1  0
 17 18  1  0
 18 19  2  0
 19 20  1  0
 19 21  1  0
 21 15  1  0
 21 22  2  0
 15  1  1  0
  1  2  2  0
  1  3  2  0
  1  4  1  0
  4  5  2  0
  4 13  1  0
  5  6  1  0
  5  7  1  0
  7  8  1  0
  7  9  2  0
  9 10  1  0
  9 11  1  0
 11 12  1  0
 11 13  2  0
 13 14  1  0
M  END
>  <minimizedAffinity>  (349) 
-9.13938

$$$$
cs_full_output_folder/data/smiles/9313.pdb
     RDKit          3D

 32 36  0  0  0  0  0  0  0  0999 V2000
   71.4584   46.1509   59.0356 C   0  0  0  0  0  0  0  0  0  0  0  0
   70.3387   46.6159   58.3874 C   0  0  0  0  0  0  0  0  0  0  0  0
   70.3381   47.7842   57.6078 C   0  0  0  0  0  0  0  0  0  0  0  0
   71.5298   48.4457   57.5257 C   0  0  0  0  0  0  0  0  0  0  0  0
   72.6756   47.9762   58.1842 C   0  0  0  0  0  0  0  0  0  0  0  0
   72.6539   46.8285   58.9440 C   0  0  0  0  0  0  0  0  0  0  0  0
   73.7806   46.3893   59.5775 F   0  0  0  0  0  0  0  0  0  0  0  0
   71.6191   45.0381   61.0618 O   0  0  0  0  0  0  0  0  0  0  0  0
   71.3961   44.9322   59.8297 C   0  0  0  0  0  0  0  0  0  0  0  0
   71.1019   43.6709   59.2816 N   0  0  0  0  0  0  0  0  0  0  0  0
   71.0425   42.4557   60.0981 C   0  0  0  0  0  0  0  0  0  0  0  0
   69.6520   41.9192   59.9989 C   0  0  0  0  0  0  0  0  0  0  0  0
   68.9984   42.0929   58.7381 N   0  0  0  0  0  0  0  0  0  0  0  0
   69.5296   42.7978   57.7486 C   0  0  0  0  0  0  0  0  0  0  0  0
   68.8537   42.9352   56.5530 C   0  0  0  0  0  0  0  0  0  0  0  0
   67.6104   42.3446   56.3491 C   0  0  0  0  0  0  0  0  0  0  0  0
   67.1103   41.6240   57.4137 C   0  0  0  0  0  0  0  0  0  0  0  0
   67.7776   41.4906   58.5924 C   0  0  0  0  0  0  0  0  0  0  0  0
   67.2869   40.8254   59.5407 O   0  0  0  0  0  0  0  0  0  0  0  0
   70.8355   43.4509   57.8759 C   0  0  0  0  0  0  0  0  0  0  0  0
   69.0742   48.1761   56.9332 C   0  0  0  0  0  0  0  0  0  0  0  0
   68.7545   47.3640   55.7390 C   0  0  0  0  0  0  0  0  0  0  0  0
   68.0450   46.1965   55.8849 N   0  0  0  0  0  0  0  0  0  0  0  0
   67.7122   45.4858   54.8314 N   0  0  0  0  0  0  0  0  0  0  0  0
   68.0219   45.8235   53.5832 C   0  0  0  0  0  0  0  0  0  0  0  0
   67.6693   45.0934   52.6083 O   0  0  0  0  0  0  0  0  0  0  0  0
   68.7311   46.9755   53.3534 C   0  0  0  0  0  0  0  0  0  0  0  0
   69.0633   47.3208   52.0627 C   0  0  0  0  0  0  0  0  0  0  0  0
   69.7884   48.4804   51.8884 C   0  0  0  0  0  0  0  0  0  0  0  0
   70.1638   49.2580   52.9546 C   0  0  0  0  0  0  0  0  0  0  0  0
   69.8151   48.8865   54.2467 C   0  0  0  0  0  0  0  0  0  0  0  0
   69.0934   47.7440   54.4666 C   0  0  0  0  0  0  0  0  0  0  0  0
  8  9  2  0
  9  1  1  0
  9 10  1  0
  1  2  2  0
  1  6  1  0
  2  3  1  0
  3 21  1  0
  3  4  2  0
 21 22  1  0
 22 23  2  0
 22 32  1  0
 23 24  1  0
 24 25  1  0
 25 26  2  0
 25 27  1  0
 27 28  1  0
 27 32  2  0
 28 29  2  0
 29 30  1  0
 30 31  2  0
 31 32  1  0
  4  5  1  0
  5  6  2  0
  6  7  1  0
 10 11  1  0
 10 20  1  0
 11 12  1  0
 12 13  1  0
 13 14  1  0
 13 18  1  0
 14 15  2  0
 14 20  1  0
 15 16  1  0
 16 17  2  0
 17 18  1  0
 18 19  2  0
M  END
>  <minimizedAffinity>  (350) 
-9.13528

$$$$
cs_full_output_folder/data/smiles/4954.pdb
     RDKit          3D

 28 30  0  0  0  0  0  0  0  0999 V2000
   68.7279   46.4521   54.4569 C   0  0  0  0  0  0  0  0  0  0  0  0
   68.3421   46.1027   53.1847 C   0  0  0  0  0  0  0  0  0  0  0  0
   68.5324   46.9195   52.0946 C   0  0  0  0  0  0  0  0  0  0  0  0
   69.1294   48.1489   52.2345 C   0  0  0  0  0  0  0  0  0  0  0  0
   69.3089   48.9418   51.1499 F   0  0  0  0  0  0  0  0  0  0  0  0
   69.5355   48.5433   53.5077 C   0  0  0  0  0  0  0  0  0  0  0  0
   69.3330   47.7045   54.5814 C   0  0  0  0  0  0  0  0  0  0  0  0
   68.1596   44.2124   55.5226 N   0  0  0  0  0  0  0  0  0  0  0  0
   68.5156   45.5701   55.5920 C   0  0  0  0  0  0  0  0  0  0  0  0
   68.6617   46.0580   56.7443 O   0  0  0  0  0  0  0  0  0  0  0  0
   67.4242   41.5939   55.3805 O   0  0  0  0  0  0  0  0  0  0  0  0
   67.5835   42.0452   56.5655 C   0  0  0  0  0  0  0  0  0  0  0  0
   67.9637   43.3973   56.6520 N   0  0  0  0  0  0  0  0  0  0  0  0
   67.3722   41.1764   57.7066 C   0  0  0  0  0  0  0  0  0  0  0  0
   67.9588   39.9329   57.7420 C   0  0  0  0  0  0  0  0  0  0  0  0
   67.7495   39.1005   58.8475 C   0  0  0  0  0  0  0  0  0  0  0  0
   66.9878   39.4816   59.8843 N   0  0  0  0  0  0  0  0  0  0  0  0
   66.4084   40.6930   59.8652 C   0  0  0  0  0  0  0  0  0  0  0  0
   66.6007   41.5485   58.7703 C   0  0  0  0  0  0  0  0  0  0  0  0
   70.2643   50.1182   53.6176 S   0  0  0  0  0  0  0  0  0  0  0  0
   70.0422   50.8651   52.3000 O   0  0  0  0  0  0  0  0  0  0  0  0
   71.7647   49.9050   53.6909 O   0  0  0  0  0  0  0  0  0  0  0  0
   69.7716   51.0960   54.8817 N   0  0  0  0  0  0  0  0  0  0  0  0
   68.3875   51.4051   54.9185 C   0  0  0  0  0  0  0  0  0  0  0  0
   67.9325   51.4729   56.3967 C   0  0  0  0  0  0  0  0  0  0  0  0
   69.0429   52.1346   57.1876 C   0  0  0  0  0  0  0  0  0  0  0  0
   69.9253   53.0025   56.3165 C   0  0  0  0  0  0  0  0  0  0  0  0
   70.6013   52.2051   55.2137 C   0  0  0  0  0  0  0  0  0  0  0  0
 11 12  2  0
 12 13  1  0
 12 14  1  0
 13  8  1  0
  8  9  1  0
  9 10  2  0
  9  1  1  0
  1  2  2  0
  1  7  1  0
  2  3  1  0
  3  4  2  0
  4  5  1  0
  4  6  1  0
  6 20  1  0
  6  7  2  0
 20 21  2  0
 20 22  2  0
 20 23  1  0
 23 24  1  0
 23 28  1  0
 24 25  1  0
 25 26  1  0
 26 27  1  0
 27 28  1  0
 14 15  2  0
 14 19  1  0
 15 16  1  0
 16 17  2  0
 17 18  1  0
 18 19  2  0
M  END
>  <minimizedAffinity>  (351) 
-9.13520

$$$$
cs_full_output_folder/data/smiles/3344.pdb
     RDKit          3D

 33 37  0  0  0  0  0  0  0  0999 V2000
   69.5726   47.0231   57.1412 C   0  0  0  0  0  0  0  0  0  0  0  0
   69.5309   45.6287   56.9808 C   0  0  0  0  0  0  0  0  0  0  0  0
   70.3632   44.8345   57.7332 C   0  0  0  0  0  0  0  0  0  0  0  0
   71.2443   45.3899   58.6487 C   0  0  0  0  0  0  0  0  0  0  0  0
   72.0476   44.5871   59.3706 F   0  0  0  0  0  0  0  0  0  0  0  0
   71.3066   46.7362   58.8265 C   0  0  0  0  0  0  0  0  0  0  0  0
   70.4507   47.5347   58.0503 C   0  0  0  0  0  0  0  0  0  0  0  0
   72.2005   47.4055   59.7663 C   0  0  0  0  0  0  0  0  0  0  0  0
   71.7666   47.4677   60.9669 O   0  0  0  0  0  0  0  0  0  0  0  0
   73.4469   47.9474   59.3961 N   0  0  0  0  0  0  0  0  0  0  0  0
   73.8888   47.8480   58.0304 C   0  0  0  0  0  0  0  0  0  0  0  0
   75.3829   47.9986   57.8915 C   0  0  0  0  0  0  0  0  0  0  0  0
   75.8500   49.1781   58.5486 N   0  0  0  0  0  0  0  0  0  0  0  0
   75.1473   49.6767   59.7090 C   0  0  0  0  0  0  0  0  0  0  0  0
   74.2948   48.6073   60.3572 C   0  0  0  0  0  0  0  0  0  0  0  0
   77.0080   49.8962   58.1019 C   0  0  0  0  0  0  0  0  0  0  0  0
   78.0705   50.1410   58.9355 C   0  0  0  0  0  0  0  0  0  0  0  0
   79.1902   50.8382   58.4736 C   0  0  0  0  0  0  0  0  0  0  0  0
   79.2387   51.2881   57.1733 C   0  0  0  0  0  0  0  0  0  0  0  0
   78.1575   51.0274   56.3608 C   0  0  0  0  0  0  0  0  0  0  0  0
   77.0919   50.3515   56.8402 N   0  0  0  0  0  0  0  0  0  0  0  0
   68.6388   47.8465   56.3379 C   0  0  0  0  0  0  0  0  0  0  0  0
   70.3816   49.0179   51.2563 O   0  0  0  0  0  0  0  0  0  0  0  0
   70.0325   48.6933   52.4203 C   0  0  0  0  0  0  0  0  0  0  0  0
   70.6267   49.3729   53.5691 C   0  0  0  0  0  0  0  0  0  0  0  0
   70.0243   49.0037   54.8058 N   0  0  0  0  0  0  0  0  0  0  0  0
   69.1521   48.0881   54.9781 C   0  0  0  0  0  0  0  0  0  0  0  0
   68.6111   47.3456   53.8642 C   0  0  0  0  0  0  0  0  0  0  0  0
   69.0234   47.6278   52.6541 C   0  0  0  0  0  0  0  0  0  0  0  0
   68.5016   46.9311   51.4491 C   0  0  0  0  0  0  0  0  0  0  0  0
   67.5293   45.8308   51.7460 C   0  0  0  0  0  0  0  0  0  0  0  0
   67.9490   45.1880   53.0491 C   0  0  0  0  0  0  0  0  0  0  0  0
   67.6572   46.2629   54.1160 C   0  0  0  0  0  0  0  0  0  0  0  0
 23 24  2  0
 24 25  1  0
 24 29  1  0
 25 26  1  0
 26 27  2  0
 27 22  1  0
 27 28  1  0
 22  1  1  0
  1  2  2  0
  1  7  1  0
  2  3  1  0
  3  4  2  0
  4  5  1  0
  4  6  1  0
  6  8  1  0
  6  7  2  0
  8  9  2  0
  8 10  1  0
 10 11  1  0
 10 15  1  0
 11 12  1  0
 12 13  1  0
 13 16  1  0
 13 14  1  0
 16 17  2  0
 16 21  1  0
 17 18  1  0
 18 19  2  0
 19 20  1  0
 20 21  2  0
 14 15  1  0
 28 29  2  0
 28 33  1  0
 29 30  1  0
 30 31  1  0
 31 32  1  0
 32 33  1  0
M  END
>  <minimizedAffinity>  (352) 
-9.13268

$$$$
cs_full_output_folder/data/smiles/873.pdb
     RDKit          3D

 30 33  0  0  0  0  0  0  0  0999 V2000
   71.4731   47.3760   58.9215 C   0  0  0  0  0  0  0  0  0  0  0  0
   71.4954   46.0211   58.8213 C   0  0  0  0  0  0  0  0  0  0  0  0
   70.6547   45.4113   57.9131 C   0  0  0  0  0  0  0  0  0  0  0  0
   69.8305   46.1732   57.1470 C   0  0  0  0  0  0  0  0  0  0  0  0
   69.7757   47.5776   57.2194 C   0  0  0  0  0  0  0  0  0  0  0  0
   70.6208   48.1437   58.1279 C   0  0  0  0  0  0  0  0  0  0  0  0
   72.1546   47.7823   61.1062 O   0  0  0  0  0  0  0  0  0  0  0  0
   72.3747   47.9993   59.8904 C   0  0  0  0  0  0  0  0  0  0  0  0
   73.4533   48.8131   59.5189 N   0  0  0  0  0  0  0  0  0  0  0  0
   74.3561   49.4422   60.4624 C   0  0  0  0  0  0  0  0  0  0  0  0
   75.7699   49.2426   59.9244 C   0  0  0  0  0  0  0  0  0  0  0  0
   75.7423   48.1637   58.9961 N   0  0  0  0  0  0  0  0  0  0  0  0
   75.1248   48.5571   57.7753 C   0  0  0  0  0  0  0  0  0  0  0  0
   73.7169   49.0603   58.1197 C   0  0  0  0  0  0  0  0  0  0  0  0
   76.9052   47.3598   58.8977 C   0  0  0  0  0  0  0  0  0  0  0  0
   76.8962   46.2833   59.8511 N   0  0  0  0  0  0  0  0  0  0  0  0
   76.1416   45.2775   59.7664 C   0  0  0  0  0  0  0  0  0  0  0  0
   74.9740   44.9989   58.4914 Cl  0  0  0  0  0  0  0  0  0  0  0  0
   68.8398   48.2199   56.3064 C   0  0  0  0  0  0  0  0  0  0  0  0
   69.2550   48.3820   54.9198 C   0  0  0  0  0  0  0  0  0  0  0  0
   70.1464   49.3461   54.5276 N   0  0  0  0  0  0  0  0  0  0  0  0
   70.5629   49.4691   53.2849 N   0  0  0  0  0  0  0  0  0  0  0  0
   70.1523   48.6626   52.2905 C   0  0  0  0  0  0  0  0  0  0  0  0
   70.5748   48.8066   51.0952 O   0  0  0  0  0  0  0  0  0  0  0  0
   69.2551   47.6722   52.6073 C   0  0  0  0  0  0  0  0  0  0  0  0
   68.8178   46.8615   51.5901 C   0  0  0  0  0  0  0  0  0  0  0  0
   67.9030   45.8748   51.8696 C   0  0  0  0  0  0  0  0  0  0  0  0
   67.4434   45.7121   53.1482 C   0  0  0  0  0  0  0  0  0  0  0  0
   67.9025   46.5414   54.1433 C   0  0  0  0  0  0  0  0  0  0  0  0
   68.8179   47.5463   53.9270 C   0  0  0  0  0  0  0  0  0  0  0  0
  7  8  2  0
  8  1  1  0
  8  9  1  0
  1  2  2  0
  1  6  1  0
  2  3  1  0
  3  4  2  0
  4  5  1  0
  5 19  1  0
  5  6  2  0
 19 20  1  0
 20 21  2  0
 20 30  1  0
 21 22  1  0
 22 23  1  0
 23 24  2  0
 23 25  1  0
 25 26  1  0
 25 30  2  0
 26 27  2  0
 27 28  1  0
 28 29  2  0
 29 30  1  0
  9 10  1  0
  9 14  1  0
 10 11  1  0
 11 12  1  0
 12 15  1  0
 12 13  1  0
 15 16  1  0
 16 17  2  0
 17 18  1  0
 13 14  1  0
M  CHG  1  12   1
M  END
>  <minimizedAffinity>  (353) 
-9.13242

$$$$
cs_full_output_folder/data/smiles/2507.pdb
     RDKit          3D

 30 33  0  0  0  0  0  0  0  0999 V2000
   71.1175   46.0067   58.1159 C   0  0  0  0  0  0  0  0  0  0  0  0
   71.8464   46.6987   59.0611 C   0  0  0  0  0  0  0  0  0  0  0  0
   71.7351   48.0596   59.1813 C   0  0  0  0  0  0  0  0  0  0  0  0
   70.8559   48.7338   58.3167 C   0  0  0  0  0  0  0  0  0  0  0  0
   70.1158   48.1030   57.3722 C   0  0  0  0  0  0  0  0  0  0  0  0
   70.2710   46.7046   57.2925 C   0  0  0  0  0  0  0  0  0  0  0  0
   70.4569   43.6804   58.7364 C   0  0  0  0  0  0  0  0  0  0  0  0
   69.5083   44.1364   59.4613 O   0  0  0  0  0  0  0  0  0  0  0  0
   71.2786   44.5975   58.0551 N   0  0  0  0  0  0  0  0  0  0  0  0
   71.1302   39.4458   58.4889 C   0  0  0  0  0  0  0  0  0  0  0  0
   69.8586   39.9726   58.4912 C   0  0  0  0  0  0  0  0  0  0  0  0
   69.6076   41.3490   58.5677 C   0  0  0  0  0  0  0  0  0  0  0  0
   70.6460   42.2419   58.6457 C   0  0  0  0  0  0  0  0  0  0  0  0
   71.9355   41.6953   58.6424 C   0  0  0  0  0  0  0  0  0  0  0  0
   72.1748   40.3404   58.5666 C   0  0  0  0  0  0  0  0  0  0  0  0
   70.7250   37.1310   59.4521 C   0  0  0  0  0  0  0  0  0  0  0  0
   71.3340   38.0034   58.4165 C   0  0  0  0  0  0  0  0  0  0  0  0
   72.0093   37.4576   57.5092 O   0  0  0  0  0  0  0  0  0  0  0  0
   69.1661   48.7699   56.4880 C   0  0  0  0  0  0  0  0  0  0  0  0
   69.5471   48.6192   55.0688 C   0  0  0  0  0  0  0  0  0  0  0  0
   70.6255   49.3430   54.6022 N   0  0  0  0  0  0  0  0  0  0  0  0
   71.0072   49.3238   53.3464 N   0  0  0  0  0  0  0  0  0  0  0  0
   70.3873   48.6020   52.3971 C   0  0  0  0  0  0  0  0  0  0  0  0
   70.7322   48.5675   51.1894 O   0  0  0  0  0  0  0  0  0  0  0  0
   69.3103   47.8633   52.8067 C   0  0  0  0  0  0  0  0  0  0  0  0
   68.8793   47.8646   54.1500 C   0  0  0  0  0  0  0  0  0  0  0  0
   67.7531   46.9993   54.5463 C   0  0  0  0  0  0  0  0  0  0  0  0
   67.8205   45.6401   53.8800 C   0  0  0  0  0  0  0  0  0  0  0  0
   68.4564   45.6254   52.5386 C   0  0  0  0  0  0  0  0  0  0  0  0
   68.4967   46.9946   51.8989 C   0  0  0  0  0  0  0  0  0  0  0  0
 16 17  1  0
 17 18  2  0
 17 10  1  0
 10 11  2  0
 10 15  1  0
 11 12  1  0
 12 13  2  0
 13  7  1  0
 13 14  1  0
  7  8  2  0
  7  9  1  0
  9  1  1  0
  1  2  2  0
  1  6  1  0
  2  3  1  0
  3  4  2  0
  4  5  1  0
  5 19  1  0
  5  6  2  0
 19 20  1  0
 20 21  2  0
 20 26  1  0
 21 22  1  0
 22 23  1  0
 23 24  2  0
 23 25  1  0
 25 26  2  0
 25 30  1  0
 26 27  1  0
 27 28  1  0
 28 29  1  0
 29 30  1  0
 14 15  2  0
M  END
>  <minimizedAffinity>  (354) 
-9.12842

$$$$
cs_full_output_folder/data/smiles/282.pdb
     RDKit          3D

 28 30  0  0  0  0  0  0  0  0999 V2000
   68.7118   46.5301   54.0698 C   0  0  0  0  0  0  0  0  0  0  0  0
   68.5939   46.2043   52.7378 C   0  0  0  0  0  0  0  0  0  0  0  0
   69.0737   47.0868   51.7627 C   0  0  0  0  0  0  0  0  0  0  0  0
   69.6618   48.2770   52.1322 C   0  0  0  0  0  0  0  0  0  0  0  0
   70.1421   49.1657   51.2110 F   0  0  0  0  0  0  0  0  0  0  0  0
   69.7924   48.6298   53.4601 C   0  0  0  0  0  0  0  0  0  0  0  0
   69.3088   47.7341   54.3883 C   0  0  0  0  0  0  0  0  0  0  0  0
   68.1155   46.0527   56.3116 O   0  0  0  0  0  0  0  0  0  0  0  0
   68.2188   45.6282   55.1270 C   0  0  0  0  0  0  0  0  0  0  0  0
   67.8451   44.2855   54.9002 N   0  0  0  0  0  0  0  0  0  0  0  0
   67.3762   43.4487   55.9405 N   0  0  0  0  0  0  0  0  0  0  0  0
   68.2792   42.6809   56.7286 C   0  0  0  0  0  0  0  0  0  0  0  0
   69.4953   42.7905   56.4488 O   0  0  0  0  0  0  0  0  0  0  0  0
   67.8463   41.8061   57.8101 C   0  0  0  0  0  0  0  0  0  0  0  0
   68.1542   40.4633   57.7606 C   0  0  0  0  0  0  0  0  0  0  0  0
   67.7612   39.5865   58.7726 C   0  0  0  0  0  0  0  0  0  0  0  0
   67.0577   40.0734   59.8321 C   0  0  0  0  0  0  0  0  0  0  0  0
   66.7568   41.4180   59.8677 C   0  0  0  0  0  0  0  0  0  0  0  0
   67.1573   42.2382   58.8635 N   0  0  0  0  0  0  0  0  0  0  0  0
   70.5435   50.1485   53.9380 S   0  0  0  0  0  0  0  0  0  0  0  0
   72.0164   50.0673   53.9916 O   0  0  0  0  0  0  0  0  0  0  0  0
   70.1673   51.1791   52.9075 O   0  0  0  0  0  0  0  0  0  0  0  0
   69.8490   50.5890   55.4526 N   0  0  0  0  0  0  0  0  0  0  0  0
   69.1598   51.8600   55.3818 C   0  0  0  0  0  0  0  0  0  0  0  0
   68.5774   52.1229   56.7553 C   0  0  0  0  0  0  0  0  0  0  0  0
   68.6355   50.8806   57.6191 C   0  0  0  0  0  0  0  0  0  0  0  0
   70.0229   50.3590   57.8182 C   0  0  0  0  0  0  0  0  0  0  0  0
   70.7898   50.5458   56.5326 C   0  0  0  0  0  0  0  0  0  0  0  0
  8  9  2  0
  9 10  1  0
  9  1  1  0
 10 11  1  0
 11 12  1  0
 12 13  2  0
 12 14  1  0
 14 15  2  0
 14 19  1  0
 15 16  1  0
 16 17  2  0
 17 18  1  0
 18 19  2  0
  1  2  2  0
  1  7  1  0
  2  3  1  0
  3  4  2  0
  4  5  1  0
  4  6  1  0
  6 20  1  0
  6  7  2  0
 20 21  2  0
 20 22  2  0
 20 23  1  0
 23 24  1  0
 23 28  1  0
 24 25  1  0
 25 26  1  0
 26 27  1  0
 27 28  1  0
M  END
>  <minimizedAffinity>  (355) 
-9.12195

$$$$
cs_full_output_folder/data/smiles/470.pdb
     RDKit          3D

 33 36  0  0  0  0  0  0  0  0999 V2000
   71.5046   46.9599   58.9890 C   0  0  0  0  0  0  0  0  0  0  0  0
   70.7576   47.8267   58.1761 C   0  0  0  0  0  0  0  0  0  0  0  0
   69.8797   47.4836   57.2183 C   0  0  0  0  0  0  0  0  0  0  0  0
   69.6962   46.0620   57.0133 C   0  0  0  0  0  0  0  0  0  0  0  0
   70.4196   45.2189   57.8101 C   0  0  0  0  0  0  0  0  0  0  0  0
   71.2857   45.5937   58.7542 C   0  0  0  0  0  0  0  0  0  0  0  0
   71.9327   44.6884   59.5105 F   0  0  0  0  0  0  0  0  0  0  0  0
   75.3817   44.9083   59.3663 C   0  0  0  0  0  0  0  0  0  0  0  0
   75.7369   44.1816   60.3748 O   0  0  0  0  0  0  0  0  0  0  0  0
   75.5481   46.2895   59.4945 N   0  0  0  0  0  0  0  0  0  0  0  0
   76.0494   46.7150   60.8193 C   0  0  0  0  0  0  0  0  0  0  0  0
   74.9000   47.0767   61.7045 C   0  0  0  0  0  0  0  0  0  0  0  0
   74.2717   48.3819   61.1978 C   0  0  0  0  0  0  0  0  0  0  0  0
   73.6683   48.0442   59.8720 N   0  0  0  0  0  0  0  0  0  0  0  0
   72.4304   47.5036   59.9031 C   0  0  0  0  0  0  0  0  0  0  0  0
   71.8840   47.4501   61.2088 O   0  0  0  0  0  0  0  0  0  0  0  0
   74.3857   48.2911   58.6466 C   0  0  0  0  0  0  0  0  0  0  0  0
   75.2706   47.0982   58.3395 C   0  0  0  0  0  0  0  0  0  0  0  0
   74.8394   44.1426   58.1736 C   0  0  0  0  0  0  0  0  0  0  0  0
   74.2584   41.6370   59.1219 C   0  0  0  0  0  0  0  0  0  0  0  0
   74.5168   42.7869   58.6790 C   0  0  0  0  0  0  0  0  0  0  0  0
   69.0767   48.4116   56.3604 C   0  0  0  0  0  0  0  0  0  0  0  0
   69.4576   48.3805   54.9393 C   0  0  0  0  0  0  0  0  0  0  0  0
   70.5121   49.3107   54.6119 N   0  0  0  0  0  0  0  0  0  0  0  0
   70.7909   49.2777   53.3157 N   0  0  0  0  0  0  0  0  0  0  0  0
   70.3475   48.6104   52.3226 C   0  0  0  0  0  0  0  0  0  0  0  0
   70.6847   48.6476   51.1280 O   0  0  0  0  0  0  0  0  0  0  0  0
   69.2904   47.6685   52.6318 C   0  0  0  0  0  0  0  0  0  0  0  0
   68.7878   46.8585   51.5968 C   0  0  0  0  0  0  0  0  0  0  0  0
   67.8526   45.9656   51.9905 C   0  0  0  0  0  0  0  0  0  0  0  0
   67.4244   45.8726   53.3152 C   0  0  0  0  0  0  0  0  0  0  0  0
   67.9244   46.6629   54.2600 C   0  0  0  0  0  0  0  0  0  0  0  0
   68.9340   47.6478   53.9606 C   0  0  0  0  0  0  0  0  0  0  0  0
 20 21  3  0
 21 19  1  0
 19  8  1  0
  8  9  2  0
  8 10  1  0
 10 11  1  0
 10 18  1  0
 11 12  1  0
 12 13  1  0
 13 14  1  0
 14 15  1  0
 14 17  1  0
 15 16  2  0
 15  1  1  0
  1  2  2  0
  1  6  1  0
  2  3  1  0
  3 22  1  0
  3  4  2  0
 22 23  1  0
 23 24  2  0
 23 33  1  0
 24 25  1  0
 25 26  1  0
 26 27  2  0
 26 28  1  0
 28 29  1  0
 28 33  2  0
 29 30  2  0
 30 31  1  0
 31 32  2  0
 32 33  1  0
  4  5  1  0
  5  6  2  0
  6  7  1  0
 17 18  1  0
M  END
>  <minimizedAffinity>  (356) 
-9.12179

$$$$
cs_full_output_folder/data/smiles/5555.pdb
     RDKit          3D

 30 33  0  0  0  0  0  0  0  0999 V2000
   71.6373   47.2882   59.0159 C   0  0  0  0  0  0  0  0  0  0  0  0
   71.5470   45.9219   58.8505 C   0  0  0  0  0  0  0  0  0  0  0  0
   70.7185   45.3217   57.9282 C   0  0  0  0  0  0  0  0  0  0  0  0
   69.9176   46.1222   57.1038 C   0  0  0  0  0  0  0  0  0  0  0  0
   69.9867   47.4777   57.2469 C   0  0  0  0  0  0  0  0  0  0  0  0
   70.8432   48.0624   58.1988 C   0  0  0  0  0  0  0  0  0  0  0  0
   76.0013   47.7386   59.2132 N   0  0  0  0  0  0  0  0  0  0  0  0
   75.3983   48.1028   57.9848 C   0  0  0  0  0  0  0  0  0  0  0  0
   74.0421   48.7806   58.2072 C   0  0  0  0  0  0  0  0  0  0  0  0
   73.6792   48.6175   59.6278 N   0  0  0  0  0  0  0  0  0  0  0  0
   72.5192   47.9012   59.9999 C   0  0  0  0  0  0  0  0  0  0  0  0
   72.2344   47.7826   61.2133 O   0  0  0  0  0  0  0  0  0  0  0  0
   74.5939   49.2314   60.5653 C   0  0  0  0  0  0  0  0  0  0  0  0
   75.9834   48.6832   60.2577 C   0  0  0  0  0  0  0  0  0  0  0  0
   77.0150   46.7627   59.1786 C   0  0  0  0  0  0  0  0  0  0  0  0
   75.4734   43.2868   59.4122 C   0  0  0  0  0  0  0  0  0  0  0  0
   75.8869   44.6062   58.8837 C   0  0  0  0  0  0  0  0  0  0  0  0
   76.5750   45.4336   59.6492 C   0  0  0  0  0  0  0  0  0  0  0  0
   69.1548   48.3901   56.4104 C   0  0  0  0  0  0  0  0  0  0  0  0
   69.5502   48.3999   54.9833 C   0  0  0  0  0  0  0  0  0  0  0  0
   70.5809   49.2204   54.5762 N   0  0  0  0  0  0  0  0  0  0  0  0
   70.9322   49.2680   53.3094 N   0  0  0  0  0  0  0  0  0  0  0  0
   70.3183   48.5351   52.3707 C   0  0  0  0  0  0  0  0  0  0  0  0
   70.7065   48.6308   51.1855 O   0  0  0  0  0  0  0  0  0  0  0  0
   69.2593   47.6723   52.7027 C   0  0  0  0  0  0  0  0  0  0  0  0
   68.9080   47.6360   54.0303 C   0  0  0  0  0  0  0  0  0  0  0  0
   67.8179   46.7296   54.4763 C   0  0  0  0  0  0  0  0  0  0  0  0
   67.8699   45.5001   53.5903 C   0  0  0  0  0  0  0  0  0  0  0  0
   67.7256   45.8313   52.1453 C   0  0  0  0  0  0  0  0  0  0  0  0
   68.6130   46.8984   51.6344 C   0  0  0  0  0  0  0  0  0  0  0  0
 16 17  1  0
 17 18  2  0
 18 15  1  0
 15  7  1  0
  7  8  1  0
  7 14  1  0
  8  9  1  0
  9 10  1  0
 10 11  1  0
 10 13  1  0
 11 12  2  0
 11  1  1  0
  1  2  2  0
  1  6  1  0
  2  3  1  0
  3  4  2  0
  4  5  1  0
  5 19  1  0
  5  6  2  0
 19 20  1  0
 20 21  2  0
 20 26  1  0
 21 22  1  0
 22 23  1  0
 23 24  2  0
 23 25  1  0
 25 26  2  0
 25 30  1  0
 26 27  1  0
 27 28  1  0
 28 29  1  0
 29 30  1  0
 13 14  1  0
M  CHG  1   7   1
M  END
>  <minimizedAffinity>  (357) 
-9.12054

$$$$
cs_full_output_folder/data/smiles/2872.pdb
     RDKit          3D

 27 29  0  0  0  0  0  0  0  0999 V2000
   70.0298   49.2834   57.1395 C   0  0  0  0  0  0  0  0  0  0  0  0
   69.4902   50.3965   57.7463 C   0  0  0  0  0  0  0  0  0  0  0  0
   69.0088   51.4373   57.0000 N   0  0  0  0  0  0  0  0  0  0  0  0
   69.0277   51.4443   55.6606 C   0  0  0  0  0  0  0  0  0  0  0  0
   68.3921   52.8117   54.7553 Cl  0  0  0  0  0  0  0  0  0  0  0  0
   69.5642   50.3391   55.0190 C   0  0  0  0  0  0  0  0  0  0  0  0
   70.0550   49.2791   55.7607 C   0  0  0  0  0  0  0  0  0  0  0  0
   70.7298   45.8676   58.5703 C   0  0  0  0  0  0  0  0  0  0  0  0
   70.2611   46.8721   57.7599 C   0  0  0  0  0  0  0  0  0  0  0  0
   70.5288   48.2098   57.9814 C   0  0  0  0  0  0  0  0  0  0  0  0
   71.3093   48.5108   59.0804 C   0  0  0  0  0  0  0  0  0  0  0  0
   71.7891   47.5086   59.9071 C   0  0  0  0  0  0  0  0  0  0  0  0
   71.4838   46.2192   59.6269 N   0  0  0  0  0  0  0  0  0  0  0  0
   68.9812   42.7742   57.0393 C   0  0  0  0  0  0  0  0  0  0  0  0
   69.3792   44.1203   57.3866 N   0  0  0  0  0  0  0  0  0  0  0  0
   70.4160   44.4491   58.2974 C   0  0  0  0  0  0  0  0  0  0  0  0
   71.0351   43.5299   58.8459 O   0  0  0  0  0  0  0  0  0  0  0  0
   69.5897   50.3815   53.6052 N   0  0  0  0  0  0  0  0  0  0  0  0
   70.0132   49.1015   52.5722 S   0  0  0  0  0  0  0  0  0  0  0  0
   71.4957   48.8096   52.7470 O   0  0  0  0  0  0  0  0  0  0  0  0
   69.8694   49.6016   51.1433 O   0  0  0  0  0  0  0  0  0  0  0  0
   69.0784   47.6592   52.7203 C   0  0  0  0  0  0  0  0  0  0  0  0
   68.5396   46.9771   51.6594 C   0  0  0  0  0  0  0  0  0  0  0  0
   67.8105   45.8425   51.8732 C   0  0  0  0  0  0  0  0  0  0  0  0
   67.5724   45.3174   53.1450 C   0  0  0  0  0  0  0  0  0  0  0  0
   68.1254   46.0240   54.1897 C   0  0  0  0  0  0  0  0  0  0  0  0
   68.8545   47.1575   53.9941 C   0  0  0  0  0  0  0  0  0  0  0  0
 14 15  1  0
 15 16  1  0
 16 17  2  0
 16  8  1  0
  8  9  2  0
  8 13  1  0
  9 10  1  0
 10  1  1  0
 10 11  2  0
  1  2  2  0
  1  7  1  0
  2  3  1  0
  3  4  2  0
  4  5  1  0
  4  6  1  0
  6 18  1  0
  6  7  2  0
 18 19  1  0
 19 20  2  0
 19 21  2  0
 19 22  1  0
 22 23  2  0
 22 27  1  0
 23 24  1  0
 24 25  2  0
 25 26  1  0
 26 27  2  0
 11 12  1  0
 12 13  2  0
M  END
>  <minimizedAffinity>  (358) 
-9.11971

$$$$
cs_full_output_folder/data/smiles/1181.pdb
     RDKit          3D

 32 35  0  0  0  0  0  0  0  0999 V2000
   71.4707   47.3203   58.8910 C   0  0  0  0  0  0  0  0  0  0  0  0
   70.5232   47.9180   58.1094 C   0  0  0  0  0  0  0  0  0  0  0  0
   69.7052   47.2110   57.2139 C   0  0  0  0  0  0  0  0  0  0  0  0
   69.8754   45.8718   57.1300 C   0  0  0  0  0  0  0  0  0  0  0  0
   70.8436   45.2494   57.9260 C   0  0  0  0  0  0  0  0  0  0  0  0
   71.6391   45.9577   58.8018 C   0  0  0  0  0  0  0  0  0  0  0  0
   72.5583   45.2723   59.5404 F   0  0  0  0  0  0  0  0  0  0  0  0
   76.1336   48.7625   59.3813 N   0  0  0  0  0  0  0  0  0  0  0  0
   75.8778   49.1336   58.0021 C   0  0  0  0  0  0  0  0  0  0  0  0
   74.6253   48.4307   57.4826 C   0  0  0  0  0  0  0  0  0  0  0  0
   73.3995   49.1971   57.9361 C   0  0  0  0  0  0  0  0  0  0  0  0
   73.2885   49.0017   59.3666 N   0  0  0  0  0  0  0  0  0  0  0  0
   72.3126   48.0546   59.8156 C   0  0  0  0  0  0  0  0  0  0  0  0
   72.2113   47.8798   61.0515 O   0  0  0  0  0  0  0  0  0  0  0  0
   74.0756   49.6787   60.3749 C   0  0  0  0  0  0  0  0  0  0  0  0
   75.4205   49.0497   60.5906 C   0  0  0  0  0  0  0  0  0  0  0  0
   75.8858   46.0275   59.7118 C   0  0  0  0  0  0  0  0  0  0  0  0
   77.2236   46.6640   59.7383 C   0  0  0  0  0  0  0  0  0  0  0  0
   77.2985   47.9717   59.5775 C   0  0  0  0  0  0  0  0  0  0  0  0
   78.5715   48.6064   59.5991 N   0  0  0  0  0  0  0  0  0  0  0  0
   68.7499   48.0463   56.4413 C   0  0  0  0  0  0  0  0  0  0  0  0
   69.1952   48.1703   55.0720 C   0  0  0  0  0  0  0  0  0  0  0  0
   70.1044   49.1557   54.7893 N   0  0  0  0  0  0  0  0  0  0  0  0
   70.5433   49.3817   53.5728 N   0  0  0  0  0  0  0  0  0  0  0  0
   70.1379   48.6666   52.5055 C   0  0  0  0  0  0  0  0  0  0  0  0
   70.5490   48.8734   51.3347 O   0  0  0  0  0  0  0  0  0  0  0  0
   69.2224   47.6547   52.7086 C   0  0  0  0  0  0  0  0  0  0  0  0
   68.7895   46.8886   51.6390 C   0  0  0  0  0  0  0  0  0  0  0  0
   67.8923   45.8887   51.8925 C   0  0  0  0  0  0  0  0  0  0  0  0
   67.4320   45.6479   53.1634 C   0  0  0  0  0  0  0  0  0  0  0  0
   67.8875   46.4303   54.1907 C   0  0  0  0  0  0  0  0  0  0  0  0
   68.7740   47.4333   53.9948 C   0  0  0  0  0  0  0  0  0  0  0  0
 17 18  1  0
 18 19  2  0
 19 20  1  0
 19  8  1  0
  8  9  1  0
  8 16  1  0
  9 10  1  0
 10 11  1  0
 11 12  1  0
 12 13  1  0
 12 15  1  0
 13 14  2  0
 13  1  1  0
  1  2  2  0
  1  6  1  0
  2  3  1  0
  3 21  1  0
  3  4  2  0
 21 22  1  0
 22 23  2  0
 22 32  1  0
 23 24  1  0
 24 25  1  0
 25 26  2  0
 25 27  1  0
 27 28  1  0
 27 32  2  0
 28 29  2  0
 29 30  1  0
 30 31  2  0
 31 32  1  0
  4  5  1  0
  5  6  2  0
  6  7  1  0
 15 16  1  0
M  END
>  <minimizedAffinity>  (359) 
-9.11897

$$$$
cs_full_output_folder/data/smiles/591.pdb
     RDKit          3D

 25 26  0  0  0  0  0  0  0  0999 V2000
   69.8401   49.3892   52.7517 S   0  0  0  0  0  0  0  0  0  0  0  0
   71.2978   49.4180   53.1416 O   0  0  0  0  0  0  0  0  0  0  0  0
   69.8135   49.4000   51.2477 O   0  0  0  0  0  0  0  0  0  0  0  0
   69.1937   47.8780   53.3700 C   0  0  0  0  0  0  0  0  0  0  0  0
   68.5785   46.9423   52.5705 C   0  0  0  0  0  0  0  0  0  0  0  0
   68.4655   47.2070   51.2459 F   0  0  0  0  0  0  0  0  0  0  0  0
   68.0836   45.7651   53.0921 C   0  0  0  0  0  0  0  0  0  0  0  0
   67.4902   44.8764   52.2854 F   0  0  0  0  0  0  0  0  0  0  0  0
   68.1886   45.4849   54.4262 C   0  0  0  0  0  0  0  0  0  0  0  0
   67.5691   43.9917   55.1273 Cl  0  0  0  0  0  0  0  0  0  0  0  0
   68.8041   46.4182   55.2323 C   0  0  0  0  0  0  0  0  0  0  0  0
   68.9339   46.1904   56.5645 F   0  0  0  0  0  0  0  0  0  0  0  0
   69.2944   47.5813   54.7274 C   0  0  0  0  0  0  0  0  0  0  0  0
   69.9065   48.5176   55.5084 F   0  0  0  0  0  0  0  0  0  0  0  0
   68.9934   50.7543   53.3779 N   0  0  0  0  0  0  0  0  0  0  0  0
   71.4524   52.8867   55.1276 C   0  0  0  0  0  0  0  0  0  0  0  0
   70.6967   53.4084   56.1568 C   0  0  0  0  0  0  0  0  0  0  0  0
   69.3726   53.0446   56.2555 C   0  0  0  0  0  0  0  0  0  0  0  0
   68.8385   52.1716   55.3296 C   0  0  0  0  0  0  0  0  0  0  0  0
   69.5763   51.6389   54.2928 C   0  0  0  0  0  0  0  0  0  0  0  0
   70.9220   52.0214   54.2098 C   0  0  0  0  0  0  0  0  0  0  0  0
   73.7732   52.7430   53.4839 N   0  0  0  0  0  0  0  0  0  0  0  0
   73.1477   53.3376   54.9805 S   0  0  0  0  0  0  0  0  0  0  0  0
   73.9001   52.6847   56.1217 O   0  0  0  0  0  0  0  0  0  0  0  0
   73.2557   54.8267   55.0317 O   0  0  0  0  0  0  0  0  0  0  0  0
 22 23  1  0
 23 24  2  0
 23 25  2  0
 23 16  1  0
 16 17  2  0
 16 21  1  0
 17 18  1  0
 18 19  2  0
 19 20  1  0
 20 15  1  0
 20 21  2  0
 15  1  1  0
  1  2  2  0
  1  3  2  0
  1  4  1  0
  4  5  2  0
  4 13  1  0
  5  6  1  0
  5  7  1  0
  7  8  1  0
  7  9  2  0
  9 10  1  0
  9 11  1  0
 11 12  1  0
 11 13  2  0
 13 14  1  0
M  END
>  <minimizedAffinity>  (360) 
-9.11861

$$$$
cs_full_output_folder/data/smiles/730.pdb
     RDKit          3D

 30 33  0  0  0  0  0  0  0  0999 V2000
   70.8289   46.0943   58.2220 C   0  0  0  0  0  0  0  0  0  0  0  0
   71.8727   46.8354   58.7409 C   0  0  0  0  0  0  0  0  0  0  0  0
   71.9852   48.1926   58.5221 C   0  0  0  0  0  0  0  0  0  0  0  0
   71.0327   48.8326   57.7662 C   0  0  0  0  0  0  0  0  0  0  0  0
   69.9517   48.1271   57.2145 C   0  0  0  0  0  0  0  0  0  0  0  0
   69.8989   46.7766   57.4712 C   0  0  0  0  0  0  0  0  0  0  0  0
   70.8095   43.6448   57.5123 N   0  0  0  0  0  0  0  0  0  0  0  0
   70.7599   44.6656   58.4926 C   0  0  0  0  0  0  0  0  0  0  0  0
   70.6481   44.2630   59.6868 O   0  0  0  0  0  0  0  0  0  0  0  0
   71.6972   40.1724   58.5591 C   0  0  0  0  0  0  0  0  0  0  0  0
   71.8141   41.5067   58.2092 C   0  0  0  0  0  0  0  0  0  0  0  0
   70.7309   42.2481   57.8831 C   0  0  0  0  0  0  0  0  0  0  0  0
   69.4725   41.6924   57.8897 C   0  0  0  0  0  0  0  0  0  0  0  0
   69.3366   40.3662   58.2351 C   0  0  0  0  0  0  0  0  0  0  0  0
   70.4400   39.6172   58.5653 C   0  0  0  0  0  0  0  0  0  0  0  0
   70.2638   38.1967   58.9323 C   0  0  0  0  0  0  0  0  0  0  0  0
   73.6996   39.8613   59.8478 C   0  0  0  0  0  0  0  0  0  0  0  0
   72.7711   39.3717   58.9003 O   0  0  0  0  0  0  0  0  0  0  0  0
   68.9281   48.8682   56.4170 C   0  0  0  0  0  0  0  0  0  0  0  0
   69.3021   48.8022   54.9997 C   0  0  0  0  0  0  0  0  0  0  0  0
   70.0570   49.8239   54.4878 N   0  0  0  0  0  0  0  0  0  0  0  0
   70.4603   49.8581   53.2371 N   0  0  0  0  0  0  0  0  0  0  0  0
   70.1435   48.8711   52.3891 C   0  0  0  0  0  0  0  0  0  0  0  0
   70.5512   48.9325   51.1785 O   0  0  0  0  0  0  0  0  0  0  0  0
   69.3873   47.8058   52.8216 C   0  0  0  0  0  0  0  0  0  0  0  0
   68.9658   47.7842   54.1511 C   0  0  0  0  0  0  0  0  0  0  0  0
   68.1401   46.6663   54.6482 C   0  0  0  0  0  0  0  0  0  0  0  0
   67.2643   46.1942   53.4767 C   0  0  0  0  0  0  0  0  0  0  0  0
   68.1235   45.7272   52.3321 C   0  0  0  0  0  0  0  0  0  0  0  0
   69.0774   46.7556   51.8375 C   0  0  0  0  0  0  0  0  0  0  0  0
 17 18  1  0
 18 10  1  0
 10 11  2  0
 10 15  1  0
 11 12  1  0
 12  7  1  0
 12 13  2  0
  7  8  1  0
  8  9  2  0
  8  1  1  0
  1  2  2  0
  1  6  1  0
  2  3  1  0
  3  4  2  0
  4  5  1  0
  5 19  1  0
  5  6  2  0
 19 20  1  0
 20 21  2  0
 20 26  1  0
 21 22  1  0
 22 23  1  0
 23 24  2  0
 23 25  1  0
 25 26  2  0
 25 30  1  0
 26 27  1  0
 27 28  1  0
 28 29  1  0
 29 30  1  0
 13 14  1  0
 14 15  2  0
 15 16  1  0
M  END
>  <minimizedAffinity>  (361) 
-9.11471

$$$$
cs_full_output_folder/data/smiles/6110.pdb
     RDKit          3D

 27 28  0  0  0  0  0  0  0  0999 V2000
   69.7847   49.2058   52.6539 S   0  0  0  0  0  0  0  0  0  0  0  0
   71.2532   49.1891   52.9467 O   0  0  0  0  0  0  0  0  0  0  0  0
   69.6392   49.1984   51.1480 O   0  0  0  0  0  0  0  0  0  0  0  0
   69.0969   47.7267   53.2685 C   0  0  0  0  0  0  0  0  0  0  0  0
   68.4512   46.8310   52.4424 C   0  0  0  0  0  0  0  0  0  0  0  0
   68.3308   47.0778   51.1137 F   0  0  0  0  0  0  0  0  0  0  0  0
   67.9147   45.6616   52.9710 C   0  0  0  0  0  0  0  0  0  0  0  0
   67.2807   44.7874   52.1447 F   0  0  0  0  0  0  0  0  0  0  0  0
   67.9994   45.3502   54.3019 C   0  0  0  0  0  0  0  0  0  0  0  0
   67.4647   44.2018   54.7782 F   0  0  0  0  0  0  0  0  0  0  0  0
   68.6465   46.2440   55.1386 C   0  0  0  0  0  0  0  0  0  0  0  0
   68.7289   45.9300   56.4597 F   0  0  0  0  0  0  0  0  0  0  0  0
   69.1768   47.4024   54.6102 C   0  0  0  0  0  0  0  0  0  0  0  0
   69.8171   48.2871   55.4350 F   0  0  0  0  0  0  0  0  0  0  0  0
   69.0805   50.5936   53.3586 N   0  0  0  0  0  0  0  0  0  0  0  0
   71.8399   52.5553   54.9093 C   0  0  0  0  0  0  0  0  0  0  0  0
   71.1572   51.6633   54.1056 C   0  0  0  0  0  0  0  0  0  0  0  0
   69.7925   51.5034   54.1759 C   0  0  0  0  0  0  0  0  0  0  0  0
   69.1213   52.2903   55.1030 C   0  0  0  0  0  0  0  0  0  0  0  0
   69.7807   53.1845   55.9143 C   0  0  0  0  0  0  0  0  0  0  0  0
   71.1496   53.3191   55.8172 C   0  0  0  0  0  0  0  0  0  0  0  0
   71.8760   54.2274   56.6303 N   0  0  0  0  0  0  0  0  0  0  0  0
   72.3738   53.7715   57.8864 C   0  0  0  0  0  0  0  0  0  0  0  0
   73.1014   54.6432   58.7233 N   0  0  0  0  0  0  0  0  0  0  0  0
   72.1917   52.5926   58.3005 O   0  0  0  0  0  0  0  0  0  0  0  0
   73.8137   53.3538   53.7118 C   0  0  0  0  0  0  0  0  0  0  0  0
   73.2161   52.6853   54.8070 O   0  0  0  0  0  0  0  0  0  0  0  0
 26 27  1  0
 27 16  1  0
 16 17  2  0
 16 21  1  0
 17 18  1  0
 18 15  1  0
 18 19  2  0
 15  1  1  0
  1  2  2  0
  1  3  2  0
  1  4  1  0
  4  5  2  0
  4 13  1  0
  5  6  1  0
  5  7  1  0
  7  8  1  0
  7  9  2  0
  9 10  1  0
  9 11  1  0
 11 12  1  0
 11 13  2  0
 13 14  1  0
 19 20  1  0
 20 21  2  0
 21 22  1  0
 22 23  1  0
 23 24  1  0
 23 25  2  0
M  END
>  <minimizedAffinity>  (362) 
-9.10971

$$$$
cs_full_output_folder/data/smiles/6704.pdb
     RDKit          3D

 32 34  0  0  0  0  0  0  0  0999 V2000
   70.3447   42.4563   62.3707 C   0  0  0  0  0  0  0  0  0  0  0  0
   71.4388   43.1339   62.8897 C   0  0  0  0  0  0  0  0  0  0  0  0
   72.1827   43.9399   62.0735 C   0  0  0  0  0  0  0  0  0  0  0  0
   71.8483   44.0857   60.7211 C   0  0  0  0  0  0  0  0  0  0  0  0
   70.7648   43.4182   60.1905 C   0  0  0  0  0  0  0  0  0  0  0  0
   70.0442   42.6195   61.0448 C   0  0  0  0  0  0  0  0  0  0  0  0
   68.4506   40.8382   62.8155 N   0  0  0  0  0  0  0  0  0  0  0  0
   69.5586   41.6003   63.2492 C   0  0  0  0  0  0  0  0  0  0  0  0
   69.8405   41.4948   64.4848 O   0  0  0  0  0  0  0  0  0  0  0  0
   67.1404   38.5628   62.0283 O   0  0  0  0  0  0  0  0  0  0  0  0
   67.0410   38.8536   63.2541 C   0  0  0  0  0  0  0  0  0  0  0  0
   67.7046   40.0176   63.6817 N   0  0  0  0  0  0  0  0  0  0  0  0
   66.2613   37.9813   64.1227 C   0  0  0  0  0  0  0  0  0  0  0  0
   66.4381   38.0170   65.4888 C   0  0  0  0  0  0  0  0  0  0  0  0
   65.7099   37.1985   66.3502 C   0  0  0  0  0  0  0  0  0  0  0  0
   64.7750   36.3105   65.8537 C   0  0  0  0  0  0  0  0  0  0  0  0
   64.0708   35.5179   66.6974 F   0  0  0  0  0  0  0  0  0  0  0  0
   64.5957   36.2724   64.4893 C   0  0  0  0  0  0  0  0  0  0  0  0
   65.3270   37.0936   63.6434 C   0  0  0  0  0  0  0  0  0  0  0  0
   70.4531   43.5958   58.7891 C   0  0  0  0  0  0  0  0  0  0  0  0
   70.7335   42.6996   57.9222 O   0  0  0  0  0  0  0  0  0  0  0  0
   69.8218   44.7550   58.2635 N   0  0  0  0  0  0  0  0  0  0  0  0
   69.5402   44.8763   56.8866 N   0  0  0  0  0  0  0  0  0  0  0  0
   69.0347   46.0959   56.3502 C   0  0  0  0  0  0  0  0  0  0  0  0
   68.8672   47.0251   57.1818 O   0  0  0  0  0  0  0  0  0  0  0  0
   68.7229   46.2917   54.9435 C   0  0  0  0  0  0  0  0  0  0  0  0
   67.9964   45.3164   54.2992 C   0  0  0  0  0  0  0  0  0  0  0  0
   67.6519   45.4184   52.9578 C   0  0  0  0  0  0  0  0  0  0  0  0
   68.0529   46.5293   52.2560 C   0  0  0  0  0  0  0  0  0  0  0  0
   67.6888   46.5816   50.9378 F   0  0  0  0  0  0  0  0  0  0  0  0
   68.7766   47.5135   52.8725 C   0  0  0  0  0  0  0  0  0  0  0  0
   69.1131   47.3923   54.2254 C   0  0  0  0  0  0  0  0  0  0  0  0
 10 11  2  0
 11 12  1  0
 11 13  1  0
 12  7  1  0
  7  8  1  0
  8  9  2  0
  8  1  1  0
  1  2  2  0
  1  6  1  0
  2  3  1  0
  3  4  2  0
  4  5  1  0
  5 20  1  0
  5  6  2  0
 20 21  2  0
 20 22  1  0
 22 23  1  0
 23 24  1  0
 24 25  2  0
 24 26  1  0
 26 27  2  0
 26 32  1  0
 27 28  1  0
 28 29  2  0
 29 30  1  0
 29 31  1  0
 31 32  2  0
 13 14  2  0
 13 19  1  0
 14 15  1  0
 15 16  2  0
 16 17  1  0
 16 18  1  0
 18 19  2  0
M  END
>  <minimizedAffinity>  (363) 
-9.10625

$$$$
cs_full_output_folder/data/smiles/1709.pdb
     RDKit          3D

 29 31  0  0  0  0  0  0  0  0999 V2000
   74.7056   46.8361   58.4060 N   0  0  0  0  0  0  0  0  0  0  0  0
   73.2873   46.9082   58.2966 C   0  0  0  0  0  0  0  0  0  0  0  0
   72.6250   48.1008   58.1232 C   0  0  0  0  0  0  0  0  0  0  0  0
   71.2578   48.1082   58.0240 C   0  0  0  0  0  0  0  0  0  0  0  0
   70.5529   46.8991   58.1015 C   0  0  0  0  0  0  0  0  0  0  0  0
   71.1993   45.7062   58.2740 C   0  0  0  0  0  0  0  0  0  0  0  0
   72.5708   45.7167   58.3715 C   0  0  0  0  0  0  0  0  0  0  0  0
   70.4734   44.4612   58.3402 C   0  0  0  0  0  0  0  0  0  0  0  0
   69.7385   44.2443   59.3408 O   0  0  0  0  0  0  0  0  0  0  0  0
   70.5040   43.4328   57.3704 N   0  0  0  0  0  0  0  0  0  0  0  0
   69.7689   42.2224   57.4830 C   0  0  0  0  0  0  0  0  0  0  0  0
   68.5251   42.0590   56.9360 C   0  0  0  0  0  0  0  0  0  0  0  0
   67.8480   40.8473   57.0772 C   0  0  0  0  0  0  0  0  0  0  0  0
   68.3955   39.7843   57.7621 C   0  0  0  0  0  0  0  0  0  0  0  0
   67.7223   38.5983   57.8957 F   0  0  0  0  0  0  0  0  0  0  0  0
   69.6486   39.9537   58.3119 C   0  0  0  0  0  0  0  0  0  0  0  0
   70.3149   41.1581   58.1679 C   0  0  0  0  0  0  0  0  0  0  0  0
   71.5357   41.2855   58.7191 F   0  0  0  0  0  0  0  0  0  0  0  0
   69.1485   46.9485   58.0274 N   0  0  0  0  0  0  0  0  0  0  0  0
   68.3182   47.9445   56.9178 S   0  0  0  0  0  0  0  0  0  0  0  0
   68.6989   49.3993   57.1120 O   0  0  0  0  0  0  0  0  0  0  0  0
   66.8219   47.9011   57.1763 O   0  0  0  0  0  0  0  0  0  0  0  0
   68.5703   47.5720   55.2554 C   0  0  0  0  0  0  0  0  0  0  0  0
   69.3432   48.3686   54.4008 C   0  0  0  0  0  0  0  0  0  0  0  0
   69.5342   48.0576   53.0775 C   0  0  0  0  0  0  0  0  0  0  0  0
   68.9617   46.9308   52.5289 C   0  0  0  0  0  0  0  0  0  0  0  0
   68.1995   46.1381   53.3558 C   0  0  0  0  0  0  0  0  0  0  0  0
   67.6281   45.0237   52.8333 F   0  0  0  0  0  0  0  0  0  0  0  0
   68.0061   46.4433   54.6761 C   0  0  0  0  0  0  0  0  0  0  0  0
  1  2  1  0
  2  3  2  0
  2  7  1  0
  3  4  1  0
  4  5  2  0
  5 19  1  0
  5  6  1  0
 19 20  1  0
 20 21  2  0
 20 22  2  0
 20 23  1  0
 23 24  2  0
 23 29  1  0
 24 25  1  0
 25 26  2  0
 26 27  1  0
 27 28  1  0
 27 29  2  0
  6  8  1  0
  6  7  2  0
  8  9  2  0
  8 10  1  0
 10 11  1  0
 11 12  2  0
 11 17  1  0
 12 13  1  0
 13 14  2  0
 14 15  1  0
 14 16  1  0
 16 17  2  0
 17 18  1  0
M  END
>  <minimizedAffinity>  (364) 
-9.10502

$$$$
cs_full_output_folder/data/smiles/933.pdb
     RDKit          3D

 32 36  0  0  0  0  0  0  0  0999 V2000
   71.2624   46.6871   58.7403 C   0  0  0  0  0  0  0  0  0  0  0  0
   70.4002   47.4228   57.9728 C   0  0  0  0  0  0  0  0  0  0  0  0
   69.5151   46.8837   57.0428 C   0  0  0  0  0  0  0  0  0  0  0  0
   69.5269   45.5242   56.9051 C   0  0  0  0  0  0  0  0  0  0  0  0
   70.3638   44.7309   57.6419 C   0  0  0  0  0  0  0  0  0  0  0  0
   71.2196   45.3001   58.5456 C   0  0  0  0  0  0  0  0  0  0  0  0
   72.0619   44.5405   59.2920 F   0  0  0  0  0  0  0  0  0  0  0  0
   73.9262   48.8908   59.1905 C   0  0  0  0  0  0  0  0  0  0  0  0
   73.4449   47.7473   59.4423 N   0  0  0  0  0  0  0  0  0  0  0  0
   72.2028   47.2508   59.7173 C   0  0  0  0  0  0  0  0  0  0  0  0
   71.7708   47.2533   60.9228 O   0  0  0  0  0  0  0  0  0  0  0  0
   76.9382   49.9159   56.3048 C   0  0  0  0  0  0  0  0  0  0  0  0
   77.1625   49.2902   57.6082 N   0  0  1  0  0  0  0  0  0  0  0  0
   77.1435   50.2441   58.6847 C   0  0  0  0  0  0  0  0  0  0  0  0
   76.3930   49.4568   59.7721 C   0  0  0  0  0  0  0  0  0  0  0  0
   75.3316   48.9186   58.9597 N   0  0  0  0  0  0  0  0  0  0  0  0
   76.0167   48.3956   57.8140 C   0  0  0  0  0  0  0  0  0  0  0  0
   73.1602   50.1625   59.1131 C   0  0  0  0  0  0  0  0  0  0  0  0
   73.5321   51.3333   58.3509 C   0  0  0  0  0  0  0  0  0  0  0  0
   72.2998   50.4900   57.9496 C   0  0  0  0  0  0  0  0  0  0  0  0
   68.5888   47.7503   56.2758 C   0  0  0  0  0  0  0  0  0  0  0  0
   69.0442   48.0320   54.8931 C   0  0  0  0  0  0  0  0  0  0  0  0
   69.9524   49.0421   54.6993 N   0  0  0  0  0  0  0  0  0  0  0  0
   70.4141   49.3030   53.5027 N   0  0  0  0  0  0  0  0  0  0  0  0
   70.0486   48.6269   52.4050 C   0  0  0  0  0  0  0  0  0  0  0  0
   70.5140   48.9002   51.2488 O   0  0  0  0  0  0  0  0  0  0  0  0
   69.1373   47.5961   52.5251 C   0  0  0  0  0  0  0  0  0  0  0  0
   68.7185   46.8726   51.4273 C   0  0  0  0  0  0  0  0  0  0  0  0
   67.7982   45.8504   51.5482 C   0  0  0  0  0  0  0  0  0  0  0  0
   67.3209   45.5885   52.8090 C   0  0  0  0  0  0  0  0  0  0  0  0
   67.7258   46.3011   53.9275 C   0  0  0  0  0  0  0  0  0  0  0  0
   68.6502   47.3237   53.7966 C   0  0  0  0  0  0  0  0  0  0  0  0
 13 12  1  6
 13 14  1  0
 13 17  1  0
 14 15  1  0
 15 16  1  0
 16  8  1  0
 16 17  1  0
  8  9  2  0
  8 18  1  0
  9 10  1  0
 10 11  2  0
 10  1  1  0
  1  2  2  0
  1  6  1  0
  2  3  1  0
  3 21  1  0
  3  4  2  0
 21 22  1  0
 22 23  2  0
 22 32  1  0
 23 24  1  0
 24 25  1  0
 25 26  2  0
 25 27  1  0
 27 28  1  0
 27 32  2  0
 28 29  2  0
 29 30  1  0
 30 31  2  0
 31 32  1  0
  4  5  1  0
  5  6  2  0
  6  7  1  0
 18 19  1  0
 18 20  1  0
 19 20  1  0
M  CHG  2   9   1  13   1
M  END
>  <minimizedAffinity>  (365) 
-9.09536

$$$$
cs_full_output_folder/data/smiles/801.pdb
     RDKit          3D

 32 36  0  0  0  0  0  0  0  0999 V2000
   71.7864   45.7594   58.4706 C   0  0  0  0  0  0  0  0  0  0  0  0
   72.4124   46.6964   59.2876 C   0  0  0  0  0  0  0  0  0  0  0  0
   71.9257   47.9840   59.3333 C   0  0  0  0  0  0  0  0  0  0  0  0
   70.8288   48.3313   58.5725 C   0  0  0  0  0  0  0  0  0  0  0  0
   70.1761   47.4225   57.7439 C   0  0  0  0  0  0  0  0  0  0  0  0
   70.7040   46.1560   57.7384 C   0  0  0  0  0  0  0  0  0  0  0  0
   72.9993   44.0995   57.3766 O   0  0  0  0  0  0  0  0  0  0  0  0
   72.2747   44.3868   58.3838 C   0  0  0  0  0  0  0  0  0  0  0  0
   72.0082   43.3719   59.3136 N   0  0  0  0  0  0  0  0  0  0  0  0
   71.2163   43.5090   60.5197 C   0  0  0  0  0  0  0  0  0  0  0  0
   69.9907   42.6409   60.3709 C   0  0  0  0  0  0  0  0  0  0  0  0
   70.2050   41.7489   59.2238 N   0  0  0  0  0  0  0  0  0  0  0  0
   71.4262   40.9937   59.2856 C   0  0  0  0  0  0  0  0  0  0  0  0
   72.5486   42.0333   59.0798 C   0  0  0  0  0  0  0  0  0  0  0  0
   69.3145   41.6467   58.1419 C   0  0  0  0  0  0  0  0  0  0  0  0
   68.9649   42.7027   57.3498 C   0  0  0  0  0  0  0  0  0  0  0  0
   68.0834   42.6167   56.2946 C   0  0  0  0  0  0  0  0  0  0  0  0
   67.5104   41.4173   56.0001 C   0  0  0  0  0  0  0  0  0  0  0  0
   67.8187   40.3210   56.7548 C   0  0  0  0  0  0  0  0  0  0  0  0
   68.7027   40.4297   57.8053 C   0  0  0  0  0  0  0  0  0  0  0  0
   69.0201   47.8218   56.9102 C   0  0  0  0  0  0  0  0  0  0  0  0
   69.3672   48.0883   55.4900 C   0  0  0  0  0  0  0  0  0  0  0  0
   70.1709   49.1542   55.1997 N   0  0  0  0  0  0  0  0  0  0  0  0
   70.5293   49.5084   53.9904 N   0  0  0  0  0  0  0  0  0  0  0  0
   70.1195   48.8318   52.9145 C   0  0  0  0  0  0  0  0  0  0  0  0
   70.4422   49.1427   51.7375 O   0  0  0  0  0  0  0  0  0  0  0  0
   69.2946   47.7276   53.1235 C   0  0  0  0  0  0  0  0  0  0  0  0
   68.8299   46.9740   52.0773 C   0  0  0  0  0  0  0  0  0  0  0  0
   68.0189   45.8821   52.2500 C   0  0  0  0  0  0  0  0  0  0  0  0
   67.6741   45.5505   53.5392 C   0  0  0  0  0  0  0  0  0  0  0  0
   68.1183   46.2787   54.6215 C   0  0  0  0  0  0  0  0  0  0  0  0
   68.9207   47.3591   54.4143 C   0  0  0  0  0  0  0  0  0  0  0  0
  7  8  2  0
  8  1  1  0
  8  9  1  0
  1  2  2  0
  1  6  1  0
  2  3  1  0
  3  4  2  0
  4  5  1  0
  5 21  1  0
  5  6  2  0
 21 22  1  0
 22 23  2  0
 22 32  1  0
 23 24  1  0
 24 25  1  0
 25 26  2  0
 25 27  1  0
 27 28  1  0
 27 32  2  0
 28 29  2  0
 29 30  1  0
 30 31  2  0
 31 32  1  0
  9 10  1  0
  9 14  1  0
 10 11  1  0
 11 12  1  0
 12 15  1  0
 12 13  1  0
 15 16  2  0
 15 20  1  0
 16 17  1  0
 17 18  2  0
 18 19  1  0
 19 20  2  0
 13 14  1  0
M  END
>  <minimizedAffinity>  (366) 
-9.09368

$$$$
cs_full_output_folder/data/smiles/322.pdb
     RDKit          3D

 30 33  0  0  0  0  0  0  0  0999 V2000
   72.0436   48.0369   58.9671 C   0  0  0  0  0  0  0  0  0  0  0  0
   73.0691   48.6907   58.3446 C   0  0  0  0  0  0  0  0  0  0  0  0
   72.9072   49.4745   57.2339 C   0  0  0  0  0  0  0  0  0  0  0  0
   71.6420   49.6070   56.7180 C   0  0  0  0  0  0  0  0  0  0  0  0
   70.5511   48.9618   57.3099 C   0  0  0  0  0  0  0  0  0  0  0  0
   70.7595   48.1946   58.4138 C   0  0  0  0  0  0  0  0  0  0  0  0
   71.6170   43.7927   59.4163 N   0  0  0  0  0  0  0  0  0  0  0  0
   71.8994   43.6356   60.8032 C   0  0  0  0  0  0  0  0  0  0  0  0
   72.6114   44.9277   61.2164 C   0  0  0  0  0  0  0  0  0  0  0  0
   72.3865   45.7839   60.0856 N   0  0  0  0  0  0  0  0  0  0  0  0
   72.2584   47.2041   60.1397 C   0  0  0  0  0  0  0  0  0  0  0  0
   72.3337   47.7918   61.2656 O   0  0  0  0  0  0  0  0  0  0  0  0
   72.3310   44.9213   58.9267 C   0  0  0  0  0  0  0  0  0  0  0  0
   70.0331   43.5604   58.9039 S   0  0  0  0  0  0  0  0  0  0  0  0
   69.5717   44.5400   57.8803 O   0  0  0  0  0  0  0  0  0  0  0  0
   69.0469   43.6138   60.0573 O   0  0  0  0  0  0  0  0  0  0  0  0
   68.7317   41.9777   57.1513 C   0  0  0  0  0  0  0  0  0  0  0  0
   69.8562   41.9165   58.1663 C   0  0  0  0  0  0  0  0  0  0  0  0
   69.2468   49.1778   56.6692 C   0  0  0  0  0  0  0  0  0  0  0  0
   68.9376   48.0114   55.8066 C   0  0  0  0  0  0  0  0  0  0  0  0
   68.3344   46.9185   56.3730 N   0  0  0  0  0  0  0  0  0  0  0  0
   67.9452   45.8680   55.7023 N   0  0  0  0  0  0  0  0  0  0  0  0
   68.1188   45.7921   54.3668 C   0  0  0  0  0  0  0  0  0  0  0  0
   67.7476   44.7928   53.7287 O   0  0  0  0  0  0  0  0  0  0  0  0
   68.7101   46.8315   53.7245 C   0  0  0  0  0  0  0  0  0  0  0  0
   68.9146   46.7747   52.3655 C   0  0  0  0  0  0  0  0  0  0  0  0
   69.5314   47.8299   51.7369 C   0  0  0  0  0  0  0  0  0  0  0  0
   69.9396   48.9274   52.4591 C   0  0  0  0  0  0  0  0  0  0  0  0
   69.7354   48.9821   53.8084 C   0  0  0  0  0  0  0  0  0  0  0  0
   69.1232   47.9484   54.4504 C   0  0  0  0  0  0  0  0  0  0  0  0
 17 18  1  0
 18 14  1  0
 14 15  2  0
 14 16  2  0
 14  7  1  0
  7  8  1  0
  7 13  1  0
  8  9  1  0
  9 10  1  0
 10 11  1  0
 10 13  1  0
 11 12  2  0
 11  1  1  0
  1  2  2  0
  1  6  1  0
  2  3  1  0
  3  4  2  0
  4  5  1  0
  5 19  1  0
  5  6  2  0
 19 20  1  0
 20 21  2  0
 20 30  1  0
 21 22  1  0
 22 23  1  0
 23 24  2  0
 23 25  1  0
 25 26  1  0
 25 30  2  0
 26 27  2  0
 27 28  1  0
 28 29  2  0
 29 30  1  0
M  END
>  <minimizedAffinity>  (367) 
-9.09237

$$$$
cs_full_output_folder/data/smiles/2877.pdb
     RDKit          3D

 28 30  0  0  0  0  0  0  0  0999 V2000
   67.5329   44.9277   52.3559 C   0  0  0  0  0  0  0  0  0  0  0  0
   68.1853   46.1897   52.7925 C   0  0  0  0  0  0  0  0  0  0  0  0
   68.4267   47.1443   51.8362 C   0  0  0  0  0  0  0  0  0  0  0  0
   69.0267   48.3351   52.1245 C   0  0  0  0  0  0  0  0  0  0  0  0
   69.3911   48.5553   53.4215 C   0  0  0  0  0  0  0  0  0  0  0  0
   69.1547   47.5926   54.3980 C   0  0  0  0  0  0  0  0  0  0  0  0
   68.5300   46.3591   54.1010 C   0  0  0  0  0  0  0  0  0  0  0  0
   70.1692   49.9997   54.0180 S   0  0  0  0  0  0  0  0  0  0  0  0
   70.3907   50.9490   52.8920 O   0  0  0  0  0  0  0  0  0  0  0  0
   71.4849   49.5561   54.5989 O   0  0  0  0  0  0  0  0  0  0  0  0
   69.2676   50.7821   55.3036 C   0  0  0  0  0  0  0  0  0  0  0  0
   69.8622   50.5726   56.6759 C   0  0  0  0  0  0  0  0  0  0  0  0
   68.8896   51.1698   57.6822 C   0  0  0  0  0  0  0  0  0  0  0  0
   68.4680   52.4161   57.2964 O   0  0  0  0  0  0  0  0  0  0  0  0
   69.2247   53.0089   56.2960 C   0  0  0  0  0  0  0  0  0  0  0  0
   69.0123   52.2541   55.0013 C   0  0  0  0  0  0  0  0  0  0  0  0
   68.3111   45.4372   55.1707 C   0  0  0  0  0  0  0  0  0  0  0  0
   68.5947   45.8988   56.3586 O   0  0  0  0  0  0  0  0  0  0  0  0
   67.8493   44.1231   55.2056 N   0  0  0  0  0  0  0  0  0  0  0  0
   67.7377   43.4328   56.4643 N   0  0  0  0  0  0  0  0  0  0  0  0
   67.4526   42.0476   56.4891 C   0  0  0  0  0  0  0  0  0  0  0  0
   67.2882   41.5109   55.3326 O   0  0  0  0  0  0  0  0  0  0  0  0
   67.3413   41.2235   57.6740 C   0  0  0  0  0  0  0  0  0  0  0  0
   68.0448   40.0338   57.7574 C   0  0  0  0  0  0  0  0  0  0  0  0
   68.0194   39.1991   58.8477 C   0  0  0  0  0  0  0  0  0  0  0  0
   67.2293   39.5900   59.9300 C   0  0  0  0  0  0  0  0  0  0  0  0
   66.5164   40.7804   59.8601 C   0  0  0  0  0  0  0  0  0  0  0  0
   66.5706   41.5863   58.7494 C   0  0  0  0  0  0  0  0  0  0  0  0
  1  2  1  0
  2  3  2  0
  2  7  1  0
  3  4  1  0
  4  5  2  0
  5  8  1  0
  5  6  1  0
  8  9  2  0
  8 10  2  0
  8 11  1  0
 11 12  1  0
 11 16  1  0
 12 13  1  0
 13 14  1  0
 14 15  1  0
 15 16  1  0
  6  7  2  0
  7 17  1  0
 17 18  2  0
 17 19  1  0
 19 20  1  0
 20 21  1  0
 21 22  2  0
 21 23  1  0
 23 24  2  0
 23 28  1  0
 24 25  1  0
 25 26  2  0
 26 27  1  0
 27 28  2  0
M  END
>  <minimizedAffinity>  (368) 
-9.08654

$$$$
cs_full_output_folder/data/smiles/3033.pdb
     RDKit          3D

 30 32  0  0  0  0  0  0  0  0999 V2000
   71.4102   43.4681   57.9191 C   0  0  0  0  0  0  0  0  0  0  0  0
   70.1477   43.7429   57.4484 C   0  0  0  0  0  0  0  0  0  0  0  0
   69.6599   45.0555   57.3893 C   0  0  0  0  0  0  0  0  0  0  0  0
   70.4016   46.1354   57.7918 C   0  0  0  0  0  0  0  0  0  0  0  0
   71.6894   45.8465   58.2719 C   0  0  0  0  0  0  0  0  0  0  0  0
   72.1539   44.5569   58.3244 C   0  0  0  0  0  0  0  0  0  0  0  0
   73.2150   42.0244   57.8949 O   0  0  0  0  0  0  0  0  0  0  0  0
   71.9793   42.1183   58.0064 C   0  0  0  0  0  0  0  0  0  0  0  0
   71.2421   40.9478   58.2006 N   0  0  0  0  0  0  0  0  0  0  0  0
   71.5996   39.6355   58.3046 N   0  0  0  0  0  0  0  0  0  0  0  0
   70.8366   38.4561   58.3271 C   0  0  0  0  0  0  0  0  0  0  0  0
   69.5780   38.5966   58.2373 O   0  0  0  0  0  0  0  0  0  0  0  0
   71.3957   37.1045   58.4471 C   0  0  0  0  0  0  0  0  0  0  0  0
   72.3170   36.6324   57.5660 C   0  0  0  0  0  0  0  0  0  0  0  0
   72.8328   35.3254   57.7139 C   0  0  0  0  0  0  0  0  0  0  0  0
   72.4077   34.5237   58.7470 C   0  0  0  0  0  0  0  0  0  0  0  0
   71.4781   34.9960   59.6386 C   0  0  0  0  0  0  0  0  0  0  0  0
   70.9904   36.2779   59.4716 C   0  0  0  0  0  0  0  0  0  0  0  0
   70.0477   36.7818   60.3598 O   0  0  0  0  0  0  0  0  0  0  0  0
   69.9919   47.4779   57.7830 N   0  0  0  0  0  0  0  0  0  0  0  0
   68.6703   48.1092   56.9209 S   0  0  0  0  0  0  0  0  0  0  0  0
   68.7419   49.6290   57.0327 O   0  0  0  0  0  0  0  0  0  0  0  0
   67.3709   47.6433   57.5294 O   0  0  0  0  0  0  0  0  0  0  0  0
   68.7551   47.6864   55.2332 C   0  0  0  0  0  0  0  0  0  0  0  0
   68.0516   46.6044   54.7384 C   0  0  0  0  0  0  0  0  0  0  0  0
   68.0847   46.2672   53.3937 C   0  0  0  0  0  0  0  0  0  0  0  0
   68.8434   47.0397   52.5398 C   0  0  0  0  0  0  0  0  0  0  0  0
   68.8809   46.7177   51.2260 F   0  0  0  0  0  0  0  0  0  0  0  0
   69.5604   48.1260   52.9871 C   0  0  0  0  0  0  0  0  0  0  0  0
   69.5086   48.4371   54.3295 C   0  0  0  0  0  0  0  0  0  0  0  0
  7  8  2  0
  8  9  1  0
  8  1  1  0
  9 10  1  0
 10 11  1  0
 11 12  2  0
 11 13  1  0
 13 14  2  0
 13 18  1  0
 14 15  1  0
 15 16  2  0
 16 17  1  0
 17 18  2  0
 18 19  1  0
  1  2  2  0
  1  6  1  0
  2  3  1  0
  3  4  2  0
  4 20  1  0
  4  5  1  0
 20 21  1  0
 21 22  2  0
 21 23  2  0
 21 24  1  0
 24 25  2  0
 24 30  1  0
 25 26  1  0
 26 27  2  0
 27 28  1  0
 27 29  1  0
 29 30  2  0
  5  6  2  0
M  END
>  <minimizedAffinity>  (369) 
-9.07816

$$$$
cs_full_output_folder/data/smiles/5038.pdb
     RDKit          3D

 28 30  0  0  0  0  0  0  0  0999 V2000
   68.8940   46.7973   54.5319 C   0  0  0  0  0  0  0  0  0  0  0  0
   69.5151   48.0115   54.6952 C   0  0  0  0  0  0  0  0  0  0  0  0
   69.7012   48.9182   53.6765 C   0  0  0  0  0  0  0  0  0  0  0  0
   69.2434   48.5996   52.4213 C   0  0  0  0  0  0  0  0  0  0  0  0
   68.6103   47.3866   52.2063 C   0  0  0  0  0  0  0  0  0  0  0  0
   68.4429   46.5058   53.2496 C   0  0  0  0  0  0  0  0  0  0  0  0
   67.6357   44.9926   52.8977 Cl  0  0  0  0  0  0  0  0  0  0  0  0
   68.1968   44.5006   55.3805 N   0  0  0  0  0  0  0  0  0  0  0  0
   68.6508   45.8259   55.5898 C   0  0  0  0  0  0  0  0  0  0  0  0
   68.8536   46.1572   56.8187 O   0  0  0  0  0  0  0  0  0  0  0  0
   67.0822   41.9302   55.3259 O   0  0  0  0  0  0  0  0  0  0  0  0
   67.4329   42.3748   56.4439 C   0  0  0  0  0  0  0  0  0  0  0  0
   68.0006   43.6724   56.4840 N   0  0  0  0  0  0  0  0  0  0  0  0
   67.2500   41.5577   57.6371 C   0  0  0  0  0  0  0  0  0  0  0  0
   67.7611   40.2962   57.7843 C   0  0  0  0  0  0  0  0  0  0  0  0
   67.5629   39.5582   58.9418 C   0  0  0  0  0  0  0  0  0  0  0  0
   66.8380   40.0714   59.9914 C   0  0  0  0  0  0  0  0  0  0  0  0
   66.3259   41.3545   59.8230 C   0  0  0  0  0  0  0  0  0  0  0  0
   66.5451   42.0357   58.6776 N   0  0  0  0  0  0  0  0  0  0  0  0
   70.5234   50.4371   53.9390 S   0  0  0  0  0  0  0  0  0  0  0  0
   72.0317   50.2132   53.9257 O   0  0  0  0  0  0  0  0  0  0  0  0
   70.2744   51.3137   52.7128 O   0  0  0  0  0  0  0  0  0  0  0  0
   70.1253   51.2433   55.3424 N   0  0  0  0  0  0  0  0  0  0  0  0
   68.9418   51.9891   55.4424 C   0  0  0  0  0  0  0  0  0  0  0  0
   68.2029   51.7577   56.7550 C   0  0  0  0  0  0  0  0  0  0  0  0
   68.7105   50.5141   57.4553 C   0  0  0  0  0  0  0  0  0  0  0  0
   70.2077   50.5458   57.6896 C   0  0  0  0  0  0  0  0  0  0  0  0
   70.9393   51.0907   56.4847 C   0  0  0  0  0  0  0  0  0  0  0  0
 11 12  2  0
 12 13  1  0
 12 14  1  0
 13  8  1  0
  8  9  1  0
  9 10  2  0
  9  1  1  0
  1  2  2  0
  1  6  1  0
  2  3  1  0
  3 20  1  0
  3  4  2  0
 20 21  2  0
 20 22  2  0
 20 23  1  0
 23 24  1  0
 23 28  1  0
 24 25  1  0
 25 26  1  0
 26 27  1  0
 27 28  1  0
  4  5  1  0
  5  6  2  0
  6  7  1  0
 14 15  2  0
 14 19  1  0
 15 16  1  0
 16 17  2  0
 17 18  1  0
 18 19  2  0
M  END
>  <minimizedAffinity>  (370) 
-9.07785

$$$$
cs_full_output_folder/data/smiles/8542.pdb
     RDKit          3D

 30 34  0  0  0  0  0  0  0  0999 V2000
   71.7491   47.0082   59.1052 C   0  0  0  0  0  0  0  0  0  0  0  0
   70.8276   47.6540   58.3249 C   0  0  0  0  0  0  0  0  0  0  0  0
   69.9635   46.9352   57.5178 C   0  0  0  0  0  0  0  0  0  0  0  0
   70.0242   45.5676   57.4925 C   0  0  0  0  0  0  0  0  0  0  0  0
   70.9405   44.8970   58.2661 C   0  0  0  0  0  0  0  0  0  0  0  0
   71.8082   45.6397   59.0783 C   0  0  0  0  0  0  0  0  0  0  0  0
   72.6946   44.9544   59.8237 F   0  0  0  0  0  0  0  0  0  0  0  0
   72.2669   47.9412   61.1480 O   0  0  0  0  0  0  0  0  0  0  0  0
   72.6724   47.7875   59.9624 C   0  0  0  0  0  0  0  0  0  0  0  0
   73.8839   48.3000   59.4751 N   0  0  0  0  0  0  0  0  0  0  0  0
   74.8755   49.0715   60.1704 C   0  0  0  0  0  0  0  0  0  0  0  0
   75.5694   49.9106   59.0836 C   0  0  1  0  0  0  0  0  0  0  0  0
   76.9957   49.4715   59.0285 C   0  0  0  0  0  0  0  0  0  0  0  0
   77.6287   49.6910   57.6743 C   0  0  0  0  0  0  0  0  0  0  0  0
   76.8410   49.1881   56.5888 N   0  0  0  0  0  0  0  0  0  0  0  0
   75.5152   49.7571   56.5695 C   0  0  0  0  0  0  0  0  0  0  0  0
   74.7813   49.5752   57.8421 C   0  0  1  0  0  0  0  0  0  0  0  0
   74.3732   48.1409   58.1302 C   0  0  0  0  0  0  0  0  0  0  0  0
   68.9795   47.7250   56.7283 C   0  0  0  0  0  0  0  0  0  0  0  0
   69.3709   47.9951   55.3371 C   0  0  0  0  0  0  0  0  0  0  0  0
   70.2426   49.0304   55.1250 N   0  0  0  0  0  0  0  0  0  0  0  0
   70.6828   49.3894   53.9497 N   0  0  0  0  0  0  0  0  0  0  0  0
   70.3006   48.7488   52.8315 C   0  0  0  0  0  0  0  0  0  0  0  0
   70.6996   49.0623   51.6912 O   0  0  0  0  0  0  0  0  0  0  0  0
   69.4178   47.6910   52.9685 C   0  0  0  0  0  0  0  0  0  0  0  0
   68.9553   47.3138   54.2162 C   0  0  0  0  0  0  0  0  0  0  0  0
   68.0566   46.1662   54.3706 C   0  0  0  0  0  0  0  0  0  0  0  0
   67.5039   45.6107   53.1049 C   0  0  0  0  0  0  0  0  0  0  0  0
   68.0614   46.0764   51.8558 C   0  0  0  0  0  0  0  0  0  0  0  0
   68.9417   47.0312   51.7590 C   0  0  0  0  0  0  0  0  0  0  0  0
  8  9  2  0
  9  1  1  0
  9 10  1  0
  1  2  2  0
  1  6  1  0
  2  3  1  0
  3 19  1  0
  3  4  2  0
 19 20  1  0
 20 21  2  0
 20 26  1  0
 21 22  1  0
 22 23  1  0
 23 24  2  0
 23 25  1  0
 25 26  2  0
 25 30  1  0
 26 27  1  0
 27 28  1  0
 28 29  1  0
 29 30  2  0
  4  5  1  0
  5  6  2  0
  6  7  1  0
 10 11  1  0
 10 18  1  0
 12 11  1  1
 12 13  1  0
 12 17  1  0
 13 14  1  0
 14 15  1  0
 15 16  1  0
 17 16  1  6
 17 18  1  0
M  CHG  1  15   1
M  END
>  <minimizedAffinity>  (371) 
-9.07697

$$$$
cs_full_output_folder/data/smiles/413.pdb
     RDKit          3D

 30 32  0  0  0  0  0  0  0  0999 V2000
   71.9437   51.8420   58.3838 C   0  0  0  0  0  0  0  0  0  0  0  0
   71.0931   50.7443   57.8998 C   0  0  0  0  0  0  0  0  0  0  0  0
   69.7199   50.9112   57.7770 C   0  0  0  0  0  0  0  0  0  0  0  0
   68.9403   49.8604   57.3132 C   0  0  0  0  0  0  0  0  0  0  0  0
   69.4567   48.6348   56.9620 C   0  0  0  0  0  0  0  0  0  0  0  0
   70.8242   48.5030   57.0963 C   0  0  0  0  0  0  0  0  0  0  0  0
   71.6475   49.5402   57.5594 C   0  0  0  0  0  0  0  0  0  0  0  0
   68.5339   47.3150   56.2937 S   0  0  0  0  0  0  0  0  0  0  0  0
   69.0170   45.9986   56.8754 O   0  0  0  0  0  0  0  0  0  0  0  0
   67.0830   47.5311   56.7252 O   0  0  0  0  0  0  0  0  0  0  0  0
   68.6190   47.2424   54.5779 C   0  0  0  0  0  0  0  0  0  0  0  0
   69.1858   48.2888   53.8722 C   0  0  0  0  0  0  0  0  0  0  0  0
   69.3269   48.2792   52.4963 C   0  0  0  0  0  0  0  0  0  0  0  0
   68.8850   47.1808   51.7957 C   0  0  0  0  0  0  0  0  0  0  0  0
   68.3118   46.1102   52.4634 C   0  0  0  0  0  0  0  0  0  0  0  0
   68.1938   46.1732   53.8512 C   0  0  0  0  0  0  0  0  0  0  0  0
   67.6323   45.1391   54.5360 F   0  0  0  0  0  0  0  0  0  0  0  0
   73.0873   49.3336   57.6253 C   0  0  0  0  0  0  0  0  0  0  0  0
   73.5543   49.0634   58.7596 O   0  0  0  0  0  0  0  0  0  0  0  0
   73.9728   49.4097   56.5419 N   0  0  0  0  0  0  0  0  0  0  0  0
   75.3502   49.1873   56.6359 N   0  0  0  0  0  0  0  0  0  0  0  0
   76.3549   50.0001   56.1716 C   0  0  0  0  0  0  0  0  0  0  0  0
   75.9274   51.0815   55.5851 O   0  0  0  0  0  0  0  0  0  0  0  0
   77.7954   49.7975   56.2484 C   0  0  0  0  0  0  0  0  0  0  0  0
   78.4534   50.2171   57.3834 C   0  0  0  0  0  0  0  0  0  0  0  0
   79.8199   50.0328   57.5674 C   0  0  0  0  0  0  0  0  0  0  0  0
   80.5806   49.4146   56.6009 C   0  0  0  0  0  0  0  0  0  0  0  0
   79.9329   48.9941   55.4618 C   0  0  0  0  0  0  0  0  0  0  0  0
   78.5564   49.1866   55.2927 C   0  0  0  0  0  0  0  0  0  0  0  0
   77.9486   48.7509   54.1283 O   0  0  0  0  0  0  0  0  0  0  0  0
  1  2  1  0
  2  3  2  0
  2  7  1  0
  3  4  1  0
  4  5  2  0
  5  8  1  0
  5  6  1  0
  8  9  2  0
  8 10  2  0
  8 11  1  0
 11 12  2  0
 11 16  1  0
 12 13  1  0
 13 14  2  0
 14 15  1  0
 15 16  2  0
 16 17  1  0
  6  7  2  0
  7 18  1  0
 18 19  2  0
 18 20  1  0
 20 21  1  0
 21 22  1  0
 22 23  2  0
 22 24  1  0
 24 25  2  0
 24 29  1  0
 25 26  1  0
 26 27  2  0
 27 28  1  0
 28 29  2  0
 29 30  1  0
M  END
>  <minimizedAffinity>  (372) 
-9.07622

$$$$
cs_full_output_folder/data/smiles/7896.pdb
     RDKit          3D

 30 34  0  0  0  0  0  0  0  0999 V2000
   71.5381   47.1286   58.9355 C   0  0  0  0  0  0  0  0  0  0  0  0
   70.5761   47.7590   58.1906 C   0  0  0  0  0  0  0  0  0  0  0  0
   69.7335   47.1142   57.3231 C   0  0  0  0  0  0  0  0  0  0  0  0
   69.9074   45.7249   57.2245 C   0  0  0  0  0  0  0  0  0  0  0  0
   70.8568   45.0535   57.9483 C   0  0  0  0  0  0  0  0  0  0  0  0
   71.6886   45.7740   58.8225 C   0  0  0  0  0  0  0  0  0  0  0  0
   72.6313   45.1244   59.5446 F   0  0  0  0  0  0  0  0  0  0  0  0
   72.1742   47.8839   61.0629 O   0  0  0  0  0  0  0  0  0  0  0  0
   72.3741   47.8843   59.8230 C   0  0  0  0  0  0  0  0  0  0  0  0
   73.4441   48.6461   59.3106 N   0  0  0  0  0  0  0  0  0  0  0  0
   73.9282   48.8520   57.9523 C   0  0  0  0  0  0  0  0  0  0  0  0
   74.6042   50.0925   58.4603 C   0  0  0  0  0  0  0  0  0  0  0  0
   74.4969   49.5258   59.8443 C   0  0  0  0  0  0  0  0  0  0  0  0
   74.1525   51.3532   58.1715 N   0  0  0  0  0  0  0  0  0  0  0  0
   73.1528   51.7537   57.3503 C   0  0  0  0  0  0  0  0  0  0  0  0
   71.8774   52.1281   58.1268 C   0  0  0  0  0  0  0  0  0  0  0  0
   72.2767   53.5605   57.8388 C   0  0  0  0  0  0  0  0  0  0  0  0
   72.9991   53.0056   56.6239 C   0  0  0  0  0  0  0  0  0  0  0  0
   68.6610   47.7692   56.5114 C   0  0  0  0  0  0  0  0  0  0  0  0
   69.1687   48.0601   55.1584 C   0  0  0  0  0  0  0  0  0  0  0  0
   70.1084   49.0507   55.0884 N   0  0  0  0  0  0  0  0  0  0  0  0
   70.6524   49.3322   53.9316 N   0  0  0  0  0  0  0  0  0  0  0  0
   70.3183   48.6802   52.8109 C   0  0  0  0  0  0  0  0  0  0  0  0
   70.8385   48.9454   51.6963 O   0  0  0  0  0  0  0  0  0  0  0  0
   69.3631   47.6670   52.8543 C   0  0  0  0  0  0  0  0  0  0  0  0
   68.9878   46.9895   51.7331 C   0  0  0  0  0  0  0  0  0  0  0  0
   68.0300   46.0051   51.8125 C   0  0  0  0  0  0  0  0  0  0  0  0
   67.4426   45.6942   53.0207 C   0  0  0  0  0  0  0  0  0  0  0  0
   67.8085   46.3727   54.1869 C   0  0  0  0  0  0  0  0  0  0  0  0
   68.7675   47.3489   54.0761 C   0  0  0  0  0  0  0  0  0  0  0  0
  8  9  2  0
  9  1  1  0
  9 10  1  0
  1  2  2  0
  1  6  1  0
  2  3  1  0
  3 19  1  0
  3  4  2  0
 19 20  1  0
 20 21  2  0
 20 30  1  0
 21 22  1  0
 22 23  1  0
 23 24  2  0
 23 25  1  0
 25 26  1  0
 25 30  2  0
 26 27  2  0
 27 28  1  0
 28 29  2  0
 29 30  1  0
  4  5  1  0
  5  6  2  0
  6  7  1  0
 10 11  1  0
 10 13  1  0
 11 12  1  0
 12 14  1  0
 12 13  1  0
 14 15  1  0
 15 16  1  0
 15 18  1  0
 16 17  1  0
 17 18  1  0
M  CHG  1  14   1
M  END
>  <minimizedAffinity>  (373) 
-9.07555

$$$$
cs_full_output_folder/data/smiles/707.pdb
     RDKit          3D

 30 33  0  0  0  0  0  0  0  0999 V2000
   71.1750   45.7597   58.5715 C   0  0  0  0  0  0  0  0  0  0  0  0
   72.0805   46.5605   59.2088 C   0  0  0  0  0  0  0  0  0  0  0  0
   72.0060   47.9416   59.1116 C   0  0  0  0  0  0  0  0  0  0  0  0
   70.9907   48.5193   58.3506 C   0  0  0  0  0  0  0  0  0  0  0  0
   70.0650   47.7400   57.6963 C   0  0  0  0  0  0  0  0  0  0  0  0
   70.1733   46.3748   57.8206 C   0  0  0  0  0  0  0  0  0  0  0  0
   70.3509   43.4343   59.1356 C   0  0  0  0  0  0  0  0  0  0  0  0
   69.3396   43.8159   59.7146 O   0  0  0  0  0  0  0  0  0  0  0  0
   71.2624   44.3415   58.5766 N   0  0  0  0  0  0  0  0  0  0  0  0
   69.7405   39.6998   58.8605 C   0  0  0  0  0  0  0  0  0  0  0  0
   69.5937   41.0907   59.0665 C   0  0  0  0  0  0  0  0  0  0  0  0
   70.6308   41.9848   59.0222 C   0  0  0  0  0  0  0  0  0  0  0  0
   71.8927   41.5168   58.7656 C   0  0  0  0  0  0  0  0  0  0  0  0
   72.1113   40.1460   58.5517 C   0  0  0  0  0  0  0  0  0  0  0  0
   71.0385   39.2874   58.6046 C   0  0  0  0  0  0  0  0  0  0  0  0
   71.3235   37.8372   58.3865 C   0  0  0  0  0  0  0  0  0  0  0  0
   67.5517   38.3663   59.1402 C   0  0  0  0  0  0  0  0  0  0  0  0
   68.6765   38.9148   58.9130 O   0  0  0  0  0  0  0  0  0  0  0  0
   69.0270   48.3785   56.8215 C   0  0  0  0  0  0  0  0  0  0  0  0
   68.6790   47.5075   55.6911 C   0  0  0  0  0  0  0  0  0  0  0  0
   67.9555   46.3882   55.8677 N   0  0  0  0  0  0  0  0  0  0  0  0
   67.6369   45.5824   54.8782 N   0  0  0  0  0  0  0  0  0  0  0  0
   68.0580   45.9044   53.6500 C   0  0  0  0  0  0  0  0  0  0  0  0
   67.7686   45.1498   52.6710 O   0  0  0  0  0  0  0  0  0  0  0  0
   68.7920   47.0119   53.3774 C   0  0  0  0  0  0  0  0  0  0  0  0
   69.1380   47.8780   54.4177 C   0  0  0  0  0  0  0  0  0  0  0  0
   69.8909   49.1159   54.2326 C   0  0  0  0  0  0  0  0  0  0  0  0
   70.5758   49.0637   52.8605 C   0  0  0  0  0  0  0  0  0  0  0  0
   69.4808   48.7678   51.8662 C   0  0  0  0  0  0  0  0  0  0  0  0
   69.2222   47.2795   51.9603 C   0  0  0  0  0  0  0  0  0  0  0  0
 17 18  1  0
 18 10  1  0
 10 11  2  0
 10 15  1  0
 11 12  1  0
 12  7  1  0
 12 13  2  0
  7  8  2  0
  7  9  1  0
  9  1  1  0
  1  2  2  0
  1  6  1  0
  2  3  1  0
  3  4  2  0
  4  5  1  0
  5 19  1  0
  5  6  2  0
 19 20  1  0
 20 21  2  0
 20 26  1  0
 21 22  1  0
 22 23  1  0
 23 24  2  0
 23 25  1  0
 25 26  2  0
 25 30  1  0
 26 27  1  0
 27 28  1  0
 28 29  1  0
 29 30  1  0
 13 14  1  0
 14 15  2  0
 15 16  1  0
M  END
>  <minimizedAffinity>  (374) 
-9.07503

$$$$
cs_full_output_folder/data/smiles/786.pdb
     RDKit          3D

 31 35  0  0  0  0  0  0  0  0999 V2000
   71.7053   46.1455   59.0389 C   0  0  0  0  0  0  0  0  0  0  0  0
   72.2187   47.2679   59.6221 C   0  0  0  0  0  0  0  0  0  0  0  0
   71.6929   48.5053   59.3574 C   0  0  0  0  0  0  0  0  0  0  0  0
   70.6004   48.5700   58.4904 C   0  0  0  0  0  0  0  0  0  0  0  0
   70.1208   47.4711   57.8201 C   0  0  0  0  0  0  0  0  0  0  0  0
   70.6734   46.2751   58.0813 C   0  0  0  0  0  0  0  0  0  0  0  0
   71.3086   44.6980   60.7105 O   0  0  0  0  0  0  0  0  0  0  0  0
   72.0508   44.8420   59.6277 C   0  0  0  0  0  0  0  0  0  0  0  0
   72.9156   43.8321   59.2325 N   0  0  0  0  0  0  0  0  0  0  0  0
   73.1278   42.7037   60.1175 C   0  0  0  0  0  0  0  0  0  0  0  0
   73.7418   41.5048   59.2963 C   0  0  0  0  0  0  0  0  0  0  0  0
   73.0208   41.8617   58.0935 N   0  0  0  0  0  0  0  0  0  0  0  0
   73.7069   42.6750   57.1413 C   0  0  0  0  0  0  0  0  0  0  0  0
   73.6397   44.0112   57.9771 C   0  0  0  0  0  0  0  0  0  0  0  0
   71.6438   41.5808   58.2200 C   0  0  0  0  0  0  0  0  0  0  0  0
   70.8094   40.9624   58.8838 C   0  0  0  0  0  0  0  0  0  0  0  0
   69.4168   41.2883   58.4655 C   0  0  0  0  0  0  0  0  0  0  0  0
   69.6562   42.3230   57.4499 C   0  0  0  0  0  0  0  0  0  0  0  0
   70.8347   42.4841   57.3750 N   0  0  0  0  0  0  0  0  0  0  0  0
   69.0367   47.8048   56.8138 C   0  0  0  0  0  0  0  0  0  0  0  0
   68.8204   46.9140   55.6723 C   0  0  0  0  0  0  0  0  0  0  0  0
   68.1458   45.7659   55.8729 N   0  0  0  0  0  0  0  0  0  0  0  0
   67.7540   45.1576   54.7071 N   0  0  0  0  0  0  0  0  0  0  0  0
   67.9777   45.6243   53.4863 C   0  0  0  0  0  0  0  0  0  0  0  0
   67.5890   44.9758   52.4423 O   0  0  0  0  0  0  0  0  0  0  0  0
   68.6528   46.8451   53.3043 C   0  0  0  0  0  0  0  0  0  0  0  0
   68.8938   47.3256   52.0509 C   0  0  0  0  0  0  0  0  0  0  0  0
   69.6391   48.5059   51.9167 C   0  0  0  0  0  0  0  0  0  0  0  0
   70.1265   49.0823   53.0787 C   0  0  0  0  0  0  0  0  0  0  0  0
   69.8982   48.5948   54.3018 C   0  0  0  0  0  0  0  0  0  0  0  0
   69.0335   47.4051   54.4794 C   0  0  0  0  0  0  0  0  0  0  0  0
  7  8  2  0
  8  1  1  0
  8  9  1  0
  1  2  2  0
  1  6  1  0
  2  3  1  0
  3  4  2  0
  4  5  1  0
  5 20  1  0
  5  6  2  0
 20 21  1  0
 21 22  2  0
 21 31  1  0
 22 23  1  0
 23 24  1  0
 24 25  2  0
 24 26  1  0
 26 27  1  0
 26 31  2  0
 27 28  2  0
 28 29  1  0
 29 30  2  0
 30 31  1  0
  9 10  1  0
  9 14  1  0
 10 11  1  0
 11 12  1  0
 12 15  1  0
 12 13  1  0
 15 16  2  0
 15 19  1  0
 16 17  1  0
 17 18  1  0
 18 19  2  0
 13 14  1  0
M  END
>  <minimizedAffinity>  (375) 
-9.07319

$$$$
cs_full_output_folder/data/smiles/1361.pdb
     RDKit          3D

 32 35  0  0  0  0  0  0  0  0999 V2000
   71.5360   47.0975   59.0036 C   0  0  0  0  0  0  0  0  0  0  0  0
   70.7240   47.8307   58.1879 C   0  0  0  0  0  0  0  0  0  0  0  0
   69.8701   47.2711   57.2248 C   0  0  0  0  0  0  0  0  0  0  0  0
   69.8885   45.9092   57.1388 C   0  0  0  0  0  0  0  0  0  0  0  0
   70.7108   45.1364   57.9631 C   0  0  0  0  0  0  0  0  0  0  0  0
   71.5260   45.7188   58.8854 C   0  0  0  0  0  0  0  0  0  0  0  0
   72.3213   44.9274   59.6765 F   0  0  0  0  0  0  0  0  0  0  0  0
   75.3626   45.9970   59.2333 N   0  0  0  0  0  0  0  0  0  0  0  0
   74.8346   46.7059   58.0664 C   0  0  0  0  0  0  0  0  0  0  0  0
   74.2357   48.0316   58.3935 C   0  0  0  0  0  0  0  0  0  0  0  0
   73.7281   48.1558   59.7359 N   0  0  0  0  0  0  0  0  0  0  0  0
   72.4123   47.6919   60.0071 C   0  0  0  0  0  0  0  0  0  0  0  0
   72.0016   47.8179   61.2129 O   0  0  0  0  0  0  0  0  0  0  0  0
   74.4595   48.7340   60.8647 C   0  0  0  0  0  0  0  0  0  0  0  0
   75.6879   47.8656   61.0728 C   0  0  0  0  0  0  0  0  0  0  0  0
   75.4083   46.4798   60.5594 C   0  0  0  0  0  0  0  0  0  0  0  0
   75.1629   45.5967   61.4622 N   0  0  0  0  0  0  0  0  0  0  0  0
   75.7341   42.4042   58.2565 C   0  0  0  0  0  0  0  0  0  0  0  0
   75.1438   43.7338   58.4678 C   0  0  0  0  0  0  0  0  0  0  0  0
   75.8854   44.6998   59.0076 C   0  0  0  0  0  0  0  0  0  0  0  0
   69.0143   48.1658   56.4059 C   0  0  0  0  0  0  0  0  0  0  0  0
   69.3812   48.2743   55.0079 C   0  0  0  0  0  0  0  0  0  0  0  0
   70.3316   49.1876   54.6472 N   0  0  0  0  0  0  0  0  0  0  0  0
   70.7454   49.3073   53.4099 N   0  0  0  0  0  0  0  0  0  0  0  0
   70.2821   48.5536   52.3979 C   0  0  0  0  0  0  0  0  0  0  0  0
   70.7156   48.7082   51.2205 O   0  0  0  0  0  0  0  0  0  0  0  0
   69.3281   47.6187   52.6852 C   0  0  0  0  0  0  0  0  0  0  0  0
   68.8252   46.8457   51.6729 C   0  0  0  0  0  0  0  0  0  0  0  0
   67.8616   45.9164   51.9324 C   0  0  0  0  0  0  0  0  0  0  0  0
   67.4176   45.7848   53.2283 C   0  0  0  0  0  0  0  0  0  0  0  0
   67.9278   46.5659   54.2419 C   0  0  0  0  0  0  0  0  0  0  0  0
   68.8892   47.4942   53.9994 C   0  0  0  0  0  0  0  0  0  0  0  0
 18 19  1  0
 19 20  2  0
 20  8  1  0
  8  9  1  0
  8 16  1  0
  9 10  1  0
 10 11  1  0
 11 12  1  0
 11 14  1  0
 12 13  2  0
 12  1  1  0
  1  2  2  0
  1  6  1  0
  2  3  1  0
  3 21  1  0
  3  4  2  0
 21 22  1  0
 22 23  2  0
 22 32  1  0
 23 24  1  0
 24 25  1  0
 25 26  2  0
 25 27  1  0
 27 28  1  0
 27 32  2  0
 28 29  2  0
 29 30  1  0
 30 31  2  0
 31 32  1  0
  4  5  1  0
  5  6  2  0
  6  7  1  0
 14 15  1  0
 15 16  1  0
 16 17  2  0
M  CHG  1  17   1
M  END
>  <minimizedAffinity>  (376) 
-9.07253

$$$$
cs_full_output_folder/data/smiles/6086.pdb
     RDKit          3D

 30 33  0  0  0  0  0  0  0  0999 V2000
   71.5122   47.2833   58.9082 C   0  0  0  0  0  0  0  0  0  0  0  0
   70.5755   47.8862   58.1093 C   0  0  0  0  0  0  0  0  0  0  0  0
   69.7544   47.2225   57.2006 C   0  0  0  0  0  0  0  0  0  0  0  0
   69.9130   45.8689   57.1198 C   0  0  0  0  0  0  0  0  0  0  0  0
   70.8462   45.1807   57.9014 C   0  0  0  0  0  0  0  0  0  0  0  0
   71.6245   45.8920   58.7757 C   0  0  0  0  0  0  0  0  0  0  0  0
   72.5592   45.2791   59.5717 F   0  0  0  0  0  0  0  0  0  0  0  0
   75.9088   48.5455   58.6828 C   0  0  0  0  0  0  0  0  0  0  0  0
   75.9414   47.3751   59.6487 C   0  0  0  0  0  0  0  0  0  0  0  0
   74.8698   48.2828   57.6189 C   0  0  0  0  0  0  0  0  0  0  0  0
   73.5720   49.0080   57.9150 C   0  0  0  0  0  0  0  0  0  0  0  0
   73.3506   48.8560   59.3606 N   0  0  0  0  0  0  0  0  0  0  0  0
   72.3443   48.0123   59.8434 C   0  0  0  0  0  0  0  0  0  0  0  0
   72.1596   47.8844   61.0591 O   0  0  0  0  0  0  0  0  0  0  0  0
   74.2378   49.6342   60.1990 C   0  0  0  0  0  0  0  0  0  0  0  0
   75.5370   49.8073   59.4433 C   0  0  0  0  0  0  0  0  0  0  0  0
   77.8167   49.8549   58.6810 C   0  0  0  0  0  0  0  0  0  0  0  0
   77.1652   48.7674   58.1353 O   0  0  0  0  0  0  0  0  0  0  0  0
   68.7390   47.9584   56.4042 C   0  0  0  0  0  0  0  0  0  0  0  0
   69.1634   48.1955   54.9966 C   0  0  0  0  0  0  0  0  0  0  0  0
   70.0426   49.2203   54.7782 N   0  0  0  0  0  0  0  0  0  0  0  0
   70.4693   49.4283   53.5640 N   0  0  0  0  0  0  0  0  0  0  0  0
   70.0967   48.6933   52.5109 C   0  0  0  0  0  0  0  0  0  0  0  0
   70.5222   48.9082   51.3378 O   0  0  0  0  0  0  0  0  0  0  0  0
   69.2072   47.6467   52.6907 C   0  0  0  0  0  0  0  0  0  0  0  0
   68.7945   46.8795   51.6290 C   0  0  0  0  0  0  0  0  0  0  0  0
   67.8956   45.8544   51.8564 C   0  0  0  0  0  0  0  0  0  0  0  0
   67.4220   45.6088   53.1311 C   0  0  0  0  0  0  0  0  0  0  0  0
   67.8270   46.3695   54.2050 C   0  0  0  0  0  0  0  0  0  0  0  0
   68.7386   47.4046   53.9657 C   0  0  0  0  0  0  0  0  0  0  0  0
 17 18  1  0
 18  8  1  0
  8  9  1  0
  8 10  1  0
  8 16  1  0
 10 11  1  0
 11 12  1  0
 12 13  1  0
 12 15  1  0
 13 14  2  0
 13  1  1  0
  1  2  2  0
  1  6  1  0
  2  3  1  0
  3 19  1  0
  3  4  2  0
 19 20  1  0
 20 21  2  0
 20 30  1  0
 21 22  1  0
 22 23  1  0
 23 24  2  0
 23 25  1  0
 25 26  1  0
 25 30  2  0
 26 27  2  0
 27 28  1  0
 28 29  2  0
 29 30  1  0
  4  5  1  0
  5  6  2  0
  6  7  1  0
 15 16  1  0
M  END
>  <minimizedAffinity>  (377) 
-9.06590

$$$$
cs_full_output_folder/data/smiles/3818.pdb
     RDKit          3D

 29 31  0  0  0  0  0  0  0  0999 V2000
   69.8881   49.0524   54.5312 C   0  0  0  0  0  0  0  0  0  0  0  0
   69.2837   48.9259   53.2999 C   0  0  0  0  0  0  0  0  0  0  0  0
   68.5567   47.8297   52.9385 C   0  0  0  0  0  0  0  0  0  0  0  0
   68.4326   46.7994   53.8769 C   0  0  0  0  0  0  0  0  0  0  0  0
   69.0108   46.8776   55.1047 C   0  0  0  0  0  0  0  0  0  0  0  0
   69.7279   48.0024   55.4103 C   0  0  0  0  0  0  0  0  0  0  0  0
   70.8175   50.4499   54.9962 S   0  0  0  0  0  0  0  0  0  0  0  0
   72.1507   50.0256   55.5963 O   0  0  0  0  0  0  0  0  0  0  0  0
   71.2158   51.1307   53.6845 O   0  0  0  0  0  0  0  0  0  0  0  0
   71.8452   51.9768   57.5372 C   0  0  0  0  0  0  0  0  0  0  0  0
   70.3804   51.7879   57.2643 C   0  0  2  0  0  0  0  0  0  0  0  0
   69.7874   50.7312   58.1559 C   0  0  0  0  0  0  0  0  0  0  0  0
   68.4115   50.3406   57.7868 C   0  0  0  0  0  0  0  0  0  0  0  0
   67.7354   51.2040   56.7684 C   0  0  0  0  0  0  0  0  0  0  0  0
   68.6395   51.7197   55.6960 C   0  0  0  0  0  0  0  0  0  0  0  0
   70.0215   51.5695   55.9319 N   0  0  0  0  0  0  0  0  0  0  0  0
   68.8868   45.8163   56.0801 C   0  0  0  0  0  0  0  0  0  0  0  0
   69.2601   46.0275   57.2635 O   0  0  0  0  0  0  0  0  0  0  0  0
   68.3714   44.5266   55.8206 N   0  0  0  0  0  0  0  0  0  0  0  0
   68.2586   43.5127   56.7714 N   0  0  0  0  0  0  0  0  0  0  0  0
   67.6034   42.2921   56.5640 C   0  0  0  0  0  0  0  0  0  0  0  0
   67.0825   42.1158   55.4213 O   0  0  0  0  0  0  0  0  0  0  0  0
   67.4784   41.2255   57.5511 C   0  0  0  0  0  0  0  0  0  0  0  0
   68.1068   40.0066   57.4161 C   0  0  0  0  0  0  0  0  0  0  0  0
   67.9656   39.0080   58.3797 C   0  0  0  0  0  0  0  0  0  0  0  0
   67.1928   39.1984   59.5025 C   0  0  0  0  0  0  0  0  0  0  0  0
   66.5618   40.4163   59.6417 C   0  0  0  0  0  0  0  0  0  0  0  0
   65.5836   40.6499   61.0724 Cl  0  0  0  0  0  0  0  0  0  0  0  0
   66.7091   41.3988   58.6828 C   0  0  0  0  0  0  0  0  0  0  0  0
 11 10  1  6
 11 12  1  0
 11 16  1  0
 12 13  1  0
 13 14  1  0
 14 15  1  0
 15 16  1  0
 16  7  1  0
  7  8  2  0
  7  9  2  0
  7  1  1  0
  1  2  2  0
  1  6  1  0
  2  3  1  0
  3  4  2  0
  4  5  1  0
  5 17  1  0
  5  6  2  0
 17 18  2  0
 17 19  1  0
 19 20  1  0
 20 21  1  0
 21 22  2  0
 21 23  1  0
 23 24  2  0
 23 29  1  0
 24 25  1  0
 25 26  2  0
 26 27  1  0
 27 28  1  0
 27 29  2  0
M  END
>  <minimizedAffinity>  (378) 
-9.06472

$$$$
cs_full_output_folder/data/smiles/5421.pdb
     RDKit          3D

 29 31  0  0  0  0  0  0  0  0999 V2000
   69.1976   47.8052   52.9619 C   0  0  0  0  0  0  0  0  0  0  0  0
   68.5736   47.3470   51.8204 C   0  0  0  0  0  0  0  0  0  0  0  0
   67.8561   46.1634   51.8647 C   0  0  0  0  0  0  0  0  0  0  0  0
   67.7824   45.4650   53.0617 C   0  0  0  0  0  0  0  0  0  0  0  0
   68.3937   45.8948   54.2220 C   0  0  0  0  0  0  0  0  0  0  0  0
   69.0971   47.0702   54.1465 C   0  0  0  0  0  0  0  0  0  0  0  0
   70.0981   49.3034   52.8784 S   0  0  0  0  0  0  0  0  0  0  0  0
   71.5818   49.0236   52.8097 O   0  0  0  0  0  0  0  0  0  0  0  0
   69.7568   50.0451   51.5879 O   0  0  0  0  0  0  0  0  0  0  0  0
   68.7382   50.1185   56.3682 C   0  0  0  0  0  0  0  0  0  0  0  0
   69.9261   49.8284   55.4498 C   0  0  2  0  0  0  0  0  0  0  0  0
   71.1749   50.2349   56.1653 C   0  0  0  0  0  0  0  0  0  0  0  0
   71.5742   51.6617   55.9113 C   0  0  0  0  0  0  0  0  0  0  0  0
   71.2578   52.1234   54.5187 C   0  0  0  0  0  0  0  0  0  0  0  0
   69.8904   51.7058   54.0257 C   0  0  0  0  0  0  0  0  0  0  0  0
   69.7424   50.3197   54.1566 N   0  0  0  0  0  0  0  0  0  0  0  0
   68.2684   45.1025   55.4407 C   0  0  0  0  0  0  0  0  0  0  0  0
   68.5884   45.6002   56.5409 O   0  0  0  0  0  0  0  0  0  0  0  0
   67.7947   43.7639   55.4585 N   0  0  0  0  0  0  0  0  0  0  0  0
   67.6805   43.0133   56.6404 N   0  0  0  0  0  0  0  0  0  0  0  0
   67.5425   41.6022   56.5919 C   0  0  0  0  0  0  0  0  0  0  0  0
   67.5297   41.0912   55.4251 O   0  0  0  0  0  0  0  0  0  0  0  0
   67.4204   40.7749   57.7846 C   0  0  0  0  0  0  0  0  0  0  0  0
   68.0114   39.5486   57.9432 C   0  0  0  0  0  0  0  0  0  0  0  0
   67.8759   38.7919   59.0870 C   0  0  0  0  0  0  0  0  0  0  0  0
   67.1131   39.2698   60.1356 C   0  0  0  0  0  0  0  0  0  0  0  0
   66.9323   38.3055   61.6072 Cl  0  0  0  0  0  0  0  0  0  0  0  0
   66.5058   40.4979   60.0064 C   0  0  0  0  0  0  0  0  0  0  0  0
   66.6618   41.2386   58.8387 C   0  0  0  0  0  0  0  0  0  0  0  0
 11 10  1  1
 11 12  1  0
 11 16  1  0
 12 13  1  0
 13 14  1  0
 14 15  1  0
 15 16  1  0
 16  7  1  0
  7  8  2  0
  7  9  2  0
  7  1  1  0
  1  2  2  0
  1  6  1  0
  2  3  1  0
  3  4  2  0
  4  5  1  0
  5 17  1  0
  5  6  2  0
 17 18  2  0
 17 19  1  0
 19 20  1  0
 20 21  1  0
 21 22  2  0
 21 23  1  0
 23 24  2  0
 23 29  1  0
 24 25  1  0
 25 26  2  0
 26 27  1  0
 26 28  1  0
 28 29  2  0
M  END
>  <minimizedAffinity>  (379) 
-9.06447

$$$$
cs_full_output_folder/data/smiles/7491.pdb
     RDKit          3D

 31 35  0  0  0  0  0  0  0  0999 V2000
   71.3641   46.7438   58.9511 C   0  0  0  0  0  0  0  0  0  0  0  0
   70.4340   47.5158   58.2553 C   0  0  0  0  0  0  0  0  0  0  0  0
   69.6328   46.9836   57.2868 C   0  0  0  0  0  0  0  0  0  0  0  0
   69.7877   45.6157   57.0208 C   0  0  0  0  0  0  0  0  0  0  0  0
   70.7055   44.8527   57.7081 C   0  0  0  0  0  0  0  0  0  0  0  0
   71.4912   45.4066   58.6677 C   0  0  0  0  0  0  0  0  0  0  0  0
   72.4046   44.6324   59.3479 F   0  0  0  0  0  0  0  0  0  0  0  0
   71.8949   47.3128   61.1930 O   0  0  0  0  0  0  0  0  0  0  0  0
   72.1656   47.4099   59.9585 C   0  0  0  0  0  0  0  0  0  0  0  0
   73.2872   48.1903   59.5233 N   0  0  0  0  0  0  0  0  0  0  0  0
   74.0772   48.8435   60.5408 C   0  0  0  0  0  0  0  0  0  0  0  0
   75.5093   48.5323   60.2728 C   0  0  0  0  0  0  0  0  0  0  0  0
   76.2854   48.2636   61.2098 O   0  0  0  0  0  0  0  0  0  0  0  0
   75.9581   48.5529   58.9214 N   0  0  0  0  0  0  0  0  0  0  0  0
   77.2311   48.8662   58.3331 C   0  0  0  0  0  0  0  0  0  0  0  0
   76.8265   49.8219   57.2262 C   0  0  0  0  0  0  0  0  0  0  0  0
   75.5176   49.2302   56.7560 C   0  0  0  0  0  0  0  0  0  0  0  0
   75.0821   48.2244   57.8169 C   0  0  2  0  0  0  0  0  0  0  0  0
   73.6339   48.3482   58.1450 C   0  0  0  0  0  0  0  0  0  0  0  0
   68.6306   47.7904   56.5490 C   0  0  0  0  0  0  0  0  0  0  0  0
   69.1130   48.0262   55.1959 C   0  0  0  0  0  0  0  0  0  0  0  0
   70.0805   48.9884   55.0583 N   0  0  0  0  0  0  0  0  0  0  0  0
   70.6473   49.2779   53.9035 N   0  0  0  0  0  0  0  0  0  0  0  0
   70.3272   48.6566   52.7623 C   0  0  0  0  0  0  0  0  0  0  0  0
   70.8583   48.9216   51.6563 O   0  0  0  0  0  0  0  0  0  0  0  0
   69.3670   47.6805   52.8105 C   0  0  0  0  0  0  0  0  0  0  0  0
   68.9577   46.9896   51.6837 C   0  0  0  0  0  0  0  0  0  0  0  0
   67.9817   46.0150   51.7243 C   0  0  0  0  0  0  0  0  0  0  0  0
   67.4191   45.7511   52.9526 C   0  0  0  0  0  0  0  0  0  0  0  0
   67.8021   46.4202   54.1022 C   0  0  0  0  0  0  0  0  0  0  0  0
   68.7791   47.3893   54.0450 C   0  0  0  0  0  0  0  0  0  0  0  0
  8  9  2  0
  9  1  1  0
  9 10  1  0
  1  2  2  0
  1  6  1  0
  2  3  1  0
  3 20  1  0
  3  4  2  0
 20 21  1  0
 21 22  2  0
 21 31  1  0
 22 23  1  0
 23 24  1  0
 24 25  2  0
 24 26  1  0
 26 27  1  0
 26 31  2  0
 27 28  2  0
 28 29  1  0
 29 30  2  0
 30 31  1  0
  4  5  1  0
  5  6  2  0
  6  7  1  0
 10 11  1  0
 10 19  1  0
 11 12  1  0
 12 13  2  0
 12 14  1  0
 14 15  1  0
 14 18  1  0
 15 16  1  0
 16 17  1  0
 18 17  1  6
 18 19  1  0
M  END
>  <minimizedAffinity>  (380) 
-9.06426

$$$$
cs_full_output_folder/data/smiles/389.pdb
     RDKit          3D

 33 37  0  0  0  0  0  0  0  0999 V2000
   71.5791   47.0823   59.0380 C   0  0  0  0  0  0  0  0  0  0  0  0
   70.5451   47.8101   58.4311 C   0  0  0  0  0  0  0  0  0  0  0  0
   69.6770   47.1945   57.5645 C   0  0  0  0  0  0  0  0  0  0  0  0
   69.8016   45.8456   57.2682 C   0  0  0  0  0  0  0  0  0  0  0  0
   70.8026   45.1214   57.8494 C   0  0  0  0  0  0  0  0  0  0  0  0
   71.6681   45.7485   58.7182 C   0  0  0  0  0  0  0  0  0  0  0  0
   72.6509   44.9717   59.2689 F   0  0  0  0  0  0  0  0  0  0  0  0
   72.2009   47.7844   61.1574 O   0  0  0  0  0  0  0  0  0  0  0  0
   72.5041   47.7077   59.9491 C   0  0  0  0  0  0  0  0  0  0  0  0
   73.7545   48.2461   59.5423 N   0  0  0  0  0  0  0  0  0  0  0  0
   74.1919   48.2033   58.1350 C   0  0  0  0  0  0  0  0  0  0  0  0
   74.8782   49.5426   57.8107 C   0  0  0  0  0  0  0  0  0  0  0  0
   74.3119   50.4906   58.7318 N   0  0  0  0  0  0  0  0  0  0  0  0
   74.6920   50.3632   60.1415 C   0  0  0  0  0  0  0  0  0  0  0  0
   74.6715   48.8680   60.4656 C   0  0  0  0  0  0  0  0  0  0  0  0
   73.4179   51.4853   58.2872 C   0  0  0  0  0  0  0  0  0  0  0  0
   72.1313   51.1846   57.9316 C   0  0  0  0  0  0  0  0  0  0  0  0
   71.2257   52.1483   57.4779 C   0  0  0  0  0  0  0  0  0  0  0  0
   71.6920   53.4420   57.4013 C   0  0  0  0  0  0  0  0  0  0  0  0
   72.9871   53.7386   57.7599 C   0  0  0  0  0  0  0  0  0  0  0  0
   73.8296   52.7910   58.1905 N   0  0  0  0  0  0  0  0  0  0  0  0
   68.5441   47.8824   56.8710 C   0  0  0  0  0  0  0  0  0  0  0  0
   68.5828   47.4876   55.4548 C   0  0  0  0  0  0  0  0  0  0  0  0
   67.8145   46.4173   55.0830 N   0  0  0  0  0  0  0  0  0  0  0  0
   67.7442   46.0246   53.8234 N   0  0  0  0  0  0  0  0  0  0  0  0
   68.4233   46.6483   52.8126 C   0  0  0  0  0  0  0  0  0  0  0  0
   68.3550   46.2774   51.6238 O   0  0  0  0  0  0  0  0  0  0  0  0
   69.2105   47.7254   53.1261 C   0  0  0  0  0  0  0  0  0  0  0  0
   69.2566   48.1063   54.4737 C   0  0  0  0  0  0  0  0  0  0  0  0
   70.1570   49.2388   54.7527 C   0  0  0  0  0  0  0  0  0  0  0  0
   69.6949   50.3777   53.8922 C   0  0  0  0  0  0  0  0  0  0  0  0
   69.6338   49.9805   52.4404 C   0  0  0  0  0  0  0  0  0  0  0  0
   70.0101   48.5314   52.1828 C   0  0  0  0  0  0  0  0  0  0  0  0
  8  9  2  0
  9  1  1  0
  9 10  1  0
  1  2  2  0
  1  6  1  0
  2  3  1  0
  3 22  1  0
  3  4  2  0
 22 23  1  0
 23 24  2  0
 23 29  1  0
 24 25  1  0
 25 26  1  0
 26 27  2  0
 26 28  1  0
 28 29  2  0
 28 33  1  0
 29 30  1  0
 30 31  1  0
 31 32  1  0
 32 33  1  0
  4  5  1  0
  5  6  2  0
  6  7  1  0
 10 11  1  0
 10 15  1  0
 11 12  1  0
 12 13  1  0
 13 16  1  0
 13 14  1  0
 16 17  2  0
 16 21  1  0
 17 18  1  0
 18 19  2  0
 19 20  1  0
 20 21  2  0
 14 15  1  0
M  END
>  <minimizedAffinity>  (381) 
-9.06268

$$$$
cs_full_output_folder/data/smiles/3767.pdb
     RDKit          3D

 28 30  0  0  0  0  0  0  0  0999 V2000
   68.2871   45.8202   54.0606 C   0  0  0  0  0  0  0  0  0  0  0  0
   67.7174   45.2919   52.9285 C   0  0  0  0  0  0  0  0  0  0  0  0
   67.8195   45.9268   51.6869 C   0  0  0  0  0  0  0  0  0  0  0  0
   68.5174   47.1152   51.6218 C   0  0  0  0  0  0  0  0  0  0  0  0
   69.1085   47.6867   52.7306 C   0  0  0  0  0  0  0  0  0  0  0  0
   68.9692   47.0090   53.9223 C   0  0  0  0  0  0  0  0  0  0  0  0
   68.4356   45.8182   56.3915 O   0  0  0  0  0  0  0  0  0  0  0  0
   68.1725   45.1469   55.3481 C   0  0  0  0  0  0  0  0  0  0  0  0
   67.7903   43.8068   55.5312 N   0  0  0  0  0  0  0  0  0  0  0  0
   67.6926   43.1976   56.7932 N   0  0  0  0  0  0  0  0  0  0  0  0
   67.4196   41.8032   56.8274 C   0  0  0  0  0  0  0  0  0  0  0  0
   67.2736   41.1493   55.7365 O   0  0  0  0  0  0  0  0  0  0  0  0
   67.3100   41.1303   58.1144 C   0  0  0  0  0  0  0  0  0  0  0  0
   66.4004   41.5921   59.0502 C   0  0  0  0  0  0  0  0  0  0  0  0
   66.2561   40.9918   60.2840 C   0  0  0  0  0  0  0  0  0  0  0  0
   67.0222   39.8993   60.6295 C   0  0  0  0  0  0  0  0  0  0  0  0
   67.9375   39.4204   59.7090 C   0  0  0  0  0  0  0  0  0  0  0  0
   68.0628   40.0369   58.4856 C   0  0  0  0  0  0  0  0  0  0  0  0
   69.2197   39.4147   57.3510 Cl  0  0  0  0  0  0  0  0  0  0  0  0
   69.9940   49.2008   52.6296 S   0  0  0  0  0  0  0  0  0  0  0  0
   69.8615   49.6758   51.2028 O   0  0  0  0  0  0  0  0  0  0  0  0
   71.4466   49.0218   52.9180 O   0  0  0  0  0  0  0  0  0  0  0  0
   69.2920   50.4078   53.6363 N   0  0  0  0  0  0  0  0  0  0  0  0
   69.9282   51.6747   53.5231 C   0  0  0  0  0  0  0  0  0  0  0  0
   70.1866   52.3804   54.8114 C   0  0  0  0  0  0  0  0  0  0  0  0
   68.9881   52.2881   55.7292 C   0  0  0  0  0  0  0  0  0  0  0  0
   68.6390   50.8588   55.9743 C   0  0  0  0  0  0  0  0  0  0  0  0
   69.1560   49.8989   54.9606 C   0  0  0  0  0  0  0  0  0  0  0  0
  7  8  2  0
  8  9  1  0
  8  1  1  0
  9 10  1  0
 10 11  1  0
 11 12  2  0
 11 13  1  0
 13 14  2  0
 13 18  1  0
 14 15  1  0
 15 16  2  0
 16 17  1  0
 17 18  2  0
 18 19  1  0
  1  2  2  0
  1  6  1  0
  2  3  1  0
  3  4  2  0
  4  5  1  0
  5 20  1  0
  5  6  2  0
 20 21  2  0
 20 22  2  0
 20 23  1  0
 23 24  1  0
 23 28  1  0
 24 25  1  0
 25 26  1  0
 26 27  1  0
 27 28  1  0
M  END
>  <minimizedAffinity>  (382) 
-9.06177

$$$$
cs_full_output_folder/data/smiles/6320.pdb
     RDKit          3D

 33 38  0  0  0  0  0  0  0  0999 V2000
   72.1043   47.9760   58.5497 C   0  0  0  0  0  0  0  0  0  0  0  0
   71.1203   48.4088   57.7088 C   0  0  0  0  0  0  0  0  0  0  0  0
   71.3782   49.3737   56.7078 C   0  0  0  0  0  0  0  0  0  0  0  0
   72.6258   49.8966   56.5580 C   0  0  0  0  0  0  0  0  0  0  0  0
   73.6366   49.4553   57.4142 C   0  0  0  0  0  0  0  0  0  0  0  0
   73.3543   48.5163   58.3795 C   0  0  0  0  0  0  0  0  0  0  0  0
   74.3640   48.1087   59.1972 F   0  0  0  0  0  0  0  0  0  0  0  0
   71.5743   47.3967   60.7918 O   0  0  0  0  0  0  0  0  0  0  0  0
   71.9015   47.0089   59.6261 C   0  0  0  0  0  0  0  0  0  0  0  0
   72.0751   45.6362   59.3506 N   0  0  0  0  0  0  0  0  0  0  0  0
   72.4375   45.0287   58.0962 C   0  0  0  0  0  0  0  0  0  0  0  0
   72.0411   43.6062   58.2923 C   0  0  0  0  0  0  0  0  0  0  0  0
   71.7426   43.3683   59.5520 C   0  0  0  0  0  0  0  0  0  0  0  0
   71.3592   41.9017   59.6245 C   0  0  0  0  0  0  0  0  0  0  0  0
   70.7513   41.7314   58.2729 N   0  0  0  0  0  0  0  0  0  0  0  0
   71.8640   42.3259   57.5003 C   0  0  0  0  0  0  0  0  0  0  0  0
   71.9132   44.5984   60.3316 C   0  0  0  0  0  0  0  0  0  0  0  0
   69.5802   42.5460   58.3019 C   0  0  0  0  0  0  0  0  0  0  0  0
   68.3071   41.9662   57.8300 C   0  0  0  0  0  0  0  0  0  0  0  0
   68.1066   41.0048   56.7536 C   0  0  0  0  0  0  0  0  0  0  0  0
   67.8470   42.4417   56.4504 C   0  0  0  0  0  0  0  0  0  0  0  0
   70.2097   49.7673   55.8807 C   0  0  0  0  0  0  0  0  0  0  0  0
   70.1523   49.0582   54.5906 C   0  0  0  0  0  0  0  0  0  0  0  0
   70.8901   49.5524   53.5469 N   0  0  0  0  0  0  0  0  0  0  0  0
   70.8779   49.0523   52.3468 N   0  0  0  0  0  0  0  0  0  0  0  0
   70.1017   47.9757   52.0648 C   0  0  0  0  0  0  0  0  0  0  0  0
   70.1257   47.5347   50.8891 O   0  0  0  0  0  0  0  0  0  0  0  0
   69.3180   47.3950   53.0385 C   0  0  0  0  0  0  0  0  0  0  0  0
   68.5522   46.2928   52.7449 C   0  0  0  0  0  0  0  0  0  0  0  0
   67.7997   45.7228   53.7438 C   0  0  0  0  0  0  0  0  0  0  0  0
   67.8397   46.2746   55.0069 C   0  0  0  0  0  0  0  0  0  0  0  0
   68.6181   47.3936   55.2969 C   0  0  0  0  0  0  0  0  0  0  0  0
   69.3709   47.9735   54.3115 C   0  0  0  0  0  0  0  0  0  0  0  0
  8  9  2  0
  9  1  1  0
  9 10  1  0
  1  2  2  0
  1  6  1  0
  2  3  1  0
  3 22  1  0
  3  4  2  0
 22 23  1  0
 23 24  2  0
 23 33  1  0
 24 25  1  0
 25 26  1  0
 26 27  2  0
 26 28  1  0
 28 29  1  0
 28 33  2  0
 29 30  2  0
 30 31  1  0
 31 32  2  0
 32 33  1  0
  4  5  1  0
  5  6  2  0
  6  7  1  0
 10 11  1  0
 10 17  1  0
 11 12  1  0
 12 13  2  0
 12 16  1  0
 13 14  1  0
 13 17  1  0
 14 15  1  0
 15 18  1  0
 15 16  1  0
 18 19  1  0
 19 20  1  0
 19 21  1  0
 20 21  1  0
M  CHG  1  15   1
M  END
>  <minimizedAffinity>  (383) 
-9.06032

$$$$
cs_full_output_folder/data/smiles/496.pdb
     RDKit          3D

 30 33  0  0  0  0  0  0  0  0999 V2000
   72.0246   47.7281   58.8768 C   0  0  0  0  0  0  0  0  0  0  0  0
   73.0205   48.6763   58.7409 C   0  0  0  0  0  0  0  0  0  0  0  0
   72.9013   49.7206   57.8557 C   0  0  0  0  0  0  0  0  0  0  0  0
   71.7627   49.8070   57.0967 C   0  0  0  0  0  0  0  0  0  0  0  0
   70.7190   48.8927   57.1758 C   0  0  0  0  0  0  0  0  0  0  0  0
   70.9007   47.8705   58.0823 C   0  0  0  0  0  0  0  0  0  0  0  0
   71.8508   43.1737   58.6533 N   0  0  0  0  0  0  0  0  0  0  0  0
   72.3113   43.0619   60.0000 C   0  0  0  0  0  0  0  0  0  0  0  0
   72.8227   44.3676   60.5348 C   0  0  0  0  0  0  0  0  0  0  0  0
   72.7525   45.4076   59.5153 N   0  0  0  0  0  0  0  0  0  0  0  0
   72.1331   46.6315   59.8180 C   0  0  0  0  0  0  0  0  0  0  0  0
   71.6347   46.8176   60.9645 O   0  0  0  0  0  0  0  0  0  0  0  0
   73.3356   45.1019   58.2314 C   0  0  0  0  0  0  0  0  0  0  0  0
   72.9506   43.6920   57.8599 C   0  0  0  0  0  0  0  0  0  0  0  0
   70.5219   43.0028   58.1731 S   0  0  2  0  0  0  0  0  0  0  0  0
   69.6580   44.4466   59.2766 O   0  0  0  0  0  0  0  0  0  0  0  0
   68.4470   41.5026   57.6233 C   0  0  0  0  0  0  0  0  0  0  0  0
   69.4051   41.8702   58.6984 C   0  0  0  0  0  0  0  0  0  0  0  0
   69.4887   49.0784   56.3423 C   0  0  0  0  0  0  0  0  0  0  0  0
   69.6796   48.9257   54.9173 C   0  0  0  0  0  0  0  0  0  0  0  0
   70.4601   49.8354   54.2572 N   0  0  0  0  0  0  0  0  0  0  0  0
   70.7130   49.7612   52.9697 N   0  0  0  0  0  0  0  0  0  0  0  0
   70.2372   48.7983   52.1755 C   0  0  0  0  0  0  0  0  0  0  0  0
   70.4650   48.7113   50.9564 O   0  0  0  0  0  0  0  0  0  0  0  0
   69.4295   47.8398   52.8014 C   0  0  0  0  0  0  0  0  0  0  0  0
   68.8773   46.8091   52.0895 C   0  0  0  0  0  0  0  0  0  0  0  0
   68.0713   45.8506   52.6620 C   0  0  0  0  0  0  0  0  0  0  0  0
   67.8089   45.9347   54.0122 C   0  0  0  0  0  0  0  0  0  0  0  0
   68.3435   46.9513   54.7586 C   0  0  0  0  0  0  0  0  0  0  0  0
   69.1579   47.9105   54.1619 C   0  0  0  0  0  0  0  0  0  0  0  0
 17 18  1  0
 18 15  1  0
 15 16  1  1
 15  7  1  0
  7  8  1  0
  7 14  1  0
  8  9  1  0
  9 10  1  0
 10 11  1  0
 10 13  1  0
 11 12  2  0
 11  1  1  0
  1  2  2  0
  1  6  1  0
  2  3  1  0
  3  4  2  0
  4  5  1  0
  5 19  1  0
  5  6  2  0
 19 20  1  0
 20 21  2  0
 20 30  1  0
 21 22  1  0
 22 23  1  0
 23 24  2  0
 23 25  1  0
 25 26  1  0
 25 30  2  0
 26 27  2  0
 27 28  1  0
 28 29  2  0
 29 30  1  0
 13 14  1  0
M  END
>  <minimizedAffinity>  (384) 
-9.05523

$$$$
cs_full_output_folder/data/smiles/8118.pdb
     RDKit          3D

 30 33  0  0  0  0  0  0  0  0999 V2000
   71.5683   46.7881   58.8265 C   0  0  0  0  0  0  0  0  0  0  0  0
   71.5691   45.4318   58.6567 C   0  0  0  0  0  0  0  0  0  0  0  0
   70.6623   44.7528   57.8275 C   0  0  0  0  0  0  0  0  0  0  0  0
   69.7014   45.4599   57.1299 C   0  0  0  0  0  0  0  0  0  0  0  0
   69.6798   46.8035   57.2815 C   0  0  0  0  0  0  0  0  0  0  0  0
   70.5827   47.4844   58.1082 C   0  0  0  0  0  0  0  0  0  0  0  0
   74.4256   50.3686   58.6039 C   0  0  0  0  0  0  0  0  0  0  0  0
   75.0941   49.2327   57.8816 C   0  0  0  0  0  0  0  0  0  0  0  0
   74.7796   47.8894   58.5045 C   0  0  0  0  0  0  0  0  0  0  0  0
   73.7881   47.9818   59.5146 N   0  0  0  0  0  0  0  0  0  0  0  0
   72.5033   47.5104   59.6287 C   0  0  0  0  0  0  0  0  0  0  0  0
   71.9933   47.8378   60.8413 O   0  0  0  0  0  0  0  0  0  0  0  0
   74.3239   48.8613   60.6412 C   0  0  0  0  0  0  0  0  0  0  0  0
   74.2462   50.2225   60.0616 C   0  0  0  0  0  0  0  0  0  0  0  0
   73.1347   50.4448   58.0255 O   0  0  0  0  0  0  0  0  0  0  0  0
   72.6549   52.6845   57.5649 C   0  0  0  0  0  0  0  0  0  0  0  0
   72.3785   51.4853   58.4876 C   0  0  0  0  0  0  0  0  0  0  0  0
   70.9160   51.1646   58.3022 C   0  0  0  0  0  0  0  0  0  0  0  0
   68.6949   47.6595   56.5459 C   0  0  0  0  0  0  0  0  0  0  0  0
   69.2109   48.0286   55.1978 C   0  0  0  0  0  0  0  0  0  0  0  0
   70.1455   48.9970   55.0632 N   0  0  0  0  0  0  0  0  0  0  0  0
   70.6810   49.3183   53.9046 N   0  0  0  0  0  0  0  0  0  0  0  0
   70.3082   48.6803   52.7837 C   0  0  0  0  0  0  0  0  0  0  0  0
   70.8033   48.9682   51.6833 O   0  0  0  0  0  0  0  0  0  0  0  0
   69.3473   47.6665   52.8267 C   0  0  0  0  0  0  0  0  0  0  0  0
   68.9695   47.0377   51.6463 C   0  0  0  0  0  0  0  0  0  0  0  0
   68.0046   46.0573   51.7151 C   0  0  0  0  0  0  0  0  0  0  0  0
   67.4715   45.7604   52.9477 C   0  0  0  0  0  0  0  0  0  0  0  0
   67.8413   46.3753   54.1085 C   0  0  0  0  0  0  0  0  0  0  0  0
   68.8148   47.3655   54.0654 C   0  0  0  0  0  0  0  0  0  0  0  0
 16 17  1  0
 17 18  1  0
 17 15  1  0
 15  7  1  0
  7  8  1  0
  7 14  1  0
  8  9  1  0
  9 10  1  0
 10 11  1  0
 10 13  1  0
 11 12  2  0
 11  1  1  0
  1  2  2  0
  1  6  1  0
  2  3  1  0
  3  4  2  0
  4  5  1  0
  5 19  1  0
  5  6  2  0
 19 20  1  0
 20 21  2  0
 20 30  1  0
 21 22  1  0
 22 23  1  0
 23 24  2  0
 23 25  1  0
 25 26  1  0
 25 30  2  0
 26 27  2  0
 27 28  1  0
 28 29  2  0
 29 30  1  0
 13 14  1  0
M  END
>  <minimizedAffinity>  (385) 
-9.05425

$$$$
cs_full_output_folder/data/smiles/805.pdb
     RDKit          3D

 30 32  0  0  0  0  0  0  0  0999 V2000
   70.0049   46.7590   57.4348 C   0  0  0  0  0  0  0  0  0  0  0  0
   71.1372   47.0954   58.1295 C   0  0  0  0  0  0  0  0  0  0  0  0
   71.8868   46.0890   58.7588 C   0  0  0  0  0  0  0  0  0  0  0  0
   71.5420   44.7599   58.7216 C   0  0  0  0  0  0  0  0  0  0  0  0
   72.3483   43.6888   59.3825 C   0  0  0  0  0  0  0  0  0  0  0  0
   70.4015   44.4474   58.0214 C   0  0  0  0  0  0  0  0  0  0  0  0
   69.6439   45.4164   57.3865 C   0  0  0  0  0  0  0  0  0  0  0  0
   68.9889   47.9576   56.6457 S   0  0  0  0  0  0  0  0  0  0  0  0
   67.5498   47.5226   56.7399 O   0  0  0  0  0  0  0  0  0  0  0  0
   69.1258   49.2925   57.3056 O   0  0  0  0  0  0  0  0  0  0  0  0
   69.3922   48.0589   54.9777 N   0  0  0  0  0  0  0  0  0  0  0  0
   69.9604   48.7736   52.3098 C   0  0  0  0  0  0  0  0  0  0  0  0
   69.1093   47.6095   52.6380 C   0  0  0  0  0  0  0  0  0  0  0  0
   68.5740   46.8453   51.6318 C   0  0  0  0  0  0  0  0  0  0  0  0
   67.7833   45.7639   51.8892 C   0  0  0  0  0  0  0  0  0  0  0  0
   67.5231   45.4442   53.1969 C   0  0  0  0  0  0  0  0  0  0  0  0
   68.0495   46.1969   54.2513 C   0  0  0  0  0  0  0  0  0  0  0  0
   68.8341   47.2658   53.9652 C   0  0  0  0  0  0  0  0  0  0  0  0
   69.9432   43.0372   57.9830 C   0  0  0  0  0  0  0  0  0  0  0  0
   70.3941   42.1555   57.2659 O   0  0  0  0  0  0  0  0  0  0  0  0
   68.8888   42.7542   58.8867 N   0  0  0  0  0  0  0  0  0  0  0  0
   68.2729   41.5205   59.0626 N   0  0  0  0  0  0  0  0  0  0  0  0
   67.0172   41.3002   59.6728 C   0  0  0  0  0  0  0  0  0  0  0  0
   66.3881   42.2962   60.0916 O   0  0  0  0  0  0  0  0  0  0  0  0
   66.4307   39.9741   59.8361 C   0  0  0  0  0  0  0  0  0  0  0  0
   65.2260   39.7440   60.4524 C   0  0  0  0  0  0  0  0  0  0  0  0
   64.6774   38.4484   60.5484 C   0  0  0  0  0  0  0  0  0  0  0  0
   65.3521   37.3706   60.0176 C   0  0  0  0  0  0  0  0  0  0  0  0
   66.5587   37.5992   59.4008 C   0  0  0  0  0  0  0  0  0  0  0  0
   67.0793   38.8753   59.3166 C   0  0  0  0  0  0  0  0  0  0  0  0
 12 13  1  0
 13 14  2  0
 13 18  1  0
 14 15  1  0
 15 16  2  0
 16 17  1  0
 17 18  2  0
 18 11  1  0
 11  8  1  0
  8  9  2  0
  8 10  2  0
  8  1  1  0
  1  2  2  0
  1  7  1  0
  2  3  1  0
  3  4  2  0
  4  5  1  0
  4  6  1  0
  6 19  1  0
  6  7  2  0
 19 20  2  0
 19 21  1  0
 21 22  1  0
 22 23  1  0
 23 24  2  0
 23 25  1  0
 25 26  2  0
 25 30  1  0
 26 27  1  0
 27 28  2  0
 28 29  1  0
 29 30  2  0
M  END
>  <minimizedAffinity>  (386) 
-9.05035

$$$$
cs_full_output_folder/data/smiles/3859.pdb
     RDKit          3D

 32 36  0  0  0  0  0  0  0  0999 V2000
   71.5334   46.9157   59.0479 C   0  0  0  0  0  0  0  0  0  0  0  0
   70.7777   47.8083   58.2862 C   0  0  0  0  0  0  0  0  0  0  0  0
   69.9468   47.3278   57.3166 C   0  0  0  0  0  0  0  0  0  0  0  0
   69.8264   45.9549   57.0570 C   0  0  0  0  0  0  0  0  0  0  0  0
   70.5686   45.0673   57.8034 C   0  0  0  0  0  0  0  0  0  0  0  0
   71.3980   45.5822   58.7748 C   0  0  0  0  0  0  0  0  0  0  0  0
   72.1261   44.7033   59.5054 F   0  0  0  0  0  0  0  0  0  0  0  0
   76.3051   48.6193   59.1984 N   0  0  0  0  0  0  0  0  0  0  0  0
   76.5712   47.2438   58.8177 C   0  0  0  0  0  0  0  0  0  0  0  0
   75.3403   46.4814   58.4325 C   0  0  0  0  0  0  0  0  0  0  0  0
   74.1232   47.4037   58.3826 C   0  0  0  0  0  0  0  0  0  0  0  0
   73.7726   47.6925   59.7456 N   0  0  0  0  0  0  0  0  0  0  0  0
   72.4225   47.4347   60.0786 C   0  0  0  0  0  0  0  0  0  0  0  0
   71.9382   47.6275   61.2200 O   0  0  0  0  0  0  0  0  0  0  0  0
   74.5349   48.2024   60.8655 C   0  0  0  0  0  0  0  0  0  0  0  0
   75.6960   49.0577   60.4379 C   0  0  0  0  0  0  0  0  0  0  0  0
   76.4619   50.8424   58.6124 N   0  0  0  0  0  0  0  0  0  0  0  0
   76.6795   49.6365   58.2626 C   0  0  0  0  0  0  0  0  0  0  0  0
   77.2893   49.3525   56.9707 C   0  0  0  0  0  0  0  0  0  0  0  0
   78.6708   49.9649   56.7050 C   0  0  0  0  0  0  0  0  0  0  0  0
   77.4724   50.3397   55.8981 C   0  0  0  0  0  0  0  0  0  0  0  0
   69.1261   48.2278   56.4634 C   0  0  0  0  0  0  0  0  0  0  0  0
   68.6640   47.4609   55.2874 C   0  0  0  0  0  0  0  0  0  0  0  0
   67.7636   46.4693   55.4532 N   0  0  0  0  0  0  0  0  0  0  0  0
   67.3195   45.7288   54.4620 N   0  0  0  0  0  0  0  0  0  0  0  0
   67.7183   45.8832   53.1772 C   0  0  0  0  0  0  0  0  0  0  0  0
   67.2142   45.0697   52.1738 O   0  0  0  0  0  0  0  0  0  0  0  0
   68.6285   46.8595   52.8952 C   0  0  0  0  0  0  0  0  0  0  0  0
   69.2399   47.2997   51.7403 C   0  0  0  0  0  0  0  0  0  0  0  0
   70.0652   48.3316   52.0781 C   0  0  0  0  0  0  0  0  0  0  0  0
   69.9957   48.5679   53.4526 C   0  0  0  0  0  0  0  0  0  0  0  0
   69.1161   47.6817   54.0198 C   0  0  0  0  0  0  0  0  0  0  0  0
 17 18  2  0
 18 19  1  0
 18  8  1  0
 19 20  1  0
 19 21  1  0
 20 21  1  0
  8  9  1  0
  8 16  1  0
  9 10  1  0
 10 11  1  0
 11 12  1  0
 12 13  1  0
 12 15  1  0
 13 14  2  0
 13  1  1  0
  1  2  2  0
  1  6  1  0
  2  3  1  0
  3 22  1  0
  3  4  2  0
 22 23  1  0
 23 24  2  0
 23 32  1  0
 24 25  1  0
 25 26  1  0
 26 27  1  0
 26 28  2  0
 28 29  1  0
 28 32  1  0
 29 30  2  0
 30 31  1  0
 31 32  2  0
  4  5  1  0
  5  6  2  0
  6  7  1  0
 15 16  1  0
M  CHG  1  17   1
M  END
>  <minimizedAffinity>  (387) 
-9.05002

$$$$
cs_full_output_folder/data/smiles/718.pdb
     RDKit          3D

 28 30  0  0  0  0  0  0  0  0999 V2000
   69.5678   48.4166   53.5496 C   0  0  0  0  0  0  0  0  0  0  0  0
   68.9305   48.0019   52.4002 C   0  0  0  0  0  0  0  0  0  0  0  0
   68.2302   46.8006   52.3514 C   0  0  0  0  0  0  0  0  0  0  0  0
   68.1724   46.0094   53.4735 C   0  0  0  0  0  0  0  0  0  0  0  0
   68.8090   46.4038   54.6549 C   0  0  0  0  0  0  0  0  0  0  0  0
   69.4814   47.5869   54.6525 C   0  0  0  0  0  0  0  0  0  0  0  0
   70.4304   49.9327   53.5505 S   0  0  0  0  0  0  0  0  0  0  0  0
   71.9072   49.6916   53.4756 O   0  0  0  0  0  0  0  0  0  0  0  0
   69.9480   50.7611   52.3895 O   0  0  0  0  0  0  0  0  0  0  0  0
   67.1325   51.0626   57.3084 C   0  0  0  0  0  0  0  0  0  0  0  0
   68.4921   51.2753   56.7323 C   0  0  2  0  0  0  0  0  0  0  0  0
   68.9378   52.7081   56.7414 C   0  0  0  0  0  0  0  0  0  0  0  0
   70.4287   52.7082   56.3827 C   0  0  0  0  0  0  0  0  0  0  0  0
   70.5895   52.1033   54.9893 C   0  0  0  0  0  0  0  0  0  0  0  0
   70.0312   50.7734   54.9860 N   0  0  0  0  0  0  0  0  0  0  0  0
   68.6460   50.7394   55.3274 C   0  0  0  0  0  0  0  0  0  0  0  0
   68.6921   45.5015   55.7858 C   0  0  0  0  0  0  0  0  0  0  0  0
   69.0698   45.8035   56.9263 O   0  0  0  0  0  0  0  0  0  0  0  0
   68.1275   44.2222   55.5946 N   0  0  0  0  0  0  0  0  0  0  0  0
   67.9983   43.3142   56.6793 N   0  0  0  0  0  0  0  0  0  0  0  0
   67.4721   42.0129   56.4797 C   0  0  0  0  0  0  0  0  0  0  0  0
   67.1288   41.7034   55.3082 O   0  0  0  0  0  0  0  0  0  0  0  0
   67.3451   41.0918   57.6006 C   0  0  0  0  0  0  0  0  0  0  0  0
   67.9731   39.8730   57.6328 C   0  0  0  0  0  0  0  0  0  0  0  0
   67.8426   39.0111   58.7015 C   0  0  0  0  0  0  0  0  0  0  0  0
   67.0460   39.3965   59.7795 C   0  0  0  0  0  0  0  0  0  0  0  0
   66.4333   40.6102   59.7235 C   0  0  0  0  0  0  0  0  0  0  0  0
   66.5848   41.4315   58.6553 N   0  0  0  0  0  0  0  0  0  0  0  0
 11 10  1  6
 11 12  1  0
 11 16  1  0
 12 13  1  0
 13 14  1  0
 14 15  1  0
 15  7  1  0
 15 16  1  0
  7  8  2  0
  7  9  2  0
  7  1  1  0
  1  2  2  0
  1  6  1  0
  2  3  1  0
  3  4  2  0
  4  5  1  0
  5 17  1  0
  5  6  2  0
 17 18  2  0
 17 19  1  0
 19 20  1  0
 20 21  1  0
 21 22  2  0
 21 23  1  0
 23 24  2  0
 23 28  1  0
 24 25  1  0
 25 26  2  0
 26 27  1  0
 27 28  2  0
M  END
>  <minimizedAffinity>  (388) 
-9.04513

$$$$
cs_full_output_folder/data/smiles/585.pdb
     RDKit          3D

 28 30  0  0  0  0  0  0  0  0999 V2000
   68.7734   46.6033   54.4091 C   0  0  0  0  0  0  0  0  0  0  0  0
   68.4772   46.3003   53.0921 C   0  0  0  0  0  0  0  0  0  0  0  0
   68.7641   47.1425   52.0490 C   0  0  0  0  0  0  0  0  0  0  0  0
   69.3672   48.3346   52.3033 C   0  0  0  0  0  0  0  0  0  0  0  0
   69.7327   49.4087   50.9726 Cl  0  0  0  0  0  0  0  0  0  0  0  0
   69.6921   48.7029   53.6011 C   0  0  0  0  0  0  0  0  0  0  0  0
   69.3812   47.8130   54.6308 C   0  0  0  0  0  0  0  0  0  0  0  0
   68.0172   44.3394   55.2579 N   0  0  0  0  0  0  0  0  0  0  0  0
   68.4329   45.6434   55.4785 C   0  0  0  0  0  0  0  0  0  0  0  0
   68.5327   46.0506   56.6527 O   0  0  0  0  0  0  0  0  0  0  0  0
   69.7017   42.6714   56.8889 O   0  0  0  0  0  0  0  0  0  0  0  0
   68.4548   42.4812   56.9159 C   0  0  0  0  0  0  0  0  0  0  0  0
   67.6636   43.3199   56.1024 N   0  0  0  0  0  0  0  0  0  0  0  0
   67.9043   41.4210   57.7734 C   0  0  0  0  0  0  0  0  0  0  0  0
   68.3163   40.1214   57.5691 C   0  0  0  0  0  0  0  0  0  0  0  0
   67.8370   39.0725   58.3423 C   0  0  0  0  0  0  0  0  0  0  0  0
   66.9197   39.3022   59.3547 C   0  0  0  0  0  0  0  0  0  0  0  0
   66.5088   40.5910   59.5597 C   0  0  0  0  0  0  0  0  0  0  0  0
   67.0048   41.6373   58.7674 C   0  0  0  0  0  0  0  0  0  0  0  0
   70.4595   50.2269   53.8463 S   0  0  0  0  0  0  0  0  0  0  0  0
   70.0655   51.1272   52.6820 O   0  0  0  0  0  0  0  0  0  0  0  0
   71.9487   50.0567   53.7405 O   0  0  0  0  0  0  0  0  0  0  0  0
   70.0576   51.0324   55.2775 N   0  0  0  0  0  0  0  0  0  0  0  0
   70.9781   51.9753   55.7741 C   0  0  0  0  0  0  0  0  0  0  0  0
   70.4262   53.2626   56.2645 C   0  0  0  0  0  0  0  0  0  0  0  0
   69.1354   53.2475   56.6948 O   0  0  0  0  0  0  0  0  0  0  0  0
   68.5453   52.0229   56.8226 C   0  0  0  0  0  0  0  0  0  0  0  0
   68.6792   51.3098   55.4728 C   0  0  0  0  0  0  0  0  0  0  0  0
 11 12  2  0
 12 13  1  0
 12 14  1  0
 13  8  1  0
  8  9  1  0
  9 10  2  0
  9  1  1  0
  1  2  2  0
  1  7  1  0
  2  3  1  0
  3  4  2  0
  4  5  1  0
  4  6  1  0
  6 20  1  0
  6  7  2  0
 20 21  2  0
 20 22  2  0
 20 23  1  0
 23 24  1  0
 23 28  1  0
 24 25  1  0
 25 26  1  0
 26 27  1  0
 27 28  1  0
 14 15  2  0
 14 19  1  0
 15 16  1  0
 16 17  2  0
 17 18  1  0
 18 19  2  0
M  END
>  <minimizedAffinity>  (389) 
-9.04404

$$$$
cs_full_output_folder/data/smiles/679.pdb
     RDKit          3D

 30 33  0  0  0  0  0  0  0  0999 V2000
   71.5072   47.0773   58.7426 C   0  0  0  0  0  0  0  0  0  0  0  0
   71.4655   45.6596   58.6108 C   0  0  0  0  0  0  0  0  0  0  0  0
   70.5589   45.0437   57.8050 C   0  0  0  0  0  0  0  0  0  0  0  0
   69.6282   45.7444   57.0732 C   0  0  0  0  0  0  0  0  0  0  0  0
   69.6295   47.1154   57.1677 C   0  0  0  0  0  0  0  0  0  0  0  0
   70.5681   47.7417   57.9948 C   0  0  0  0  0  0  0  0  0  0  0  0
   75.8663   48.4135   58.2039 C   0  0  1  0  0  0  0  0  0  0  0  0
   76.1691   48.3540   59.6832 C   0  0  0  0  0  0  0  0  0  0  0  0
   74.8299   48.3045   60.3321 C   0  0  0  0  0  0  0  0  0  0  0  0
   73.9239   47.7427   59.2973 N   0  0  0  0  0  0  0  0  0  0  0  0
   72.5273   47.6324   59.5810 C   0  0  0  0  0  0  0  0  0  0  0  0
   72.1811   48.0984   60.7431 O   0  0  0  0  0  0  0  0  0  0  0  0
   74.7033   47.4231   58.1580 C   0  0  0  0  0  0  0  0  0  0  0  0
   75.3762   50.0174   57.7348 S   0  0  0  0  0  0  0  0  0  0  0  0
   76.3380   50.5687   56.7245 O   0  0  0  0  0  0  0  0  0  0  0  0
   75.4430   50.8990   58.9650 O   0  0  0  0  0  0  0  0  0  0  0  0
   72.8349   51.0580   57.8697 C   0  0  0  0  0  0  0  0  0  0  0  0
   73.7616   50.1418   57.0860 C   0  0  0  0  0  0  0  0  0  0  0  0
   68.7140   47.9592   56.3476 C   0  0  0  0  0  0  0  0  0  0  0  0
   69.1908   48.0071   54.9884 C   0  0  0  0  0  0  0  0  0  0  0  0
   70.1602   48.9515   54.7524 N   0  0  0  0  0  0  0  0  0  0  0  0
   70.6354   49.2128   53.5577 N   0  0  0  0  0  0  0  0  0  0  0  0
   70.2270   48.5895   52.4528 C   0  0  0  0  0  0  0  0  0  0  0  0
   70.6525   48.8091   51.2855 O   0  0  0  0  0  0  0  0  0  0  0  0
   69.2534   47.6246   52.6228 C   0  0  0  0  0  0  0  0  0  0  0  0
   68.7940   46.8856   51.5483 C   0  0  0  0  0  0  0  0  0  0  0  0
   67.8582   45.8921   51.7203 C   0  0  0  0  0  0  0  0  0  0  0  0
   67.3608   45.6215   52.9928 C   0  0  0  0  0  0  0  0  0  0  0  0
   67.7955   46.3395   54.0842 C   0  0  0  0  0  0  0  0  0  0  0  0
   68.7434   47.3396   53.8824 C   0  0  0  0  0  0  0  0  0  0  0  0
 17 18  1  0
 18 14  1  0
 14 15  2  0
 14 16  2  0
  7 14  1  1
  7  8  1  0
  7 13  1  0
  8  9  1  0
  9 10  1  0
 10 11  1  0
 10 13  1  0
 11 12  2  0
 11  1  1  0
  1  2  2  0
  1  6  1  0
  2  3  1  0
  3  4  2  0
  4  5  1  0
  5 19  1  0
  5  6  2  0
 19 20  1  0
 20 21  2  0
 20 30  1  0
 21 22  1  0
 22 23  1  0
 23 24  2  0
 23 25  1  0
 25 26  1  0
 25 30  2  0
 26 27  2  0
 27 28  1  0
 28 29  2  0
 29 30  1  0
M  END
>  <minimizedAffinity>  (390) 
-9.04306

$$$$
cs_full_output_folder/data/smiles/7194.pdb
     RDKit          3D

 32 36  0  0  0  0  0  0  0  0999 V2000
   72.2801   47.9976   58.5465 C   0  0  0  0  0  0  0  0  0  0  0  0
   71.2170   48.3817   57.7893 C   0  0  0  0  0  0  0  0  0  0  0  0
   71.3553   49.3607   56.8036 C   0  0  0  0  0  0  0  0  0  0  0  0
   72.5920   49.9159   56.6294 C   0  0  0  0  0  0  0  0  0  0  0  0
   73.6647   49.5161   57.4046 C   0  0  0  0  0  0  0  0  0  0  0  0
   73.5419   48.5560   58.3757 C   0  0  0  0  0  0  0  0  0  0  0  0
   74.5525   48.1393   59.1493 F   0  0  0  0  0  0  0  0  0  0  0  0
   71.5577   47.3332   60.6384 O   0  0  0  0  0  0  0  0  0  0  0  0
   72.0861   46.9683   59.5667 C   0  0  0  0  0  0  0  0  0  0  0  0
   72.4695   45.6200   59.3687 N   0  0  0  0  0  0  0  0  0  0  0  0
   73.0832   45.1642   58.1412 C   0  0  0  0  0  0  0  0  0  0  0  0
   73.3183   43.6705   58.1983 C   0  0  0  0  0  0  0  0  0  0  0  0
   73.9940   43.3118   59.3871 N   0  0  0  0  0  0  0  0  0  0  0  0
   73.5510   43.9006   60.6016 C   0  0  0  0  0  0  0  0  0  0  0  0
   72.2502   44.6518   60.4165 C   0  0  0  0  0  0  0  0  0  0  0  0
   75.3778   43.0582   59.3198 C   0  0  0  0  0  0  0  0  0  0  0  0
   75.8739   42.3902   58.0821 C   0  0  0  0  0  0  0  0  0  0  0  0
   77.3902   42.4968   58.2611 C   0  0  0  0  0  0  0  0  0  0  0  0
   77.6276   43.6787   59.1773 C   0  0  0  0  0  0  0  0  0  0  0  0
   76.2435   44.3252   59.3403 C   0  0  0  0  0  0  0  0  0  0  0  0
   70.1317   49.7228   56.0354 C   0  0  0  0  0  0  0  0  0  0  0  0
   70.1350   49.0953   54.7120 C   0  0  0  0  0  0  0  0  0  0  0  0
   71.0220   49.5341   53.7702 N   0  0  0  0  0  0  0  0  0  0  0  0
   71.0430   49.0255   52.5450 N   0  0  0  0  0  0  0  0  0  0  0  0
   70.2044   48.0598   52.1523 C   0  0  0  0  0  0  0  0  0  0  0  0
   70.1918   47.5533   51.0060 O   0  0  0  0  0  0  0  0  0  0  0  0
   69.2691   47.5622   53.0647 C   0  0  0  0  0  0  0  0  0  0  0  0
   69.2682   48.1140   54.3528 C   0  0  0  0  0  0  0  0  0  0  0  0
   68.2973   47.5519   55.3140 C   0  0  0  0  0  0  0  0  0  0  0  0
   68.3925   46.0219   55.1485 C   0  0  0  0  0  0  0  0  0  0  0  0
   68.0161   45.5617   53.7861 C   0  0  0  0  0  0  0  0  0  0  0  0
   68.3098   46.5077   52.6781 C   0  0  0  0  0  0  0  0  0  0  0  0
  8  9  2  0
  9  1  1  0
  9 10  1  0
  1  2  2  0
  1  6  1  0
  2  3  1  0
  3 21  1  0
  3  4  2  0
 21 22  1  0
 22 23  2  0
 22 28  1  0
 23 24  1  0
 24 25  1  0
 25 26  2  0
 25 27  1  0
 27 28  2  0
 27 32  1  0
 28 29  1  0
 29 30  1  0
 30 31  1  0
 31 32  1  0
  4  5  1  0
  5  6  2  0
  6  7  1  0
 10 11  1  0
 10 15  1  0
 11 12  1  0
 12 13  1  0
 13 16  1  0
 13 14  1  0
 16 17  1  0
 16 20  1  0
 17 18  1  0
 18 19  1  0
 19 20  1  0
 14 15  1  0
M  CHG  1  13   1
M  END
>  <minimizedAffinity>  (391) 
-9.04096

$$$$
cs_full_output_folder/data/smiles/7727.pdb
     RDKit          3D

 30 34  0  0  0  0  0  0  0  0999 V2000
   71.6721   47.2238   58.7142 C   0  0  0  0  0  0  0  0  0  0  0  0
   70.5889   47.6529   57.9962 C   0  0  0  0  0  0  0  0  0  0  0  0
   70.6363   48.7106   57.0780 C   0  0  0  0  0  0  0  0  0  0  0  0
   71.8190   49.3517   56.8810 C   0  0  0  0  0  0  0  0  0  0  0  0
   72.9301   48.9380   57.5942 C   0  0  0  0  0  0  0  0  0  0  0  0
   72.8720   47.8995   58.4937 C   0  0  0  0  0  0  0  0  0  0  0  0
   74.0063   47.5620   59.1482 F   0  0  0  0  0  0  0  0  0  0  0  0
   71.8392   46.3751   60.8775 O   0  0  0  0  0  0  0  0  0  0  0  0
   71.6277   46.1288   59.6668 C   0  0  0  0  0  0  0  0  0  0  0  0
   71.3571   44.8024   59.2860 N   0  0  0  0  0  0  0  0  0  0  0  0
   71.2643   43.5937   60.0687 C   0  0  0  0  0  0  0  0  0  0  0  0
   70.0495   42.8924   59.4487 C   0  0  0  0  0  0  0  0  0  0  0  0
   69.8046   43.5837   58.1169 C   0  0  1  0  0  0  0  0  0  0  0  0
   71.0982   44.3390   57.9142 C   0  0  0  0  0  0  0  0  0  0  0  0
   69.5550   42.6565   57.0587 N   0  0  0  0  0  0  0  0  0  0  0  0
   68.2190   42.1536   57.1639 C   0  0  0  0  0  0  0  0  0  0  0  0
   67.2600   42.2648   56.0365 C   0  0  0  0  0  0  0  0  0  0  0  0
   67.9015   40.9246   56.3247 C   0  0  0  0  0  0  0  0  0  0  0  0
   69.3679   49.0103   56.3893 C   0  0  0  0  0  0  0  0  0  0  0  0
   69.5393   48.8840   54.9485 C   0  0  0  0  0  0  0  0  0  0  0  0
   70.2800   49.8551   54.3355 N   0  0  0  0  0  0  0  0  0  0  0  0
   70.5528   49.8387   53.0473 N   0  0  0  0  0  0  0  0  0  0  0  0
   70.1202   48.8620   52.2391 C   0  0  0  0  0  0  0  0  0  0  0  0
   70.3541   48.8015   51.0067 O   0  0  0  0  0  0  0  0  0  0  0  0
   69.3618   47.8387   52.7754 C   0  0  0  0  0  0  0  0  0  0  0  0
   68.8696   46.8089   52.0130 C   0  0  0  0  0  0  0  0  0  0  0  0
   68.0934   45.7880   52.5523 C   0  0  0  0  0  0  0  0  0  0  0  0
   67.8282   45.8423   53.9018 C   0  0  0  0  0  0  0  0  0  0  0  0
   68.3252   46.8871   54.6886 C   0  0  0  0  0  0  0  0  0  0  0  0
   69.0898   47.8813   54.1314 C   0  0  0  0  0  0  0  0  0  0  0  0
  8  9  2  0
  9  1  1  0
  9 10  1  0
  1  2  2  0
  1  6  1  0
  2  3  1  0
  3 19  1  0
  3  4  2  0
 19 20  1  0
 20 21  2  0
 20 30  1  0
 21 22  1  0
 22 23  1  0
 23 24  2  0
 23 25  1  0
 25 26  1  0
 25 30  2  0
 26 27  2  0
 27 28  1  0
 28 29  2  0
 29 30  1  0
  4  5  1  0
  5  6  2  0
  6  7  1  0
 10 11  1  0
 10 14  1  0
 11 12  1  0
 12 13  1  0
 13 15  1  6
 13 14  1  0
 15 16  1  0
 16 17  1  0
 16 18  1  0
 17 18  1  0
M  CHG  1  15   1
M  END
>  <minimizedAffinity>  (392) 
-9.03938

$$$$
cs_full_output_folder/data/smiles/6556.pdb
     RDKit          3D

 32 36  0  0  0  0  0  0  0  0999 V2000
   71.5337   47.2249   58.9813 C   0  0  0  0  0  0  0  0  0  0  0  0
   71.4484   45.8501   58.8508 C   0  0  0  0  0  0  0  0  0  0  0  0
   70.6281   45.2523   57.9159 C   0  0  0  0  0  0  0  0  0  0  0  0
   69.8688   46.0368   57.0835 C   0  0  0  0  0  0  0  0  0  0  0  0
   69.9202   47.4289   57.1817 C   0  0  0  0  0  0  0  0  0  0  0  0
   70.7409   47.9875   58.1142 C   0  0  0  0  0  0  0  0  0  0  0  0
   70.9015   49.3590   58.2589 F   0  0  0  0  0  0  0  0  0  0  0  0
   72.1325   47.8097   61.1253 O   0  0  0  0  0  0  0  0  0  0  0  0
   72.4607   47.8461   59.9120 C   0  0  0  0  0  0  0  0  0  0  0  0
   73.6433   48.4519   59.5214 N   0  0  0  0  0  0  0  0  0  0  0  0
   74.2013   48.5799   58.1955 C   0  0  0  0  0  0  0  0  0  0  0  0
   75.5315   47.8229   58.1207 C   0  0  0  0  0  0  0  0  0  0  0  0
   75.8273   47.3231   59.4996 N   0  0  0  0  0  0  0  0  0  0  0  0
   76.0129   45.9496   59.6675 C   0  0  0  0  0  0  0  0  0  0  0  0
   75.8949   45.2599   58.5561 O   0  0  0  0  0  0  0  0  0  0  0  0
   75.8732   48.3758   60.4731 C   0  0  0  0  0  0  0  0  0  0  0  0
   74.4957   49.0548   60.5735 C   0  0  0  0  0  0  0  0  0  0  0  0
   76.3129   45.1751   60.8642 C   0  0  0  0  0  0  0  0  0  0  0  0
   76.0823   43.7314   61.0451 C   0  0  0  0  0  0  0  0  0  0  0  0
   75.2504   44.7489   61.8030 C   0  0  0  0  0  0  0  0  0  0  0  0
   69.0160   48.2576   56.3542 C   0  0  0  0  0  0  0  0  0  0  0  0
   69.2961   48.2960   54.9229 C   0  0  0  0  0  0  0  0  0  0  0  0
   70.1962   49.2631   54.5226 N   0  0  0  0  0  0  0  0  0  0  0  0
   70.5909   49.4383   53.2919 N   0  0  0  0  0  0  0  0  0  0  0  0
   70.1392   48.6628   52.2696 C   0  0  0  0  0  0  0  0  0  0  0  0
   70.5381   48.8512   51.0945 O   0  0  0  0  0  0  0  0  0  0  0  0
   69.2327   47.6758   52.6111 C   0  0  0  0  0  0  0  0  0  0  0  0
   68.7563   46.8694   51.6050 C   0  0  0  0  0  0  0  0  0  0  0  0
   67.8583   45.8810   51.9196 C   0  0  0  0  0  0  0  0  0  0  0  0
   67.4327   45.6945   53.2417 C   0  0  0  0  0  0  0  0  0  0  0  0
   67.8981   46.4905   54.2513 C   0  0  0  0  0  0  0  0  0  0  0  0
   68.8184   47.5037   53.9471 C   0  0  0  0  0  0  0  0  0  0  0  0
  8  9  2  0
  9  1  1  0
  9 10  1  0
  1  2  2  0
  1  6  1  0
  2  3  1  0
  3  4  2  0
  4  5  1  0
  5 21  1  0
  5  6  2  0
 21 22  1  0
 22 23  2  0
 22 32  1  0
 23 24  1  0
 24 25  1  0
 25 26  2  0
 25 27  1  0
 27 28  1  0
 27 32  2  0
 28 29  2  0
 29 30  1  0
 30 31  2  0
 31 32  1  0
  6  7  1  0
 10 11  1  0
 10 17  1  0
 11 12  1  0
 12 13  1  0
 13 14  1  0
 13 16  1  0
 14 15  2  0
 14 18  1  0
 18 19  1  0
 18 20  1  0
 19 20  1  0
 16 17  1  0
M  END
>  <minimizedAffinity>  (393) 
-9.03761

$$$$
cs_full_output_folder/data/smiles/917.pdb
     RDKit          3D

 31 33  0  0  0  0  0  0  0  0999 V2000
   67.6631   45.6478   52.6122 C   0  0  0  0  0  0  0  0  0  0  0  0
   68.5391   46.7885   52.9774 C   0  0  0  0  0  0  0  0  0  0  0  0
   68.9800   47.6444   51.9671 C   0  0  0  0  0  0  0  0  0  0  0  0
   69.8008   48.7280   52.2975 C   0  0  0  0  0  0  0  0  0  0  0  0
   70.1635   48.9404   53.5960 C   0  0  0  0  0  0  0  0  0  0  0  0
   69.6968   48.0594   54.5583 C   0  0  0  0  0  0  0  0  0  0  0  0
   68.8851   46.9775   54.2784 C   0  0  0  0  0  0  0  0  0  0  0  0
   71.1452   50.2814   54.1208 S   0  0  0  0  0  0  0  0  0  0  0  0
   70.6110   51.5071   53.4306 O   0  0  0  0  0  0  0  0  0  0  0  0
   72.5928   50.1272   53.7972 O   0  0  0  0  0  0  0  0  0  0  0  0
   71.0133   50.4839   55.8456 N   0  0  0  0  0  0  0  0  0  0  0  0
   69.7205   50.5231   56.4415 C   0  0  0  0  0  0  0  0  0  0  0  0
   68.8425   51.5318   56.0327 C   0  0  0  0  0  0  0  0  0  0  0  0
   67.5870   51.6391   56.5519 C   0  0  0  0  0  0  0  0  0  0  0  0
   67.1733   50.7216   57.5076 C   0  0  0  0  0  0  0  0  0  0  0  0
   68.0489   49.7262   57.9070 C   0  0  0  0  0  0  0  0  0  0  0  0
   69.3203   49.6163   57.3832 C   0  0  0  0  0  0  0  0  0  0  0  0
   70.1689   48.6173   57.7899 F   0  0  0  0  0  0  0  0  0  0  0  0
   68.4143   46.0902   55.3142 C   0  0  0  0  0  0  0  0  0  0  0  0
   67.7536   46.6344   56.2521 O   0  0  0  0  0  0  0  0  0  0  0  0
   68.6064   44.6990   55.4059 N   0  0  0  0  0  0  0  0  0  0  0  0
   68.1139   43.9291   56.4759 N   0  0  0  0  0  0  0  0  0  0  0  0
   68.8841   42.9369   57.1072 C   0  0  0  0  0  0  0  0  0  0  0  0
   70.0688   42.8202   56.6026 O   0  0  0  0  0  0  0  0  0  0  0  0
   68.4926   42.0844   58.2074 C   0  0  0  0  0  0  0  0  0  0  0  0
   68.0057   40.8148   57.8996 C   0  0  0  0  0  0  0  0  0  0  0  0
   67.5876   39.9429   58.8811 C   0  0  0  0  0  0  0  0  0  0  0  0
   67.6490   40.3235   60.2020 C   0  0  0  0  0  0  0  0  0  0  0  0
   68.1201   41.5543   60.5392 C   0  0  0  0  0  0  0  0  0  0  0  0
   68.5300   42.4034   59.5288 C   0  0  0  0  0  0  0  0  0  0  0  0
   69.0010   43.6420   59.9226 O   0  0  0  0  0  0  0  0  0  0  0  0
  1  2  1  0
  2  3  2  0
  2  7  1  0
  3  4  1  0
  4  5  2  0
  5  8  1  0
  5  6  1  0
  8  9  2  0
  8 10  2  0
  8 11  1  0
 11 12  1  0
 12 13  2  0
 12 17  1  0
 13 14  1  0
 14 15  2  0
 15 16  1  0
 16 17  2  0
 17 18  1  0
  6  7  2  0
  7 19  1  0
 19 20  2  0
 19 21  1  0
 21 22  1  0
 22 23  1  0
 23 24  2  0
 23 25  1  0
 25 26  2  0
 25 30  1  0
 26 27  1  0
 27 28  2  0
 28 29  1  0
 29 30  2  0
 30 31  1  0
M  END
>  <minimizedAffinity>  (394) 
-9.03759

$$$$
cs_full_output_folder/data/smiles/6456.pdb
     RDKit          3D

 32 36  0  0  0  0  0  0  0  0999 V2000
   71.7974   46.8701   58.9304 C   0  0  0  0  0  0  0  0  0  0  0  0
   70.5486   47.1608   58.3853 C   0  0  0  0  0  0  0  0  0  0  0  0
   70.3289   48.1785   57.5003 C   0  0  0  0  0  0  0  0  0  0  0  0
   71.4296   48.9452   57.1459 C   0  0  0  0  0  0  0  0  0  0  0  0
   72.6683   48.6698   57.6764 C   0  0  0  0  0  0  0  0  0  0  0  0
   72.8679   47.6382   58.5682 C   0  0  0  0  0  0  0  0  0  0  0  0
   74.1124   47.4024   59.0666 F   0  0  0  0  0  0  0  0  0  0  0  0
   71.8031   45.9781   61.0817 O   0  0  0  0  0  0  0  0  0  0  0  0
   71.9828   45.7752   59.8677 C   0  0  0  0  0  0  0  0  0  0  0  0
   72.3648   44.4971   59.3707 N   0  0  0  0  0  0  0  0  0  0  0  0
   72.5577   43.3629   60.2142 C   0  0  0  0  0  0  0  0  0  0  0  0
   72.7757   42.1802   59.2996 C   0  0  0  0  0  0  0  0  0  0  0  0
   72.5081   42.5906   57.9294 C   0  0  2  0  0  0  0  0  0  0  0  0
   72.6356   44.1091   58.0101 C   0  0  0  0  0  0  0  0  0  0  0  0
   71.3304   42.2995   57.2593 N   0  0  0  0  0  0  0  0  0  0  0  0
   70.0703   42.3449   57.8668 C   0  0  0  0  0  0  0  0  0  0  0  0
   69.4785   40.9165   57.9877 C   0  0  0  0  0  0  0  0  0  0  0  0
   68.0042   41.3200   58.1446 C   0  0  0  0  0  0  0  0  0  0  0  0
   67.8519   42.1061   56.8611 C   0  0  0  0  0  0  0  0  0  0  0  0
   69.0794   43.0060   56.9046 C   0  0  0  0  0  0  0  0  0  0  0  0
   68.9851   48.4715   56.9278 C   0  0  0  0  0  0  0  0  0  0  0  0
   68.7645   47.6003   55.7935 C   0  0  0  0  0  0  0  0  0  0  0  0
   68.1114   46.4241   56.0485 N   0  0  0  0  0  0  0  0  0  0  0  0
   67.7736   45.5653   55.1308 N   0  0  0  0  0  0  0  0  0  0  0  0
   68.0314   45.7420   53.8406 C   0  0  0  0  0  0  0  0  0  0  0  0
   67.7321   44.9544   52.9159 O   0  0  0  0  0  0  0  0  0  0  0  0
   68.6972   46.9141   53.4889 C   0  0  0  0  0  0  0  0  0  0  0  0
   69.0260   47.1847   52.1818 C   0  0  0  0  0  0  0  0  0  0  0  0
   69.7084   48.3482   51.8412 C   0  0  0  0  0  0  0  0  0  0  0  0
   70.0509   49.2313   52.8423 C   0  0  0  0  0  0  0  0  0  0  0  0
   69.7340   48.9877   54.1634 C   0  0  0  0  0  0  0  0  0  0  0  0
   69.0565   47.8282   54.4713 C   0  0  0  0  0  0  0  0  0  0  0  0
  8  9  2  0
  9  1  1  0
  9 10  1  0
  1  2  2  0
  1  6  1  0
  2  3  1  0
  3 21  1  0
  3  4  2  0
 21 22  1  0
 22 23  2  0
 22 32  1  0
 23 24  1  0
 24 25  1  0
 25 26  2  0
 25 27  1  0
 27 28  1  0
 27 32  2  0
 28 29  2  0
 29 30  1  0
 30 31  2  0
 31 32  1  0
  4  5  1  0
  5  6  2  0
  6  7  1  0
 10 11  1  0
 10 14  1  0
 11 12  1  0
 12 13  1  0
 13 15  1  1
 13 14  1  0
 15 16  1  0
 16 17  1  0
 16 20  1  0
 17 18  1  0
 18 19  1  0
 19 20  1  0
M  CHG  1  15   1
M  END
>  <minimizedAffinity>  (395) 
-9.03722

$$$$
cs_full_output_folder/data/smiles/8359.pdb
     RDKit          3D

 30 34  0  0  0  0  0  0  0  0999 V2000
   71.4969   46.8470   58.8917 C   0  0  0  0  0  0  0  0  0  0  0  0
   70.7430   47.7103   58.0898 C   0  0  0  0  0  0  0  0  0  0  0  0
   69.8479   47.3033   57.1542 C   0  0  0  0  0  0  0  0  0  0  0  0
   69.6865   45.9308   57.0035 C   0  0  0  0  0  0  0  0  0  0  0  0
   70.4087   45.0572   57.7740 C   0  0  0  0  0  0  0  0  0  0  0  0
   71.3140   45.4965   58.7174 C   0  0  0  0  0  0  0  0  0  0  0  0
   72.0414   44.6536   59.4916 F   0  0  0  0  0  0  0  0  0  0  0  0
   76.2479   46.0696   59.4869 N   0  0  1  0  0  0  0  0  0  0  0  0
   75.1772   45.6506   58.6013 C   0  0  0  0  0  0  0  0  0  0  0  0
   74.4375   46.9118   58.2972 C   0  0  2  0  0  0  0  0  0  0  0  0
   75.6334   47.8814   58.2431 C   0  0  0  0  0  0  0  0  0  0  0  0
   76.1178   47.4932   59.6571 C   0  0  1  0  0  0  0  0  0  0  0  0
   74.8634   47.8726   60.4103 C   0  0  0  0  0  0  0  0  0  0  0  0
   73.8262   47.3750   59.5237 N   0  0  0  0  0  0  0  0  0  0  0  0
   72.4477   47.3796   59.8824 C   0  0  0  0  0  0  0  0  0  0  0  0
   72.0189   47.8028   60.9673 O   0  0  0  0  0  0  0  0  0  0  0  0
   75.4358   43.9859   60.4928 C   0  0  0  0  0  0  0  0  0  0  0  0
   76.1299   45.3260   60.7093 C   0  0  0  0  0  0  0  0  0  0  0  0
   69.0867   48.2592   56.3214 C   0  0  0  0  0  0  0  0  0  0  0  0
   69.5059   48.2899   54.9034 C   0  0  0  0  0  0  0  0  0  0  0  0
   70.4887   49.1551   54.5148 N   0  0  0  0  0  0  0  0  0  0  0  0
   70.9032   49.2934   53.2770 N   0  0  0  0  0  0  0  0  0  0  0  0
   70.3355   48.5458   52.3215 C   0  0  0  0  0  0  0  0  0  0  0  0
   70.6907   48.6325   51.1041 O   0  0  0  0  0  0  0  0  0  0  0  0
   69.3333   47.6350   52.5909 C   0  0  0  0  0  0  0  0  0  0  0  0
   68.7769   46.8672   51.5768 C   0  0  0  0  0  0  0  0  0  0  0  0
   67.7891   45.9600   51.8892 C   0  0  0  0  0  0  0  0  0  0  0  0
   67.3893   45.8488   53.2057 C   0  0  0  0  0  0  0  0  0  0  0  0
   67.9433   46.6123   54.2097 C   0  0  0  0  0  0  0  0  0  0  0  0
   68.9280   47.5249   53.9215 C   0  0  0  0  0  0  0  0  0  0  0  0
 17 18  1  0
  8 18  1  1
  8  9  1  0
  8 12  1  0
 10  9  1  1
 10 11  1  0
 10 14  1  0
 11 12  1  0
 12 13  1  1
 13 14  1  0
 14 15  1  0
 15 16  2  0
 15  1  1  0
  1  2  2  0
  1  6  1  0
  2  3  1  0
  3 19  1  0
  3  4  2  0
 19 20  1  0
 20 21  2  0
 20 30  1  0
 21 22  1  0
 22 23  1  0
 23 24  2  0
 23 25  1  0
 25 26  1  0
 25 30  2  0
 26 27  2  0
 27 28  1  0
 28 29  2  0
 29 30  1  0
  4  5  1  0
  5  6  2  0
  6  7  1  0
M  CHG  1   8   1
M  END
>  <minimizedAffinity>  (396) 
-9.03694

$$$$
cs_full_output_folder/data/smiles/2884.pdb
     RDKit          3D

 32 35  0  0  0  0  0  0  0  0999 V2000
   71.7495   46.9846   59.0501 C   0  0  0  0  0  0  0  0  0  0  0  0
   70.8248   47.7259   58.3000 C   0  0  0  0  0  0  0  0  0  0  0  0
   69.9735   47.1846   57.3831 C   0  0  0  0  0  0  0  0  0  0  0  0
   70.0449   45.7908   57.1950 C   0  0  0  0  0  0  0  0  0  0  0  0
   70.9414   45.0325   57.9138 C   0  0  0  0  0  0  0  0  0  0  0  0
   71.7865   45.6242   58.8339 C   0  0  0  0  0  0  0  0  0  0  0  0
   72.6846   44.8988   59.5573 F   0  0  0  0  0  0  0  0  0  0  0  0
   76.3913   49.3232   58.9382 N   0  0  0  0  0  0  0  0  0  0  0  0
   75.4783   49.8872   58.0005 C   0  0  0  0  0  0  0  0  0  0  0  0
   74.4755   48.9438   57.4433 C   0  0  0  0  0  0  0  0  0  0  0  0
   74.3285   47.6675   58.2286 C   0  0  0  0  0  0  0  0  0  0  0  0
   73.9376   47.9720   59.5829 N   0  0  0  0  0  0  0  0  0  0  0  0
   72.6310   47.6346   60.0172 C   0  0  0  0  0  0  0  0  0  0  0  0
   72.2515   47.8839   61.1794 O   0  0  0  0  0  0  0  0  0  0  0  0
   74.7581   48.6059   60.5950 C   0  0  0  0  0  0  0  0  0  0  0  0
   76.2120   48.4568   60.1144 C   0  0  0  0  0  0  0  0  0  0  0  0
   78.4465   47.2839   58.5327 C   0  0  0  0  0  0  0  0  0  0  0  0
   78.6645   48.7538   58.5666 C   0  0  0  0  0  0  0  0  0  0  0  0
   77.7452   49.6640   58.7478 C   0  0  0  0  0  0  0  0  0  0  0  0
   78.0971   51.0259   58.7583 N   0  0  0  0  0  0  0  0  0  0  0  0
   68.9794   47.9624   56.5892 C   0  0  0  0  0  0  0  0  0  0  0  0
   69.3429   48.1409   55.1808 C   0  0  0  0  0  0  0  0  0  0  0  0
   70.2820   49.0837   54.8478 N   0  0  0  0  0  0  0  0  0  0  0  0
   70.7081   49.2842   53.6299 N   0  0  0  0  0  0  0  0  0  0  0  0
   70.2831   48.6002   52.5753 C   0  0  0  0  0  0  0  0  0  0  0  0
   70.6771   48.7709   51.3880 O   0  0  0  0  0  0  0  0  0  0  0  0
   69.3223   47.6173   52.8220 C   0  0  0  0  0  0  0  0  0  0  0  0
   68.8354   46.8888   51.7672 C   0  0  0  0  0  0  0  0  0  0  0  0
   67.8699   45.9196   51.9863 C   0  0  0  0  0  0  0  0  0  0  0  0
   67.4230   45.7173   53.2825 C   0  0  0  0  0  0  0  0  0  0  0  0
   67.9272   46.4602   54.3249 C   0  0  0  0  0  0  0  0  0  0  0  0
   68.8843   47.4202   54.1116 C   0  0  0  0  0  0  0  0  0  0  0  0
 17 18  1  0
 18 19  2  0
 19 20  1  0
 19  8  1  0
  8  9  1  0
  8 16  1  0
  9 10  1  0
 10 11  1  0
 11 12  1  0
 12 13  1  0
 12 15  1  0
 13 14  2  0
 13  1  1  0
  1  2  2  0
  1  6  1  0
  2  3  1  0
  3 21  1  0
  3  4  2  0
 21 22  1  0
 22 23  2  0
 22 32  1  0
 23 24  1  0
 24 25  1  0
 25 26  2  0
 25 27  1  0
 27 28  1  0
 27 32  2  0
 28 29  2  0
 29 30  1  0
 30 31  2  0
 31 32  1  0
  4  5  1  0
  5  6  2  0
  6  7  1  0
 15 16  1  0
M  END
>  <minimizedAffinity>  (397) 
-9.03659

$$$$
cs_full_output_folder/data/smiles/4768.pdb
     RDKit          3D

 22 24  0  0  0  0  0  0  0  0999 V2000
   70.6339   48.5374   50.8697 O   0  0  0  0  0  0  0  0  0  0  0  0
   70.3103   48.3766   52.0824 C   0  0  0  0  0  0  0  0  0  0  0  0
   70.9351   49.0777   53.0382 N   0  0  0  0  0  0  0  0  0  0  0  0
   70.6268   48.9377   54.3191 N   0  0  0  0  0  0  0  0  0  0  0  0
   69.6646   48.0822   54.7592 C   0  0  0  0  0  0  0  0  0  0  0  0
   69.0080   47.3541   53.8053 C   0  0  0  0  0  0  0  0  0  0  0  0
   68.0270   46.4930   54.1532 C   0  0  0  0  0  0  0  0  0  0  0  0
   67.3511   45.7633   53.2071 C   0  0  0  0  0  0  0  0  0  0  0  0
   67.6783   45.9144   51.8858 C   0  0  0  0  0  0  0  0  0  0  0  0
   68.6692   46.7782   51.4646 C   0  0  0  0  0  0  0  0  0  0  0  0
   69.3259   47.4936   52.4411 C   0  0  0  0  0  0  0  0  0  0  0  0
   69.4501   47.9714   56.1860 C   0  0  0  0  0  0  0  0  0  0  0  0
   68.5686   49.0622   56.6890 C   0  0  0  0  0  0  0  0  0  0  0  0
   67.5207   48.9093   57.5493 C   0  0  0  0  0  0  0  0  0  0  0  0
   66.7790   50.0228   57.9605 C   0  0  0  0  0  0  0  0  0  0  0  0
   67.0799   51.2885   57.5148 C   0  0  0  0  0  0  0  0  0  0  0  0
   68.1459   51.4625   56.6361 C   0  0  0  0  0  0  0  0  0  0  0  0
   68.8553   50.3511   56.2501 C   0  0  0  0  0  0  0  0  0  0  0  0
   68.4393   52.7459   56.1925 O   0  0  0  0  0  0  0  0  0  0  0  0
   69.1879   53.6312   56.8138 O   0  0  0  0  0  0  0  0  0  0  0  0
   70.4492   53.7875   56.2668 C   0  0  0  0  0  0  0  0  0  0  0  0
   71.9252   52.6540   57.2922 I   0  0  0  0  0  0  0  0  0  0  0  0
  1  2  2  0
  2  3  1  0
  2 11  1  0
  3  4  1  0
  4  5  2  0
  5 12  1  0
  5  6  1  0
 12 13  1  0
 13 14  2  0
 13 18  1  0
 14 15  1  0
 15 16  2  0
 16 17  1  0
 17 19  1  0
 17 18  2  0
 19 20  1  0
 20 21  1  0
 21 22  1  0
  6  7  1  0
  6 11  2  0
  7  8  2  0
  8  9  1  0
  9 10  2  0
 10 11  1  0
M  END
>  <minimizedAffinity>  (398) 
-9.03457

$$$$
cs_full_output_folder/data/smiles/3034.pdb
     RDKit          3D

 33 37  0  0  0  0  0  0  0  0999 V2000
   71.7743   46.7353   58.8840 C   0  0  0  0  0  0  0  0  0  0  0  0
   70.5196   47.0037   58.3892 C   0  0  0  0  0  0  0  0  0  0  0  0
   70.2891   48.0886   57.5284 C   0  0  0  0  0  0  0  0  0  0  0  0
   71.3713   48.8555   57.2135 C   0  0  0  0  0  0  0  0  0  0  0  0
   72.6497   48.6259   57.6869 C   0  0  0  0  0  0  0  0  0  0  0  0
   72.8306   47.5529   58.5261 C   0  0  0  0  0  0  0  0  0  0  0  0
   74.0795   47.3138   59.0008 F   0  0  0  0  0  0  0  0  0  0  0  0
   71.8247   45.8082   61.0140 O   0  0  0  0  0  0  0  0  0  0  0  0
   72.0600   45.6411   59.7671 C   0  0  0  0  0  0  0  0  0  0  0  0
   72.5812   44.3916   59.3790 N   0  0  0  0  0  0  0  0  0  0  0  0
   72.8601   44.1628   57.9842 C   0  0  0  0  0  0  0  0  0  0  0  0
   72.0944   42.9482   57.5259 C   0  0  0  0  0  0  0  0  0  0  0  0
   72.1342   41.9028   58.5499 N   0  0  0  0  0  0  0  0  0  0  0  0
   73.1249   42.0511   59.5704 C   0  0  0  0  0  0  0  0  0  0  0  0
   72.8396   43.3437   60.3282 C   0  0  0  0  0  0  0  0  0  0  0  0
   71.2017   40.8355   58.4583 C   0  0  0  0  0  0  0  0  0  0  0  0
   71.5947   39.5246   58.5740 C   0  0  0  0  0  0  0  0  0  0  0  0
   70.6448   38.5369   58.4737 C   0  0  0  0  0  0  0  0  0  0  0  0
   69.3014   38.8526   58.2577 C   0  0  0  0  0  0  0  0  0  0  0  0
   68.9260   40.1267   58.1457 N   0  0  0  0  0  0  0  0  0  0  0  0
   69.8688   41.0827   58.2463 C   0  0  0  0  0  0  0  0  0  0  0  0
   68.9121   48.3200   57.0191 C   0  0  0  0  0  0  0  0  0  0  0  0
   68.6692   47.4113   55.8835 C   0  0  0  0  0  0  0  0  0  0  0  0
   68.2333   46.1348   56.1389 N   0  0  0  0  0  0  0  0  0  0  0  0
   67.9698   45.2946   55.1663 N   0  0  0  0  0  0  0  0  0  0  0  0
   68.1027   45.6153   53.8820 C   0  0  0  0  0  0  0  0  0  0  0  0
   67.8432   44.7948   52.9330 O   0  0  0  0  0  0  0  0  0  0  0  0
   68.5417   46.9018   53.5802 C   0  0  0  0  0  0  0  0  0  0  0  0
   68.8197   47.7783   54.6053 C   0  0  0  0  0  0  0  0  0  0  0  0
   69.3217   49.1008   54.2126 C   0  0  0  0  0  0  0  0  0  0  0  0
   70.3662   48.9290   53.0940 C   0  0  0  0  0  0  0  0  0  0  0  0
   69.8954   48.1009   51.9573 C   0  0  0  0  0  0  0  0  0  0  0  0
   68.6698   47.2963   52.1764 C   0  0  0  0  0  0  0  0  0  0  0  0
  8  9  2  0
  9  1  1  0
  9 10  1  0
  1  2  2  0
  1  6  1  0
  2  3  1  0
  3 22  1  0
  3  4  2  0
 22 23  1  0
 23 24  2  0
 23 29  1  0
 24 25  1  0
 25 26  1  0
 26 27  2  0
 26 28  1  0
 28 29  2  0
 28 33  1  0
 29 30  1  0
 30 31  1  0
 31 32  1  0
 32 33  1  0
  4  5  1  0
  5  6  2  0
  6  7  1  0
 10 11  1  0
 10 15  1  0
 11 12  1  0
 12 13  1  0
 13 16  1  0
 13 14  1  0
 16 17  2  0
 16 21  1  0
 17 18  1  0
 18 19  2  0
 19 20  1  0
 20 21  2  0
 14 15  1  0
M  END
>  <minimizedAffinity>  (399) 
-9.03262

$$$$
cs_full_output_folder/data/smiles/8554.pdb
     RDKit          3D

 31 34  0  0  0  0  0  0  0  0999 V2000
   70.7889   45.1552   58.1049 C   0  0  0  0  0  0  0  0  0  0  0  0
   69.8637   45.8651   57.3545 C   0  0  0  0  0  0  0  0  0  0  0  0
   69.9097   47.2236   57.1859 C   0  0  0  0  0  0  0  0  0  0  0  0
   70.9806   47.8589   57.8385 C   0  0  0  0  0  0  0  0  0  0  0  0
   71.9111   47.1967   58.5853 C   0  0  0  0  0  0  0  0  0  0  0  0
   71.8222   45.8187   58.7266 C   0  0  0  0  0  0  0  0  0  0  0  0
   72.7173   45.1113   59.4559 F   0  0  0  0  0  0  0  0  0  0  0  0
   69.7124   43.1277   57.1808 C   0  0  0  0  0  0  0  0  0  0  0  0
   70.6407   43.6667   58.2223 C   0  0  2  0  0  0  0  0  0  0  0  0
   70.1996   43.3394   59.6015 C   0  0  0  0  0  0  0  0  0  0  0  0
   69.1184   43.8590   59.9778 O   0  0  0  0  0  0  0  0  0  0  0  0
   70.8988   42.5085   60.4844 N   0  0  0  0  0  0  0  0  0  0  0  0
   72.1372   41.8901   60.0727 C   0  0  0  0  0  0  0  0  0  0  0  0
   73.2559   42.3547   60.9430 C   0  0  0  0  0  0  0  0  0  0  0  0
   72.8269   42.9946   62.2275 C   0  0  0  0  0  0  0  0  0  0  0  0
   72.2946   42.0329   63.1756 N   0  0  0  0  0  0  0  0  0  0  0  0
   71.9870   42.7502   64.3020 O   0  0  0  0  0  0  0  0  0  0  0  0
   71.0742   41.4224   62.6930 C   0  0  0  0  0  0  0  0  0  0  0  0
   70.2911   42.3341   61.7954 C   0  0  0  0  0  0  0  0  0  0  0  0
   68.9458   48.0069   56.3853 C   0  0  0  0  0  0  0  0  0  0  0  0
   69.2940   48.1975   54.9789 C   0  0  0  0  0  0  0  0  0  0  0  0
   70.1764   49.1855   54.6181 N   0  0  0  0  0  0  0  0  0  0  0  0
   70.5591   49.3867   53.3756 N   0  0  0  0  0  0  0  0  0  0  0  0
   70.1391   48.6636   52.3389 C   0  0  0  0  0  0  0  0  0  0  0  0
   70.4968   48.8433   51.1481 O   0  0  0  0  0  0  0  0  0  0  0  0
   69.2349   47.6314   52.6087 C   0  0  0  0  0  0  0  0  0  0  0  0
   68.7441   46.8465   51.5879 C   0  0  0  0  0  0  0  0  0  0  0  0
   67.8460   45.8431   51.8555 C   0  0  0  0  0  0  0  0  0  0  0  0
   67.4428   45.6327   53.1542 C   0  0  0  0  0  0  0  0  0  0  0  0
   67.9425   46.4250   54.1581 C   0  0  0  0  0  0  0  0  0  0  0  0
   68.8406   47.4329   53.9244 C   0  0  0  0  0  0  0  0  0  0  0  0
  9  8  1  6
  9 10  1  0
  9  1  1  0
 10 11  2  0
 10 12  1  0
 12 13  1  0
 12 19  1  0
 13 14  1  0
 14 15  1  0
 15 16  1  0
 16 17  1  0
 16 18  1  0
 18 19  1  0
  1  2  2  0
  1  6  1  0
  2  3  1  0
  3 20  1  0
  3  4  2  0
 20 21  1  0
 21 22  2  0
 21 31  1  0
 22 23  1  0
 23 24  1  0
 24 25  2  0
 24 26  1  0
 26 27  1  0
 26 31  2  0
 27 28  2  0
 28 29  1  0
 29 30  2  0
 30 31  1  0
  4  5  1  0
  5  6  2  0
  6  7  1  0
M  END
>  <minimizedAffinity>  (400) 
-9.02970

$$$$
cs_full_output_folder/data/smiles/8229.pdb
     RDKit          3D

 31 34  0  0  0  0  0  0  0  0999 V2000
   71.4654   47.2787   58.8531 C   0  0  0  0  0  0  0  0  0  0  0  0
   71.5500   45.9030   58.7474 C   0  0  0  0  0  0  0  0  0  0  0  0
   70.7443   45.2046   57.8952 C   0  0  0  0  0  0  0  0  0  0  0  0
   69.8120   45.8931   57.1115 C   0  0  0  0  0  0  0  0  0  0  0  0
   69.6851   47.2515   57.1738 C   0  0  0  0  0  0  0  0  0  0  0  0
   70.5436   47.9078   58.0696 C   0  0  0  0  0  0  0  0  0  0  0  0
   75.8378   48.2672   58.8723 C   0  0  0  0  0  0  0  0  0  0  0  0
   75.7126   49.5253   59.7491 C   0  0  0  0  0  0  0  0  0  0  0  0
   74.2810   49.4724   60.3012 C   0  0  0  0  0  0  0  0  0  0  0  0
   73.4055   48.8024   59.3627 N   0  0  0  0  0  0  0  0  0  0  0  0
   72.3483   47.9530   59.7814 C   0  0  0  0  0  0  0  0  0  0  0  0
   72.1711   47.7797   61.0151 O   0  0  0  0  0  0  0  0  0  0  0  0
   73.6801   49.0497   57.9465 C   0  0  0  0  0  0  0  0  0  0  0  0
   75.0773   48.6185   57.5966 C   0  0  0  0  0  0  0  0  0  0  0  0
   75.1478   47.2860   59.5340 O   0  0  0  0  0  0  0  0  0  0  0  0
   77.2772   46.1257   59.4355 C   0  0  0  0  0  0  0  0  0  0  0  0
   75.8104   46.1001   59.7313 C   0  0  0  0  0  0  0  0  0  0  0  0
   75.1401   45.0674   58.8497 C   0  0  0  0  0  0  0  0  0  0  0  0
   75.6089   45.6313   61.1686 C   0  0  0  0  0  0  0  0  0  0  0  0
   68.7165   48.0653   56.3602 C   0  0  0  0  0  0  0  0  0  0  0  0
   69.0925   48.2114   54.9612 C   0  0  0  0  0  0  0  0  0  0  0  0
   69.9817   49.2053   54.6350 N   0  0  0  0  0  0  0  0  0  0  0  0
   70.4380   49.4163   53.4377 N   0  0  0  0  0  0  0  0  0  0  0  0
   70.0848   48.6723   52.3753 C   0  0  0  0  0  0  0  0  0  0  0  0
   70.5260   48.8725   51.2175 O   0  0  0  0  0  0  0  0  0  0  0  0
   69.1895   47.6483   52.6193 C   0  0  0  0  0  0  0  0  0  0  0  0
   68.7557   46.8361   51.5861 C   0  0  0  0  0  0  0  0  0  0  0  0
   67.8525   45.8155   51.7912 C   0  0  0  0  0  0  0  0  0  0  0  0
   67.3995   45.6408   53.0865 C   0  0  0  0  0  0  0  0  0  0  0  0
   67.8151   46.4332   54.1335 C   0  0  0  0  0  0  0  0  0  0  0  0
   68.7079   47.4321   53.8990 C   0  0  0  0  0  0  0  0  0  0  0  0
 16 17  1  0
 17 18  1  0
 17 19  1  0
 17 15  1  0
 15  7  1  0
  7  8  1  0
  7 14  1  0
  8  9  1  0
  9 10  1  0
 10 11  1  0
 10 13  1  0
 11 12  2  0
 11  1  1  0
  1  2  2  0
  1  6  1  0
  2  3  1  0
  3  4  2  0
  4  5  1  0
  5 20  1  0
  5  6  2  0
 20 21  1  0
 21 22  2  0
 21 31  1  0
 22 23  1  0
 23 24  1  0
 24 25  2  0
 24 26  1  0
 26 27  1  0
 26 31  2  0
 27 28  2  0
 28 29  1  0
 29 30  2  0
 30 31  1  0
 13 14  1  0
M  END
>  <minimizedAffinity>  (401) 
-9.02827

$$$$
cs_full_output_folder/data/smiles/1338.pdb
     RDKit          3D

 27 28  0  0  0  0  0  0  0  0999 V2000
   69.8830   49.3905   52.8353 S   0  0  0  0  0  0  0  0  0  0  0  0
   69.7120   49.6241   51.3630 O   0  0  0  0  0  0  0  0  0  0  0  0
   71.3744   49.2946   53.0836 O   0  0  0  0  0  0  0  0  0  0  0  0
   69.1815   47.8849   53.3433 C   0  0  0  0  0  0  0  0  0  0  0  0
   68.5497   46.9837   52.5304 C   0  0  0  0  0  0  0  0  0  0  0  0
   68.4791   47.2659   51.2035 F   0  0  0  0  0  0  0  0  0  0  0  0
   67.9995   45.7984   53.0306 C   0  0  0  0  0  0  0  0  0  0  0  0
   67.3900   44.9540   52.1702 F   0  0  0  0  0  0  0  0  0  0  0  0
   68.0753   45.4933   54.3689 C   0  0  0  0  0  0  0  0  0  0  0  0
   67.5330   44.3385   54.8179 F   0  0  0  0  0  0  0  0  0  0  0  0
   68.7087   46.3940   55.1890 C   0  0  0  0  0  0  0  0  0  0  0  0
   68.7905   46.1039   56.5191 F   0  0  0  0  0  0  0  0  0  0  0  0
   69.2509   47.5635   54.6975 C   0  0  0  0  0  0  0  0  0  0  0  0
   69.8793   48.4489   55.5380 F   0  0  0  0  0  0  0  0  0  0  0  0
   69.2219   50.6710   53.7704 N   0  0  0  0  0  0  0  0  0  0  0  0
   71.5923   53.3811   55.9277 C   0  0  0  0  0  0  0  0  0  0  0  0
   72.0998   52.7375   54.8184 C   0  0  0  0  0  0  0  0  0  0  0  0
   71.2967   51.8470   54.1106 C   0  0  0  0  0  0  0  0  0  0  0  0
   69.9971   51.5982   54.5046 C   0  0  0  0  0  0  0  0  0  0  0  0
   69.4687   52.2461   55.6319 C   0  0  0  0  0  0  0  0  0  0  0  0
   70.2890   53.1093   56.2930 C   0  0  0  0  0  0  0  0  0  0  0  0
   68.1268   51.9425   55.9782 N   0  0  0  0  0  0  0  0  0  0  0  0
   67.7284   51.2680   57.1422 C   0  0  0  0  0  0  0  0  0  0  0  0
   66.3432   51.0146   57.3914 N   0  0  0  0  0  0  0  0  0  0  0  0
   68.6075   50.8955   57.9539 O   0  0  0  0  0  0  0  0  0  0  0  0
   72.9178   53.9018   57.8913 C   0  0  0  0  0  0  0  0  0  0  0  0
   72.3950   54.2692   56.6307 O   0  0  0  0  0  0  0  0  0  0  0  0
 26 27  1  0
 27 16  1  0
 16 17  2  0
 16 21  1  0
 17 18  1  0
 18 19  2  0
 19 15  1  0
 19 20  1  0
 15  1  1  0
  1  2  2  0
  1  3  2  0
  1  4  1  0
  4  5  2  0
  4 13  1  0
  5  6  1  0
  5  7  1  0
  7  8  1  0
  7  9  2  0
  9 10  1  0
  9 11  1  0
 11 12  1  0
 11 13  2  0
 13 14  1  0
 20 22  1  0
 20 21  2  0
 22 23  1  0
 23 24  1  0
 23 25  2  0
M  END
>  <minimizedAffinity>  (402) 
-9.02700

$$$$
cs_full_output_folder/data/smiles/5311.pdb
     RDKit          3D

 27 29  0  0  0  0  0  0  0  0999 V2000
   69.2609   47.8870   53.0481 C   0  0  0  0  0  0  0  0  0  0  0  0
   68.6139   47.4506   51.9249 C   0  0  0  0  0  0  0  0  0  0  0  0
   67.8865   46.3048   51.9199 C   0  0  0  0  0  0  0  0  0  0  0  0
   67.7959   45.5506   53.0964 C   0  0  0  0  0  0  0  0  0  0  0  0
   68.4322   45.9577   54.2447 C   0  0  0  0  0  0  0  0  0  0  0  0
   69.1484   47.1105   54.2016 C   0  0  0  0  0  0  0  0  0  0  0  0
   70.1840   49.3395   53.0560 S   0  0  0  0  0  0  0  0  0  0  0  0
   69.7347   50.2427   51.9423 O   0  0  0  0  0  0  0  0  0  0  0  0
   71.6466   49.0256   52.7751 O   0  0  0  0  0  0  0  0  0  0  0  0
   68.4993   50.1761   56.3862 C   0  0  0  0  0  0  0  0  0  0  0  0
   68.8287   50.5806   54.9484 C   0  0  1  0  0  0  0  0  0  0  0  0
   68.5698   52.0595   54.8410 C   0  0  0  0  0  0  0  0  0  0  0  0
   69.5848   52.8704   55.5878 C   0  0  0  0  0  0  0  0  0  0  0  0
   70.9485   52.2600   55.5781 C   0  0  0  0  0  0  0  0  0  0  0  0
   71.1242   51.2014   54.5443 C   0  0  0  0  0  0  0  0  0  0  0  0
   70.1342   50.1798   54.5549 N   0  0  0  0  0  0  0  0  0  0  0  0
   68.3096   45.1479   55.4317 C   0  0  0  0  0  0  0  0  0  0  0  0
   68.6381   45.5956   56.5862 O   0  0  0  0  0  0  0  0  0  0  0  0
   67.8280   43.8115   55.4547 N   0  0  0  0  0  0  0  0  0  0  0  0
   67.7184   43.0473   56.6128 N   0  0  0  0  0  0  0  0  0  0  0  0
   67.6039   41.6398   56.6409 C   0  0  0  0  0  0  0  0  0  0  0  0
   67.6041   41.0494   55.5352 O   0  0  0  0  0  0  0  0  0  0  0  0
   67.4904   40.8683   57.8795 C   0  0  0  0  0  0  0  0  0  0  0  0
   67.8855   39.6642   58.2457 C   0  0  0  0  0  0  0  0  0  0  0  0
   67.6332   39.2056   59.4875 C   0  0  0  0  0  0  0  0  0  0  0  0
   66.9570   40.0421   60.3389 C   0  0  0  0  0  0  0  0  0  0  0  0
   66.6616   41.5295   59.3603 S   0  0  0  0  0  0  0  0  0  0  0  0
 11 10  1  1
 11 12  1  0
 11 16  1  0
 12 13  1  0
 13 14  1  0
 14 15  1  0
 15 16  1  0
 16  7  1  0
  7  8  2  0
  7  9  2  0
  7  1  1  0
  1  2  2  0
  1  6  1  0
  2  3  1  0
  3  4  2  0
  4  5  1  0
  5 17  1  0
  5  6  2  0
 17 18  2  0
 17 19  1  0
 19 20  1  0
 20 21  1  0
 21 22  2  0
 21 23  1  0
 23 24  2  0
 23 27  1  0
 24 25  1  0
 25 26  2  0
 26 27  1  0
M  END
>  <minimizedAffinity>  (403) 
-9.02079

$$$$
cs_full_output_folder/data/smiles/1626.pdb
     RDKit          3D

 22 24  0  0  0  0  0  0  0  0999 V2000
   70.4763   48.8021   50.9992 O   0  0  0  0  0  0  0  0  0  0  0  0
   70.2089   48.5397   52.1887 C   0  0  0  0  0  0  0  0  0  0  0  0
   70.8358   49.2037   53.1754 N   0  0  0  0  0  0  0  0  0  0  0  0
   70.5767   48.9471   54.4466 N   0  0  0  0  0  0  0  0  0  0  0  0
   69.6924   48.0332   54.8749 C   0  0  0  0  0  0  0  0  0  0  0  0
   69.0224   47.3238   53.9020 C   0  0  0  0  0  0  0  0  0  0  0  0
   68.1037   46.3739   54.2546 C   0  0  0  0  0  0  0  0  0  0  0  0
   67.4578   45.6939   53.2157 C   0  0  0  0  0  0  0  0  0  0  0  0
   67.7202   45.9512   51.8882 C   0  0  0  0  0  0  0  0  0  0  0  0
   68.6342   46.8958   51.5419 C   0  0  0  0  0  0  0  0  0  0  0  0
   69.2863   47.5834   52.5567 C   0  0  0  0  0  0  0  0  0  0  0  0
   69.4536   47.7915   56.3287 C   0  0  0  0  0  0  0  0  0  0  0  0
   68.5776   48.8843   56.8122 C   0  0  0  0  0  0  0  0  0  0  0  0
   67.3904   48.6334   57.4625 C   0  0  0  0  0  0  0  0  0  0  0  0
   66.5834   49.6721   57.9074 C   0  0  0  0  0  0  0  0  0  0  0  0
   66.9756   50.9714   57.6944 C   0  0  0  0  0  0  0  0  0  0  0  0
   68.1785   51.2694   57.0347 C   0  0  0  0  0  0  0  0  0  0  0  0
   68.9241   50.2144   56.6245 C   0  0  0  0  0  0  0  0  0  0  0  0
   68.4932   52.6025   56.8693 O   0  0  0  0  0  0  0  0  0  0  0  0
   69.2772   53.1942   55.9051 C   0  0  0  0  0  0  0  0  0  0  0  0
   70.6519   53.6012   56.3135 C   0  0  0  0  0  0  0  0  0  0  0  0
   72.1391   52.3671   55.3619 I   0  0  0  0  0  0  0  0  0  0  0  0
  1  2  2  0
  2  3  1  0
  2 11  1  0
  3  4  1  0
  4  5  2  0
  5 12  1  0
  5  6  1  0
 12 13  1  0
 13 14  2  0
 13 18  1  0
 14 15  1  0
 15 16  2  0
 16 17  1  0
 17 19  1  0
 17 18  2  0
 19 20  1  0
 20 21  1  0
 21 22  1  0
  6  7  1  0
  6 11  2  0
  7  8  2  0
  8  9  1  0
  9 10  2  0
 10 11  1  0
M  END
>  <minimizedAffinity>  (404) 
-9.01995

$$$$
cs_full_output_folder/data/smiles/7510.pdb
     RDKit          3D

 30 33  0  0  0  0  0  0  0  0999 V2000
   71.5131   47.2683   58.9216 C   0  0  0  0  0  0  0  0  0  0  0  0
   70.5941   47.8687   58.1211 C   0  0  0  0  0  0  0  0  0  0  0  0
   69.7908   47.1773   57.2242 C   0  0  0  0  0  0  0  0  0  0  0  0
   69.9273   45.8265   57.1376 C   0  0  0  0  0  0  0  0  0  0  0  0
   70.8576   45.1498   57.9355 C   0  0  0  0  0  0  0  0  0  0  0  0
   71.6275   45.8818   58.8077 C   0  0  0  0  0  0  0  0  0  0  0  0
   72.5329   45.2450   59.5879 F   0  0  0  0  0  0  0  0  0  0  0  0
   76.0550   48.3613   59.5808 C   0  0  2  0  0  0  0  0  0  0  0  0
   76.0234   48.3842   58.0905 C   0  0  0  0  0  0  0  0  0  0  0  0
   74.6539   48.1396   57.5152 C   0  0  0  0  0  0  0  0  0  0  0  0
   73.6047   49.0677   58.0260 C   0  0  0  0  0  0  0  0  0  0  0  0
   73.3853   48.8900   59.4465 N   0  0  0  0  0  0  0  0  0  0  0  0
   72.3613   48.0083   59.8678 C   0  0  0  0  0  0  0  0  0  0  0  0
   72.1644   47.8480   61.0949 O   0  0  0  0  0  0  0  0  0  0  0  0
   74.1105   49.5298   60.5189 C   0  0  0  0  0  0  0  0  0  0  0  0
   75.6041   49.6575   60.2065 C   0  0  0  0  0  0  0  0  0  0  0  0
   78.2645   48.9542   59.3285 C   0  0  0  0  0  0  0  0  0  0  0  0
   77.3636   48.1239   59.9950 O   0  0  0  0  0  0  0  0  0  0  0  0
   68.7980   47.9070   56.4160 C   0  0  0  0  0  0  0  0  0  0  0  0
   69.1593   48.1297   55.0190 C   0  0  0  0  0  0  0  0  0  0  0  0
   70.0191   49.1505   54.7438 N   0  0  0  0  0  0  0  0  0  0  0  0
   70.4611   49.4380   53.5465 N   0  0  0  0  0  0  0  0  0  0  0  0
   70.0693   48.7099   52.4945 C   0  0  0  0  0  0  0  0  0  0  0  0
   70.4750   48.9589   51.3274 O   0  0  0  0  0  0  0  0  0  0  0  0
   69.1870   47.6512   52.7168 C   0  0  0  0  0  0  0  0  0  0  0  0
   68.7717   46.9063   51.6362 C   0  0  0  0  0  0  0  0  0  0  0  0
   67.8888   45.8613   51.8262 C   0  0  0  0  0  0  0  0  0  0  0  0
   67.4347   45.5767   53.0947 C   0  0  0  0  0  0  0  0  0  0  0  0
   67.8383   46.3081   54.1839 C   0  0  0  0  0  0  0  0  0  0  0  0
   68.7244   47.3582   54.0037 C   0  0  0  0  0  0  0  0  0  0  0  0
 17 18  1  0
  8 18  1  6
  8  9  1  0
  8 16  1  0
  9 10  1  0
 10 11  1  0
 11 12  1  0
 12 13  1  0
 12 15  1  0
 13 14  2  0
 13  1  1  0
  1  2  2  0
  1  6  1  0
  2  3  1  0
  3 19  1  0
  3  4  2  0
 19 20  1  0
 20 21  2  0
 20 30  1  0
 21 22  1  0
 22 23  1  0
 23 24  2  0
 23 25  1  0
 25 26  1  0
 25 30  2  0
 26 27  2  0
 27 28  1  0
 28 29  2  0
 29 30  1  0
  4  5  1  0
  5  6  2  0
  6  7  1  0
 15 16  1  0
M  END
>  <minimizedAffinity>  (405) 
-9.01448

$$$$
cs_full_output_folder/data/smiles/9617.pdb
     RDKit          3D

 30 32  0  0  0  0  0  0  0  0999 V2000
   71.4826   48.2916   59.0206 C   0  0  0  0  0  0  0  0  0  0  0  0
   72.3844   49.2152   59.4824 C   0  0  0  0  0  0  0  0  0  0  0  0
   73.3580   48.8557   60.4209 C   0  0  0  0  0  0  0  0  0  0  0  0
   73.3999   47.5614   60.8761 C   0  0  0  0  0  0  0  0  0  0  0  0
   72.4785   46.6672   60.3889 C   0  0  0  0  0  0  0  0  0  0  0  0
   71.5146   46.9785   59.4742 C   0  0  0  0  0  0  0  0  0  0  0  0
   68.5861   49.4904   56.2225 O   0  0  0  0  0  0  0  0  0  0  0  0
   69.3694   48.5622   55.8158 C   0  0  0  0  0  0  0  0  0  0  0  0
   70.3529   48.1456   56.7503 N   0  0  0  0  0  0  0  0  0  0  0  0
   70.4836   48.6985   58.0446 C   0  0  0  0  0  0  0  0  0  0  0  0
   69.6409   49.6177   58.3278 O   0  0  0  0  0  0  0  0  0  0  0  0
   69.2233   48.0022   54.4783 C   0  0  0  0  0  0  0  0  0  0  0  0
   69.9006   48.4733   53.3922 C   0  0  0  0  0  0  0  0  0  0  0  0
   69.7485   47.9279   52.1176 C   0  0  0  0  0  0  0  0  0  0  0  0
   68.8876   46.8728   51.9252 C   0  0  0  0  0  0  0  0  0  0  0  0
   68.1954   46.3868   53.0237 C   0  0  0  0  0  0  0  0  0  0  0  0
   67.3463   45.3436   52.8239 F   0  0  0  0  0  0  0  0  0  0  0  0
   68.3529   46.9312   54.2688 C   0  0  0  0  0  0  0  0  0  0  0  0
   70.5451   46.0771   58.9491 N   0  0  0  0  0  0  0  0  0  0  0  0
   70.9163   45.0214   58.0676 C   0  0  0  0  0  0  0  0  0  0  0  0
   72.1565   44.9660   57.8068 O   0  0  0  0  0  0  0  0  0  0  0  0
   69.9768   44.0756   57.5037 C   0  0  0  0  0  0  0  0  0  0  0  0
   69.8371   42.7841   57.9312 C   0  0  0  0  0  0  0  0  0  0  0  0
   68.9115   41.9185   57.3466 C   0  0  0  0  0  0  0  0  0  0  0  0
   68.1069   42.3312   56.3193 C   0  0  0  0  0  0  0  0  0  0  0  0
   68.2421   43.6390   55.8784 C   0  0  0  0  0  0  0  0  0  0  0  0
   69.1661   44.4863   56.4714 C   0  0  0  0  0  0  0  0  0  0  0  0
   67.1473   41.4524   55.7046 N   0  0  0  0  0  0  0  0  0  0  0  0
   67.4333   40.3069   55.3501 O   0  0  0  0  0  0  0  0  0  0  0  0
   65.8899   41.9238   55.5215 O   0  0  0  0  0  0  0  0  0  0  0  0
  7  8  2  0
  8  9  1  0
  8 12  1  0
  9 10  1  0
 10 11  2  0
 10  1  1  0
  1  2  2  0
  1  6  1  0
  2  3  1  0
  3  4  2  0
  4  5  1  0
  5  6  2  0
  6 19  1  0
 19 20  1  0
 20 21  2  0
 20 22  1  0
 22 23  2  0
 22 27  1  0
 23 24  1  0
 24 25  2  0
 25 28  1  0
 25 26  1  0
 28 29  2  0
 28 30  1  0
 26 27  2  0
 12 13  2  0
 12 18  1  0
 13 14  1  0
 14 15  2  0
 15 16  1  0
 16 17  1  0
 16 18  2  0
M  CHG  2  28   1  30  -1
M  END
>  <minimizedAffinity>  (406) 
-9.01289

$$$$
cs_full_output_folder/data/smiles/3036.pdb
     RDKit          3D

 33 37  0  0  0  0  0  0  0  0999 V2000
   71.6427   45.9245   58.9723 C   0  0  0  0  0  0  0  0  0  0  0  0
   72.6965   46.8485   58.9335 C   0  0  0  0  0  0  0  0  0  0  0  0
   72.5568   48.0730   58.3258 C   0  0  0  0  0  0  0  0  0  0  0  0
   71.3599   48.4066   57.7389 C   0  0  0  0  0  0  0  0  0  0  0  0
   70.2863   47.5089   57.7562 C   0  0  0  0  0  0  0  0  0  0  0  0
   70.4534   46.2783   58.3765 C   0  0  0  0  0  0  0  0  0  0  0  0
   71.2888   44.5506   60.8266 O   0  0  0  0  0  0  0  0  0  0  0  0
   71.8285   44.6806   59.6743 C   0  0  0  0  0  0  0  0  0  0  0  0
   72.5756   43.6185   59.1357 N   0  0  0  0  0  0  0  0  0  0  0  0
   73.1915   43.7643   57.8488 C   0  0  0  0  0  0  0  0  0  0  0  0
   74.0615   42.6239   57.4152 C   0  0  0  0  0  0  0  0  0  0  0  0
   74.6776   42.0287   58.5803 N   0  0  0  0  0  0  0  0  0  0  0  0
   73.7455   41.4667   59.5469 C   0  0  0  0  0  0  0  0  0  0  0  0
   72.6705   42.4076   59.9257 C   0  0  0  0  0  0  0  0  0  0  0  0
   76.0576   41.9435   58.7982 C   0  0  0  0  0  0  0  0  0  0  0  0
   76.5836   41.3105   59.8845 C   0  0  0  0  0  0  0  0  0  0  0  0
   77.9519   41.2300   60.0364 C   0  0  0  0  0  0  0  0  0  0  0  0
   78.8422   41.7654   59.1321 C   0  0  0  0  0  0  0  0  0  0  0  0
   80.1843   41.7020   59.2542 F   0  0  0  0  0  0  0  0  0  0  0  0
   78.2781   42.4056   58.0353 C   0  0  0  0  0  0  0  0  0  0  0  0
   76.9234   42.4992   57.8618 C   0  0  0  0  0  0  0  0  0  0  0  0
   69.0021   47.9359   57.1403 C   0  0  0  0  0  0  0  0  0  0  0  0
   68.7198   47.1789   55.8929 C   0  0  0  0  0  0  0  0  0  0  0  0
   68.1554   45.9281   55.9774 N   0  0  0  0  0  0  0  0  0  0  0  0
   67.8799   45.2318   54.9122 N   0  0  0  0  0  0  0  0  0  0  0  0
   68.1128   45.6489   53.6532 C   0  0  0  0  0  0  0  0  0  0  0  0
   67.8217   44.9230   52.6725 O   0  0  0  0  0  0  0  0  0  0  0  0
   68.6876   46.9143   53.4940 C   0  0  0  0  0  0  0  0  0  0  0  0
   68.9696   47.6307   54.6168 C   0  0  0  0  0  0  0  0  0  0  0  0
   69.5853   48.9652   54.4454 C   0  0  0  0  0  0  0  0  0  0  0  0
   70.4209   49.0278   53.2045 C   0  0  0  0  0  0  0  0  0  0  0  0
   69.6918   48.6113   51.9548 C   0  0  0  0  0  0  0  0  0  0  0  0
   68.9225   47.3469   52.1048 C   0  0  0  0  0  0  0  0  0  0  0  0
  7  8  2  0
  8  1  1  0
  8  9  1  0
  1  2  2  0
  1  6  1  0
  2  3  1  0
  3  4  2  0
  4  5  1  0
  5 22  1  0
  5  6  2  0
 22 23  1  0
 23 24  2  0
 23 29  1  0
 24 25  1  0
 25 26  1  0
 26 27  2  0
 26 28  1  0
 28 29  2  0
 28 33  1  0
 29 30  1  0
 30 31  1  0
 31 32  1  0
 32 33  1  0
  9 10  1  0
  9 14  1  0
 10 11  1  0
 11 12  1  0
 12 15  1  0
 12 13  1  0
 15 16  2  0
 15 21  1  0
 16 17  1  0
 17 18  2  0
 18 19  1  0
 18 20  1  0
 20 21  2  0
 13 14  1  0
M  END
>  <minimizedAffinity>  (407) 
-9.01168

$$$$
cs_full_output_folder/data/smiles/1060.pdb
     RDKit          3D

 30 33  0  0  0  0  0  0  0  0999 V2000
   71.4041   46.9988   58.8054 C   0  0  0  0  0  0  0  0  0  0  0  0
   70.5971   47.8075   58.0447 C   0  0  0  0  0  0  0  0  0  0  0  0
   69.6891   47.2738   57.1218 C   0  0  0  0  0  0  0  0  0  0  0  0
   69.6459   45.9191   57.0181 C   0  0  0  0  0  0  0  0  0  0  0  0
   70.4682   45.1001   57.7939 C   0  0  0  0  0  0  0  0  0  0  0  0
   71.3556   45.6302   58.6953 C   0  0  0  0  0  0  0  0  0  0  0  0
   72.1568   44.8129   59.4504 F   0  0  0  0  0  0  0  0  0  0  0  0
   75.9308   47.1741   59.2899 C   0  0  0  0  0  0  0  0  0  0  0  0
   75.6030   48.0160   58.0622 C   0  0  0  0  0  0  0  0  0  0  0  0
   74.0772   48.0994   57.9970 C   0  0  0  0  0  0  0  0  0  0  0  0
   73.5758   48.1596   59.3592 N   0  0  0  0  0  0  0  0  0  0  0  0
   72.3174   47.6408   59.7371 C   0  0  0  0  0  0  0  0  0  0  0  0
   71.9643   47.7363   60.9404 O   0  0  0  0  0  0  0  0  0  0  0  0
   74.4351   48.7883   60.3395 C   0  0  0  0  0  0  0  0  0  0  0  0
   75.7294   48.0400   60.5182 C   0  0  0  0  0  0  0  0  0  0  0  0
   77.1856   46.6281   59.2252 O   0  0  0  0  0  0  0  0  0  0  0  0
   76.5194   44.3124   58.9626 C   0  0  0  0  0  0  0  0  0  0  0  0
   77.2720   45.3528   59.7401 C   0  0  0  0  0  0  0  0  0  0  0  0
   68.8502   48.1793   56.2951 C   0  0  0  0  0  0  0  0  0  0  0  0
   69.2924   48.2254   54.9063 C   0  0  0  0  0  0  0  0  0  0  0  0
   70.2503   49.1346   54.5558 N   0  0  0  0  0  0  0  0  0  0  0  0
   70.7038   49.3038   53.3460 N   0  0  0  0  0  0  0  0  0  0  0  0
   70.2414   48.5625   52.3102 C   0  0  0  0  0  0  0  0  0  0  0  0
   70.7083   48.7625   51.1655 O   0  0  0  0  0  0  0  0  0  0  0  0
   69.2740   47.6274   52.6020 C   0  0  0  0  0  0  0  0  0  0  0  0
   68.7987   46.8511   51.5506 C   0  0  0  0  0  0  0  0  0  0  0  0
   67.8537   45.9075   51.7943 C   0  0  0  0  0  0  0  0  0  0  0  0
   67.3797   45.7341   53.0798 C   0  0  0  0  0  0  0  0  0  0  0  0
   67.8628   46.5134   54.1138 C   0  0  0  0  0  0  0  0  0  0  0  0
   68.8096   47.4649   53.8886 C   0  0  0  0  0  0  0  0  0  0  0  0
 17 18  1  0
 18 16  1  0
 16  8  1  0
  8  9  1  0
  8 15  1  0
  9 10  1  0
 10 11  1  0
 11 12  1  0
 11 14  1  0
 12 13  2  0
 12  1  1  0
  1  2  2  0
  1  6  1  0
  2  3  1  0
  3 19  1  0
  3  4  2  0
 19 20  1  0
 20 21  2  0
 20 30  1  0
 21 22  1  0
 22 23  1  0
 23 24  2  0
 23 25  1  0
 25 26  1  0
 25 30  2  0
 26 27  2  0
 27 28  1  0
 28 29  2  0
 29 30  1  0
  4  5  1  0
  5  6  2  0
  6  7  1  0
 14 15  1  0
M  END
>  <minimizedAffinity>  (408) 
-9.01017

$$$$
cs_full_output_folder/data/smiles/7233.pdb
     RDKit          3D

 32 35  0  0  0  0  0  0  0  0999 V2000
   71.9893   48.3214   59.0768 C   0  0  0  0  0  0  0  0  0  0  0  0
   71.0383   47.9808   58.1470 C   0  0  0  0  0  0  0  0  0  0  0  0
   70.5710   48.8782   57.2058 C   0  0  0  0  0  0  0  0  0  0  0  0
   71.1030   50.1392   57.2377 C   0  0  0  0  0  0  0  0  0  0  0  0
   72.0735   50.4992   58.1790 C   0  0  0  0  0  0  0  0  0  0  0  0
   72.5221   49.5912   59.1046 C   0  0  0  0  0  0  0  0  0  0  0  0
   73.4670   49.9068   60.0397 F   0  0  0  0  0  0  0  0  0  0  0  0
   74.0332   43.8565   59.0334 N   0  0  2  0  0  0  0  0  0  0  0  0
   74.3165   44.1509   60.3913 C   0  0  0  0  0  0  0  0  0  0  0  0
   73.6260   45.3598   60.9656 C   0  0  0  0  0  0  0  0  0  0  0  0
   73.4108   46.3653   59.8974 N   0  0  0  0  0  0  0  0  0  0  0  0
   72.3631   47.2851   60.0208 C   0  0  0  0  0  0  0  0  0  0  0  0
   71.6588   47.1915   61.0928 O   0  0  0  0  0  0  0  0  0  0  0  0
   74.3752   46.2288   58.8336 C   0  0  2  0  0  0  0  0  0  0  0  0
   74.5490   47.3903   57.9408 C   0  0  0  0  0  0  0  0  0  0  0  0
   73.9734   44.9353   58.1132 C   0  0  0  0  0  0  0  0  0  0  0  0
   72.8108   43.0849   58.9566 C   0  0  0  0  0  0  0  0  0  0  0  0
   71.9486   40.6566   58.7235 C   0  0  0  0  0  0  0  0  0  0  0  0
   73.0589   41.6432   58.7770 C   0  0  0  0  0  0  0  0  0  0  0  0
   74.1876   41.2181   58.6668 O   0  0  0  0  0  0  0  0  0  0  0  0
   69.5444   48.5394   56.2496 C   0  0  0  0  0  0  0  0  0  0  0  0
   69.8601   48.5106   54.8245 C   0  0  0  0  0  0  0  0  0  0  0  0
   70.7826   49.2993   54.2537 N   0  0  0  0  0  0  0  0  0  0  0  0
   71.0245   49.2937   52.9867 N   0  0  0  0  0  0  0  0  0  0  0  0
   70.3813   48.5053   52.1347 C   0  0  0  0  0  0  0  0  0  0  0  0
   70.6315   48.5109   50.8781 O   0  0  0  0  0  0  0  0  0  0  0  0
   69.4099   47.6519   52.6243 C   0  0  0  0  0  0  0  0  0  0  0  0
   68.7403   46.8175   51.7645 C   0  0  0  0  0  0  0  0  0  0  0  0
   67.7798   45.9445   52.2113 C   0  0  0  0  0  0  0  0  0  0  0  0
   67.5091   45.9330   53.5562 C   0  0  0  0  0  0  0  0  0  0  0  0
   68.1886   46.7769   54.4109 C   0  0  0  0  0  0  0  0  0  0  0  0
   69.1625   47.6723   54.0031 C   0  0  0  0  0  0  0  0  0  0  0  0
 18 19  1  0
 19 20  2  0
 19 17  1  0
  8 17  1  1
  8  9  1  0
  8 16  1  0
  9 10  1  0
 10 11  1  0
 11 12  1  0
 11 14  1  0
 12 13  2  0
 12  1  1  0
  1  2  2  0
  1  6  1  0
  2  3  1  0
  3 21  1  0
  3  4  2  0
 21 22  1  0
 22 23  2  0
 22 32  1  0
 23 24  1  0
 24 25  1  0
 25 26  2  0
 25 27  1  0
 27 28  1  0
 27 32  2  0
 28 29  2  0
 29 30  1  0
 30 31  2  0
 31 32  1  0
  4  5  1  0
  5  6  2  0
  6  7  1  0
 14 15  1  6
 14 16  1  0
M  CHG  1   8   1
M  END
>  <minimizedAffinity>  (409) 
-9.00567

$$$$
cs_full_output_folder/data/smiles/1598.pdb
     RDKit          3D

 30 33  0  0  0  0  0  0  0  0999 V2000
   70.7718   46.1470   58.2368 C   0  0  0  0  0  0  0  0  0  0  0  0
   71.6802   47.0073   58.8880 C   0  0  0  0  0  0  0  0  0  0  0  0
   71.6981   48.3526   58.6500 C   0  0  0  0  0  0  0  0  0  0  0  0
   70.8200   48.9111   57.7601 C   0  0  0  0  0  0  0  0  0  0  0  0
   69.9140   48.0995   57.1072 C   0  0  0  0  0  0  0  0  0  0  0  0
   69.8954   46.7506   57.3408 C   0  0  0  0  0  0  0  0  0  0  0  0
   69.6489   44.3775   59.1381 O   0  0  0  0  0  0  0  0  0  0  0  0
   70.7740   44.7414   58.5395 C   0  0  0  0  0  0  0  0  0  0  0  0
   71.6697   43.6939   58.3426 N   0  0  0  0  0  0  0  0  0  0  0  0
   71.1428   42.3707   58.8007 C   0  0  0  0  0  0  0  0  0  0  0  0
   72.1484   41.2867   58.7502 C   0  0  0  0  0  0  0  0  0  0  0  0
   73.5050   41.6378   59.3124 C   0  0  0  0  0  0  0  0  0  0  0  0
   73.5732   42.9271   59.8710 N   0  0  2  0  0  0  0  0  0  0  0  0
   73.9426   43.9659   58.9398 C   0  0  0  0  0  0  0  0  0  0  0  0
   72.9585   43.8455   57.7756 C   0  0  0  0  0  0  0  0  0  0  0  0
   73.8623   43.1087   61.2307 C   0  0  0  0  0  0  0  0  0  0  0  0
   73.1589   44.3604   61.7634 C   0  0  0  0  0  0  0  0  0  0  0  0
   71.7855   44.2547   61.7031 O   0  0  0  0  0  0  0  0  0  0  0  0
   68.8848   48.7387   56.1939 C   0  0  0  0  0  0  0  0  0  0  0  0
   69.3324   48.5937   54.8343 C   0  0  0  0  0  0  0  0  0  0  0  0
   70.2296   49.5013   54.3691 N   0  0  0  0  0  0  0  0  0  0  0  0
   70.6385   49.5487   53.1039 N   0  0  0  0  0  0  0  0  0  0  0  0
   70.1864   48.6842   52.1774 C   0  0  0  0  0  0  0  0  0  0  0  0
   70.5549   48.7108   50.9907 O   0  0  0  0  0  0  0  0  0  0  0  0
   69.2783   47.7389   52.5766 C   0  0  0  0  0  0  0  0  0  0  0  0
   68.8050   46.8149   51.6631 C   0  0  0  0  0  0  0  0  0  0  0  0
   67.9074   45.8310   52.0437 C   0  0  0  0  0  0  0  0  0  0  0  0
   67.5076   45.8125   53.3745 C   0  0  0  0  0  0  0  0  0  0  0  0
   67.9788   46.7355   54.2875 C   0  0  0  0  0  0  0  0  0  0  0  0
   68.8693   47.7086   53.8858 C   0  0  0  0  0  0  0  0  0  0  0  0
  7  8  2  0
  8  1  1  0
  8  9  1  0
  1  2  2  0
  1  6  1  0
  2  3  1  0
  3  4  2  0
  4  5  1  0
  5 19  1  0
  5  6  2  0
 19 20  1  0
 20 21  2  0
 20 30  1  0
 21 22  1  0
 22 23  1  0
 23 24  2  0
 23 25  1  0
 25 26  1  0
 25 30  2  0
 26 27  2  0
 27 28  1  0
 28 29  2  0
 29 30  1  0
  9 10  1  0
  9 15  1  0
 10 11  1  0
 11 12  1  0
 12 13  1  0
 13 16  1  1
 13 14  1  0
 16 17  1  0
 17 18  1  0
 14 15  1  0
M  CHG  1  13   1
M  END
>  <minimizedAffinity>  (410) 
-9.00502

$$$$
cs_full_output_folder/data/smiles/86.pdb
     RDKit          3D

 25 26  0  0  0  0  0  0  0  0999 V2000
   69.5173   46.9571   57.4414 S   0  0  0  0  0  0  0  0  0  0  0  0
   69.2888   46.4698   58.8387 O   0  0  0  0  0  0  0  0  0  0  0  0
   70.9947   46.7272   57.1502 O   0  0  0  0  0  0  0  0  0  0  0  0
   69.1913   48.6837   57.4331 C   0  0  0  0  0  0  0  0  0  0  0  0
   70.1878   49.6284   57.3237 C   0  0  0  0  0  0  0  0  0  0  0  0
   71.4625   49.1923   57.2184 F   0  0  0  0  0  0  0  0  0  0  0  0
   69.9008   50.9612   57.3207 C   0  0  0  0  0  0  0  0  0  0  0  0
   70.8629   51.9260   57.2125 F   0  0  0  0  0  0  0  0  0  0  0  0
   68.5992   51.3884   57.4281 C   0  0  0  0  0  0  0  0  0  0  0  0
   68.3092   52.6989   57.4259 F   0  0  0  0  0  0  0  0  0  0  0  0
   67.5921   50.4329   57.5397 C   0  0  0  0  0  0  0  0  0  0  0  0
   66.3011   50.8133   57.6471 F   0  0  0  0  0  0  0  0  0  0  0  0
   67.8812   49.0946   57.5423 C   0  0  0  0  0  0  0  0  0  0  0  0
   66.8839   48.1705   57.6518 F   0  0  0  0  0  0  0  0  0  0  0  0
   68.5482   46.1038   56.3293 N   0  0  0  0  0  0  0  0  0  0  0  0
   69.2469   47.7912   53.1026 C   0  0  0  0  0  0  0  0  0  0  0  0
   68.5899   46.9893   52.1996 C   0  0  0  0  0  0  0  0  0  0  0  0
   67.9044   45.8721   52.6689 C   0  0  0  0  0  0  0  0  0  0  0  0
   67.8930   45.5845   54.0174 C   0  0  0  0  0  0  0  0  0  0  0  0
   68.5463   46.3747   54.9504 C   0  0  0  0  0  0  0  0  0  0  0  0
   69.2170   47.4780   54.4458 C   0  0  0  0  0  0  0  0  0  0  0  0
   69.3234   50.6181   53.1060 N   0  0  0  0  0  0  0  0  0  0  0  0
   70.1155   49.2084   52.5034 S   0  0  0  0  0  0  0  0  0  0  0  0
   70.0448   49.2649   51.0000 O   0  0  0  0  0  0  0  0  0  0  0  0
   71.5370   49.1946   52.9650 O   0  0  0  0  0  0  0  0  0  0  0  0
 22 23  1  0
 23 24  2  0
 23 25  2  0
 23 16  1  0
 16 17  2  0
 16 21  1  0
 17 18  1  0
 18 19  2  0
 19 20  1  0
 20 15  1  0
 20 21  2  0
 15  1  1  0
  1  2  2  0
  1  3  2  0
  1  4  1  0
  4  5  2  0
  4 13  1  0
  5  6  1  0
  5  7  1  0
  7  8  1  0
  7  9  2  0
  9 10  1  0
  9 11  1  0
 11 12  1  0
 11 13  2  0
 13 14  1  0
M  END
>  <minimizedAffinity>  (411) 
-8.99880

$$$$
cs_full_output_folder/data/smiles/3073.pdb
     RDKit          3D

 30 34  0  0  0  0  0  0  0  0999 V2000
   71.2535   45.7762   58.8954 C   0  0  0  0  0  0  0  0  0  0  0  0
   70.1215   46.3310   58.2889 C   0  0  0  0  0  0  0  0  0  0  0  0
   70.1304   47.5135   57.6423 C   0  0  0  0  0  0  0  0  0  0  0  0
   71.3647   48.1902   57.5972 C   0  0  0  0  0  0  0  0  0  0  0  0
   72.5084   47.7092   58.1656 C   0  0  0  0  0  0  0  0  0  0  0  0
   72.4257   46.4901   58.8140 C   0  0  0  0  0  0  0  0  0  0  0  0
   73.5532   45.9755   59.3964 F   0  0  0  0  0  0  0  0  0  0  0  0
   71.4421   44.4479   60.8402 O   0  0  0  0  0  0  0  0  0  0  0  0
   71.2268   44.5024   59.5905 C   0  0  0  0  0  0  0  0  0  0  0  0
   70.9607   43.3015   58.8865 N   0  0  0  0  0  0  0  0  0  0  0  0
   70.9258   42.0078   59.5212 C   0  0  0  0  0  0  0  0  0  0  0  0
   70.4680   40.9393   58.5753 C   0  0  0  0  0  0  0  0  0  0  0  0
   69.3765   41.3827   57.7377 N   0  0  0  0  0  0  0  0  0  0  0  0
   68.2163   40.8420   57.3668 C   0  0  0  0  0  0  0  0  0  0  0  0
   67.5569   41.7406   56.5475 C   0  0  0  0  0  0  0  0  0  0  0  0
   68.3528   42.8538   56.4271 C   0  0  0  0  0  0  0  0  0  0  0  0
   69.4835   42.6032   57.1801 C   0  0  0  0  0  0  0  0  0  0  0  0
   70.7168   43.3732   57.4667 C   0  0  0  0  0  0  0  0  0  0  0  0
   69.0226   48.2162   56.9753 C   0  0  0  0  0  0  0  0  0  0  0  0
   68.6818   47.4743   55.7637 C   0  0  0  0  0  0  0  0  0  0  0  0
   67.9816   46.3113   55.8636 N   0  0  0  0  0  0  0  0  0  0  0  0
   67.6910   45.5478   54.8489 N   0  0  0  0  0  0  0  0  0  0  0  0
   68.0870   45.8936   53.6150 C   0  0  0  0  0  0  0  0  0  0  0  0
   67.7969   45.1361   52.6319 O   0  0  0  0  0  0  0  0  0  0  0  0
   68.8018   47.0504   53.3875 C   0  0  0  0  0  0  0  0  0  0  0  0
   69.2023   47.4322   52.1148 C   0  0  0  0  0  0  0  0  0  0  0  0
   69.8942   48.6082   51.9553 C   0  0  0  0  0  0  0  0  0  0  0  0
   70.1858   49.3989   53.0315 C   0  0  0  0  0  0  0  0  0  0  0  0
   69.7809   49.0007   54.2813 C   0  0  0  0  0  0  0  0  0  0  0  0
   69.0915   47.8412   54.5058 C   0  0  0  0  0  0  0  0  0  0  0  0
  8  9  2  0
  9  1  1  0
  9 10  1  0
  1  2  2  0
  1  6  1  0
  2  3  1  0
  3 19  1  0
  3  4  2  0
 19 20  1  0
 20 21  2  0
 20 30  1  0
 21 22  1  0
 22 23  1  0
 23 24  2  0
 23 25  1  0
 25 26  1  0
 25 30  2  0
 26 27  2  0
 27 28  1  0
 28 29  2  0
 29 30  1  0
  4  5  1  0
  5  6  2  0
  6  7  1  0
 10 11  1  0
 10 18  1  0
 11 12  1  0
 12 13  1  0
 13 14  1  0
 13 17  1  0
 14 15  2  0
 15 16  1  0
 16 17  2  0
 17 18  1  0
M  END
>  <minimizedAffinity>  (412) 
-8.99750

$$$$
cs_full_output_folder/data/smiles/7517.pdb
     RDKit          3D

 31 34  0  0  0  0  0  0  0  0999 V2000
   70.7077   45.9775   58.0390 C   0  0  0  0  0  0  0  0  0  0  0  0
   69.8145   46.7193   57.3045 C   0  0  0  0  0  0  0  0  0  0  0  0
   69.9624   48.0858   57.0404 C   0  0  0  0  0  0  0  0  0  0  0  0
   71.0730   48.6994   57.5555 C   0  0  0  0  0  0  0  0  0  0  0  0
   72.0097   47.9760   58.3106 C   0  0  0  0  0  0  0  0  0  0  0  0
   71.8137   46.6374   58.5396 C   0  0  0  0  0  0  0  0  0  0  0  0
   72.7116   45.9465   59.2626 F   0  0  0  0  0  0  0  0  0  0  0  0
   69.5212   40.5924   62.1165 C   0  0  0  0  0  0  0  0  0  0  0  0
   70.2735   40.9563   60.8942 N   0  0  0  0  0  0  0  0  0  0  0  0
   71.6945   40.8765   61.0156 C   0  0  0  0  0  0  0  0  0  0  0  0
   69.6082   41.3416   59.7319 C   0  0  0  0  0  0  0  0  0  0  0  0
   68.3023   41.3484   59.8340 O   0  0  0  0  0  0  0  0  0  0  0  0
   70.0761   41.7217   58.4734 N   0  0  0  0  0  0  0  0  0  0  0  0
   69.1034   42.0863   57.3977 C   0  0  0  0  0  0  0  0  0  0  0  0
   69.2821   43.5441   57.0291 C   0  0  0  0  0  0  0  0  0  0  0  0
   70.3914   44.2585   58.2561 P   0  0  0  0  0  0  0  0  0  0  0  0
   69.7066   44.1009   59.6043 O   0  0  0  0  0  0  0  0  0  0  0  0
   71.9028   43.2524   58.2005 C   0  0  0  0  0  0  0  0  0  0  0  0
   71.4557   41.8066   58.0588 C   0  0  0  0  0  0  0  0  0  0  0  0
   68.9230   48.7764   56.2257 C   0  0  0  0  0  0  0  0  0  0  0  0
   69.2519   48.7045   54.8234 C   0  0  0  0  0  0  0  0  0  0  0  0
   70.1193   49.6454   54.3396 N   0  0  0  0  0  0  0  0  0  0  0  0
   70.5505   49.6378   53.0892 N   0  0  0  0  0  0  0  0  0  0  0  0
   70.1667   48.7049   52.2027 C   0  0  0  0  0  0  0  0  0  0  0  0
   70.5832   48.6973   50.9948 O   0  0  0  0  0  0  0  0  0  0  0  0
   69.2927   47.7134   52.5907 C   0  0  0  0  0  0  0  0  0  0  0  0
   68.8557   46.7593   51.7047 C   0  0  0  0  0  0  0  0  0  0  0  0
   67.9601   45.8080   52.1231 C   0  0  0  0  0  0  0  0  0  0  0  0
   67.5276   45.8407   53.4218 C   0  0  0  0  0  0  0  0  0  0  0  0
   67.9664   46.7982   54.3150 C   0  0  0  0  0  0  0  0  0  0  0  0
   68.8542   47.7462   53.9168 C   0  0  0  0  0  0  0  0  0  0  0  0
  8  9  1  0
  9 10  1  0
  9 11  1  0
 11 12  2  0
 11 13  1  0
 13 14  1  0
 13 19  1  0
 14 15  1  0
 15 16  1  0
 16 17  2  0
 16  1  1  0
 16 18  1  0
  1  2  2  0
  1  6  1  0
  2  3  1  0
  3 20  1  0
  3  4  2  0
 20 21  1  0
 21 22  2  0
 21 31  1  0
 22 23  1  0
 23 24  1  0
 24 25  2  0
 24 26  1  0
 26 27  1  0
 26 31  2  0
 27 28  2  0
 28 29  1  0
 29 30  2  0
 30 31  1  0
  4  5  1  0
  5  6  2  0
  6  7  1  0
 18 19  1  0
M  END
>  <minimizedAffinity>  (413) 
-8.99641

$$$$
cs_full_output_folder/data/smiles/1416.pdb
     RDKit          3D

 31 35  0  0  0  0  0  0  0  0999 V2000
   71.9197   47.5149   58.7340 C   0  0  0  0  0  0  0  0  0  0  0  0
   70.7884   47.8044   57.9712 C   0  0  0  0  0  0  0  0  0  0  0  0
   70.7968   48.7999   57.0220 C   0  0  0  0  0  0  0  0  0  0  0  0
   71.9483   49.5281   56.8188 C   0  0  0  0  0  0  0  0  0  0  0  0
   73.0631   49.2374   57.5756 C   0  0  0  0  0  0  0  0  0  0  0  0
   73.0639   48.2480   58.5237 C   0  0  0  0  0  0  0  0  0  0  0  0
   74.1785   47.9635   59.2727 F   0  0  0  0  0  0  0  0  0  0  0  0
   71.6931   46.8196   60.9331 O   0  0  0  0  0  0  0  0  0  0  0  0
   71.8722   46.4458   59.7470 C   0  0  0  0  0  0  0  0  0  0  0  0
   72.0127   45.0968   59.4235 N   0  0  0  0  0  0  0  0  0  0  0  0
   71.9414   44.0823   60.4514 C   0  0  0  0  0  0  0  0  0  0  0  0
   71.0805   42.9131   60.0287 C   0  0  0  0  0  0  0  0  0  0  0  0
   71.1535   42.6789   58.6601 N   0  0  0  0  0  0  0  0  0  0  0  0
   72.2625   43.1834   57.9641 C   0  0  0  0  0  0  0  0  0  0  0  0
   72.2436   44.7135   58.0328 C   0  0  0  0  0  0  0  0  0  0  0  0
   70.3456   41.6984   58.0532 C   0  0  0  0  0  0  0  0  0  0  0  0
   68.9291   42.1678   57.9103 C   0  0  0  0  0  0  0  0  0  0  0  0
   67.9937   41.5134   56.9577 C   0  0  0  0  0  0  0  0  0  0  0  0
   68.6051   42.8016   56.5927 C   0  0  0  0  0  0  0  0  0  0  0  0
   69.5934   49.1073   56.2179 C   0  0  0  0  0  0  0  0  0  0  0  0
   69.8146   48.7845   54.7859 C   0  0  0  0  0  0  0  0  0  0  0  0
   70.6957   49.4802   54.0472 N   0  0  0  0  0  0  0  0  0  0  0  0
   70.9516   49.2590   52.7714 N   0  0  0  0  0  0  0  0  0  0  0  0
   70.3033   48.2736   52.1316 C   0  0  0  0  0  0  0  0  0  0  0  0
   70.4994   48.0075   50.9105 O   0  0  0  0  0  0  0  0  0  0  0  0
   69.3813   47.5074   52.8102 C   0  0  0  0  0  0  0  0  0  0  0  0
   68.6983   46.4864   52.1655 C   0  0  0  0  0  0  0  0  0  0  0  0
   67.7643   45.7204   52.8716 C   0  0  0  0  0  0  0  0  0  0  0  0
   67.5553   46.0119   54.1905 C   0  0  0  0  0  0  0  0  0  0  0  0
   68.2218   47.0264   54.8626 C   0  0  0  0  0  0  0  0  0  0  0  0
   69.1323   47.7621   54.1458 C   0  0  0  0  0  0  0  0  0  0  0  0
  8  9  2  0
  9  1  1  0
  9 10  1  0
  1  2  2  0
  1  6  1  0
  2  3  1  0
  3 20  1  0
  3  4  2  0
 20 21  1  0
 21 22  2  0
 21 31  1  0
 22 23  1  0
 23 24  1  0
 24 25  2  0
 24 26  1  0
 26 27  1  0
 26 31  2  0
 27 28  2  0
 28 29  1  0
 29 30  2  0
 30 31  1  0
  4  5  1  0
  5  6  2  0
  6  7  1  0
 10 11  1  0
 10 15  1  0
 11 12  1  0
 12 13  1  0
 13 16  1  0
 13 14  1  0
 16 17  1  0
 17 18  1  0
 17 19  1  0
 18 19  1  0
 14 15  1  0
M  CHG  1  13   1
M  END
>  <minimizedAffinity>  (414) 
-8.99584

$$$$
cs_full_output_folder/data/smiles/4841.pdb
     RDKit          3D

 27 30  0  0  0  0  0  0  0  0999 V2000
   69.7297   47.5241   57.2794 C   0  0  0  0  0  0  0  0  0  0  0  0
   70.5050   48.3063   58.1127 C   0  0  0  0  0  0  0  0  0  0  0  0
   71.4607   47.7525   58.9329 C   0  0  0  0  0  0  0  0  0  0  0  0
   71.6543   46.3682   58.9248 C   0  0  0  0  0  0  0  0  0  0  0  0
   70.8942   45.5674   58.1042 C   0  0  0  0  0  0  0  0  0  0  0  0
   69.9521   46.1776   57.3041 C   0  0  0  0  0  0  0  0  0  0  0  0
   68.6944   48.1424   56.4159 C   0  0  0  0  0  0  0  0  0  0  0  0
   70.2505   49.2788   51.2942 O   0  0  0  0  0  0  0  0  0  0  0  0
   69.8714   48.9758   52.4787 C   0  0  0  0  0  0  0  0  0  0  0  0
   70.0249   49.8474   53.4916 N   0  0  0  0  0  0  0  0  0  0  0  0
   69.6310   49.5257   54.7050 N   0  0  0  0  0  0  0  0  0  0  0  0
   69.0579   48.3248   55.0160 C   0  0  0  0  0  0  0  0  0  0  0  0
   68.8963   47.4320   53.9973 C   0  0  0  0  0  0  0  0  0  0  0  0
   69.3023   47.7578   52.7315 C   0  0  0  0  0  0  0  0  0  0  0  0
   69.0975   46.7401   51.6601 C   0  0  0  0  0  0  0  0  0  0  0  0
   67.6773   46.2094   51.8767 C   0  0  0  0  0  0  0  0  0  0  0  0
   67.6202   45.4459   53.1600 C   0  0  0  0  0  0  0  0  0  0  0  0
   68.2689   46.1221   54.3250 C   0  0  0  0  0  0  0  0  0  0  0  0
   71.0848   44.1498   58.0917 N   0  0  0  0  0  0  0  0  0  0  0  0
   70.1209   43.0956   59.0149 S   0  0  0  0  0  0  0  0  0  0  0  0
   70.9920   42.2577   59.8962 O   0  0  0  0  0  0  0  0  0  0  0  0
   69.1964   43.8792   59.9390 O   0  0  0  0  0  0  0  0  0  0  0  0
   69.1308   42.0500   57.9986 C   0  0  0  0  0  0  0  0  0  0  0  0
   68.5349   42.5406   56.9103 C   0  0  0  0  0  0  0  0  0  0  0  0
   67.5855   41.2330   56.1961 S   0  0  0  0  0  0  0  0  0  0  0  0
   68.1616   40.0683   57.4603 C   0  0  0  0  0  0  0  0  0  0  0  0
   68.8418   40.7127   58.1383 O   0  0  0  0  0  0  0  0  0  0  0  0
  8  9  2  0
  9 10  1  0
  9 14  1  0
 10 11  1  0
 11 12  2  0
 12  7  1  0
 12 13  1  0
  7  1  1  0
  1  2  2  0
  1  6  1  0
  2  3  1  0
  3  4  2  0
  4  5  1  0
  5 19  1  0
  5  6  2  0
 19 20  1  0
 20 21  2  0
 20 22  2  0
 20 23  1  0
 23 24  2  0
 23 27  1  0
 24 25  2  0
 25 26  2  0
 26 27  1  0
 13 14  2  0
 13 18  1  0
 14 15  1  0
 15 16  1  0
 16 17  1  0
 17 18  1  0
M  END
>  <minimizedAffinity>  (415) 
-8.99284

$$$$
cs_full_output_folder/data/smiles/2726.pdb
     RDKit          3D

 31 34  0  0  0  0  0  0  0  0999 V2000
   71.4852   46.8874   58.8206 C   0  0  0  0  0  0  0  0  0  0  0  0
   70.5664   47.5771   58.0633 C   0  0  0  0  0  0  0  0  0  0  0  0
   69.6989   46.9625   57.1978 C   0  0  0  0  0  0  0  0  0  0  0  0
   69.7751   45.5636   57.1038 C   0  0  0  0  0  0  0  0  0  0  0  0
   70.6757   44.8354   57.8412 C   0  0  0  0  0  0  0  0  0  0  0  0
   71.5381   45.5183   58.7089 C   0  0  0  0  0  0  0  0  0  0  0  0
   72.4072   44.7991   59.4175 F   0  0  0  0  0  0  0  0  0  0  0  0
   74.8354   50.2768   58.7853 N   0  0  0  0  0  0  0  0  0  0  0  0
   74.7011   49.7926   57.4315 C   0  0  0  0  0  0  0  0  0  0  0  0
   75.0809   48.3505   57.3730 C   0  0  0  0  0  0  0  0  0  0  0  0
   74.0810   47.4430   58.0461 C   0  0  0  0  0  0  0  0  0  0  0  0
   73.7371   47.8653   59.3730 N   0  0  0  0  0  0  0  0  0  0  0  0
   72.3932   47.5607   59.7315 C   0  0  0  0  0  0  0  0  0  0  0  0
   71.9227   47.8607   60.8589 O   0  0  0  0  0  0  0  0  0  0  0  0
   74.4590   48.5364   60.4281 C   0  0  0  0  0  0  0  0  0  0  0  0
   75.4093   49.5782   59.9289 C   0  0  0  0  0  0  0  0  0  0  0  0
   73.1293   51.8786   58.5569 C   0  0  0  0  0  0  0  0  0  0  0  0
   74.3408   51.5768   58.9653 C   0  0  0  0  0  0  0  0  0  0  0  0
   75.1330   52.5660   59.5839 N   0  0  0  0  0  0  0  0  0  0  0  0
   68.6938   47.6648   56.3414 C   0  0  0  0  0  0  0  0  0  0  0  0
   69.1514   47.9313   54.9761 C   0  0  0  0  0  0  0  0  0  0  0  0
   70.0417   48.9446   54.7436 N   0  0  0  0  0  0  0  0  0  0  0  0
   70.4488   49.2478   53.5378 N   0  0  0  0  0  0  0  0  0  0  0  0
   70.0375   48.6047   52.4358 C   0  0  0  0  0  0  0  0  0  0  0  0
   70.4626   48.9393   51.2969 O   0  0  0  0  0  0  0  0  0  0  0  0
   69.1338   47.5618   52.5953 C   0  0  0  0  0  0  0  0  0  0  0  0
   68.7030   46.8728   51.4848 C   0  0  0  0  0  0  0  0  0  0  0  0
   67.8192   45.8353   51.6540 C   0  0  0  0  0  0  0  0  0  0  0  0
   67.3793   45.4939   52.9012 C   0  0  0  0  0  0  0  0  0  0  0  0
   67.8185   46.1944   54.0153 C   0  0  0  0  0  0  0  0  0  0  0  0
   68.7011   47.2401   53.8889 C   0  0  0  0  0  0  0  0  0  0  0  0
 17 18  2  0
 18 19  1  0
 18  8  1  0
  8  9  1  0
  8 16  1  0
  9 10  1  0
 10 11  1  0
 11 12  1  0
 12 13  1  0
 12 15  1  0
 13 14  2  0
 13  1  1  0
  1  2  2  0
  1  6  1  0
  2  3  1  0
  3 20  1  0
  3  4  2  0
 20 21  1  0
 21 22  2  0
 21 31  1  0
 22 23  1  0
 23 24  1  0
 24 25  2  0
 24 26  1  0
 26 27  1  0
 26 31  2  0
 27 28  2  0
 28 29  1  0
 29 30  2  0
 30 31  1  0
  4  5  1  0
  5  6  2  0
  6  7  1  0
 15 16  1  0
M  END
>  <minimizedAffinity>  (416) 
-8.99033

$$$$
cs_full_output_folder/data/smiles/220.pdb
     RDKit          3D

 28 30  0  0  0  0  0  0  0  0999 V2000
   69.2124   48.1443   53.1993 C   0  0  0  0  0  0  0  0  0  0  0  0
   68.7938   47.7029   51.9741 C   0  0  0  0  0  0  0  0  0  0  0  0
   68.2187   46.4482   51.8666 C   0  0  0  0  0  0  0  0  0  0  0  0
   68.0642   45.6411   52.9753 C   0  0  0  0  0  0  0  0  0  0  0  0
   68.4803   46.0670   54.2261 C   0  0  0  0  0  0  0  0  0  0  0  0
   69.0457   47.3177   54.2918 C   0  0  0  0  0  0  0  0  0  0  0  0
   69.9522   49.7152   53.4483 S   0  0  0  0  0  0  0  0  0  0  0  0
   71.4422   49.5713   53.6802 O   0  0  0  0  0  0  0  0  0  0  0  0
   69.7759   50.5311   52.1903 O   0  0  0  0  0  0  0  0  0  0  0  0
   68.4281   49.9918   56.9576 C   0  0  0  0  0  0  0  0  0  0  0  0
   69.6375   50.1656   56.0362 C   0  0  2  0  0  0  0  0  0  0  0  0
   70.6721   51.0074   56.7018 C   0  0  0  0  0  0  0  0  0  0  0  0
   70.2324   52.4558   56.6495 C   0  0  0  0  0  0  0  0  0  0  0  0
   70.1759   52.8200   55.1622 C   0  0  0  0  0  0  0  0  0  0  0  0
   69.1185   51.9810   54.5252 C   0  0  0  0  0  0  0  0  0  0  0  0
   69.2454   50.5792   54.7351 N   0  0  0  0  0  0  0  0  0  0  0  0
   68.3176   45.2126   55.4075 C   0  0  0  0  0  0  0  0  0  0  0  0
   68.6459   45.6531   56.5648 O   0  0  0  0  0  0  0  0  0  0  0  0
   67.8168   43.9027   55.4028 N   0  0  0  0  0  0  0  0  0  0  0  0
   67.6788   43.1200   56.5631 N   0  0  0  0  0  0  0  0  0  0  0  0
   67.5398   41.7161   56.5582 C   0  0  0  0  0  0  0  0  0  0  0  0
   67.5425   41.1560   55.4328 O   0  0  0  0  0  0  0  0  0  0  0  0
   67.3968   40.8954   57.7503 C   0  0  0  0  0  0  0  0  0  0  0  0
   66.6624   41.3468   58.8427 C   0  0  0  0  0  0  0  0  0  0  0  0
   66.5133   40.5872   59.9817 C   0  0  0  0  0  0  0  0  0  0  0  0
   67.0737   39.3740   60.0847 N   0  0  0  0  0  0  0  0  0  0  0  0
   67.8047   38.8815   59.0431 C   0  0  0  0  0  0  0  0  0  0  0  0
   67.9483   39.6465   57.9082 C   0  0  0  0  0  0  0  0  0  0  0  0
 11 10  1  1
 11 12  1  0
 11 16  1  0
 12 13  1  0
 13 14  1  0
 14 15  1  0
 15 16  1  0
 16  7  1  0
  7  8  2  0
  7  9  2  0
  7  1  1  0
  1  2  2  0
  1  6  1  0
  2  3  1  0
  3  4  2  0
  4  5  1  0
  5 17  1  0
  5  6  2  0
 17 18  2  0
 17 19  1  0
 19 20  1  0
 20 21  1  0
 21 22  2  0
 21 23  1  0
 23 24  2  0
 23 28  1  0
 24 25  1  0
 25 26  2  0
 26 27  1  0
 27 28  2  0
M  END
>  <minimizedAffinity>  (417) 
-8.98926

$$$$
cs_full_output_folder/data/smiles/4064.pdb
     RDKit          3D

 31 34  0  0  0  0  0  0  0  0999 V2000
   70.9953   46.2818   58.8500 C   0  0  0  0  0  0  0  0  0  0  0  0
   71.6730   47.4271   58.5053 C   0  0  0  0  0  0  0  0  0  0  0  0
   71.1441   48.3689   57.6542 C   0  0  0  0  0  0  0  0  0  0  0  0
   69.9029   48.1978   57.1085 C   0  0  0  0  0  0  0  0  0  0  0  0
   69.2140   47.0273   57.4638 C   0  0  0  0  0  0  0  0  0  0  0  0
   69.7716   46.1528   58.2894 N   0  0  0  0  0  0  0  0  0  0  0  0
   71.5033   45.2761   59.7296 N   0  0  0  0  0  0  0  0  0  0  0  0
   74.6616   44.2157   59.8336 O   0  0  0  0  0  0  0  0  0  0  0  0
   73.6268   44.2749   58.6374 S   0  0  0  0  0  0  0  0  0  0  0  0
   72.1224   44.1280   59.2659 C   0  0  0  0  0  0  0  0  0  0  0  0
   71.5388   42.8364   59.3140 C   0  0  0  0  0  0  0  0  0  0  0  0
   72.0035   42.0369   60.2066 O   0  0  0  0  0  0  0  0  0  0  0  0
   70.4994   42.3039   58.4985 N   0  0  0  0  0  0  0  0  0  0  0  0
   70.0789   40.9199   58.6777 C   0  0  0  0  0  0  0  0  0  0  0  0
   68.5786   40.9500   58.9406 C   0  0  0  0  0  0  0  0  0  0  0  0
   67.9970   41.4646   57.6468 C   0  0  0  0  0  0  0  0  0  0  0  0
   68.5686   42.4468   56.9792 C   0  0  0  0  0  0  0  0  0  0  0  0
   68.0651   42.9331   55.8041 F   0  0  0  0  0  0  0  0  0  0  0  0
   69.8208   43.0945   57.5096 C   0  0  0  0  0  0  0  0  0  0  0  0
   69.2538   49.1638   56.1836 C   0  0  0  0  0  0  0  0  0  0  0  0
   69.5186   48.9178   54.7549 C   0  0  0  0  0  0  0  0  0  0  0  0
   70.4888   49.6916   54.1540 N   0  0  0  0  0  0  0  0  0  0  0  0
   70.8383   49.5087   52.8976 N   0  0  0  0  0  0  0  0  0  0  0  0
   70.2772   48.5667   52.1302 C   0  0  0  0  0  0  0  0  0  0  0  0
   70.6326   48.4145   50.9345 O   0  0  0  0  0  0  0  0  0  0  0  0
   69.2955   47.7466   52.6531 C   0  0  0  0  0  0  0  0  0  0  0  0
   68.9426   47.9597   53.9800 C   0  0  0  0  0  0  0  0  0  0  0  0
   67.8440   47.1365   54.5437 C   0  0  0  0  0  0  0  0  0  0  0  0
   68.0520   45.7228   53.9748 C   0  0  0  0  0  0  0  0  0  0  0  0
   67.7287   45.8490   52.4894 C   0  0  0  0  0  0  0  0  0  0  0  0
   68.7137   46.7231   51.7665 C   0  0  0  0  0  0  0  0  0  0  0  0
  8  9  2  0
  9 10  2  0
 10  7  1  0
 10 11  1  0
  7  1  1  0
  1  2  2  0
  1  6  1  0
  2  3  1  0
  3  4  2  0
  4 20  1  0
  4  5  1  0
 20 21  1  0
 21 22  2  0
 21 27  1  0
 22 23  1  0
 23 24  1  0
 24 25  2  0
 24 26  1  0
 26 27  2  0
 26 31  1  0
 27 28  1  0
 28 29  1  0
 29 30  1  0
 30 31  1  0
  5  6  2  0
 11 12  2  0
 11 13  1  0
 13 14  1  0
 13 19  1  0
 14 15  1  0
 15 16  1  0
 16 17  2  0
 17 18  1  0
 17 19  1  0
M  END
>  <minimizedAffinity>  (418) 
-8.98660

$$$$
cs_full_output_folder/data/smiles/5809.pdb
     RDKit          3D

 33 37  0  0  0  0  0  0  0  0999 V2000
   71.3048   46.4875   58.8093 C   0  0  0  0  0  0  0  0  0  0  0  0
   70.5822   47.4165   58.0666 C   0  0  0  0  0  0  0  0  0  0  0  0
   69.6901   47.0940   57.0798 C   0  0  0  0  0  0  0  0  0  0  0  0
   69.5379   45.7100   56.8500 C   0  0  0  0  0  0  0  0  0  0  0  0
   70.2195   44.7554   57.5465 C   0  0  0  0  0  0  0  0  0  0  0  0
   71.0996   45.1477   58.5231 C   0  0  0  0  0  0  0  0  0  0  0  0
   71.8072   44.2253   59.2524 F   0  0  0  0  0  0  0  0  0  0  0  0
   76.7943   47.3863   61.5061 C   0  0  0  0  0  0  0  0  0  0  0  0
   75.8978   47.0823   60.3690 C   0  0  2  0  0  0  0  0  0  0  0  0
   74.4823   47.5018   60.7030 C   0  0  0  0  0  0  0  0  0  0  0  0
   73.6261   47.0330   59.6328 N   0  0  0  0  0  0  0  0  0  0  0  0
   72.2341   46.9451   59.8312 C   0  0  0  0  0  0  0  0  0  0  0  0
   71.7282   47.2733   60.9459 O   0  0  0  0  0  0  0  0  0  0  0  0
   74.2544   46.6599   58.3800 C   0  0  0  0  0  0  0  0  0  0  0  0
   75.1900   45.4788   58.6762 C   0  0  0  0  0  0  0  0  0  0  0  0
   75.8157   45.6520   60.0020 N   0  0  0  0  0  0  0  0  0  0  0  0
   76.2879   44.6350   60.8206 C   0  0  0  0  0  0  0  0  0  0  0  0
   76.7920   45.0637   61.9527 O   0  0  0  0  0  0  0  0  0  0  0  0
   76.3417   43.1940   60.6810 C   0  0  0  0  0  0  0  0  0  0  0  0
   77.2222   42.4249   61.6128 C   0  0  0  0  0  0  0  0  0  0  0  0
   77.4456   42.3935   60.1218 C   0  0  0  0  0  0  0  0  0  0  0  0
   68.9092   48.0626   56.2588 C   0  0  0  0  0  0  0  0  0  0  0  0
   69.3674   48.1488   54.8558 C   0  0  0  0  0  0  0  0  0  0  0  0
   70.3340   49.0596   54.5333 N   0  0  0  0  0  0  0  0  0  0  0  0
   70.7710   49.2744   53.3177 N   0  0  0  0  0  0  0  0  0  0  0  0
   70.2704   48.5798   52.2875 C   0  0  0  0  0  0  0  0  0  0  0  0
   70.6580   48.7503   51.0977 O   0  0  0  0  0  0  0  0  0  0  0  0
   69.2789   47.6289   52.5448 C   0  0  0  0  0  0  0  0  0  0  0  0
   68.7435   46.8764   51.5442 C   0  0  0  0  0  0  0  0  0  0  0  0
   67.7729   45.9153   51.7875 C   0  0  0  0  0  0  0  0  0  0  0  0
   67.3511   45.7305   53.0951 C   0  0  0  0  0  0  0  0  0  0  0  0
   67.8849   46.4838   54.1081 C   0  0  0  0  0  0  0  0  0  0  0  0
   68.8316   47.4198   53.8458 C   0  0  0  0  0  0  0  0  0  0  0  0
  9  8  1  1
  9 10  1  0
  9 16  1  0
 10 11  1  0
 11 12  1  0
 11 14  1  0
 12 13  2  0
 12  1  1  0
  1  2  2  0
  1  6  1  0
  2  3  1  0
  3 22  1  0
  3  4  2  0
 22 23  1  0
 23 24  2  0
 23 33  1  0
 24 25  1  0
 25 26  1  0
 26 27  2  0
 26 28  1  0
 28 29  1  0
 28 33  2  0
 29 30  2  0
 30 31  1  0
 31 32  2  0
 32 33  1  0
  4  5  1  0
  5  6  2  0
  6  7  1  0
 14 15  1  0
 15 16  1  0
 16 17  1  0
 17 18  2  0
 17 19  1  0
 19 20  1  0
 19 21  1  0
 20 21  1  0
M  END
>  <minimizedAffinity>  (419) 
-8.98645

$$$$
cs_full_output_folder/data/smiles/8645.pdb
     RDKit          3D

 25 27  0  0  0  0  0  0  0  0999 V2000
   69.5776   44.3903   57.2124 C   0  0  0  0  0  0  0  0  0  0  0  0
   70.1398   45.3058   57.9143 O   0  0  0  0  0  0  0  0  0  0  0  0
   68.7048   44.7113   56.1600 N   0  0  0  0  0  0  0  0  0  0  0  0
   72.3313   42.5283   58.2326 C   0  0  0  0  0  0  0  0  0  0  0  0
   70.8724   42.3016   57.8996 C   0  0  0  0  0  0  0  0  0  0  0  0
   69.8588   42.9832   57.5215 C   0  0  0  0  0  0  0  0  0  0  0  0
   69.0135   41.7947   57.4402 C   0  0  0  0  0  0  0  0  0  0  0  0
   70.1263   41.1215   57.9914 N   0  0  0  0  0  0  0  0  0  0  0  0
   70.3647   39.7512   58.4442 C   0  0  0  0  0  0  0  0  0  0  0  0
   69.4686   39.1409   59.2930 C   0  0  0  0  0  0  0  0  0  0  0  0
   69.6911   37.8570   59.7440 C   0  0  0  0  0  0  0  0  0  0  0  0
   70.8183   37.1414   59.3594 C   0  0  0  0  0  0  0  0  0  0  0  0
   71.1231   35.1788   60.0734 I   0  0  0  0  0  0  0  0  0  0  0  0
   71.7102   37.7500   58.5138 C   0  0  0  0  0  0  0  0  0  0  0  0
   71.4783   39.0602   58.0579 C   0  0  0  0  0  0  0  0  0  0  0  0
   68.3903   46.0873   55.8235 C   0  0  0  0  0  0  0  0  0  0  0  0
   68.5170   46.4265   54.4156 C   0  0  0  0  0  0  0  0  0  0  0  0
   67.8197   45.6516   53.4919 C   0  0  0  0  0  0  0  0  0  0  0  0
   67.9050   45.9201   52.1289 C   0  0  0  0  0  0  0  0  0  0  0  0
   68.6873   46.9627   51.6819 C   0  0  0  0  0  0  0  0  0  0  0  0
   69.3787   47.7322   52.5809 C   0  0  0  0  0  0  0  0  0  0  0  0
   69.2879   47.4567   53.9529 C   0  0  0  0  0  0  0  0  0  0  0  0
   70.2008   48.8265   52.1146 C   0  0  0  0  0  0  0  0  0  0  0  0
   69.7789   49.6323   51.0261 N   0  0  0  0  0  0  0  0  0  0  0  0
   71.2946   49.0768   52.6679 O   0  0  0  0  0  0  0  0  0  0  0  0
  4  5  1  0
  5  6  2  0
  5  8  1  0
  6  1  1  0
  6  7  1  0
  1  2  2  0
  1  3  1  0
  3 16  1  0
 16 17  1  0
 17 18  2  0
 17 22  1  0
 18 19  1  0
 19 20  2  0
 20 21  1  0
 21 23  1  0
 21 22  2  0
 23 24  1  0
 23 25  2  0
  7  8  1  0
  8  9  1  0
  9 10  2  0
  9 15  1  0
 10 11  1  0
 11 12  2  0
 12 13  1  0
 12 14  1  0
 14 15  2  0
M  END
>  <minimizedAffinity>  (420) 
-8.98191

$$$$
cs_full_output_folder/data/smiles/202.pdb
     RDKit          3D

 32 36  0  0  0  0  0  0  0  0999 V2000
   72.3568   48.0990   58.5874 C   0  0  0  0  0  0  0  0  0  0  0  0
   73.5864   48.6573   58.3430 C   0  0  0  0  0  0  0  0  0  0  0  0
   73.7887   49.5755   57.3369 C   0  0  0  0  0  0  0  0  0  0  0  0
   72.7166   49.9325   56.5657 C   0  0  0  0  0  0  0  0  0  0  0  0
   71.4261   49.4031   56.7549 C   0  0  0  0  0  0  0  0  0  0  0  0
   71.2940   48.5016   57.7633 C   0  0  0  0  0  0  0  0  0  0  0  0
   71.5076   47.4851   60.6986 O   0  0  0  0  0  0  0  0  0  0  0  0
   72.1313   47.1335   59.6520 C   0  0  0  0  0  0  0  0  0  0  0  0
   72.6072   45.8079   59.5208 N   0  0  0  0  0  0  0  0  0  0  0  0
   72.4035   44.8174   60.5581 C   0  0  0  0  0  0  0  0  0  0  0  0
   72.2119   43.4248   59.9655 C   0  0  0  0  0  0  0  0  0  0  0  0
   71.8060   43.4774   58.5999 N   0  0  0  0  0  0  0  0  0  0  0  0
   72.7105   44.1941   57.6867 C   0  0  0  0  0  0  0  0  0  0  0  0
   73.3221   45.3981   58.3354 C   0  0  0  0  0  0  0  0  0  0  0  0
   70.6338   42.9080   58.0430 C   0  0  0  0  0  0  0  0  0  0  0  0
   69.8068   43.5994   57.1914 C   0  0  0  0  0  0  0  0  0  0  0  0
   68.6515   43.0228   56.6470 C   0  0  0  0  0  0  0  0  0  0  0  0
   68.3307   41.7226   56.9708 C   0  0  0  0  0  0  0  0  0  0  0  0
   69.1750   41.0477   57.8268 C   0  0  0  0  0  0  0  0  0  0  0  0
   70.2747   41.6365   58.3288 N   0  0  0  0  0  0  0  0  0  0  0  0
   70.3268   49.8694   55.8436 C   0  0  0  0  0  0  0  0  0  0  0  0
   70.2275   49.1116   54.6006 C   0  0  0  0  0  0  0  0  0  0  0  0
   70.9458   49.5568   53.5255 N   0  0  0  0  0  0  0  0  0  0  0  0
   70.8985   49.0114   52.3394 N   0  0  0  0  0  0  0  0  0  0  0  0
   70.1301   47.9512   52.0640 C   0  0  0  0  0  0  0  0  0  0  0  0
   70.1180   47.4624   50.9026 O   0  0  0  0  0  0  0  0  0  0  0  0
   69.3660   47.4229   53.0836 C   0  0  0  0  0  0  0  0  0  0  0  0
   68.5729   46.3281   52.8731 C   0  0  0  0  0  0  0  0  0  0  0  0
   67.8313   45.8071   53.9146 C   0  0  0  0  0  0  0  0  0  0  0  0
   67.9117   46.4152   55.1661 C   0  0  0  0  0  0  0  0  0  0  0  0
   68.7079   47.5171   55.3837 C   0  0  0  0  0  0  0  0  0  0  0  0
   69.4317   48.0226   54.3515 C   0  0  0  0  0  0  0  0  0  0  0  0
  7  8  2  0
  8  1  1  0
  8  9  1  0
  1  2  2  0
  1  6  1  0
  2  3  1  0
  3  4  2  0
  4  5  1  0
  5 21  1  0
  5  6  2  0
 21 22  1  0
 22 23  2  0
 22 32  1  0
 23 24  1  0
 24 25  1  0
 25 26  2  0
 25 27  1  0
 27 28  1  0
 27 32  2  0
 28 29  2  0
 29 30  1  0
 30 31  2  0
 31 32  1  0
  9 10  1  0
  9 14  1  0
 10 11  1  0
 11 12  1  0
 12 15  1  0
 12 13  1  0
 15 16  2  0
 15 20  1  0
 16 17  1  0
 17 18  2  0
 18 19  1  0
 19 20  2  0
 13 14  1  0
M  END
>  <minimizedAffinity>  (421) 
-8.98019

$$$$
cs_full_output_folder/data/smiles/7936.pdb
     RDKit          3D

 31 35  0  0  0  0  0  0  0  0999 V2000
   71.3874   46.5976   58.8756 C   0  0  0  0  0  0  0  0  0  0  0  0
   70.6570   47.4741   58.1121 C   0  0  0  0  0  0  0  0  0  0  0  0
   69.7930   47.0648   57.1084 C   0  0  0  0  0  0  0  0  0  0  0  0
   69.6797   45.7171   56.8844 C   0  0  0  0  0  0  0  0  0  0  0  0
   70.4028   44.7841   57.6361 C   0  0  0  0  0  0  0  0  0  0  0  0
   71.2461   45.2478   58.6206 C   0  0  0  0  0  0  0  0  0  0  0  0
   71.9762   44.3744   59.3840 F   0  0  0  0  0  0  0  0  0  0  0  0
   71.7693   47.3677   61.0349 O   0  0  0  0  0  0  0  0  0  0  0  0
   72.2939   47.0773   59.9324 C   0  0  0  0  0  0  0  0  0  0  0  0
   73.6901   47.2036   59.7078 N   0  0  0  0  0  0  0  0  0  0  0  0
   74.2129   46.8466   58.4080 C   0  0  0  0  0  0  0  0  0  0  0  0
   75.1860   45.6989   58.6025 C   0  0  0  0  0  0  0  0  0  0  0  0
   75.8215   45.8762   59.8943 N   0  0  0  0  0  0  0  0  0  0  0  0
   76.3160   44.9775   60.8545 C   0  0  0  0  0  0  0  0  0  0  0  0
   76.5168   43.7214   60.7521 O   0  0  0  0  0  0  0  0  0  0  0  0
   76.5938   45.7657   62.1073 C   0  0  0  0  0  0  0  0  0  0  0  0
   76.9055   47.1306   61.5306 C   0  0  0  0  0  0  0  0  0  0  0  0
   76.0142   47.2172   60.3549 C   0  0  2  0  0  0  0  0  0  0  0  0
   74.5925   47.6769   60.7350 C   0  0  0  0  0  0  0  0  0  0  0  0
   69.0679   48.1172   56.3239 C   0  0  0  0  0  0  0  0  0  0  0  0
   69.4555   48.1804   54.9122 C   0  0  0  0  0  0  0  0  0  0  0  0
   70.4362   49.0610   54.5313 N   0  0  0  0  0  0  0  0  0  0  0  0
   70.8319   49.2194   53.2969 N   0  0  0  0  0  0  0  0  0  0  0  0
   70.2999   48.5225   52.2929 C   0  0  0  0  0  0  0  0  0  0  0  0
   70.6833   48.6798   51.1085 O   0  0  0  0  0  0  0  0  0  0  0  0
   69.3014   47.6075   52.5880 C   0  0  0  0  0  0  0  0  0  0  0  0
   68.7561   46.8748   51.5336 C   0  0  0  0  0  0  0  0  0  0  0  0
   67.7669   45.9498   51.8118 C   0  0  0  0  0  0  0  0  0  0  0  0
   67.3656   45.7974   53.1264 C   0  0  0  0  0  0  0  0  0  0  0  0
   67.9150   46.5313   54.1580 C   0  0  0  0  0  0  0  0  0  0  0  0
   68.9001   47.4550   53.8879 C   0  0  0  0  0  0  0  0  0  0  0  0
  8  9  2  0
  9  1  1  0
  9 10  1  0
  1  2  2  0
  1  6  1  0
  2  3  1  0
  3 20  1  0
  3  4  2  0
 20 21  1  0
 21 22  2  0
 21 31  1  0
 22 23  1  0
 23 24  1  0
 24 25  2  0
 24 26  1  0
 26 27  1  0
 26 31  2  0
 27 28  2  0
 28 29  1  0
 29 30  2  0
 30 31  1  0
  4  5  1  0
  5  6  2  0
  6  7  1  0
 10 11  1  0
 10 19  1  0
 11 12  1  0
 12 13  1  0
 13 14  1  0
 13 18  1  0
 14 15  2  0
 14 16  1  0
 16 17  1  0
 18 17  1  1
 18 19  1  0
M  END
>  <minimizedAffinity>  (422) 
-8.98012

$$$$
cs_full_output_folder/data/smiles/663.pdb
     RDKit          3D

 28 30  0  0  0  0  0  0  0  0999 V2000
   68.4661   45.9534   54.2859 C   0  0  0  0  0  0  0  0  0  0  0  0
   67.9886   45.5984   53.0647 C   0  0  0  0  0  0  0  0  0  0  0  0
   68.1686   46.4498   51.9710 C   0  0  0  0  0  0  0  0  0  0  0  0
   68.8258   47.6540   52.1020 C   0  0  0  0  0  0  0  0  0  0  0  0
   69.3167   48.0272   53.3359 C   0  0  0  0  0  0  0  0  0  0  0  0
   69.1216   47.1677   54.3893 C   0  0  0  0  0  0  0  0  0  0  0  0
   67.7702   43.8050   55.4473 N   0  0  0  0  0  0  0  0  0  0  0  0
   68.3127   45.1147   55.4661 C   0  0  0  0  0  0  0  0  0  0  0  0
   68.6758   45.5480   56.5989 O   0  0  0  0  0  0  0  0  0  0  0  0
   67.5704   41.6227   56.6039 C   0  0  0  0  0  0  0  0  0  0  0  0
   67.6273   41.0854   55.4466 O   0  0  0  0  0  0  0  0  0  0  0  0
   67.6423   43.0291   56.6262 N   0  0  0  0  0  0  0  0  0  0  0  0
   67.1500   38.1277   61.1619 C   0  0  0  0  0  0  0  0  0  0  0  0
   67.2448   39.0508   59.9868 C   0  0  0  0  0  0  0  0  0  0  0  0
   66.5390   40.2224   59.9365 C   0  0  0  0  0  0  0  0  0  0  0  0
   66.6350   41.0718   58.8405 C   0  0  0  0  0  0  0  0  0  0  0  0
   67.4400   40.7674   57.7678 C   0  0  0  0  0  0  0  0  0  0  0  0
   68.1434   39.5882   57.8281 C   0  0  0  0  0  0  0  0  0  0  0  0
   68.0605   38.7278   58.9132 C   0  0  0  0  0  0  0  0  0  0  0  0
   70.1565   49.5325   53.5762 S   0  0  0  0  0  0  0  0  0  0  0  0
   71.5845   49.3606   53.1382 O   0  0  0  0  0  0  0  0  0  0  0  0
   69.5267   50.5576   52.6745 O   0  0  0  0  0  0  0  0  0  0  0  0
   70.1213   50.1089   55.1632 N   0  0  0  0  0  0  0  0  0  0  0  0
   68.8481   50.4420   55.6924 C   0  0  0  0  0  0  0  0  0  0  0  0
   68.6969   51.8773   56.1001 C   0  0  0  0  0  0  0  0  0  0  0  0
   69.5984   52.8120   55.3451 C   0  0  0  0  0  0  0  0  0  0  0  0
   71.0060   52.3651   55.2129 C   0  0  0  0  0  0  0  0  0  0  0  0
   71.1967   50.9344   55.5783 C   0  0  0  0  0  0  0  0  0  0  0  0
 13 14  1  0
 14 15  2  0
 14 19  1  0
 15 16  1  0
 16 17  2  0
 17 10  1  0
 17 18  1  0
 10 11  2  0
 10 12  1  0
 12  7  1  0
  7  8  1  0
  8  9  2  0
  8  1  1  0
  1  2  2  0
  1  6  1  0
  2  3  1  0
  3  4  2  0
  4  5  1  0
  5 20  1  0
  5  6  2  0
 20 21  2  0
 20 22  2  0
 20 23  1  0
 23 24  1  0
 23 28  1  0
 24 25  1  0
 25 26  1  0
 26 27  1  0
 27 28  1  0
 18 19  2  0
M  END
>  <minimizedAffinity>  (423) 
-8.97658

$$$$
cs_full_output_folder/data/smiles/83.pdb
     RDKit          3D

 28 31  0  0  0  0  0  0  0  0999 V2000
   69.7473   40.1577   58.1821 N   0  0  0  0  0  0  0  0  0  0  0  0
   70.8907   41.0434   58.0568 C   0  0  0  0  0  0  0  0  0  0  0  0
   70.4847   42.4997   58.1951 C   0  0  0  0  0  0  0  0  0  0  0  0
   69.3561   42.8638   57.3187 C   0  0  0  0  0  0  0  0  0  0  0  0
   68.9774   44.0813   56.7942 C   0  0  0  0  0  0  0  0  0  0  0  0
   67.8730   43.8120   56.0568 N   0  0  0  0  0  0  0  0  0  0  0  0
   67.5856   42.5141   56.1206 N   0  0  0  0  0  0  0  0  0  0  0  0
   68.4824   41.8821   56.8962 C   0  0  0  0  0  0  0  0  0  0  0  0
   68.6608   40.4866   57.3235 C   0  0  0  0  0  0  0  0  0  0  0  0
   67.8848   39.5817   56.9493 O   0  0  0  0  0  0  0  0  0  0  0  0
   69.6108   35.7446   61.8737 C   0  0  0  0  0  0  0  0  0  0  0  0
   69.6530   36.8945   60.9174 C   0  0  0  0  0  0  0  0  0  0  0  0
   68.9819   38.0633   61.1849 C   0  0  0  0  0  0  0  0  0  0  0  0
   69.0164   39.1461   60.2922 C   0  0  0  0  0  0  0  0  0  0  0  0
   69.7220   39.0853   59.1137 C   0  0  0  0  0  0  0  0  0  0  0  0
   70.3871   37.9012   58.8691 C   0  0  0  0  0  0  0  0  0  0  0  0
   70.3615   36.8145   59.7494 C   0  0  0  0  0  0  0  0  0  0  0  0
   69.5778   45.3587   56.9587 N   0  0  0  0  0  0  0  0  0  0  0  0
   68.9490   46.7970   56.3040 S   0  0  0  0  0  0  0  0  0  0  0  0
   69.9694   47.8957   56.5708 O   0  0  0  0  0  0  0  0  0  0  0  0
   67.6876   47.2360   56.9802 O   0  0  0  0  0  0  0  0  0  0  0  0
   68.6896   46.7477   54.5990 C   0  0  0  0  0  0  0  0  0  0  0  0
   69.2634   47.7024   53.7859 C   0  0  0  0  0  0  0  0  0  0  0  0
   69.0526   47.6581   52.4187 C   0  0  0  0  0  0  0  0  0  0  0  0
   68.2639   46.6516   51.8682 C   0  0  0  0  0  0  0  0  0  0  0  0
   68.0360   46.5776   50.5285 F   0  0  0  0  0  0  0  0  0  0  0  0
   67.6876   45.6936   52.6767 C   0  0  0  0  0  0  0  0  0  0  0  0
   67.9099   45.7561   54.0345 C   0  0  0  0  0  0  0  0  0  0  0  0
 11 12  1  0
 12 13  2  0
 12 17  1  0
 13 14  1  0
 14 15  2  0
 15  1  1  0
 15 16  1  0
  1  2  1  0
  1  9  1  0
  2  3  1  0
  3  4  1  0
  4  5  1  0
  4  8  2  0
  5 18  1  0
  5  6  2  0
 18 19  1  0
 19 20  2  0
 19 21  2  0
 19 22  1  0
 22 23  2  0
 22 28  1  0
 23 24  1  0
 24 25  2  0
 25 26  1  0
 25 27  1  0
 27 28  2  0
  6  7  1  0
  7  8  1  0
  8  9  1  0
  9 10  2  0
 16 17  2  0
M  END
>  <minimizedAffinity>  (424) 
-8.97577

$$$$
cs_full_output_folder/data/smiles/81.pdb
     RDKit          3D

 31 34  0  0  0  0  0  0  0  0999 V2000
   71.4849   47.2997   58.8373 C   0  0  0  0  0  0  0  0  0  0  0  0
   70.6255   48.0021   58.0185 C   0  0  0  0  0  0  0  0  0  0  0  0
   69.7711   47.3601   57.1358 C   0  0  0  0  0  0  0  0  0  0  0  0
   69.7853   45.9822   57.0781 C   0  0  0  0  0  0  0  0  0  0  0  0
   70.6405   45.2638   57.8914 C   0  0  0  0  0  0  0  0  0  0  0  0
   71.4905   45.9218   58.7706 C   0  0  0  0  0  0  0  0  0  0  0  0
   72.3194   45.1946   59.5561 F   0  0  0  0  0  0  0  0  0  0  0  0
   72.1412   47.9195   60.9817 O   0  0  0  0  0  0  0  0  0  0  0  0
   72.3718   48.0022   59.7528 C   0  0  0  0  0  0  0  0  0  0  0  0
   73.4800   48.7713   59.3211 N   0  0  0  0  0  0  0  0  0  0  0  0
   73.6344   48.7890   57.9045 C   0  0  0  0  0  0  0  0  0  0  0  0
   74.8705   49.3741   57.3731 C   0  0  0  0  0  0  0  0  0  0  0  0
   76.0758   49.2945   58.2367 C   0  0  0  0  0  0  0  0  0  0  0  0
   75.9728   48.3062   59.2130 N   0  0  0  0  0  0  0  0  0  0  0  0
   75.5692   48.6566   60.5056 C   0  0  0  0  0  0  0  0  0  0  0  0
   74.2348   49.3833   60.3933 C   0  0  0  0  0  0  0  0  0  0  0  0
   76.2189   46.9742   58.8908 C   0  0  0  0  0  0  0  0  0  0  0  0
   75.7040   45.9479   59.8646 C   0  0  0  0  0  0  0  0  0  0  0  0
   75.3233   44.7839   59.2346 O   0  0  0  0  0  0  0  0  0  0  0  0
   68.8391   48.0785   56.2461 C   0  0  0  0  0  0  0  0  0  0  0  0
   69.3526   48.2668   54.8816 C   0  0  0  0  0  0  0  0  0  0  0  0
   70.2878   49.1623   54.5505 N   0  0  0  0  0  0  0  0  0  0  0  0
   70.7410   49.3197   53.3214 N   0  0  0  0  0  0  0  0  0  0  0  0
   70.2650   48.5623   52.3164 C   0  0  0  0  0  0  0  0  0  0  0  0
   70.7029   48.7225   51.1549 O   0  0  0  0  0  0  0  0  0  0  0  0
   69.2984   47.6240   52.6024 C   0  0  0  0  0  0  0  0  0  0  0  0
   68.7940   46.8318   51.5801 C   0  0  0  0  0  0  0  0  0  0  0  0
   67.8286   45.8930   51.8598 C   0  0  0  0  0  0  0  0  0  0  0  0
   67.3591   45.7312   53.1431 C   0  0  0  0  0  0  0  0  0  0  0  0
   67.8690   46.5249   54.1498 C   0  0  0  0  0  0  0  0  0  0  0  0
   68.8406   47.4742   53.8841 C   0  0  0  0  0  0  0  0  0  0  0  0
  8  9  2  0
  9  1  1  0
  9 10  1  0
  1  2  2  0
  1  6  1  0
  2  3  1  0
  3 20  1  0
  3  4  2  0
 20 21  1  0
 21 22  2  0
 21 31  1  0
 22 23  1  0
 23 24  1  0
 24 25  2  0
 24 26  1  0
 26 27  1  0
 26 31  2  0
 27 28  2  0
 28 29  1  0
 29 30  2  0
 30 31  1  0
  4  5  1  0
  5  6  2  0
  6  7  1  0
 10 11  1  0
 10 16  1  0
 11 12  1  0
 12 13  1  0
 13 14  1  0
 14 17  1  0
 14 15  1  0
 17 18  1  0
 18 19  1  0
 15 16  1  0
M  CHG  1  14   1
M  END
>  <minimizedAffinity>  (425) 
-8.97551

$$$$
cs_full_output_folder/data/smiles/79.pdb
     RDKit          3D

 33 37  0  0  0  0  0  0  0  0999 V2000
   72.5253   49.5940   57.6301 C   0  0  0  0  0  0  0  0  0  0  0  0
   71.3867   49.4833   56.8658 C   0  0  0  0  0  0  0  0  0  0  0  0
   70.3693   50.4366   56.8550 C   0  0  0  0  0  0  0  0  0  0  0  0
   70.5039   51.5381   57.6403 C   0  0  0  0  0  0  0  0  0  0  0  0
   71.6239   51.6913   58.4196 C   0  0  0  0  0  0  0  0  0  0  0  0
   72.6068   50.7344   58.4088 C   0  0  0  0  0  0  0  0  0  0  0  0
   73.7313   50.8595   59.1724 F   0  0  0  0  0  0  0  0  0  0  0  0
   74.5620   48.7141   56.8245 O   0  0  0  0  0  0  0  0  0  0  0  0
   73.6015   48.5922   57.6406 C   0  0  0  0  0  0  0  0  0  0  0  0
   73.6116   47.4963   58.5243 N   0  0  0  0  0  0  0  0  0  0  0  0
   74.7002   46.5571   58.4759 C   0  0  0  0  0  0  0  0  0  0  0  0
   74.3013   45.1212   58.5854 C   0  0  0  0  0  0  0  0  0  0  0  0
   72.9435   45.0574   59.0829 N   0  0  0  0  0  0  0  0  0  0  0  0
   72.5653   45.9669   60.1190 C   0  0  0  0  0  0  0  0  0  0  0  0
   72.5172   47.3510   59.4612 C   0  0  0  0  0  0  0  0  0  0  0  0
   72.0490   44.1128   58.5394 C   0  0  0  0  0  0  0  0  0  0  0  0
   72.3035   42.7667   58.3961 C   0  0  0  0  0  0  0  0  0  0  0  0
   71.3963   41.8678   57.8501 C   0  0  0  0  0  0  0  0  0  0  0  0
   70.1775   42.3361   57.4271 C   0  0  0  0  0  0  0  0  0  0  0  0
   69.9149   43.6811   57.5667 C   0  0  0  0  0  0  0  0  0  0  0  0
   70.8134   44.5012   58.0950 N   0  0  0  0  0  0  0  0  0  0  0  0
   69.1875   50.2287   55.9835 C   0  0  0  0  0  0  0  0  0  0  0  0
   68.8909   48.8258   55.6756 C   0  0  0  0  0  0  0  0  0  0  0  0
   68.5182   48.0026   56.7006 N   0  0  0  0  0  0  0  0  0  0  0  0
   68.2067   46.7336   56.5095 N   0  0  0  0  0  0  0  0  0  0  0  0
   68.2368   46.1815   55.2931 C   0  0  0  0  0  0  0  0  0  0  0  0
   67.9336   44.9777   55.1519 O   0  0  0  0  0  0  0  0  0  0  0  0
   68.6020   46.9406   54.1970 C   0  0  0  0  0  0  0  0  0  0  0  0
   68.9256   48.2634   54.4226 C   0  0  0  0  0  0  0  0  0  0  0  0
   69.3440   49.0955   53.2884 C   0  0  0  0  0  0  0  0  0  0  0  0
   69.9665   48.2399   52.2277 C   0  0  0  0  0  0  0  0  0  0  0  0
   68.9990   47.1767   51.7612 C   0  0  0  0  0  0  0  0  0  0  0  0
   68.6025   46.2601   52.8954 C   0  0  0  0  0  0  0  0  0  0  0  0
  8  9  2  0
  9  1  1  0
  9 10  1  0
  1  2  2  0
  1  6  1  0
  2  3  1  0
  3 22  1  0
  3  4  2  0
 22 23  1  0
 23 24  2  0
 23 29  1  0
 24 25  1  0
 25 26  1  0
 26 27  2  0
 26 28  1  0
 28 29  2  0
 28 33  1  0
 29 30  1  0
 30 31  1  0
 31 32  1  0
 32 33  1  0
  4  5  1  0
  5  6  2  0
  6  7  1  0
 10 11  1  0
 10 15  1  0
 11 12  1  0
 12 13  1  0
 13 16  1  0
 13 14  1  0
 16 17  2  0
 16 21  1  0
 17 18  1  0
 18 19  2  0
 19 20  1  0
 20 21  2  0
 14 15  1  0
M  END
>  <minimizedAffinity>  (426) 
-8.97282

$$$$
cs_full_output_folder/data/smiles/3804.pdb
     RDKit          3D

 30 33  0  0  0  0  0  0  0  0999 V2000
   71.3968   44.2771   57.9164 C   0  0  0  0  0  0  0  0  0  0  0  0
   72.5425   44.9464   58.2806 C   0  0  0  0  0  0  0  0  0  0  0  0
   72.4988   46.3290   58.5093 C   0  0  0  0  0  0  0  0  0  0  0  0
   71.2736   46.9847   58.3557 C   0  0  0  0  0  0  0  0  0  0  0  0
   70.1182   46.3277   57.9923 C   0  0  0  0  0  0  0  0  0  0  0  0
   70.2310   44.9509   57.7784 C   0  0  0  0  0  0  0  0  0  0  0  0
   70.8563   42.5010   59.8307 O   0  0  0  0  0  0  0  0  0  0  0  0
   71.2171   41.9295   58.7202 C   0  0  0  0  0  0  0  0  0  0  0  0
   71.5073   42.8462   57.6923 N   0  0  0  0  0  0  0  0  0  0  0  0
   71.2770   40.4945   58.6645 C   0  0  0  0  0  0  0  0  0  0  0  0
   70.0992   39.7506   58.4934 C   0  0  0  0  0  0  0  0  0  0  0  0
   70.1183   38.3818   58.4275 C   0  0  0  0  0  0  0  0  0  0  0  0
   71.2862   37.6583   58.5252 C   0  0  0  0  0  0  0  0  0  0  0  0
   71.2602   36.2976   58.4533 F   0  0  0  0  0  0  0  0  0  0  0  0
   72.4462   38.3640   58.6929 C   0  0  0  0  0  0  0  0  0  0  0  0
   72.4194   39.7741   58.7600 C   0  0  0  0  0  0  0  0  0  0  0  0
   73.6113   40.4203   58.9354 F   0  0  0  0  0  0  0  0  0  0  0  0
   68.8992   46.9700   57.8374 O   0  0  0  0  0  0  0  0  0  0  0  0
   68.7541   47.9814   56.8789 C   0  0  0  0  0  0  0  0  0  0  0  0
   68.5983   47.4464   55.5023 C   0  0  0  0  0  0  0  0  0  0  0  0
   67.8087   46.3923   55.2137 N   0  0  0  0  0  0  0  0  0  0  0  0
   67.6760   45.9188   53.9865 N   0  0  0  0  0  0  0  0  0  0  0  0
   68.3101   46.4385   52.9095 C   0  0  0  0  0  0  0  0  0  0  0  0
   68.1682   45.9742   51.7543 O   0  0  0  0  0  0  0  0  0  0  0  0
   69.1224   47.5089   53.1431 C   0  0  0  0  0  0  0  0  0  0  0  0
   69.2649   48.0059   54.4227 C   0  0  0  0  0  0  0  0  0  0  0  0
   70.1465   49.1487   54.6253 C   0  0  0  0  0  0  0  0  0  0  0  0
   69.9048   50.1990   53.5933 C   0  0  0  0  0  0  0  0  0  0  0  0
   69.5224   49.6738   52.2462 C   0  0  0  0  0  0  0  0  0  0  0  0
   69.8831   48.1900   52.0663 C   0  0  0  0  0  0  0  0  0  0  0  0
  7  8  2  0
  8  9  1  0
  8 10  1  0
  9  1  1  0
  1  2  2  0
  1  6  1  0
  2  3  1  0
  3  4  2  0
  4  5  1  0
  5 18  1  0
  5  6  2  0
 18 19  1  0
 19 20  1  0
 20 21  2  0
 20 26  1  0
 21 22  1  0
 22 23  1  0
 23 24  2  0
 23 25  1  0
 25 26  2  0
 25 30  1  0
 26 27  1  0
 27 28  1  0
 28 29  1  0
 29 30  1  0
 10 11  2  0
 10 16  1  0
 11 12  1  0
 12 13  2  0
 13 14  1  0
 13 15  1  0
 15 16  2  0
 16 17  1  0
M  END
>  <minimizedAffinity>  (427) 
-8.97120

$$$$
cs_full_output_folder/data/smiles/6200.pdb
     RDKit          3D

 30 34  0  0  0  0  0  0  0  0999 V2000
   71.9690   47.7239   58.5816 C   0  0  0  0  0  0  0  0  0  0  0  0
   70.9890   48.3908   57.8387 C   0  0  0  0  0  0  0  0  0  0  0  0
   69.9884   47.7619   57.1739 C   0  0  0  0  0  0  0  0  0  0  0  0
   69.9567   46.3643   57.2506 C   0  0  0  0  0  0  0  0  0  0  0  0
   70.8848   45.6558   57.9591 C   0  0  0  0  0  0  0  0  0  0  0  0
   71.8799   46.3478   58.6164 C   0  0  0  0  0  0  0  0  0  0  0  0
   72.8112   45.6631   59.3253 F   0  0  0  0  0  0  0  0  0  0  0  0
   72.9780   48.4181   60.5524 O   0  0  0  0  0  0  0  0  0  0  0  0
   73.0238   48.4386   59.2803 C   0  0  0  0  0  0  0  0  0  0  0  0
   74.0544   49.1274   58.5901 N   0  0  0  0  0  0  0  0  0  0  0  0
   74.4584   49.3884   57.2270 C   0  0  0  0  0  0  0  0  0  0  0  0
   75.8826   49.4375   57.7158 C   0  0  0  0  0  0  0  0  0  0  0  0
   75.2005   49.9018   59.0114 C   0  0  0  0  0  0  0  0  0  0  0  0
   76.7135   50.4708   57.1417 N   0  0  0  0  0  0  0  0  0  0  0  0
   76.9995   50.2280   55.7403 C   0  0  0  0  0  0  0  0  0  0  0  0
   78.1019   49.1868   55.7203 C   0  0  0  0  0  0  0  0  0  0  0  0
   78.7236   49.1853   57.1082 C   0  0  0  0  0  0  0  0  0  0  0  0
   78.0317   50.3539   57.7683 C   0  0  0  0  0  0  0  0  0  0  0  0
   68.9198   48.4387   56.3810 C   0  0  0  0  0  0  0  0  0  0  0  0
   69.2917   48.4391   54.9893 C   0  0  0  0  0  0  0  0  0  0  0  0
   70.2380   49.3542   54.6118 N   0  0  0  0  0  0  0  0  0  0  0  0
   70.7056   49.4242   53.3831 N   0  0  0  0  0  0  0  0  0  0  0  0
   70.2884   48.6022   52.4050 C   0  0  0  0  0  0  0  0  0  0  0  0
   70.7442   48.6753   51.2254 O   0  0  0  0  0  0  0  0  0  0  0  0
   69.3312   47.6405   52.6806 C   0  0  0  0  0  0  0  0  0  0  0  0
   68.8610   46.7850   51.7094 C   0  0  0  0  0  0  0  0  0  0  0  0
   67.8994   45.8569   52.0255 C   0  0  0  0  0  0  0  0  0  0  0  0
   67.4246   45.8058   53.3172 C   0  0  0  0  0  0  0  0  0  0  0  0
   67.9019   46.6747   54.3049 C   0  0  0  0  0  0  0  0  0  0  0  0
   68.8594   47.5969   53.9938 C   0  0  0  0  0  0  0  0  0  0  0  0
  8  9  2  0
  9  1  1  0
  9 10  1  0
  1  2  2  0
  1  6  1  0
  2  3  1  0
  3 19  1  0
  3  4  2  0
 19 20  1  0
 20 21  2  0
 20 30  1  0
 21 22  1  0
 22 23  1  0
 23 24  2  0
 23 25  1  0
 25 26  1  0
 25 30  2  0
 26 27  2  0
 27 28  1  0
 28 29  2  0
 29 30  1  0
  4  5  1  0
  5  6  2  0
  6  7  1  0
 10 11  1  0
 10 13  1  0
 11 12  1  0
 12 14  1  0
 12 13  1  0
 14 15  1  0
 14 18  1  0
 15 16  1  0
 16 17  1  0
 17 18  1  0
M  CHG  1  14   1
M  END
>  <minimizedAffinity>  (428) 
-8.97115

$$$$
cs_full_output_folder/data/smiles/4327.pdb
     RDKit          3D

 28 30  0  0  0  0  0  0  0  0999 V2000
   68.9033   46.7410   54.7066 C   0  0  0  0  0  0  0  0  0  0  0  0
   69.5678   47.9520   54.8164 C   0  0  0  0  0  0  0  0  0  0  0  0
   69.7368   48.8307   53.7818 C   0  0  0  0  0  0  0  0  0  0  0  0
   69.2110   48.4890   52.5525 C   0  0  0  0  0  0  0  0  0  0  0  0
   68.5325   47.2845   52.3826 C   0  0  0  0  0  0  0  0  0  0  0  0
   68.3882   46.4266   53.4660 C   0  0  0  0  0  0  0  0  0  0  0  0
   67.5314   44.9257   53.2131 Cl  0  0  0  0  0  0  0  0  0  0  0  0
   68.4182   44.4771   55.6414 N   0  0  0  0  0  0  0  0  0  0  0  0
   68.7543   45.8409   55.8529 C   0  0  0  0  0  0  0  0  0  0  0  0
   68.9147   46.2388   57.0390 O   0  0  0  0  0  0  0  0  0  0  0  0
   67.2035   42.1173   55.2959 O   0  0  0  0  0  0  0  0  0  0  0  0
   67.6116   42.3302   56.4735 C   0  0  0  0  0  0  0  0  0  0  0  0
   68.2616   43.5695   56.6999 N   0  0  0  0  0  0  0  0  0  0  0  0
   67.4100   41.3348   57.5205 C   0  0  0  0  0  0  0  0  0  0  0  0
   66.6311   41.5222   58.6130 C   0  0  0  0  0  0  0  0  0  0  0  0
   66.5102   40.4971   59.5528 C   0  0  0  0  0  0  0  0  0  0  0  0
   67.1564   39.2904   59.4147 C   0  0  0  0  0  0  0  0  0  0  0  0
   67.9493   39.1058   58.2979 C   0  0  0  0  0  0  0  0  0  0  0  0
   68.0575   40.1272   57.3804 C   0  0  0  0  0  0  0  0  0  0  0  0
   70.5921   50.3599   53.9767 S   0  0  0  0  0  0  0  0  0  0  0  0
   72.0483   50.0569   53.7613 O   0  0  0  0  0  0  0  0  0  0  0  0
   70.1337   51.2351   52.8252 O   0  0  0  0  0  0  0  0  0  0  0  0
   70.2545   51.0981   55.4698 N   0  0  0  0  0  0  0  0  0  0  0  0
   71.4967   51.5499   56.0550 C   0  0  0  0  0  0  0  0  0  0  0  0
   71.8318   52.9011   55.5169 C   0  0  0  0  0  0  0  0  0  0  0  0
   70.8937   53.9104   56.1844 C   0  0  0  0  0  0  0  0  0  0  0  0
   69.5326   53.2951   56.2878 C   0  0  0  0  0  0  0  0  0  0  0  0
   69.3311   52.1754   55.2848 C   0  0  0  0  0  0  0  0  0  0  0  0
 11 12  2  0
 12 13  1  0
 12 14  1  0
 13  8  1  0
  8  9  1  0
  9 10  2  0
  9  1  1  0
  1  2  2  0
  1  6  1  0
  2  3  1  0
  3 20  1  0
  3  4  2  0
 20 21  2  0
 20 22  2  0
 20 23  1  0
 23 24  1  0
 23 28  1  0
 24 25  1  0
 25 26  1  0
 26 27  1  0
 27 28  1  0
  4  5  1  0
  5  6  2  0
  6  7  1  0
 14 15  2  0
 14 19  1  0
 15 16  1  0
 16 17  2  0
 17 18  1  0
 18 19  2  0
M  END
>  <minimizedAffinity>  (429) 
-8.96943

$$$$
cs_full_output_folder/data/smiles/1094.pdb
     RDKit          3D

 29 32  0  0  0  0  0  0  0  0999 V2000
   69.1037   48.0546   53.4923 C   0  0  0  0  0  0  0  0  0  0  0  0
   68.5470   47.0525   52.6935 C   0  0  0  0  0  0  0  0  0  0  0  0
   68.0748   45.8697   53.2164 C   0  0  0  0  0  0  0  0  0  0  0  0
   68.1378   45.6277   54.5743 C   0  0  0  0  0  0  0  0  0  0  0  0
   68.6874   46.6083   55.3911 C   0  0  0  0  0  0  0  0  0  0  0  0
   69.1590   47.7948   54.8350 C   0  0  0  0  0  0  0  0  0  0  0  0
   69.4882   49.2796   52.7980 C   0  0  0  0  0  0  0  0  0  0  0  0
   73.3055   52.0399   55.5714 O   0  0  0  0  0  0  0  0  0  0  0  0
   72.3752   51.4566   54.9574 C   0  0  0  0  0  0  0  0  0  0  0  0
   72.6882   50.3814   54.1955 N   0  0  0  0  0  0  0  0  0  0  0  0
   71.7635   49.7205   53.5239 N   0  0  0  0  0  0  0  0  0  0  0  0
   70.4375   50.0697   53.5481 C   0  0  0  0  0  0  0  0  0  0  0  0
   70.1092   51.1467   54.3087 C   0  0  0  0  0  0  0  0  0  0  0  0
   71.0633   51.8653   55.0296 C   0  0  0  0  0  0  0  0  0  0  0  0
   70.7396   53.0440   55.8526 C   0  0  0  0  0  0  0  0  0  0  0  0
   69.3267   53.1451   56.3020 C   0  0  0  0  0  0  0  0  0  0  0  0
   68.4361   52.0574   55.8162 C   0  0  0  0  0  0  0  0  0  0  0  0
   68.7381   51.6266   54.3966 C   0  0  0  0  0  0  0  0  0  0  0  0
   68.6868   46.3178   56.7706 N   0  0  0  0  0  0  0  0  0  0  0  0
   70.0895   46.3582   57.7336 S   0  0  0  0  0  0  0  0  0  0  0  0
   71.1847   45.5198   57.0863 O   0  0  0  0  0  0  0  0  0  0  0  0
   69.7358   45.6843   59.0549 O   0  0  0  0  0  0  0  0  0  0  0  0
   70.7136   47.9519   57.9970 C   0  0  0  0  0  0  0  0  0  0  0  0
   72.0849   48.1516   57.8718 C   0  0  0  0  0  0  0  0  0  0  0  0
   72.6418   49.3871   58.0708 C   0  0  0  0  0  0  0  0  0  0  0  0
   71.8389   50.4584   58.4028 C   0  0  0  0  0  0  0  0  0  0  0  0
   70.4868   50.2404   58.5217 C   0  0  0  0  0  0  0  0  0  0  0  0
   69.6983   51.2842   58.8452 F   0  0  0  0  0  0  0  0  0  0  0  0
   69.8962   49.0213   58.3291 C   0  0  0  0  0  0  0  0  0  0  0  0
  8  9  2  0
  9 10  1  0
  9 14  1  0
 10 11  1  0
 11 12  2  0
 12  7  1  0
 12 13  1  0
  7  1  1  0
  1  2  2  0
  1  6  1  0
  2  3  1  0
  3  4  2  0
  4  5  1  0
  5 19  1  0
  5  6  2  0
 19 20  1  0
 20 21  2  0
 20 22  2  0
 20 23  1  0
 23 24  2  0
 23 29  1  0
 24 25  1  0
 25 26  2  0
 26 27  1  0
 27 28  1  0
 27 29  2  0
 13 14  2  0
 13 18  1  0
 14 15  1  0
 15 16  1  0
 16 17  1  0
 17 18  1  0
M  END
>  <minimizedAffinity>  (430) 
-8.96339

$$$$
cs_full_output_folder/data/smiles/4723.pdb
     RDKit          3D

 29 31  0  0  0  0  0  0  0  0999 V2000
   69.7991   48.7755   53.4631 C   0  0  0  0  0  0  0  0  0  0  0  0
   69.5727   48.4008   52.1740 C   0  0  0  0  0  0  0  0  0  0  0  0
   68.9533   47.1983   51.9345 C   0  0  0  0  0  0  0  0  0  0  0  0
   68.5589   46.3700   52.9917 C   0  0  0  0  0  0  0  0  0  0  0  0
   68.7785   46.7314   54.3029 C   0  0  0  0  0  0  0  0  0  0  0  0
   69.4028   47.9431   54.5141 C   0  0  0  0  0  0  0  0  0  0  0  0
   70.5827   50.2846   53.9177 S   0  0  0  0  0  0  0  0  0  0  0  0
   70.4122   51.3320   52.8913 O   0  0  0  0  0  0  0  0  0  0  0  0
   72.0712   49.9652   53.9754 O   0  0  0  0  0  0  0  0  0  0  0  0
   68.1191   51.9258   54.6383 C   0  0  0  0  0  0  0  0  0  0  0  0
   69.2882   51.8725   55.5905 C   0  0  1  0  0  0  0  0  0  0  0  0
   68.7167   51.9068   57.0017 C   0  0  0  0  0  0  0  0  0  0  0  0
   68.9740   50.5785   57.7060 C   0  0  0  0  0  0  0  0  0  0  0  0
   70.4304   50.2365   57.7827 C   0  0  0  0  0  0  0  0  0  0  0  0
   71.0852   50.6573   56.4763 C   0  0  0  0  0  0  0  0  0  0  0  0
   70.0757   50.6995   55.4686 N   0  0  0  0  0  0  0  0  0  0  0  0
   68.3711   45.8756   55.4111 C   0  0  0  0  0  0  0  0  0  0  0  0
   68.1939   46.4165   56.5442 O   0  0  0  0  0  0  0  0  0  0  0  0
   68.1596   44.4932   55.3147 N   0  0  0  0  0  0  0  0  0  0  0  0
   67.7690   43.6861   56.3862 N   0  0  0  0  0  0  0  0  0  0  0  0
   68.6118   42.6302   56.8123 C   0  0  0  0  0  0  0  0  0  0  0  0
   69.6921   42.4661   56.1953 O   0  0  0  0  0  0  0  0  0  0  0  0
   68.3281   41.7429   57.8837 N   0  0  0  0  0  0  0  0  0  0  0  0
   69.2470   40.7031   58.2378 C   0  0  0  0  0  0  0  0  0  0  0  0
   68.8897   39.3735   58.2433 C   0  0  0  0  0  0  0  0  0  0  0  0
   69.8468   38.4451   58.6002 C   0  0  0  0  0  0  0  0  0  0  0  0
   71.1419   38.7972   58.9497 C   0  0  0  0  0  0  0  0  0  0  0  0
   71.4926   40.1311   58.9410 C   0  0  0  0  0  0  0  0  0  0  0  0
   70.5342   41.0615   58.5845 C   0  0  0  0  0  0  0  0  0  0  0  0
 11 10  1  6
 11 12  1  0
 11 16  1  0
 12 13  1  0
 13 14  1  0
 14 15  1  0
 15 16  1  0
 16  7  1  0
  7  8  2  0
  7  9  2  0
  7  1  1  0
  1  2  2  0
  1  6  1  0
  2  3  1  0
  3  4  2  0
  4  5  1  0
  5 17  1  0
  5  6  2  0
 17 18  2  0
 17 19  1  0
 19 20  1  0
 20 21  1  0
 21 22  2  0
 21 23  1  0
 23 24  1  0
 24 25  2  0
 24 29  1  0
 25 26  1  0
 26 27  2  0
 27 28  1  0
 28 29  2  0
M  END
>  <minimizedAffinity>  (431) 
-8.96147

$$$$
cs_full_output_folder/data/smiles/9288.pdb
     RDKit          3D

 32 36  0  0  0  0  0  0  0  0999 V2000
   71.5932   47.1647   59.0440 C   0  0  0  0  0  0  0  0  0  0  0  0
   70.6343   47.7200   58.2232 C   0  0  0  0  0  0  0  0  0  0  0  0
   69.8325   46.9701   57.3605 C   0  0  0  0  0  0  0  0  0  0  0  0
   70.0293   45.6241   57.3501 C   0  0  0  0  0  0  0  0  0  0  0  0
   70.9862   45.0157   58.1598 C   0  0  0  0  0  0  0  0  0  0  0  0
   71.7672   45.7777   59.0048 C   0  0  0  0  0  0  0  0  0  0  0  0
   72.6936   45.2273   59.7970 F   0  0  0  0  0  0  0  0  0  0  0  0
   72.3529   47.8186   61.1620 O   0  0  0  0  0  0  0  0  0  0  0  0
   72.3962   48.0052   59.9209 C   0  0  0  0  0  0  0  0  0  0  0  0
   73.2161   49.0195   59.4054 N   0  0  0  0  0  0  0  0  0  0  0  0
   74.0292   49.8730   60.2869 C   0  0  0  0  0  0  0  0  0  0  0  0
   75.4580   49.4032   60.0523 C   0  0  0  0  0  0  0  0  0  0  0  0
   75.7323   49.2762   58.6306 N   0  0  0  0  0  0  0  0  0  0  0  0
   76.9704   48.7267   58.2111 C   0  0  0  0  0  0  0  0  0  0  0  0
   77.1443   48.6381   56.9408 O   0  0  0  0  0  0  0  0  0  0  0  0
   74.7547   49.7062   57.6340 C   0  0  0  0  0  0  0  0  0  0  0  0
   73.3414   49.3135   57.9971 C   0  0  0  0  0  0  0  0  0  0  0  0
   78.0429   48.2648   59.1156 C   0  0  0  0  0  0  0  0  0  0  0  0
   79.2020   47.5470   58.7273 C   0  0  0  0  0  0  0  0  0  0  0  0
   78.1772   46.8286   59.3449 C   0  0  0  0  0  0  0  0  0  0  0  0
   68.8405   47.7373   56.5752 C   0  0  0  0  0  0  0  0  0  0  0  0
   69.2979   48.0605   55.2161 C   0  0  0  0  0  0  0  0  0  0  0  0
   70.2203   49.0470   55.0086 N   0  0  0  0  0  0  0  0  0  0  0  0
   70.6922   49.3417   53.8131 N   0  0  0  0  0  0  0  0  0  0  0  0
   70.2923   48.6854   52.7132 C   0  0  0  0  0  0  0  0  0  0  0  0
   70.7281   48.9467   51.5642 O   0  0  0  0  0  0  0  0  0  0  0  0
   69.3513   47.6620   52.8350 C   0  0  0  0  0  0  0  0  0  0  0  0
   68.9225   46.9873   51.7189 C   0  0  0  0  0  0  0  0  0  0  0  0
   67.9826   45.9924   51.8605 C   0  0  0  0  0  0  0  0  0  0  0  0
   67.4689   45.6636   53.0934 C   0  0  0  0  0  0  0  0  0  0  0  0
   67.9305   46.3677   54.1849 C   0  0  0  0  0  0  0  0  0  0  0  0
   68.8711   47.3756   54.1130 C   0  0  0  0  0  0  0  0  0  0  0  0
  8  9  2  0
  9  1  1  0
  9 10  1  0
  1  2  2  0
  1  6  1  0
  2  3  1  0
  3 21  1  0
  3  4  2  0
 21 22  1  0
 22 23  2  0
 22 32  1  0
 23 24  1  0
 24 25  1  0
 25 26  2  0
 25 27  1  0
 27 28  1  0
 27 32  2  0
 28 29  2  0
 29 30  1  0
 30 31  2  0
 31 32  1  0
  4  5  1  0
  5  6  2  0
  6  7  1  0
 10 11  1  0
 10 17  1  0
 11 12  1  0
 12 13  1  0
 13 14  1  0
 13 16  1  0
 14 15  2  0
 14 18  1  0
 18 19  1  0
 18 20  1  0
 19 20  2  0
 16 17  1  0
M  END
>  <minimizedAffinity>  (432) 
-8.95587

$$$$
cs_full_output_folder/data/smiles/7656.pdb
     RDKit          3D

 33 37  0  0  0  0  0  0  0  0999 V2000
   72.0262   46.7250   58.8861 C   0  0  0  0  0  0  0  0  0  0  0  0
   70.8257   47.1387   58.3296 C   0  0  0  0  0  0  0  0  0  0  0  0
   70.6862   48.2538   57.5455 C   0  0  0  0  0  0  0  0  0  0  0  0
   71.8451   49.0069   57.3024 C   0  0  0  0  0  0  0  0  0  0  0  0
   73.0476   48.6287   57.8342 C   0  0  0  0  0  0  0  0  0  0  0  0
   73.1398   47.4968   58.6193 C   0  0  0  0  0  0  0  0  0  0  0  0
   74.3467   47.1605   59.1220 F   0  0  0  0  0  0  0  0  0  0  0  0
   71.6806   45.5416   60.9002 O   0  0  0  0  0  0  0  0  0  0  0  0
   72.1670   45.5429   59.7162 C   0  0  0  0  0  0  0  0  0  0  0  0
   72.8282   44.3678   59.2783 N   0  0  0  0  0  0  0  0  0  0  0  0
   73.3920   44.3033   57.9423 C   0  0  0  0  0  0  0  0  0  0  0  0
   72.6020   43.2317   57.1755 C   0  0  0  0  0  0  0  0  0  0  0  0
   71.9968   42.3215   58.0941 N   0  0  0  0  0  0  0  0  0  0  0  0
   72.7710   41.9591   59.2978 C   0  0  0  0  0  0  0  0  0  0  0  0
   72.9714   43.2072   60.1249 C   0  0  0  0  0  0  0  0  0  0  0  0
   70.7049   41.7549   57.9070 C   0  0  0  0  0  0  0  0  0  0  0  0
   69.6698   42.4195   57.3066 C   0  0  0  0  0  0  0  0  0  0  0  0
   68.4254   41.8426   57.1446 C   0  0  0  0  0  0  0  0  0  0  0  0
   68.1786   40.5427   57.5945 C   0  0  0  0  0  0  0  0  0  0  0  0
   69.2448   39.9049   58.1933 C   0  0  0  0  0  0  0  0  0  0  0  0
   70.4469   40.4892   58.3397 N   0  0  0  0  0  0  0  0  0  0  0  0
   69.4122   48.7246   56.9360 C   0  0  0  0  0  0  0  0  0  0  0  0
   68.9275   47.6650   56.0294 C   0  0  0  0  0  0  0  0  0  0  0  0
   68.5710   46.4740   56.5944 N   0  0  0  0  0  0  0  0  0  0  0  0
   68.1769   45.4502   55.8650 N   0  0  0  0  0  0  0  0  0  0  0  0
   68.0972   45.5011   54.5200 C   0  0  0  0  0  0  0  0  0  0  0  0
   67.7148   44.5063   53.8141 O   0  0  0  0  0  0  0  0  0  0  0  0
   68.4383   46.6640   53.8831 C   0  0  0  0  0  0  0  0  0  0  0  0
   68.8518   47.7319   54.6876 C   0  0  0  0  0  0  0  0  0  0  0  0
   69.1502   48.9727   53.9594 C   0  0  0  0  0  0  0  0  0  0  0  0
   70.1521   48.6635   52.8843 C   0  0  0  0  0  0  0  0  0  0  0  0
   69.8018   47.4428   52.0733 C   0  0  0  0  0  0  0  0  0  0  0  0
   68.4186   46.8939   52.4239 C   0  0  0  0  0  0  0  0  0  0  0  0
  8  9  2  0
  9  1  1  0
  9 10  1  0
  1  2  2  0
  1  6  1  0
  2  3  1  0
  3 22  1  0
  3  4  2  0
 22 23  1  0
 23 24  2  0
 23 29  1  0
 24 25  1  0
 25 26  1  0
 26 27  2  0
 26 28  1  0
 28 29  2  0
 28 33  1  0
 29 30  1  0
 30 31  1  0
 31 32  1  0
 32 33  1  0
  4  5  1  0
  5  6  2  0
  6  7  1  0
 10 11  1  0
 10 15  1  0
 11 12  1  0
 12 13  1  0
 13 16  1  0
 13 14  1  0
 16 17  2  0
 16 21  1  0
 17 18  1  0
 18 19  2  0
 19 20  1  0
 20 21  2  0
 14 15  1  0
M  END
>  <minimizedAffinity>  (433) 
-8.95123

$$$$
cs_full_output_folder/data/smiles/7545.pdb
     RDKit          3D

 31 35  0  0  0  0  0  0  0  0999 V2000
   71.6006   47.1535   58.7814 C   0  0  0  0  0  0  0  0  0  0  0  0
   71.6695   45.7495   58.7249 C   0  0  0  0  0  0  0  0  0  0  0  0
   70.7905   45.0006   57.9668 C   0  0  0  0  0  0  0  0  0  0  0  0
   69.8178   45.6612   57.2456 C   0  0  0  0  0  0  0  0  0  0  0  0
   69.7275   47.0611   57.2837 C   0  0  0  0  0  0  0  0  0  0  0  0
   70.6242   47.7787   58.0533 C   0  0  0  0  0  0  0  0  0  0  0  0
   72.1640   48.0390   60.8133 O   0  0  0  0  0  0  0  0  0  0  0  0
   72.5585   47.8460   59.5984 C   0  0  0  0  0  0  0  0  0  0  0  0
   73.8129   48.3254   59.2517 N   0  0  0  0  0  0  0  0  0  0  0  0
   74.5970   49.0582   60.2677 C   0  0  0  0  0  0  0  0  0  0  0  0
   74.3261   50.5376   59.8889 C   0  0  0  0  0  0  0  0  0  0  0  0
   74.0975   50.5512   58.4288 N   0  0  0  0  0  0  0  0  0  0  0  0
   73.1133   51.3164   57.8217 C   0  0  0  0  0  0  0  0  0  0  0  0
   72.3599   52.0242   58.5681 O   0  0  0  0  0  0  0  0  0  0  0  0
   74.9647   49.6686   57.6864 C   0  0  0  0  0  0  0  0  0  0  0  0
   74.5006   48.2213   57.9866 C   0  0  0  0  0  0  0  0  0  0  0  0
   72.8540   51.3853   56.3799 C   0  0  0  0  0  0  0  0  0  0  0  0
   73.1114   52.6599   55.6441 C   0  0  0  0  0  0  0  0  0  0  0  0
   71.6918   52.1593   55.8556 C   0  0  0  0  0  0  0  0  0  0  0  0
   68.6654   47.7672   56.5207 C   0  0  0  0  0  0  0  0  0  0  0  0
   69.2075   48.0642   55.1742 C   0  0  0  0  0  0  0  0  0  0  0  0
   70.1480   49.0242   55.0248 N   0  0  0  0  0  0  0  0  0  0  0  0
   70.6612   49.2965   53.8460 N   0  0  0  0  0  0  0  0  0  0  0  0
   70.3092   48.6670   52.7166 C   0  0  0  0  0  0  0  0  0  0  0  0
   70.8135   48.9390   51.5963 O   0  0  0  0  0  0  0  0  0  0  0  0
   69.3486   47.6684   52.7906 C   0  0  0  0  0  0  0  0  0  0  0  0
   68.9358   46.9833   51.6507 C   0  0  0  0  0  0  0  0  0  0  0  0
   67.9678   46.0026   51.7771 C   0  0  0  0  0  0  0  0  0  0  0  0
   67.4472   45.7405   53.0363 C   0  0  0  0  0  0  0  0  0  0  0  0
   67.8321   46.3954   54.1719 C   0  0  0  0  0  0  0  0  0  0  0  0
   68.8126   47.3887   54.0409 C   0  0  0  0  0  0  0  0  0  0  0  0
  7  8  2  0
  8  1  1  0
  8  9  1  0
  1  2  2  0
  1  6  1  0
  2  3  1  0
  3  4  2  0
  4  5  1  0
  5 20  1  0
  5  6  2  0
 20 21  1  0
 21 22  2  0
 21 31  1  0
 22 23  1  0
 23 24  1  0
 24 25  2  0
 24 26  1  0
 26 27  1  0
 26 31  2  0
 27 28  2  0
 28 29  1  0
 29 30  2  0
 30 31  1  0
  9 10  1  0
  9 16  1  0
 10 11  1  0
 11 12  1  0
 12 13  1  0
 12 15  1  0
 13 14  2  0
 13 17  1  0
 17 18  1  0
 17 19  1  0
 18 19  1  0
 15 16  1  0
M  END
>  <minimizedAffinity>  (434) 
-8.93634

$$$$
cs_full_output_folder/data/smiles/620.pdb
     RDKit          3D

 31 35  0  0  0  0  0  0  0  0999 V2000
   70.5792   45.7746   58.2287 C   0  0  0  0  0  0  0  0  0  0  0  0
   69.6476   46.5101   57.4865 C   0  0  0  0  0  0  0  0  0  0  0  0
   69.9008   47.7984   57.1335 C   0  0  0  0  0  0  0  0  0  0  0  0
   71.1058   48.3888   57.5209 C   0  0  0  0  0  0  0  0  0  0  0  0
   72.0520   47.7094   58.2509 C   0  0  0  0  0  0  0  0  0  0  0  0
   71.7641   46.4114   58.5889 C   0  0  0  0  0  0  0  0  0  0  0  0
   72.6797   45.6962   59.3181 F   0  0  0  0  0  0  0  0  0  0  0  0
   73.5242   42.1366   60.1944 O   0  0  0  0  0  0  0  0  0  0  0  0
   73.1201   42.3934   59.0159 C   0  0  0  0  0  0  0  0  0  0  0  0
   71.7432   42.2762   58.7600 N   0  0  0  0  0  0  0  0  0  0  0  0
   70.9026   41.8606   59.8890 C   0  0  0  0  0  0  0  0  0  0  0  0
   70.0547   42.9928   60.3503 C   0  0  0  0  0  0  0  0  0  0  0  0
   70.5016   44.2208   59.9428 O   0  0  0  0  0  0  0  0  0  0  0  0
   70.3324   44.4439   58.5911 N   0  0  0  0  0  0  0  0  0  0  0  0
   69.9558   43.4194   57.6845 C   0  0  0  0  0  0  0  0  0  0  0  0
   71.2025   42.5512   57.4443 C   0  0  0  0  0  0  0  0  0  0  0  0
   74.1575   42.7895   58.0448 C   0  0  0  0  0  0  0  0  0  0  0  0
   75.5834   42.5772   58.4351 C   0  0  0  0  0  0  0  0  0  0  0  0
   75.0166   43.9670   58.4860 C   0  0  0  0  0  0  0  0  0  0  0  0
   68.9356   48.5936   56.3475 C   0  0  0  0  0  0  0  0  0  0  0  0
   69.2776   48.5725   54.9570 C   0  0  0  0  0  0  0  0  0  0  0  0
   70.1729   49.5111   54.5148 N   0  0  0  0  0  0  0  0  0  0  0  0
   70.6176   49.5468   53.2755 N   0  0  0  0  0  0  0  0  0  0  0  0
   70.2188   48.6577   52.3551 C   0  0  0  0  0  0  0  0  0  0  0  0
   70.6579   48.6992   51.1539 O   0  0  0  0  0  0  0  0  0  0  0  0
   69.3267   47.6898   52.7142 C   0  0  0  0  0  0  0  0  0  0  0  0
   68.8880   46.7822   51.7791 C   0  0  0  0  0  0  0  0  0  0  0  0
   67.9693   45.8349   52.1640 C   0  0  0  0  0  0  0  0  0  0  0  0
   67.4866   45.7800   53.4530 C   0  0  0  0  0  0  0  0  0  0  0  0
   67.9510   46.7101   54.3712 C   0  0  0  0  0  0  0  0  0  0  0  0
   68.8657   47.6640   54.0199 C   0  0  0  0  0  0  0  0  0  0  0  0
  8  9  2  0
  9 17  1  0
  9 10  1  0
 17 18  1  0
 17 19  1  0
 18 19  1  0
 10 11  1  0
 10 16  1  0
 11 12  1  0
 12 13  1  0
 13 14  1  0
 14  1  1  0
 14 15  1  0
  1  2  2  0
  1  6  1  0
  2  3  1  0
  3 20  1  0
  3  4  2  0
 20 21  1  0
 21 22  2  0
 21 31  1  0
 22 23  1  0
 23 24  1  0
 24 25  2  0
 24 26  1  0
 26 27  1  0
 26 31  2  0
 27 28  2  0
 28 29  1  0
 29 30  2  0
 30 31  1  0
  4  5  1  0
  5  6  2  0
  6  7  1  0
 15 16  1  0
M  END
>  <minimizedAffinity>  (435) 
-8.93485

$$$$
cs_full_output_folder/data/smiles/2821.pdb
     RDKit          3D

 31 35  0  0  0  0  0  0  0  0999 V2000
   71.2353   46.8791   58.7602 C   0  0  0  0  0  0  0  0  0  0  0  0
   71.2175   45.5248   58.5255 C   0  0  0  0  0  0  0  0  0  0  0  0
   70.3933   44.9589   57.5578 C   0  0  0  0  0  0  0  0  0  0  0  0
   69.5651   45.7929   56.8115 C   0  0  0  0  0  0  0  0  0  0  0  0
   69.5532   47.1502   57.0161 C   0  0  0  0  0  0  0  0  0  0  0  0
   70.3899   47.6637   57.9878 C   0  0  0  0  0  0  0  0  0  0  0  0
   71.7936   47.2588   60.9941 O   0  0  0  0  0  0  0  0  0  0  0  0
   72.0882   47.4987   59.7936 C   0  0  0  0  0  0  0  0  0  0  0  0
   73.1851   48.3224   59.4452 N   0  0  0  0  0  0  0  0  0  0  0  0
   73.4958   48.5814   58.0699 C   0  0  0  0  0  0  0  0  0  0  0  0
   74.8940   48.0256   57.7919 C   0  0  0  0  0  0  0  0  0  0  0  0
   75.6710   47.9459   58.9847 N   0  0  0  0  0  0  0  0  0  0  0  0
   75.4682   48.9556   60.0232 C   0  0  0  0  0  0  0  0  0  0  0  0
   74.0081   48.9129   60.4859 C   0  0  0  0  0  0  0  0  0  0  0  0
   76.6211   46.9295   59.2016 C   0  0  0  0  0  0  0  0  0  0  0  0
   76.4015   45.5728   59.0794 C   0  0  0  0  0  0  0  0  0  0  0  0
   77.3589   44.6107   59.3033 C   0  0  0  0  0  0  0  0  0  0  0  0
   78.6139   45.0071   59.6714 C   0  0  0  0  0  0  0  0  0  0  0  0
   78.8556   46.3438   59.7982 C   0  0  0  0  0  0  0  0  0  0  0  0
   77.9024   47.2501   59.5734 N   0  0  0  0  0  0  0  0  0  0  0  0
   68.6285   48.0782   56.2521 C   0  0  0  0  0  0  0  0  0  0  0  0
   69.1659   48.2279   54.8693 C   0  0  0  0  0  0  0  0  0  0  0  0
   70.1331   49.1360   54.5837 N   0  0  0  0  0  0  0  0  0  0  0  0
   70.6393   49.2622   53.3742 N   0  0  0  0  0  0  0  0  0  0  0  0
   70.2469   48.5133   52.3302 C   0  0  0  0  0  0  0  0  0  0  0  0
   70.7317   48.6357   51.1779 O   0  0  0  0  0  0  0  0  0  0  0  0
   69.2510   47.5663   52.5858 C   0  0  0  0  0  0  0  0  0  0  0  0
   68.7098   47.4227   53.8533 C   0  0  0  0  0  0  0  0  0  0  0  0
   67.6892   46.3595   53.8160 C   0  0  0  0  0  0  0  0  0  0  0  0
   67.7171   45.9216   52.3988 C   0  0  0  0  0  0  0  0  0  0  0  0
   68.5994   46.6076   51.7149 C   0  0  0  0  0  0  0  0  0  0  0  0
  7  8  2  0
  8  1  1  0
  8  9  1  0
  1  2  2  0
  1  6  1  0
  2  3  1  0
  3  4  2  0
  4  5  1  0
  5 21  1  0
  5  6  2  0
 21 22  1  0
 22 23  2  0
 22 28  1  0
 23 24  1  0
 24 25  1  0
 25 26  2  0
 25 27  1  0
 27 28  2  0
 27 31  1  0
 28 29  1  0
 29 30  1  0
 30 31  2  0
  9 10  1  0
  9 14  1  0
 10 11  1  0
 11 12  1  0
 12 15  1  0
 12 13  1  0
 15 16  2  0
 15 20  1  0
 16 17  1  0
 17 18  2  0
 18 19  1  0
 19 20  2  0
 13 14  1  0
M  END
>  <minimizedAffinity>  (436) 
-8.93267

$$$$
cs_full_output_folder/data/smiles/7741.pdb
     RDKit          3D

 30 33  0  0  0  0  0  0  0  0999 V2000
   72.0617   50.7757   54.6815 C   0  0  0  0  0  0  0  0  0  0  0  0
   71.3621   49.7219   54.1679 N   0  0  0  0  0  0  0  0  0  0  0  0
   70.0548   49.6666   54.1100 N   0  0  0  0  0  0  0  0  0  0  0  0
   69.3063   50.6821   54.5702 C   0  0  0  0  0  0  0  0  0  0  0  0
   68.0405   50.5937   54.4985 O   0  0  0  0  0  0  0  0  0  0  0  0
   69.9089   51.7934   55.1086 C   0  0  0  0  0  0  0  0  0  0  0  0
   69.1495   52.8324   55.5792 C   0  0  0  0  0  0  0  0  0  0  0  0
   69.8093   53.9193   56.1078 C   0  0  0  0  0  0  0  0  0  0  0  0
   71.1774   53.9863   56.1727 C   0  0  0  0  0  0  0  0  0  0  0  0
   71.9224   52.9188   55.6874 C   0  0  0  0  0  0  0  0  0  0  0  0
   71.3107   51.8094   55.1495 C   0  0  0  0  0  0  0  0  0  0  0  0
   69.4354   48.4961   53.5436 C   0  0  0  0  0  0  0  0  0  0  0  0
   69.5108   48.2257   52.1938 C   0  0  0  0  0  0  0  0  0  0  0  0
   68.9018   47.0916   51.6924 C   0  0  0  0  0  0  0  0  0  0  0  0
   68.2104   46.2015   52.4866 C   0  0  0  0  0  0  0  0  0  0  0  0
   68.1457   46.4872   53.8325 C   0  0  0  0  0  0  0  0  0  0  0  0
   68.7445   47.6080   54.3387 C   0  0  0  0  0  0  0  0  0  0  0  0
   74.2871   50.9721   55.8176 N   0  0  0  0  0  0  0  0  0  0  0  0
   73.4921   50.6658   54.6640 C   0  0  0  0  0  0  0  0  0  0  0  0
   74.1646   50.3065   53.6803 O   0  0  0  0  0  0  0  0  0  0  0  0
   75.6550   48.8298   56.7759 O   0  0  0  0  0  0  0  0  0  0  0  0
   76.3966   49.7893   56.3555 C   0  0  0  0  0  0  0  0  0  0  0  0
   75.6709   50.8868   55.8645 N   0  0  0  0  0  0  0  0  0  0  0  0
   77.8206   49.6063   56.4464 C   0  0  0  0  0  0  0  0  0  0  0  0
   78.5186   49.9587   57.6018 C   0  0  0  0  0  0  0  0  0  0  0  0
   79.8793   49.7928   57.7117 C   0  0  0  0  0  0  0  0  0  0  0  0
   80.6341   49.2685   56.6871 C   0  0  0  0  0  0  0  0  0  0  0  0
   79.9637   48.9154   55.5426 C   0  0  0  0  0  0  0  0  0  0  0  0
   78.5871   49.0863   55.4396 C   0  0  0  0  0  0  0  0  0  0  0  0
   78.0326   48.7018   54.2579 F   0  0  0  0  0  0  0  0  0  0  0  0
 21 22  2  0
 22 23  1  0
 22 24  1  0
 23 18  1  0
 18 19  1  0
 19 20  2  0
 19  1  1  0
  1  2  2  0
  1 11  1  0
  2  3  1  0
  3 12  1  0
  3  4  1  0
 12 13  2  0
 12 17  1  0
 13 14  1  0
 14 15  2  0
 15 16  1  0
 16 17  2  0
  4  5  2  0
  4  6  1  0
  6  7  1  0
  6 11  2  0
  7  8  2  0
  8  9  1  0
  9 10  2  0
 10 11  1  0
 24 25  2  0
 24 29  1  0
 25 26  1  0
 26 27  2  0
 27 28  1  0
 28 29  2  0
 29 30  1  0
M  END
>  <minimizedAffinity>  (437) 
-8.93130

$$$$
cs_full_output_folder/data/smiles/7516.pdb
     RDKit          3D

 31 34  0  0  0  0  0  0  0  0999 V2000
   71.6446   47.1994   58.8391 C   0  0  0  0  0  0  0  0  0  0  0  0
   70.6950   47.8193   58.0515 C   0  0  0  0  0  0  0  0  0  0  0  0
   69.8169   47.1349   57.2395 C   0  0  0  0  0  0  0  0  0  0  0  0
   69.9076   45.7577   57.2265 C   0  0  0  0  0  0  0  0  0  0  0  0
   70.8362   45.0807   57.9914 C   0  0  0  0  0  0  0  0  0  0  0  0
   71.6914   45.8212   58.7878 C   0  0  0  0  0  0  0  0  0  0  0  0
   72.5926   45.1216   59.5282 F   0  0  0  0  0  0  0  0  0  0  0  0
   73.9398   50.8114   57.5298 N   0  0  1  0  0  0  0  0  0  0  0  0
   73.3103   50.9757   58.8102 C   0  0  0  0  0  0  0  0  0  0  0  0
   74.3627   50.7404   59.8807 C   0  0  0  0  0  0  0  0  0  0  0  0
   74.5303   49.2675   60.1819 C   0  0  0  0  0  0  0  0  0  0  0  0
   73.7524   48.5411   59.1974 N   0  0  0  0  0  0  0  0  0  0  0  0
   72.5478   47.9612   59.6796 C   0  0  0  0  0  0  0  0  0  0  0  0
   72.2257   48.0994   60.8868 O   0  0  0  0  0  0  0  0  0  0  0  0
   74.1033   48.3711   57.8113 C   0  0  0  0  0  0  0  0  0  0  0  0
   73.7256   49.5267   56.9423 C   0  0  0  0  0  0  0  0  0  0  0  0
   73.4547   51.2974   55.1750 C   0  0  0  0  0  0  0  0  0  0  0  0
   73.5398   51.8188   56.5733 C   0  0  0  0  0  0  0  0  0  0  0  0
   72.2699   52.5106   56.9358 C   0  0  0  0  0  0  0  0  0  0  0  0
   68.8241   47.8326   56.4191 C   0  0  0  0  0  0  0  0  0  0  0  0
   69.2919   48.1511   55.0636 C   0  0  0  0  0  0  0  0  0  0  0  0
   70.1530   49.1336   54.7597 N   0  0  0  0  0  0  0  0  0  0  0  0
   70.5469   49.3843   53.5178 N   0  0  0  0  0  0  0  0  0  0  0  0
   70.1138   48.6703   52.4629 C   0  0  0  0  0  0  0  0  0  0  0  0
   70.5209   48.9545   51.3177 O   0  0  0  0  0  0  0  0  0  0  0  0
   69.2198   47.6393   52.7148 C   0  0  0  0  0  0  0  0  0  0  0  0
   68.7613   46.8930   51.6481 C   0  0  0  0  0  0  0  0  0  0  0  0
   67.8721   45.8657   51.8946 C   0  0  0  0  0  0  0  0  0  0  0  0
   67.4443   45.5836   53.1859 C   0  0  0  0  0  0  0  0  0  0  0  0
   67.9206   46.3465   54.2287 C   0  0  0  0  0  0  0  0  0  0  0  0
   68.8148   47.3872   54.0190 C   0  0  0  0  0  0  0  0  0  0  0  0
 17 18  1  0
 18 19  1  0
  8 18  1  6
  8  9  1  0
  8 16  1  0
  9 10  1  0
 10 11  1  0
 11 12  1  0
 12 13  1  0
 12 15  1  0
 13 14  2  0
 13  1  1  0
  1  2  2  0
  1  6  1  0
  2  3  1  0
  3 20  1  0
  3  4  2  0
 20 21  1  0
 21 22  2  0
 21 31  1  0
 22 23  1  0
 23 24  1  0
 24 25  2  0
 24 26  1  0
 26 27  1  0
 26 31  2  0
 27 28  2  0
 28 29  1  0
 29 30  2  0
 30 31  1  0
  4  5  1  0
  5  6  2  0
  6  7  1  0
 15 16  1  0
M  CHG  1   8   1
M  END
>  <minimizedAffinity>  (438) 
-8.92873

$$$$
cs_full_output_folder/data/smiles/5882.pdb
     RDKit          3D

 30 34  0  0  0  0  0  0  0  0999 V2000
   71.3115   45.0411   58.1943 C   0  0  0  0  0  0  0  0  0  0  0  0
   70.3199   45.6165   57.3983 C   0  0  0  0  0  0  0  0  0  0  0  0
   69.9105   46.9118   57.5007 C   0  0  0  0  0  0  0  0  0  0  0  0
   70.5650   47.6683   58.4902 C   0  0  0  0  0  0  0  0  0  0  0  0
   71.5462   47.1361   59.2944 C   0  0  0  0  0  0  0  0  0  0  0  0
   71.9194   45.8116   59.1418 C   0  0  0  0  0  0  0  0  0  0  0  0
   72.8913   45.2403   59.9205 F   0  0  0  0  0  0  0  0  0  0  0  0
   72.8234   43.3307   57.5213 O   0  0  0  0  0  0  0  0  0  0  0  0
   71.6963   43.6466   58.0208 C   0  0  0  0  0  0  0  0  0  0  0  0
   70.7826   42.6446   58.4222 N   0  0  0  0  0  0  0  0  0  0  0  0
   69.4562   42.8590   59.0115 C   0  0  0  0  0  0  0  0  0  0  0  0
   68.7389   41.5437   58.7334 C   0  0  2  0  0  0  0  0  0  0  0  0
   67.6846   41.2129   59.7503 C   0  0  0  0  0  0  0  0  0  0  0  0
   67.3140   39.7521   59.5765 C   0  0  0  0  0  0  0  0  0  0  0  0
   67.9996   39.0926   58.4226 C   0  0  0  0  0  0  0  0  0  0  0  0
   69.4793   39.2620   58.3692 C   0  0  0  0  0  0  0  0  0  0  0  0
   69.8820   40.5801   58.9811 C   0  0  1  0  0  0  0  0  0  0  0  0
   71.0299   41.2278   58.2906 C   0  0  0  0  0  0  0  0  0  0  0  0
   68.8652   47.5742   56.6825 C   0  0  0  0  0  0  0  0  0  0  0  0
   69.2763   47.9185   55.3157 C   0  0  0  0  0  0  0  0  0  0  0  0
   70.1897   48.9293   55.1453 N   0  0  0  0  0  0  0  0  0  0  0  0
   70.6590   49.2956   53.9842 N   0  0  0  0  0  0  0  0  0  0  0  0
   70.2730   48.6958   52.8502 C   0  0  0  0  0  0  0  0  0  0  0  0
   70.7210   49.0434   51.7309 O   0  0  0  0  0  0  0  0  0  0  0  0
   69.3553   47.6662   52.9051 C   0  0  0  0  0  0  0  0  0  0  0  0
   68.9346   47.0489   51.7497 C   0  0  0  0  0  0  0  0  0  0  0  0
   67.9904   46.0195   51.8456 C   0  0  0  0  0  0  0  0  0  0  0  0
   67.5229   45.6715   53.1058 C   0  0  0  0  0  0  0  0  0  0  0  0
   67.9507   46.2964   54.2543 C   0  0  0  0  0  0  0  0  0  0  0  0
   68.8698   47.2962   54.1595 C   0  0  0  0  0  0  0  0  0  0  0  0
  8  9  2  0
  9  1  1  0
  9 10  1  0
  1  2  2  0
  1  6  1  0
  2  3  1  0
  3 19  1  0
  3  4  2  0
 19 20  1  0
 20 21  2  0
 20 30  1  0
 21 22  1  0
 22 23  1  0
 23 24  2  0
 23 25  1  0
 25 26  1  0
 25 30  2  0
 26 27  2  0
 27 28  1  0
 28 29  2  0
 29 30  1  0
  4  5  1  0
  5  6  2  0
  6  7  1  0
 10 11  1  0
 10 18  1  0
 12 11  1  1
 12 13  1  0
 12 17  1  0
 13 14  1  0
 14 15  1  0
 15 16  1  0
 17 16  1  6
 17 18  1  0
M  END
>  <minimizedAffinity>  (439) 
-8.92828

$$$$
cs_full_output_folder/data/smiles/1140.pdb
     RDKit          3D

 33 37  0  0  0  0  0  0  0  0999 V2000
   72.7822   51.4012   56.0228 C   0  0  0  0  0  0  0  0  0  0  0  0
   72.9666   52.7596   56.1418 C   0  0  0  0  0  0  0  0  0  0  0  0
   71.9579   53.6672   55.9119 C   0  0  0  0  0  0  0  0  0  0  0  0
   70.7069   53.1795   55.5450 C   0  0  0  0  0  0  0  0  0  0  0  0
   70.4733   51.8465   55.4134 C   0  0  0  0  0  0  0  0  0  0  0  0
   71.5286   50.9744   55.6586 C   0  0  0  0  0  0  0  0  0  0  0  0
   74.3759   49.8964   55.2527 O   0  0  0  0  0  0  0  0  0  0  0  0
   73.8275   50.4526   56.2518 C   0  0  0  0  0  0  0  0  0  0  0  0
   74.3051   50.0775   57.5408 N   0  0  0  0  0  0  0  0  0  0  0  0
   73.7506   50.6609   58.7585 C   0  0  0  0  0  0  0  0  0  0  0  0
   73.7526   49.5872   59.8085 C   0  0  0  0  0  0  0  0  0  0  0  0
   73.6347   48.2829   59.1547 N   0  0  0  0  0  0  0  0  0  0  0  0
   72.4448   47.5439   59.2951 C   0  0  0  0  0  0  0  0  0  0  0  0
   71.5296   48.1042   60.0140 O   0  0  0  0  0  0  0  0  0  0  0  0
   74.7824   47.8428   58.4034 C   0  0  0  0  0  0  0  0  0  0  0  0
   75.3587   49.0982   57.7262 C   0  0  0  0  0  0  0  0  0  0  0  0
   72.1612   46.2211   58.7104 C   0  0  0  0  0  0  0  0  0  0  0  0
   72.2495   45.0690   59.6400 C   0  0  0  0  0  0  0  0  0  0  0  0
   71.0797   44.1536   59.3559 C   0  0  0  0  0  0  0  0  0  0  0  0
   70.3555   44.7220   58.1544 C   0  0  0  0  0  0  0  0  0  0  0  0
   70.8103   46.1535   58.0307 C   0  0  0  0  0  0  0  0  0  0  0  0
   69.1786   51.2202   55.0052 C   0  0  0  0  0  0  0  0  0  0  0  0
   69.4177   50.1784   53.9825 C   0  0  0  0  0  0  0  0  0  0  0  0
   69.9708   50.5161   52.7721 N   0  0  0  0  0  0  0  0  0  0  0  0
   70.1596   49.6235   51.8367 N   0  0  0  0  0  0  0  0  0  0  0  0
   69.8494   48.3264   51.9434 C   0  0  0  0  0  0  0  0  0  0  0  0
   70.0305   47.4872   51.0530 O   0  0  0  0  0  0  0  0  0  0  0  0
   69.2853   47.9212   53.1461 C   0  0  0  0  0  0  0  0  0  0  0  0
   68.9561   46.5854   53.3108 C   0  0  0  0  0  0  0  0  0  0  0  0
   68.4064   46.1661   54.5058 C   0  0  0  0  0  0  0  0  0  0  0  0
   68.1913   47.0721   55.5182 C   0  0  0  0  0  0  0  0  0  0  0  0
   68.5277   48.3909   55.3267 C   0  0  0  0  0  0  0  0  0  0  0  0
   69.0791   48.8616   54.1507 C   0  0  0  0  0  0  0  0  0  0  0  0
  7  8  2  0
  8  1  1  0
  8  9  1  0
  1  2  2  0
  1  6  1  0
  2  3  1  0
  3  4  2  0
  4  5  1  0
  5 22  1  0
  5  6  2  0
 22 23  1  0
 23 24  2  0
 23 33  1  0
 24 25  1  0
 25 26  1  0
 26 27  2  0
 26 28  1  0
 28 29  1  0
 28 33  2  0
 29 30  2  0
 30 31  1  0
 31 32  2  0
 32 33  1  0
  9 10  1  0
  9 16  1  0
 10 11  1  0
 11 12  1  0
 12 13  1  0
 12 15  1  0
 13 14  2  0
 13 17  1  0
 17 18  1  0
 17 21  1  0
 18 19  1  0
 19 20  1  0
 20 21  1  0
 15 16  1  0
M  END
>  <minimizedAffinity>  (440) 
-8.92629

$$$$
cs_full_output_folder/data/smiles/6935.pdb
     RDKit          3D

 30 34  0  0  0  0  0  0  0  0999 V2000
   70.9737   45.9615   58.3794 C   0  0  0  0  0  0  0  0  0  0  0  0
   70.0021   46.3942   57.4989 C   0  0  0  0  0  0  0  0  0  0  0  0
   69.6725   47.7064   57.3156 C   0  0  0  0  0  0  0  0  0  0  0  0
   70.3968   48.6167   58.0918 C   0  0  0  0  0  0  0  0  0  0  0  0
   71.3721   48.2155   58.9780 C   0  0  0  0  0  0  0  0  0  0  0  0
   71.6654   46.8819   59.1254 C   0  0  0  0  0  0  0  0  0  0  0  0
   72.6379   46.4932   60.0093 F   0  0  0  0  0  0  0  0  0  0  0  0
   73.3428   44.4815   57.4329 O   0  0  0  0  0  0  0  0  0  0  0  0
   72.4270   43.8850   58.0521 C   0  0  0  0  0  0  0  0  0  0  0  0
   72.2939   42.4648   58.3852 C   0  0  1  0  0  0  0  0  0  0  0  0
   73.5953   41.8658   58.8641 C   0  0  0  0  0  0  0  0  0  0  0  0
   74.1095   42.7417   59.9681 C   0  0  0  0  0  0  0  0  0  0  0  0
   73.0759   43.0319   61.0209 C   0  0  0  0  0  0  0  0  0  0  0  0
   71.7904   42.2751   60.8332 C   0  0  0  0  0  0  0  0  0  0  0  0
   71.2254   42.4010   59.4461 C   0  0  1  0  0  0  0  0  0  0  0  0
   70.4873   43.6659   59.2994 C   0  0  0  0  0  0  0  0  0  0  0  0
   69.3196   43.8368   59.7846 O   0  0  0  0  0  0  0  0  0  0  0  0
   71.2808   44.5839   58.5639 N   0  0  0  0  0  0  0  0  0  0  0  0
   68.6649   48.2394   56.3764 C   0  0  0  0  0  0  0  0  0  0  0  0
   69.1040   48.4586   55.0205 C   0  0  0  0  0  0  0  0  0  0  0  0
   69.6229   49.6429   54.6595 N   0  0  0  0  0  0  0  0  0  0  0  0
   69.9875   49.9086   53.4069 N   0  0  0  0  0  0  0  0  0  0  0  0
   69.8657   49.0084   52.3952 C   0  0  0  0  0  0  0  0  0  0  0  0
   70.2213   49.2938   51.2138 O   0  0  0  0  0  0  0  0  0  0  0  0
   69.3397   47.7891   52.7353 C   0  0  0  0  0  0  0  0  0  0  0  0
   68.9549   47.5016   54.0500 C   0  0  0  0  0  0  0  0  0  0  0  0
   68.4707   46.1800   54.3455 C   0  0  0  0  0  0  0  0  0  0  0  0
   67.5323   45.6619   53.2935 C   0  0  0  0  0  0  0  0  0  0  0  0
   67.7272   46.2226   51.9279 C   0  0  0  0  0  0  0  0  0  0  0  0
   69.1579   46.7304   51.7266 C   0  0  0  0  0  0  0  0  0  0  0  0
  8  9  2  0
  9 10  1  0
  9 18  1  0
 10 11  1  1
 10 15  1  0
 11 12  1  0
 12 13  1  0
 13 14  1  0
 15 14  1  1
 15 16  1  0
 16 17  2  0
 16 18  1  0
 18  1  1  0
  1  2  2  0
  1  6  1  0
  2  3  1  0
  3 19  1  0
  3  4  2  0
 19 20  1  0
 20 21  2  0
 20 26  1  0
 21 22  1  0
 22 23  1  0
 23 24  2  0
 23 25  1  0
 25 26  2  0
 25 30  1  0
 26 27  1  0
 27 28  1  0
 28 29  1  0
 29 30  1  0
  4  5  1  0
  5  6  2  0
  6  7  1  0
M  END
>  <minimizedAffinity>  (441) 
-8.92351

$$$$
cs_full_output_folder/data/smiles/3929.pdb
     RDKit          3D

 23 25  0  0  0  0  0  0  0  0999 V2000
   68.9809   48.7340   56.2287 C   0  0  0  0  0  0  0  0  0  0  0  0
   70.5248   48.7138   50.9383 O   0  0  0  0  0  0  0  0  0  0  0  0
   70.1309   48.6730   52.1336 C   0  0  0  0  0  0  0  0  0  0  0  0
   70.5431   49.5911   53.0416 N   0  0  0  0  0  0  0  0  0  0  0  0
   70.1480   49.5677   54.2849 N   0  0  0  0  0  0  0  0  0  0  0  0
   69.2922   48.6354   54.8084 C   0  0  0  0  0  0  0  0  0  0  0  0
   68.8616   47.7003   53.9170 C   0  0  0  0  0  0  0  0  0  0  0  0
   68.0016   46.7385   54.3334 C   0  0  0  0  0  0  0  0  0  0  0  0
   67.5380   45.7854   53.4709 C   0  0  0  0  0  0  0  0  0  0  0  0
   67.9445   45.7883   52.1445 C   0  0  0  0  0  0  0  0  0  0  0  0
   68.8095   46.7569   51.7251 C   0  0  0  0  0  0  0  0  0  0  0  0
   69.2627   47.7042   52.6064 C   0  0  0  0  0  0  0  0  0  0  0  0
   69.9424   47.9712   57.0575 C   0  0  0  0  0  0  0  0  0  0  0  0
   71.0399   48.6765   57.5402 C   0  0  0  0  0  0  0  0  0  0  0  0
   72.0045   48.0993   58.3409 C   0  0  0  0  0  0  0  0  0  0  0  0
   71.8461   46.7810   58.6550 C   0  0  0  0  0  0  0  0  0  0  0  0
   70.7838   46.0227   58.2123 C   0  0  0  0  0  0  0  0  0  0  0  0
   69.8504   46.6569   57.4130 C   0  0  0  0  0  0  0  0  0  0  0  0
   70.7164   44.6008   58.5793 C   0  0  0  0  0  0  0  0  0  0  0  0
   69.7016   44.3427   59.4413 O   0  0  0  0  0  0  0  0  0  0  0  0
   69.0236   43.2292   59.3545 N   0  0  0  0  0  0  0  0  0  0  0  0
   69.2375   42.1506   60.7088 S   0  0  0  0  0  0  0  0  0  0  0  0
   69.1279   42.2171   57.5755 I   0  0  0  0  0  0  0  0  0  0  0  0
  2  3  2  0
  3  4  1  0
  3 12  1  0
  4  5  1  0
  5  6  2  0
  6  1  1  0
  6  7  1  0
  1 13  1  0
 13 14  2  0
 13 18  1  0
 14 15  1  0
 15 16  2  0
 16 17  1  0
 17 19  1  0
 17 18  2  0
 19 20  1  0
 20 21  1  0
 21 22  1  0
 21 23  1  0
  7  8  1  0
  7 12  2  0
  8  9  2  0
  9 10  1  0
 10 11  2  0
 11 12  1  0
M  END
>  <minimizedAffinity>  (442) 
-8.92118

$$$$
cs_full_output_folder/data/smiles/8260.pdb
     RDKit          3D

 32 36  0  0  0  0  0  0  0  0999 V2000
   71.9966   47.8593   58.8717 C   0  0  0  0  0  0  0  0  0  0  0  0
   70.7984   48.1165   58.2044 C   0  0  0  0  0  0  0  0  0  0  0  0
   70.7215   48.9808   57.1482 C   0  0  0  0  0  0  0  0  0  0  0  0
   71.9388   49.5972   56.7749 C   0  0  0  0  0  0  0  0  0  0  0  0
   73.1187   49.3632   57.4088 C   0  0  0  0  0  0  0  0  0  0  0  0
   73.1556   48.4933   58.4612 C   0  0  0  0  0  0  0  0  0  0  0  0
   74.3580   48.2901   59.0633 F   0  0  0  0  0  0  0  0  0  0  0  0
   70.6914   41.7202   58.8321 N   0  0  1  0  0  0  0  0  0  0  0  0
   71.9120   41.3949   58.2131 C   0  0  0  0  0  0  0  0  0  0  0  0
   72.6397   42.6092   57.7155 C   0  0  0  0  0  0  0  0  0  0  0  0
   72.7614   43.6252   58.8045 C   0  0  1  0  0  0  0  0  0  0  0  0
   71.9279   44.8646   58.5515 C   0  0  0  0  0  0  0  0  0  0  0  0
   72.0075   45.5238   59.8305 N   0  0  0  0  0  0  0  0  0  0  0  0
   72.0424   46.9314   59.9997 C   0  0  0  0  0  0  0  0  0  0  0  0
   72.1132   47.4359   61.1474 O   0  0  0  0  0  0  0  0  0  0  0  0
   72.0379   44.5058   60.8506 C   0  0  0  0  0  0  0  0  0  0  0  0
   72.1892   43.1791   60.1177 C   0  0  1  0  0  0  0  0  0  0  0  0
   70.8340   42.5394   59.9852 C   0  0  0  0  0  0  0  0  0  0  0  0
   68.7118   40.5626   57.9086 C   0  0  0  0  0  0  0  0  0  0  0  0
   69.5120   41.8043   58.0942 C   0  0  0  0  0  0  0  0  0  0  0  0
   69.5050   49.3278   56.3788 C   0  0  0  0  0  0  0  0  0  0  0  0
   69.6494   49.2060   54.9202 C   0  0  0  0  0  0  0  0  0  0  0  0
   70.2481   50.2297   54.2504 N   0  0  0  0  0  0  0  0  0  0  0  0
   70.3925   50.2664   52.9422 N   0  0  0  0  0  0  0  0  0  0  0  0
   69.9182   49.2313   52.2332 C   0  0  0  0  0  0  0  0  0  0  0  0
   70.0749   49.3024   50.9673 O   0  0  0  0  0  0  0  0  0  0  0  0
   69.3059   48.1654   52.8253 C   0  0  0  0  0  0  0  0  0  0  0  0
   68.8518   47.1201   52.0457 C   0  0  0  0  0  0  0  0  0  0  0  0
   68.2517   46.0475   52.6695 C   0  0  0  0  0  0  0  0  0  0  0  0
   68.1030   46.0118   54.0665 C   0  0  0  0  0  0  0  0  0  0  0  0
   68.5608   47.0592   54.8236 C   0  0  0  0  0  0  0  0  0  0  0  0
   69.1599   48.1359   54.2078 C   0  0  0  0  0  0  0  0  0  0  0  0
 19 20  1  0
  8 20  1  6
  8  9  1  0
  8 18  1  0
  9 10  1  0
 11 10  1  6
 11 12  1  0
 11 17  1  0
 12 13  1  0
 13 14  1  0
 13 16  1  0
 14 15  2  0
 14  1  1  0
  1  2  2  0
  1  6  1  0
  2  3  1  0
  3 21  1  0
  3  4  2  0
 21 22  1  0
 22 23  2  0
 22 32  1  0
 23 24  1  0
 24 25  1  0
 25 26  2  0
 25 27  1  0
 27 28  1  0
 27 32  2  0
 28 29  2  0
 29 30  1  0
 30 31  2  0
 31 32  1  0
  4  5  1  0
  5  6  2  0
  6  7  1  0
 17 16  1  1
 17 18  1  0
M  CHG  1   8   1
M  END
>  <minimizedAffinity>  (443) 
-8.91950

$$$$
cs_full_output_folder/data/smiles/8607.pdb
     RDKit          3D

 30 33  0  0  0  0  0  0  0  0999 V2000
   71.9432   50.6422   54.5469 C   0  0  0  0  0  0  0  0  0  0  0  0
   71.2818   49.5767   54.0797 N   0  0  0  0  0  0  0  0  0  0  0  0
   69.9751   49.4393   54.0713 N   0  0  0  0  0  0  0  0  0  0  0  0
   69.2427   50.4709   54.5824 C   0  0  0  0  0  0  0  0  0  0  0  0
   67.9872   50.3219   54.5667 O   0  0  0  0  0  0  0  0  0  0  0  0
   69.8201   51.6147   55.0901 C   0  0  0  0  0  0  0  0  0  0  0  0
   69.0326   52.6273   55.5952 C   0  0  0  0  0  0  0  0  0  0  0  0
   69.6715   53.7668   56.0988 C   0  0  0  0  0  0  0  0  0  0  0  0
   71.0428   53.8566   56.0825 C   0  0  0  0  0  0  0  0  0  0  0  0
   71.7851   52.8224   55.5691 C   0  0  0  0  0  0  0  0  0  0  0  0
   71.2176   51.6774   55.0603 C   0  0  0  0  0  0  0  0  0  0  0  0
   69.3227   48.2902   53.5637 C   0  0  0  0  0  0  0  0  0  0  0  0
   69.2735   48.0048   52.2245 C   0  0  0  0  0  0  0  0  0  0  0  0
   68.6415   46.8890   51.7208 C   0  0  0  0  0  0  0  0  0  0  0  0
   68.0391   46.0370   52.6254 C   0  0  0  0  0  0  0  0  0  0  0  0
   68.0620   46.2781   53.9743 C   0  0  0  0  0  0  0  0  0  0  0  0
   68.7166   47.4262   54.4411 C   0  0  0  0  0  0  0  0  0  0  0  0
   74.1391   51.0159   55.6870 N   0  0  0  0  0  0  0  0  0  0  0  0
   73.3958   50.6565   54.4923 C   0  0  0  0  0  0  0  0  0  0  0  0
   74.1280   50.3930   53.5295 O   0  0  0  0  0  0  0  0  0  0  0  0
   75.7246   48.9361   56.4986 O   0  0  0  0  0  0  0  0  0  0  0  0
   76.3328   49.9433   56.0660 C   0  0  0  0  0  0  0  0  0  0  0  0
   75.5255   51.0315   55.6412 N   0  0  0  0  0  0  0  0  0  0  0  0
   77.7833   49.9252   56.0327 C   0  0  0  0  0  0  0  0  0  0  0  0
   78.5596   50.9904   56.4038 C   0  0  0  0  0  0  0  0  0  0  0  0
   79.9336   50.9007   56.3453 C   0  0  0  0  0  0  0  0  0  0  0  0
   80.5908   49.7702   55.9236 C   0  0  0  0  0  0  0  0  0  0  0  0
   81.9315   49.7684   55.8979 F   0  0  0  0  0  0  0  0  0  0  0  0
   79.8070   48.6890   55.5465 C   0  0  0  0  0  0  0  0  0  0  0  0
   78.4169   48.7652   55.6002 C   0  0  0  0  0  0  0  0  0  0  0  0
 21 22  2  0
 22 23  1  0
 22 24  1  0
 23 18  1  0
 18 19  1  0
 19 20  2  0
 19  1  1  0
  1  2  2  0
  1 11  1  0
  2  3  1  0
  3 12  1  0
  3  4  1  0
 12 13  2  0
 12 17  1  0
 13 14  1  0
 14 15  2  0
 15 16  1  0
 16 17  2  0
  4  5  2  0
  4  6  1  0
  6  7  1  0
  6 11  2  0
  7  8  2  0
  8  9  1  0
  9 10  2  0
 10 11  1  0
 24 25  2  0
 24 30  1  0
 25 26  1  0
 26 27  2  0
 27 28  1  0
 27 29  1  0
 29 30  2  0
M  END
>  <minimizedAffinity>  (444) 
-8.91947

$$$$
cs_full_output_folder/data/smiles/534.pdb
     RDKit          3D

 32 35  0  0  0  0  0  0  0  0999 V2000
   66.3591   41.0936   61.4392 C   0  0  0  0  0  0  0  0  0  0  0  0
   67.4247   41.6068   60.8220 C   0  0  0  0  0  0  0  0  0  0  0  0
   68.1004   40.8009   59.8580 N   0  0  0  0  0  0  0  0  0  0  0  0
   69.5289   41.0643   59.6315 C   0  0  0  0  0  0  0  0  0  0  0  0
   69.6589   42.5475   59.3715 C   0  0  0  0  0  0  0  0  0  0  0  0
   70.3080   43.0130   58.3204 C   0  0  0  0  0  0  0  0  0  0  0  0
   69.0499   43.4025   60.3262 N   0  0  0  0  0  0  0  0  0  0  0  0
   67.9210   42.9452   61.0607 C   0  0  0  0  0  0  0  0  0  0  0  0
   67.3693   43.6859   61.8987 O   0  0  0  0  0  0  0  0  0  0  0  0
   70.4229   44.4661   58.0749 C   0  0  0  0  0  0  0  0  0  0  0  0
   71.4011   45.2122   58.6757 C   0  0  0  0  0  0  0  0  0  0  0  0
   71.4674   46.5439   58.3767 C   0  0  0  0  0  0  0  0  0  0  0  0
   70.5646   47.1473   57.4786 C   0  0  0  0  0  0  0  0  0  0  0  0
   69.5789   46.4369   56.8606 C   0  0  0  0  0  0  0  0  0  0  0  0
   69.5606   45.0597   57.2108 C   0  0  0  0  0  0  0  0  0  0  0  0
   68.6106   46.8755   55.8905 C   0  0  0  0  0  0  0  0  0  0  0  0
   67.4746   47.3095   56.4011 O   0  0  0  0  0  0  0  0  0  0  0  0
   68.6364   46.9250   54.4503 C   0  0  0  0  0  0  0  0  0  0  0  0
   67.9305   45.8972   53.7893 C   0  0  0  0  0  0  0  0  0  0  0  0
   67.8710   45.8043   52.4321 C   0  0  0  0  0  0  0  0  0  0  0  0
   68.5130   46.7323   51.6570 C   0  0  0  0  0  0  0  0  0  0  0  0
   69.2083   47.7463   52.2660 C   0  0  0  0  0  0  0  0  0  0  0  0
   69.2656   47.8369   53.6563 C   0  0  0  0  0  0  0  0  0  0  0  0
   66.0023   38.6641   62.0151 C   0  0  0  0  0  0  0  0  0  0  0  0
   65.4044   37.6126   61.4348 N   0  0  0  0  0  0  0  0  0  0  0  0
   64.8743   38.0097   60.2754 C   0  0  0  0  0  0  0  0  0  0  0  0
   65.1476   39.3108   60.1411 N   0  0  0  0  0  0  0  0  0  0  0  0
   65.8460   39.7682   61.1921 C   0  0  0  0  0  0  0  0  0  0  0  0
   66.4923   39.9114   64.1002 C   0  0  0  0  0  0  0  0  0  0  0  0
   66.6939   38.6150   63.3383 C   0  0  0  0  0  0  0  0  0  0  0  0
   66.0886   37.5004   64.1580 C   0  0  0  0  0  0  0  0  0  0  0  0
   68.1611   38.2989   63.1804 C   0  0  0  0  0  0  0  0  0  0  0  0
 29 30  1  0
 30 31  1  0
 30 32  1  0
 30 24  1  0
 24 25  1  0
 24 28  2  0
 25 26  1  0
 26 27  2  0
 27 28  1  0
 28  1  1  0
  1  2  2  0
  2  3  1  0
  2  8  1  0
  3  4  1  0
  4  5  1  0
  5  6  2  0
  5  7  1  0
  6 10  1  0
 10 11  2  0
 10 15  1  0
 11 12  1  0
 12 13  2  0
 13 14  1  0
 14 16  1  0
 14 15  2  0
 16 17  2  0
 16 18  1  0
 18 19  2  0
 18 23  1  0
 19 20  1  0
 20 21  2  0
 21 22  1  0
 22 23  2  0
  7  8  1  0
  8  9  2  0
M  CHG  1  27   1
M  END
>  <minimizedAffinity>  (445) 
-8.91881

$$$$
cs_full_output_folder/data/smiles/1561.pdb
     RDKit          3D

 33 37  0  0  0  0  0  0  0  0999 V2000
   71.2795   46.8346   58.8757 C   0  0  0  0  0  0  0  0  0  0  0  0
   70.5083   47.7099   58.1495 C   0  0  0  0  0  0  0  0  0  0  0  0
   69.6725   47.2793   57.1229 C   0  0  0  0  0  0  0  0  0  0  0  0
   69.6613   45.9223   56.8734 C   0  0  0  0  0  0  0  0  0  0  0  0
   70.4412   45.0252   57.6039 C   0  0  0  0  0  0  0  0  0  0  0  0
   71.2560   45.4843   58.6122 C   0  0  0  0  0  0  0  0  0  0  0  0
   71.9984   44.5876   59.3014 F   0  0  0  0  0  0  0  0  0  0  0  0
   75.3709   45.6459   59.1919 N   0  0  0  0  0  0  0  0  0  0  0  0
   75.3800   45.8780   60.6291 C   0  0  0  0  0  0  0  0  0  0  0  0
   75.6403   47.3704   60.8122 C   0  0  0  0  0  0  0  0  0  0  0  0
   74.2741   48.0257   60.8406 C   0  0  0  0  0  0  0  0  0  0  0  0
   73.5139   47.6039   59.7032 N   0  0  0  0  0  0  0  0  0  0  0  0
   72.1709   47.2837   59.9677 C   0  0  0  0  0  0  0  0  0  0  0  0
   71.7382   47.3863   61.1464 O   0  0  0  0  0  0  0  0  0  0  0  0
   73.9283   47.4639   58.3411 C   0  0  0  0  0  0  0  0  0  0  0  0
   74.9444   46.4193   58.0732 C   0  0  0  0  0  0  0  0  0  0  0  0
   77.1653   44.1849   58.7735 N   0  0  0  0  0  0  0  0  0  0  0  0
   75.9049   44.3766   58.8545 C   0  0  0  0  0  0  0  0  0  0  0  0
   75.0186   43.3033   58.6020 N   0  0  0  0  0  0  0  0  0  0  0  0
   74.0978   42.6508   57.6756 C   0  0  0  0  0  0  0  0  0  0  0  0
   74.3333   42.0710   58.9807 C   0  0  0  0  0  0  0  0  0  0  0  0
   68.8444   48.2421   56.3491 C   0  0  0  0  0  0  0  0  0  0  0  0
   69.3172   48.3030   54.9409 C   0  0  0  0  0  0  0  0  0  0  0  0
   70.2771   49.1723   54.5731 N   0  0  0  0  0  0  0  0  0  0  0  0
   70.7581   49.3045   53.3702 N   0  0  0  0  0  0  0  0  0  0  0  0
   70.2994   48.5396   52.3742 C   0  0  0  0  0  0  0  0  0  0  0  0
   70.7881   48.6960   51.2286 O   0  0  0  0  0  0  0  0  0  0  0  0
   69.3098   47.6160   52.6618 C   0  0  0  0  0  0  0  0  0  0  0  0
   68.8407   46.8292   51.6259 C   0  0  0  0  0  0  0  0  0  0  0  0
   67.8554   45.9234   51.9545 C   0  0  0  0  0  0  0  0  0  0  0  0
   67.3395   45.7772   53.2293 C   0  0  0  0  0  0  0  0  0  0  0  0
   67.8362   46.5880   54.2502 C   0  0  0  0  0  0  0  0  0  0  0  0
   68.8173   47.4975   53.9461 C   0  0  0  0  0  0  0  0  0  0  0  0
 17 18  2  0
 18 19  1  0
 18  8  1  0
 19 20  1  0
 19 21  1  0
 20 21  1  0
  8  9  1  0
  8 16  1  0
  9 10  1  0
 10 11  1  0
 11 12  1  0
 12 13  1  0
 12 15  1  0
 13 14  2  0
 13  1  1  0
  1  2  2  0
  1  6  1  0
  2  3  1  0
  3 22  1  0
  3  4  2  0
 22 23  1  0
 23 24  2  0
 23 33  1  0
 24 25  1  0
 25 26  1  0
 26 27  2  0
 26 28  1  0
 28 29  1  0
 28 33  2  0
 29 30  2  0
 30 31  1  0
 31 32  2  0
 32 33  1  0
  4  5  1  0
  5  6  2  0
  6  7  1  0
 15 16  1  0
M  CHG  1  17   1
M  END
>  <minimizedAffinity>  (446) 
-8.91816

$$$$
cs_full_output_folder/data/smiles/9328.pdb
     RDKit          3D

 30 33  0  0  0  0  0  0  0  0999 V2000
   68.5453   45.7806   55.1972 C   0  0  0  0  0  0  0  0  0  0  0  0
   69.0339   46.8144   55.9663 C   0  0  0  0  0  0  0  0  0  0  0  0
   69.3062   48.0588   55.4465 C   0  0  0  0  0  0  0  0  0  0  0  0
   69.0950   48.3349   54.0865 C   0  0  0  0  0  0  0  0  0  0  0  0
   68.6065   47.3106   53.3108 C   0  0  0  0  0  0  0  0  0  0  0  0
   68.3423   46.0629   53.8667 C   0  0  0  0  0  0  0  0  0  0  0  0
   68.8244   43.9523   56.9220 N   0  0  0  0  0  0  0  0  0  0  0  0
   68.2584   44.4623   55.7483 C   0  0  0  0  0  0  0  0  0  0  0  0
   67.4435   43.7213   55.1286 O   0  0  0  0  0  0  0  0  0  0  0  0
   70.7437   42.0514   57.3916 O   0  0  0  0  0  0  0  0  0  0  0  0
   69.5618   41.7230   57.7086 C   0  0  0  0  0  0  0  0  0  0  0  0
   68.5662   42.6926   57.4717 N   0  0  0  0  0  0  0  0  0  0  0  0
   69.3250   40.4049   58.2799 C   0  0  0  0  0  0  0  0  0  0  0  0
   68.0631   39.9199   58.5266 C   0  0  0  0  0  0  0  0  0  0  0  0
   67.9025   38.6447   59.0755 C   0  0  0  0  0  0  0  0  0  0  0  0
   68.9810   37.8446   59.3818 C   0  0  0  0  0  0  0  0  0  0  0  0
   70.2496   38.3308   59.1351 C   0  0  0  0  0  0  0  0  0  0  0  0
   70.3896   39.5869   58.5950 C   0  0  0  0  0  0  0  0  0  0  0  0
   69.3899   49.7087   53.5977 C   0  0  0  0  0  0  0  0  0  0  0  0
   70.5834   50.3245   54.1699 C   0  0  0  0  0  0  0  0  0  0  0  0
   71.7773   49.9125   53.6270 N   0  0  0  0  0  0  0  0  0  0  0  0
   72.9361   50.3681   53.9930 N   0  0  0  0  0  0  0  0  0  0  0  0
   73.0186   51.2938   54.9518 C   0  0  0  0  0  0  0  0  0  0  0  0
   74.1449   51.7569   55.3285 O   0  0  0  0  0  0  0  0  0  0  0  0
   71.8742   51.7519   55.5394 C   0  0  0  0  0  0  0  0  0  0  0  0
   70.6507   51.2643   55.1465 C   0  0  0  0  0  0  0  0  0  0  0  0
   69.4709   51.7814   55.8347 C   0  0  0  0  0  0  0  0  0  0  0  0
   69.5283   53.3021   55.9960 C   0  0  0  0  0  0  0  0  0  0  0  0
   70.9009   53.8408   56.1739 C   0  0  0  0  0  0  0  0  0  0  0  0
   71.9049   52.8002   56.6250 C   0  0  0  0  0  0  0  0  0  0  0  0
 10 11  2  0
 11 12  1  0
 11 13  1  0
 12  7  1  0
  7  8  1  0
  8  9  2  0
  8  1  1  0
  1  2  2  0
  1  6  1  0
  2  3  1  0
  3  4  2  0
  4 19  1  0
  4  5  1  0
 19 20  1  0
 20 21  2  0
 20 26  1  0
 21 22  1  0
 22 23  1  0
 23 24  2  0
 23 25  1  0
 25 26  2  0
 25 30  1  0
 26 27  1  0
 27 28  1  0
 28 29  1  0
 29 30  1  0
  5  6  2  0
 13 14  2  0
 13 18  1  0
 14 15  1  0
 15 16  2  0
 16 17  1  0
 17 18  2  0
M  END
>  <minimizedAffinity>  (447) 
-8.91815

$$$$
cs_full_output_folder/data/smiles/3756.pdb
     RDKit          3D

 26 28  0  0  0  0  0  0  0  0999 V2000
   69.9479   46.4434   58.2038 N   0  0  0  0  0  0  0  0  0  0  0  0
   70.4501   45.5678   58.9756 C   0  0  0  0  0  0  0  0  0  0  0  0
   71.0889   44.3919   58.4345 C   0  0  0  0  0  0  0  0  0  0  0  0
   70.3555   43.3587   57.8964 C   0  0  0  0  0  0  0  0  0  0  0  0
   68.9587   43.4538   57.8332 O   0  0  0  0  0  0  0  0  0  0  0  0
   71.0274   42.2442   57.4295 C   0  0  0  0  0  0  0  0  0  0  0  0
   72.4087   42.1659   57.4995 C   0  0  0  0  0  0  0  0  0  0  0  0
   73.1057   43.2240   58.0452 C   0  0  0  0  0  0  0  0  0  0  0  0
   74.4847   43.1857   58.1469 C   0  0  0  0  0  0  0  0  0  0  0  0
   75.2111   44.2257   58.6973 C   0  0  0  0  0  0  0  0  0  0  0  0
   77.1280   44.1073   58.8080 Br  0  0  0  0  0  0  0  0  0  0  0  0
   74.5799   45.3562   59.1731 C   0  0  0  0  0  0  0  0  0  0  0  0
   73.2001   45.4024   59.0775 C   0  0  0  0  0  0  0  0  0  0  0  0
   72.4863   44.3508   58.5220 C   0  0  0  0  0  0  0  0  0  0  0  0
   67.7952   47.2058   56.7593 O   0  0  0  0  0  0  0  0  0  0  0  0
   68.7785   46.8156   56.0767 C   0  0  0  0  0  0  0  0  0  0  0  0
   69.9352   46.4028   56.8092 N   0  0  0  0  0  0  0  0  0  0  0  0
   68.6767   46.8097   54.6300 C   0  0  0  0  0  0  0  0  0  0  0  0
   67.9794   45.8674   53.9151 C   0  0  0  0  0  0  0  0  0  0  0  0
   67.9148   45.9003   52.5103 C   0  0  0  0  0  0  0  0  0  0  0  0
   68.5583   46.8916   51.8085 C   0  0  0  0  0  0  0  0  0  0  0  0
   69.2641   47.8475   52.5039 C   0  0  0  0  0  0  0  0  0  0  0  0
   69.3205   47.8047   53.8776 C   0  0  0  0  0  0  0  0  0  0  0  0
   69.9228   48.8609   51.7532 N   0  0  0  0  0  0  0  0  0  0  0  0
   69.7735   50.0744   51.9827 O   0  0  0  0  0  0  0  0  0  0  0  0
   70.7714   48.5035   50.7371 O   0  0  0  0  0  0  0  0  0  0  0  0
 15 16  2  0
 16 17  1  0
 16 18  1  0
 17  1  1  0
  1  2  2  0
  2  3  1  0
  3  4  2  0
  3 14  1  0
  4  5  1  0
  4  6  1  0
  6  7  2  0
  7  8  1  0
  8  9  1  0
  8 14  2  0
  9 10  2  0
 10 11  1  0
 10 12  1  0
 12 13  2  0
 13 14  1  0
 18 19  2  0
 18 23  1  0
 19 20  1  0
 20 21  2  0
 21 22  1  0
 22 24  1  0
 22 23  2  0
 24 25  2  0
 24 26  1  0
M  CHG  2  24   1  26  -1
M  END
>  <minimizedAffinity>  (448) 
-8.91653

$$$$
cs_full_output_folder/data/smiles/6515.pdb
     RDKit          3D

 32 36  0  0  0  0  0  0  0  0999 V2000
   71.4253   45.6348   58.1626 C   0  0  0  0  0  0  0  0  0  0  0  0
   70.4218   46.0702   57.2867 C   0  0  0  0  0  0  0  0  0  0  0  0
   69.8853   47.3101   57.3596 C   0  0  0  0  0  0  0  0  0  0  0  0
   70.3857   48.1520   58.3642 C   0  0  0  0  0  0  0  0  0  0  0  0
   71.3731   47.7313   59.2305 C   0  0  0  0  0  0  0  0  0  0  0  0
   71.9089   46.4684   59.1440 C   0  0  0  0  0  0  0  0  0  0  0  0
   72.8723   46.0805   60.0018 F   0  0  0  0  0  0  0  0  0  0  0  0
   70.0396   41.5276   57.9192 C   0  0  0  0  0  0  0  0  0  0  0  0
   69.8621   42.8323   58.6651 C   0  0  0  0  0  0  0  0  0  0  0  0
   71.2355   43.1253   58.3182 N   0  0  0  0  0  0  0  0  0  0  0  0
   71.9919   44.2905   58.0791 C   0  0  0  0  0  0  0  0  0  0  0  0
   73.2244   44.1707   57.7771 O   0  0  0  0  0  0  0  0  0  0  0  0
   71.4876   41.7087   58.3287 C   0  0  0  0  0  0  0  0  0  0  0  0
   69.3650   40.3355   58.4990 C   0  0  0  0  0  0  0  0  0  0  0  0
   68.1915   39.8367   57.6167 C   0  0  0  0  0  0  0  0  0  0  0  0
   67.9772   40.3352   59.0155 C   0  0  0  0  0  0  0  0  0  0  0  0
   71.9372   37.4543   58.4079 C   0  0  0  0  0  0  0  0  0  0  0  0
   71.0418   38.5036   57.9795 N   0  0  0  0  0  0  0  0  0  0  0  0
   70.2941   39.2493   58.9218 C   0  0  0  0  0  0  0  0  0  0  0  0
   70.4045   38.9991   60.1671 O   0  0  0  0  0  0  0  0  0  0  0  0
   68.8349   47.8936   56.5109 C   0  0  0  0  0  0  0  0  0  0  0  0
   69.2082   48.1449   55.1159 C   0  0  0  0  0  0  0  0  0  0  0  0
   70.0612   49.1548   54.8031 N   0  0  0  0  0  0  0  0  0  0  0  0
   70.4723   49.4096   53.5750 N   0  0  0  0  0  0  0  0  0  0  0  0
   70.0805   48.6846   52.5133 C   0  0  0  0  0  0  0  0  0  0  0  0
   70.4759   48.9260   51.3221 O   0  0  0  0  0  0  0  0  0  0  0  0
   69.2019   47.6308   52.7717 C   0  0  0  0  0  0  0  0  0  0  0  0
   68.7731   46.8819   51.6979 C   0  0  0  0  0  0  0  0  0  0  0  0
   67.8928   45.8400   51.8853 C   0  0  0  0  0  0  0  0  0  0  0  0
   67.4655   45.5812   53.1707 C   0  0  0  0  0  0  0  0  0  0  0  0
   67.8928   46.3276   54.2422 C   0  0  0  0  0  0  0  0  0  0  0  0
   68.7689   47.3649   54.0661 C   0  0  0  0  0  0  0  0  0  0  0  0
 17 18  1  0
 18 19  1  0
 19 20  2  0
 19 14  1  0
 14  8  1  0
 14 15  1  0
 14 16  1  0
  8  9  1  0
  8 13  1  0
  9 10  1  0
 10 11  1  0
 10 13  1  0
 11 12  2  0
 11  1  1  0
  1  2  2  0
  1  6  1  0
  2  3  1  0
  3 21  1  0
  3  4  2  0
 21 22  1  0
 22 23  2  0
 22 32  1  0
 23 24  1  0
 24 25  1  0
 25 26  2  0
 25 27  1  0
 27 28  1  0
 27 32  2  0
 28 29  2  0
 29 30  1  0
 30 31  2  0
 31 32  1  0
  4  5  1  0
  5  6  2  0
  6  7  1  0
 15 16  1  0
M  END
>  <minimizedAffinity>  (449) 
-8.91459

$$$$
cs_full_output_folder/data/smiles/1843.pdb
     RDKit          3D

 32 36  0  0  0  0  0  0  0  0999 V2000
   72.0543   48.0040   58.9498 C   0  0  0  0  0  0  0  0  0  0  0  0
   70.7974   48.1710   58.3692 C   0  0  0  0  0  0  0  0  0  0  0  0
   70.5574   48.9810   57.2909 C   0  0  0  0  0  0  0  0  0  0  0  0
   71.6827   49.6504   56.7908 C   0  0  0  0  0  0  0  0  0  0  0  0
   72.9384   49.5125   57.3344 C   0  0  0  0  0  0  0  0  0  0  0  0
   73.1278   48.6813   58.4253 C   0  0  0  0  0  0  0  0  0  0  0  0
   74.3411   48.5051   59.0053 F   0  0  0  0  0  0  0  0  0  0  0  0
   71.8512   42.9314   58.8546 N   0  0  2  0  0  0  0  0  0  0  0  0
   70.9819   43.3826   59.8835 C   0  0  0  0  0  0  0  0  0  0  0  0
   71.6867   43.7238   61.1621 C   0  0  0  0  0  0  0  0  0  0  0  0
   72.5889   44.9106   61.0865 C   0  0  0  0  0  0  0  0  0  0  0  0
   72.3974   45.7322   59.9129 N   0  0  0  0  0  0  0  0  0  0  0  0
   72.2495   47.1277   60.0950 C   0  0  0  0  0  0  0  0  0  0  0  0
   72.2943   47.5700   61.2781 O   0  0  0  0  0  0  0  0  0  0  0  0
   72.3328   45.3099   58.5149 C   0  0  0  0  0  0  0  0  0  0  0  0
   72.7866   43.8698   58.3698 C   0  0  0  0  0  0  0  0  0  0  0  0
   68.7883   43.3636   57.1733 O   0  0  0  0  0  0  0  0  0  0  0  0
   69.7185   42.6705   57.5411 C   0  0  0  0  0  0  0  0  0  0  0  0
   70.0621   41.3226   58.1722 C   0  0  0  0  0  0  0  0  0  0  0  0
   71.1342   42.2857   57.7981 C   0  0  2  0  0  0  0  0  0  0  0  0
   69.2246   49.2023   56.6459 C   0  0  0  0  0  0  0  0  0  0  0  0
   68.8243   48.0461   55.8106 C   0  0  0  0  0  0  0  0  0  0  0  0
   68.2470   46.9883   56.4401 N   0  0  0  0  0  0  0  0  0  0  0  0
   67.9317   45.9313   55.7403 N   0  0  0  0  0  0  0  0  0  0  0  0
   68.1460   45.8266   54.4127 C   0  0  0  0  0  0  0  0  0  0  0  0
   67.8221   44.7824   53.7858 O   0  0  0  0  0  0  0  0  0  0  0  0
   68.7279   46.8954   53.7755 C   0  0  0  0  0  0  0  0  0  0  0  0
   68.9426   46.8154   52.4303 C   0  0  0  0  0  0  0  0  0  0  0  0
   69.5128   47.8893   51.7782 C   0  0  0  0  0  0  0  0  0  0  0  0
   69.8657   49.0295   52.4616 C   0  0  0  0  0  0  0  0  0  0  0  0
   69.6562   49.1243   53.8159 C   0  0  0  0  0  0  0  0  0  0  0  0
   69.0824   48.0382   54.4655 C   0  0  0  0  0  0  0  0  0  0  0  0
 17 18  2  0
 18 19  1  0
 18 20  1  0
 20 19  1  1
 20  8  1  0
  8  9  1  1
  8 16  1  0
  9 10  1  0
 10 11  1  0
 11 12  1  0
 12 13  1  0
 12 15  1  0
 13 14  2  0
 13  1  1  0
  1  2  2  0
  1  6  1  0
  2  3  1  0
  3 21  1  0
  3  4  2  0
 21 22  1  0
 22 23  2  0
 22 32  1  0
 23 24  1  0
 24 25  1  0
 25 26  2  0
 25 27  1  0
 27 28  1  0
 27 32  2  0
 28 29  2  0
 29 30  1  0
 30 31  2  0
 31 32  1  0
  4  5  1  0
  5  6  2  0
  6  7  1  0
 15 16  1  0
M  CHG  1   8   1
M  END
>  <minimizedAffinity>  (450) 
-8.91391

$$$$
cs_full_output_folder/data/smiles/6948.pdb
     RDKit          3D

 30 33  0  0  0  0  0  0  0  0999 V2000
   71.3599   46.9042   58.9683 C   0  0  0  0  0  0  0  0  0  0  0  0
   70.4215   47.6054   58.2401 C   0  0  0  0  0  0  0  0  0  0  0  0
   69.6131   47.0442   57.2800 C   0  0  0  0  0  0  0  0  0  0  0  0
   69.7566   45.6715   57.0296 C   0  0  0  0  0  0  0  0  0  0  0  0
   70.6853   44.9552   57.7447 C   0  0  0  0  0  0  0  0  0  0  0  0
   71.4790   45.5437   58.6978 C   0  0  0  0  0  0  0  0  0  0  0  0
   72.3830   44.8313   59.3906 F   0  0  0  0  0  0  0  0  0  0  0  0
   75.9301   47.8310   58.7338 N   0  0  2  0  0  0  0  0  0  0  0  0
   76.0033   49.1188   59.3960 C   0  0  0  0  0  0  0  0  0  0  0  0
   75.4264   49.1092   60.7657 C   0  0  0  0  0  0  0  0  0  0  0  0
   73.9645   48.8912   60.8713 C   0  0  0  0  0  0  0  0  0  0  0  0
   73.3070   48.3758   59.7057 N   0  0  0  0  0  0  0  0  0  0  0  0
   72.2040   47.5347   59.9690 C   0  0  0  0  0  0  0  0  0  0  0  0
   71.8732   47.2740   61.1801 O   0  0  0  0  0  0  0  0  0  0  0  0
   73.6169   48.5888   58.3203 C   0  0  0  0  0  0  0  0  0  0  0  0
   74.7826   47.7366   57.8641 C   0  0  0  0  0  0  0  0  0  0  0  0
   75.6909   45.4402   58.9837 C   0  0  0  0  0  0  0  0  0  0  0  0
   76.0494   46.7386   59.6707 C   0  0  0  0  0  0  0  0  0  0  0  0
   68.5822   47.7785   56.4942 C   0  0  0  0  0  0  0  0  0  0  0  0
   69.1026   48.0207   55.1535 C   0  0  0  0  0  0  0  0  0  0  0  0
   70.0590   48.9874   55.0624 N   0  0  0  0  0  0  0  0  0  0  0  0
   70.6245   49.2674   53.9105 N   0  0  0  0  0  0  0  0  0  0  0  0
   70.3041   48.6349   52.7728 C   0  0  0  0  0  0  0  0  0  0  0  0
   70.8632   48.9197   51.6670 O   0  0  0  0  0  0  0  0  0  0  0  0
   69.3437   47.6449   52.7861 C   0  0  0  0  0  0  0  0  0  0  0  0
   68.9831   46.9773   51.6247 C   0  0  0  0  0  0  0  0  0  0  0  0
   68.0086   46.0152   51.7426 C   0  0  0  0  0  0  0  0  0  0  0  0
   67.4100   45.7176   52.9477 C   0  0  0  0  0  0  0  0  0  0  0  0
   67.7796   46.3879   54.0849 C   0  0  0  0  0  0  0  0  0  0  0  0
   68.7453   47.3525   54.0198 C   0  0  0  0  0  0  0  0  0  0  0  0
 17 18  1  0
  8 18  1  1
  8  9  1  0
  8 16  1  0
  9 10  1  0
 10 11  1  0
 11 12  1  0
 12 13  1  0
 12 15  1  0
 13 14  2  0
 13  1  1  0
  1  2  2  0
  1  6  1  0
  2  3  1  0
  3 19  1  0
  3  4  2  0
 19 20  1  0
 20 21  2  0
 20 30  1  0
 21 22  1  0
 22 23  1  0
 23 24  2  0
 23 25  1  0
 25 26  1  0
 25 30  2  0
 26 27  2  0
 27 28  1  0
 28 29  2  0
 29 30  1  0
  4  5  1  0
  5  6  2  0
  6  7  1  0
 15 16  1  0
M  CHG  1   8   1
M  END
>  <minimizedAffinity>  (451) 
-8.91174

$$$$
cs_full_output_folder/data/smiles/9227.pdb
     RDKit          3D

 31 34  0  0  0  0  0  0  0  0999 V2000
   71.3684   45.8165   58.1763 C   0  0  0  0  0  0  0  0  0  0  0  0
   70.3272   46.2046   57.3662 C   0  0  0  0  0  0  0  0  0  0  0  0
   69.8319   47.4938   57.3377 C   0  0  0  0  0  0  0  0  0  0  0  0
   70.3891   48.4551   58.1470 C   0  0  0  0  0  0  0  0  0  0  0  0
   71.4387   48.0959   58.9732 C   0  0  0  0  0  0  0  0  0  0  0  0
   71.9052   46.8022   58.9756 C   0  0  0  0  0  0  0  0  0  0  0  0
   72.9296   46.5201   59.8057 F   0  0  0  0  0  0  0  0  0  0  0  0
   69.6718   41.2841   58.5573 C   0  0  0  0  0  0  0  0  0  0  0  0
   69.2516   42.3497   59.2565 C   0  0  0  0  0  0  0  0  0  0  0  0
   67.8737   42.3911   59.5945 N   0  0  0  0  0  0  0  0  0  0  0  0
   70.1080   43.4693   59.6869 C   0  0  0  0  0  0  0  0  0  0  0  0
   71.3420   43.3974   58.9507 N   0  0  0  0  0  0  0  0  0  0  0  0
   71.9272   44.4809   58.2530 C   0  0  0  0  0  0  0  0  0  0  0  0
   73.0345   44.3288   57.6257 O   0  0  0  0  0  0  0  0  0  0  0  0
   72.0024   42.1143   58.9450 C   0  0  0  0  0  0  0  0  0  0  0  0
   71.0866   41.1499   58.1747 C   0  0  0  0  0  0  0  0  0  0  0  0
   67.6409   41.0921   56.1602 C   0  0  0  0  0  0  0  0  0  0  0  0
   67.9377   40.2319   57.2165 N   0  0  0  0  0  0  0  0  0  0  0  0
   68.7121   40.2408   58.1839 C   0  0  0  0  0  0  0  0  0  0  0  0
   68.7040   47.8851   56.4579 C   0  0  0  0  0  0  0  0  0  0  0  0
   69.1579   48.1240   55.0772 C   0  0  0  0  0  0  0  0  0  0  0  0
   70.0140   49.1287   54.8236 N   0  0  0  0  0  0  0  0  0  0  0  0
   70.4636   49.3939   53.6001 N   0  0  0  0  0  0  0  0  0  0  0  0
   70.0725   48.6527   52.5329 C   0  0  0  0  0  0  0  0  0  0  0  0
   70.5139   48.9244   51.3765 O   0  0  0  0  0  0  0  0  0  0  0  0
   69.2030   47.6156   52.7203 C   0  0  0  0  0  0  0  0  0  0  0  0
   68.7915   46.8510   51.6627 C   0  0  0  0  0  0  0  0  0  0  0  0
   67.9093   45.8104   51.8870 C   0  0  0  0  0  0  0  0  0  0  0  0
   67.4428   45.5362   53.1642 C   0  0  0  0  0  0  0  0  0  0  0  0
   67.8719   46.3206   54.2219 C   0  0  0  0  0  0  0  0  0  0  0  0
   68.7534   47.3650   54.0121 C   0  0  0  0  0  0  0  0  0  0  0  0
 17 18  1  0
 18 19  2  0
 19  8  1  0
  8  9  2  0
  8 16  1  0
  9 10  1  0
  9 11  1  0
 11 12  1  0
 12 13  1  0
 12 15  1  0
 13 14  2  0
 13  1  1  0
  1  2  2  0
  1  6  1  0
  2  3  1  0
  3 20  1  0
  3  4  2  0
 20 21  1  0
 21 22  2  0
 21 31  1  0
 22 23  1  0
 23 24  1  0
 24 25  2  0
 24 26  1  0
 26 27  1  0
 26 31  2  0
 27 28  2  0
 28 29  1  0
 29 30  2  0
 30 31  1  0
  4  5  1  0
  5  6  2  0
  6  7  1  0
 15 16  1  0
M  END
>  <minimizedAffinity>  (452) 
-8.90912

$$$$
cs_full_output_folder/data/smiles/2241.pdb
     RDKit          3D

 33 37  0  0  0  0  0  0  0  0999 V2000
   71.3584   46.7264   58.8104 C   0  0  0  0  0  0  0  0  0  0  0  0
   70.3947   47.4163   58.1109 C   0  0  0  0  0  0  0  0  0  0  0  0
   69.5276   46.7809   57.2234 C   0  0  0  0  0  0  0  0  0  0  0  0
   69.6829   45.4319   57.0795 C   0  0  0  0  0  0  0  0  0  0  0  0
   70.6417   44.7084   57.7692 C   0  0  0  0  0  0  0  0  0  0  0  0
   71.4784   45.3692   58.6359 C   0  0  0  0  0  0  0  0  0  0  0  0
   72.4385   44.7034   59.3376 F   0  0  0  0  0  0  0  0  0  0  0  0
   71.8120   47.7030   60.8643 O   0  0  0  0  0  0  0  0  0  0  0  0
   72.2669   47.3895   59.7368 C   0  0  0  0  0  0  0  0  0  0  0  0
   73.6043   47.6882   59.4297 N   0  0  0  0  0  0  0  0  0  0  0  0
   74.4656   48.3603   60.4139 C   0  0  0  0  0  0  0  0  0  0  0  0
   75.1934   49.4760   59.7071 C   0  0  0  0  0  0  0  0  0  0  0  0
   76.0132   48.8948   58.6574 N   0  0  0  0  0  0  0  0  0  0  0  0
   75.7180   47.5426   58.2372 C   0  0  0  0  0  0  0  0  0  0  0  0
   74.1999   47.3600   58.1481 C   0  0  0  0  0  0  0  0  0  0  0  0
   77.0539   49.6760   58.0929 C   0  0  0  0  0  0  0  0  0  0  0  0
   77.0683   49.8700   56.7318 C   0  0  0  0  0  0  0  0  0  0  0  0
   78.0553   50.6220   56.1438 C   0  0  0  0  0  0  0  0  0  0  0  0
   79.0587   51.1999   56.9349 C   0  0  0  0  0  0  0  0  0  0  0  0
   79.0562   51.0153   58.2942 C   0  0  0  0  0  0  0  0  0  0  0  0
   78.0402   50.2445   58.8757 C   0  0  0  0  0  0  0  0  0  0  0  0
   68.5268   47.5823   56.4915 C   0  0  0  0  0  0  0  0  0  0  0  0
   69.0731   47.9714   55.1573 C   0  0  0  0  0  0  0  0  0  0  0  0
   69.7385   49.1499   55.0257 N   0  0  0  0  0  0  0  0  0  0  0  0
   70.2333   49.5868   53.8831 N   0  0  0  0  0  0  0  0  0  0  0  0
   70.0583   48.8087   52.7959 C   0  0  0  0  0  0  0  0  0  0  0  0
   70.5373   49.2421   51.7076 O   0  0  0  0  0  0  0  0  0  0  0  0
   69.3957   47.6071   52.8592 C   0  0  0  0  0  0  0  0  0  0  0  0
   68.8875   47.1684   54.0636 C   0  0  0  0  0  0  0  0  0  0  0  0
   68.2149   45.8901   54.1199 N   0  0  0  0  0  0  0  0  0  0  0  0
   67.5492   45.3574   52.9500 C   0  0  0  0  0  0  0  0  0  0  0  0
   67.7014   46.2966   51.7855 C   0  0  0  0  0  0  0  0  0  0  0  0
   69.1732   46.7226   51.6938 C   0  0  0  0  0  0  0  0  0  0  0  0
  8  9  2  0
  9  1  1  0
  9 10  1  0
  1  2  2  0
  1  6  1  0
  2  3  1  0
  3 22  1  0
  3  4  2  0
 22 23  1  0
 23 24  2  0
 23 29  1  0
 24 25  1  0
 25 26  1  0
 26 27  2  0
 26 28  1  0
 28 29  2  0
 28 33  1  0
 29 30  1  0
 30 31  1  0
 31 32  1  0
 32 33  1  0
  4  5  1  0
  5  6  2  0
  6  7  1  0
 10 11  1  0
 10 15  1  0
 11 12  1  0
 12 13  1  0
 13 16  1  0
 13 14  1  0
 16 17  2  0
 16 21  1  0
 17 18  1  0
 18 19  2  0
 19 20  1  0
 20 21  2  0
 14 15  1  0
M  END
>  <minimizedAffinity>  (453) 
-8.90614

$$$$
cs_full_output_folder/data/smiles/8076.pdb
     RDKit          3D

 32 36  0  0  0  0  0  0  0  0999 V2000
   71.3950   46.8043   58.8417 C   0  0  0  0  0  0  0  0  0  0  0  0
   70.6279   47.7160   58.1149 C   0  0  0  0  0  0  0  0  0  0  0  0
   69.7302   47.3747   57.1596 C   0  0  0  0  0  0  0  0  0  0  0  0
   69.5894   45.9953   56.9118 C   0  0  0  0  0  0  0  0  0  0  0  0
   70.3134   45.0454   57.5914 C   0  0  0  0  0  0  0  0  0  0  0  0
   71.2160   45.4717   58.5578 C   0  0  0  0  0  0  0  0  0  0  0  0
   71.9391   44.5616   59.2384 F   0  0  0  0  0  0  0  0  0  0  0  0
   71.9311   47.6730   60.9349 O   0  0  0  0  0  0  0  0  0  0  0  0
   72.3413   47.2228   59.8507 C   0  0  0  0  0  0  0  0  0  0  0  0
   73.7220   47.1174   59.5968 N   0  0  0  0  0  0  0  0  0  0  0  0
   74.7697   47.4991   60.5172 C   0  0  0  0  0  0  0  0  0  0  0  0
   75.8001   46.4238   60.2936 C   0  0  1  0  0  0  0  0  0  0  0  0
   75.4329   45.1960   61.0600 C   0  0  0  0  0  0  0  0  0  0  0  0
   75.1713   44.1351   60.1238 N   0  0  1  0  0  0  0  0  0  0  0  0
   75.6630   44.5238   58.8350 C   0  0  0  0  0  0  0  0  0  0  0  0
   75.6382   46.0213   58.8517 C   0  0  1  0  0  0  0  0  0  0  0  0
   74.3484   46.6180   58.3857 C   0  0  0  0  0  0  0  0  0  0  0  0
   75.8999   42.9535   60.6028 C   0  0  0  0  0  0  0  0  0  0  0  0
   76.9271   43.4245   61.3977 F   0  0  0  0  0  0  0  0  0  0  0  0
   76.3384   42.1684   59.5743 F   0  0  0  0  0  0  0  0  0  0  0  0
   68.8940   48.2588   56.3392 C   0  0  0  0  0  0  0  0  0  0  0  0
   69.3757   48.3056   54.9390 C   0  0  0  0  0  0  0  0  0  0  0  0
   70.3594   49.1893   54.5775 N   0  0  0  0  0  0  0  0  0  0  0  0
   70.8064   49.3205   53.3564 N   0  0  0  0  0  0  0  0  0  0  0  0
   70.3078   48.5689   52.3578 C   0  0  0  0  0  0  0  0  0  0  0  0
   70.7166   48.6723   51.1737 O   0  0  0  0  0  0  0  0  0  0  0  0
   69.3089   47.6360   52.5961 C   0  0  0  0  0  0  0  0  0  0  0  0
   68.8006   46.8539   51.5854 C   0  0  0  0  0  0  0  0  0  0  0  0
   67.8202   45.9280   51.8653 C   0  0  0  0  0  0  0  0  0  0  0  0
   67.3591   45.7970   53.1544 C   0  0  0  0  0  0  0  0  0  0  0  0
   67.8912   46.6014   54.1518 C   0  0  0  0  0  0  0  0  0  0  0  0
   68.8709   47.5410   53.9209 C   0  0  0  0  0  0  0  0  0  0  0  0
  8  9  2  0
  9  1  1  0
  9 10  1  0
  1  2  2  0
  1  6  1  0
  2  3  1  0
  3 21  1  0
  3  4  2  0
 21 22  1  0
 22 23  2  0
 22 32  1  0
 23 24  1  0
 24 25  1  0
 25 26  2  0
 25 27  1  0
 27 28  1  0
 27 32  2  0
 28 29  2  0
 29 30  1  0
 30 31  2  0
 31 32  1  0
  4  5  1  0
  5  6  2  0
  6  7  1  0
 10 11  1  0
 10 17  1  0
 12 11  1  1
 12 13  1  0
 12 16  1  0
 13 14  1  0
 14 18  1  1
 14 15  1  0
 18 19  1  0
 18 20  1  0
 16 15  1  1
 16 17  1  0
M  CHG  1  14   1
M  END
>  <minimizedAffinity>  (454) 
-8.90340

$$$$
cs_full_output_folder/data/smiles/1962.pdb
     RDKit          3D

 33 37  0  0  0  0  0  0  0  0999 V2000
   74.2783   48.3020   58.3210 C   0  0  0  0  0  0  0  0  0  0  0  0
   74.6763   47.2704   58.9280 O   0  0  0  0  0  0  0  0  0  0  0  0
   72.9602   48.7389   58.6559 N   0  0  0  0  0  0  0  0  0  0  0  0
   72.4465   49.8729   57.9923 C   0  0  0  0  0  0  0  0  0  0  0  0
   71.0047   50.0908   58.4377 C   0  0  0  0  0  0  0  0  0  0  0  0
   70.0566   49.0704   57.8265 C   0  0  0  0  0  0  0  0  0  0  0  0
   70.3534   47.7251   58.1141 N   0  0  0  0  0  0  0  0  0  0  0  0
   69.5896   46.7246   57.4017 C   0  0  0  0  0  0  0  0  0  0  0  0
   69.8901   45.5008   57.6351 O   0  0  0  0  0  0  0  0  0  0  0  0
   71.2945   47.0615   59.0144 C   0  0  0  0  0  0  0  0  0  0  0  0
   72.2858   47.9428   59.6728 C   0  0  0  0  0  0  0  0  0  0  0  0
   74.6129   49.0267   56.1550 O   0  0  0  0  0  0  0  0  0  0  0  0
   75.0668   48.9858   57.3726 C   0  0  0  0  0  0  0  0  0  0  0  0
   76.3270   49.6704   57.5636 C   0  0  0  0  0  0  0  0  0  0  0  0
   76.6249   50.4442   58.7169 C   0  0  0  0  0  0  0  0  0  0  0  0
   77.8990   50.8293   58.6846 N   0  0  0  0  0  0  0  0  0  0  0  0
   78.5034   50.3752   57.5829 C   0  0  0  0  0  0  0  0  0  0  0  0
   79.7577   50.4944   57.0488 C   0  0  0  0  0  0  0  0  0  0  0  0
   80.1339   49.9503   55.8447 C   0  0  0  0  0  0  0  0  0  0  0  0
   79.1875   49.2534   55.1508 C   0  0  0  0  0  0  0  0  0  0  0  0
   77.9085   49.1183   55.6735 C   0  0  0  0  0  0  0  0  0  0  0  0
   77.5171   49.6576   56.8898 C   0  0  0  0  0  0  0  0  0  0  0  0
   68.5624   47.0831   56.4931 C   0  0  0  0  0  0  0  0  0  0  0  0
   67.4896   47.6250   56.9952 O   0  0  0  0  0  0  0  0  0  0  0  0
   68.5428   46.9157   55.0622 C   0  0  0  0  0  0  0  0  0  0  0  0
   68.0160   45.7569   54.4145 C   0  0  0  0  0  0  0  0  0  0  0  0
   68.2768   45.8233   53.1226 N   0  0  0  0  0  0  0  0  0  0  0  0
   68.9463   46.9463   52.8170 C   0  0  0  0  0  0  0  0  0  0  0  0
   69.3951   47.4541   51.6197 C   0  0  0  0  0  0  0  0  0  0  0  0
   70.0211   48.6729   51.6042 C   0  0  0  0  0  0  0  0  0  0  0  0
   70.1797   49.3492   52.7750 C   0  0  0  0  0  0  0  0  0  0  0  0
   69.7374   48.8535   53.9730 C   0  0  0  0  0  0  0  0  0  0  0  0
   69.1030   47.6211   54.0390 C   0  0  0  0  0  0  0  0  0  0  0  0
 12 13  2  0
 13  1  1  0
 13 14  1  0
  1  2  2  0
  1  3  1  0
  3  4  1  0
  3 11  1  0
  4  5  1  0
  5  6  1  0
  6  7  1  0
  7  8  1  0
  7 10  1  0
  8  9  2  0
  8 23  1  0
 23 24  2  0
 23 25  1  0
 25 26  2  0
 25 33  1  0
 26 27  1  0
 27 28  1  0
 28 29  1  0
 28 33  2  0
 29 30  2  0
 30 31  1  0
 31 32  2  0
 32 33  1  0
 10 11  1  0
 14 15  2  0
 14 22  1  0
 15 16  1  0
 16 17  1  0
 17 18  1  0
 17 22  2  0
 18 19  2  0
 19 20  1  0
 20 21  2  0
 21 22  1  0
M  END
>  <minimizedAffinity>  (455) 
-8.90181

$$$$
cs_full_output_folder/data/smiles/1485.pdb
     RDKit          3D

 30 33  0  0  0  0  0  0  0  0999 V2000
   71.2961   46.8798   58.8404 C   0  0  0  0  0  0  0  0  0  0  0  0
   70.4195   47.6617   58.0828 C   0  0  0  0  0  0  0  0  0  0  0  0
   69.5949   47.1268   57.1327 C   0  0  0  0  0  0  0  0  0  0  0  0
   69.6790   45.7337   56.9576 C   0  0  0  0  0  0  0  0  0  0  0  0
   70.5434   44.9666   57.7044 C   0  0  0  0  0  0  0  0  0  0  0  0
   71.3685   45.5194   58.6583 C   0  0  0  0  0  0  0  0  0  0  0  0
   72.2244   44.7478   59.3960 F   0  0  0  0  0  0  0  0  0  0  0  0
   75.6211   47.4853   59.2726 N   0  0  0  0  0  0  0  0  0  0  0  0
   75.1244   48.0331   58.0266 C   0  0  0  0  0  0  0  0  0  0  0  0
   73.7155   48.5203   58.1674 C   0  0  0  0  0  0  0  0  0  0  0  0
   73.2909   48.2738   59.5157 N   0  0  0  0  0  0  0  0  0  0  0  0
   72.1575   47.5056   59.8477 C   0  0  0  0  0  0  0  0  0  0  0  0
   71.8147   47.3084   61.0446 O   0  0  0  0  0  0  0  0  0  0  0  0
   74.0925   48.8605   60.5564 C   0  0  0  0  0  0  0  0  0  0  0  0
   75.5196   48.3952   60.3723 C   0  0  0  0  0  0  0  0  0  0  0  0
   76.8542   46.7957   59.1391 C   0  0  0  0  0  0  0  0  0  0  0  0
   75.7191   44.6077   59.0181 C   0  0  0  0  0  0  0  0  0  0  0  0
   76.7595   45.4208   59.7151 C   0  0  0  0  0  0  0  0  0  0  0  0
   68.6257   47.8896   56.3005 C   0  0  0  0  0  0  0  0  0  0  0  0
   69.0525   48.1198   54.9196 C   0  0  0  0  0  0  0  0  0  0  0  0
   69.9411   49.1271   54.6843 N   0  0  0  0  0  0  0  0  0  0  0  0
   70.4005   49.3604   53.4687 N   0  0  0  0  0  0  0  0  0  0  0  0
   70.0426   48.6440   52.3906 C   0  0  0  0  0  0  0  0  0  0  0  0
   70.5150   48.9075   51.2396 O   0  0  0  0  0  0  0  0  0  0  0  0
   69.1467   47.6127   52.5638 C   0  0  0  0  0  0  0  0  0  0  0  0
   68.7712   46.8882   51.4561 C   0  0  0  0  0  0  0  0  0  0  0  0
   67.8632   45.8736   51.6656 C   0  0  0  0  0  0  0  0  0  0  0  0
   67.3577   45.5975   52.9097 C   0  0  0  0  0  0  0  0  0  0  0  0
   67.7702   46.3588   53.9949 C   0  0  0  0  0  0  0  0  0  0  0  0
   68.6647   47.3718   53.8490 C   0  0  0  0  0  0  0  0  0  0  0  0
 17 18  1  0
 18 16  1  0
 16  8  1  0
  8  9  1  0
  8 15  1  0
  9 10  1  0
 10 11  1  0
 11 12  1  0
 11 14  1  0
 12 13  2  0
 12  1  1  0
  1  2  2  0
  1  6  1  0
  2  3  1  0
  3 19  1  0
  3  4  2  0
 19 20  1  0
 20 21  2  0
 20 30  1  0
 21 22  1  0
 22 23  1  0
 23 24  2  0
 23 25  1  0
 25 26  1  0
 25 30  2  0
 26 27  2  0
 27 28  1  0
 28 29  2  0
 29 30  1  0
  4  5  1  0
  5  6  2  0
  6  7  1  0
 14 15  1  0
M  CHG  1   8   1
M  END
>  <minimizedAffinity>  (456) 
-8.90021

$$$$
cs_full_output_folder/data/smiles/5936.pdb
     RDKit          3D

 32 36  0  0  0  0  0  0  0  0999 V2000
   70.8670   46.2142   58.5168 C   0  0  0  0  0  0  0  0  0  0  0  0
   70.0412   46.6720   57.5373 C   0  0  0  0  0  0  0  0  0  0  0  0
   69.8729   48.0131   57.3174 C   0  0  0  0  0  0  0  0  0  0  0  0
   70.5814   48.9368   58.1317 C   0  0  0  0  0  0  0  0  0  0  0  0
   71.4090   48.4862   59.1139 C   0  0  0  0  0  0  0  0  0  0  0  0
   71.5726   47.1490   59.3316 C   0  0  0  0  0  0  0  0  0  0  0  0
   72.3934   46.6710   60.3058 F   0  0  0  0  0  0  0  0  0  0  0  0
   74.4638   43.6986   58.4041 C   0  0  1  0  0  0  0  0  0  0  0  0
   73.7753   42.3479   58.0393 C   0  0  0  0  0  0  0  0  0  0  0  0
   72.3523   42.6348   58.5246 C   0  0  0  0  0  0  0  0  0  0  0  0
   72.1649   44.0649   58.3875 N   0  0  0  0  0  0  0  0  0  0  0  0
   71.0838   44.8122   58.8744 C   0  0  0  0  0  0  0  0  0  0  0  0
   70.2389   44.2806   59.6409 O   0  0  0  0  0  0  0  0  0  0  0  0
   73.3819   44.5891   57.7641 C   0  0  0  0  0  0  0  0  0  0  0  0
   75.5107   45.6678   60.2448 O   0  0  0  0  0  0  0  0  0  0  0  0
   74.9979   44.6487   60.7158 C   0  0  0  0  0  0  0  0  0  0  0  0
   74.4656   43.6853   59.8228 N   0  0  0  0  0  0  0  0  0  0  0  0
   74.9227   44.3937   62.1967 C   0  0  0  0  0  0  0  0  0  0  0  0
   73.5193   44.3111   62.7623 C   0  0  0  0  0  0  0  0  0  0  0  0
   74.4462   45.4281   63.1229 C   0  0  0  0  0  0  0  0  0  0  0  0
   68.9479   48.5728   56.3410 C   0  0  0  0  0  0  0  0  0  0  0  0
   69.3593   48.5374   54.9652 C   0  0  0  0  0  0  0  0  0  0  0  0
   70.2397   49.4989   54.5111 N   0  0  0  0  0  0  0  0  0  0  0  0
   70.6495   49.5554   53.2648 N   0  0  0  0  0  0  0  0  0  0  0  0
   70.2409   48.6795   52.3382 C   0  0  0  0  0  0  0  0  0  0  0  0
   70.6290   48.7355   51.1555 O   0  0  0  0  0  0  0  0  0  0  0  0
   69.3631   47.6921   52.7116 C   0  0  0  0  0  0  0  0  0  0  0  0
   68.8607   46.7903   51.7836 C   0  0  0  0  0  0  0  0  0  0  0  0
   67.9389   45.8406   52.1684 C   0  0  0  0  0  0  0  0  0  0  0  0
   67.5075   45.7733   53.4806 C   0  0  0  0  0  0  0  0  0  0  0  0
   68.0057   46.6701   54.4153 C   0  0  0  0  0  0  0  0  0  0  0  0
   68.9187   47.6172   54.0379 C   0  0  0  0  0  0  0  0  0  0  0  0
 15 16  2  0
 16 17  1  0
 16 18  1  0
  8 17  1  1
  8  9  1  0
  8 14  1  0
  9 10  1  0
 10 11  1  0
 11 12  1  0
 11 14  1  0
 12 13  2  0
 12  1  1  0
  1  2  2  0
  1  6  1  0
  2  3  1  0
  3 21  1  0
  3  4  2  0
 21 22  1  0
 22 23  2  0
 22 32  1  0
 23 24  1  0
 24 25  1  0
 25 26  2  0
 25 27  1  0
 27 28  1  0
 27 32  2  0
 28 29  2  0
 29 30  1  0
 30 31  2  0
 31 32  1  0
  4  5  1  0
  5  6  2  0
  6  7  1  0
 18 19  1  0
 18 20  1  0
 19 20  1  0
M  END
>  <minimizedAffinity>  (457) 
-8.89922

$$$$
cs_full_output_folder/data/smiles/9312.pdb
     RDKit          3D

 31 34  0  0  0  0  0  0  0  0999 V2000
   71.4397   47.6147   59.1593 C   0  0  0  0  0  0  0  0  0  0  0  0
   71.2654   48.9780   58.8570 C   0  0  0  0  0  0  0  0  0  0  0  0
   70.3778   49.4249   57.9124 C   0  0  0  0  0  0  0  0  0  0  0  0
   69.5990   48.5666   57.1980 C   0  0  0  0  0  0  0  0  0  0  0  0
   69.7481   47.2100   57.4735 C   0  0  0  0  0  0  0  0  0  0  0  0
   70.6541   46.7710   58.4350 C   0  0  0  0  0  0  0  0  0  0  0  0
   70.7408   45.4144   58.6259 F   0  0  0  0  0  0  0  0  0  0  0  0
   73.7248   47.5890   60.2554 N   0  0  0  0  0  0  0  0  0  0  0  0
   72.3759   47.2054   60.1754 C   0  0  0  0  0  0  0  0  0  0  0  0
   71.9652   46.4236   61.0933 O   0  0  0  0  0  0  0  0  0  0  0  0
   76.3755   46.2665   63.2186 C   0  0  2  0  0  0  0  0  0  0  0  0
   76.3786   47.7201   62.9068 C   0  0  0  0  0  0  0  0  0  0  0  0
   75.6941   48.0970   61.6277 C   0  0  0  0  0  0  0  0  0  0  0  0
   74.6078   47.1255   61.3313 C   0  0  2  0  0  0  0  0  0  0  0  0
   75.2740   45.8279   60.9725 C   0  0  0  0  0  0  0  0  0  0  0  0
   76.0719   45.3351   62.1174 C   0  0  0  0  0  0  0  0  0  0  0  0
   75.6381   46.7246   65.5942 N   0  0  0  0  0  0  0  0  0  0  0  0
   75.4817   46.0009   64.3780 C   0  0  0  0  0  0  0  0  0  0  0  0
   74.5731   45.1358   64.3123 O   0  0  0  0  0  0  0  0  0  0  0  0
   68.5913   48.9476   56.1662 C   0  0  0  0  0  0  0  0  0  0  0  0
   69.0876   48.8339   54.7961 C   0  0  0  0  0  0  0  0  0  0  0  0
   69.9816   49.7541   54.3116 N   0  0  0  0  0  0  0  0  0  0  0  0
   70.5079   49.6837   53.1095 N   0  0  0  0  0  0  0  0  0  0  0  0
   70.2087   48.6925   52.2487 C   0  0  0  0  0  0  0  0  0  0  0  0
   70.7460   48.6609   51.0865 O   0  0  0  0  0  0  0  0  0  0  0  0
   69.3193   47.7315   52.6588 C   0  0  0  0  0  0  0  0  0  0  0  0
   69.0112   46.7318   51.7577 C   0  0  0  0  0  0  0  0  0  0  0  0
   68.1049   45.7733   52.1547 C   0  0  0  0  0  0  0  0  0  0  0  0
   67.5420   45.8370   53.4154 C   0  0  0  0  0  0  0  0  0  0  0  0
   67.8799   46.8599   54.2924 C   0  0  0  0  0  0  0  0  0  0  0  0
   68.7737   47.8204   53.9284 C   0  0  0  0  0  0  0  0  0  0  0  0
 17 18  1  0
 18 19  2  0
 11 18  1  1
 11 12  1  0
 11 16  1  0
 12 13  1  0
 13 14  1  0
 14  8  1  6
 14 15  1  0
  8  9  1  0
  9 10  2  0
  9  1  1  0
  1  2  2  0
  1  6  1  0
  2  3  1  0
  3  4  2  0
  4 20  1  0
  4  5  1  0
 20 21  1  0
 21 22  2  0
 21 31  1  0
 22 23  1  0
 23 24  1  0
 24 25  2  0
 24 26  1  0
 26 27  1  0
 26 31  2  0
 27 28  2  0
 28 29  1  0
 29 30  2  0
 30 31  1  0
  5  6  2  0
  6  7  1  0
 15 16  1  0
M  END
>  <minimizedAffinity>  (458) 
-8.89863

$$$$
cs_full_output_folder/data/smiles/7032.pdb
     RDKit          3D

 33 37  0  0  0  0  0  0  0  0999 V2000
   73.7536   50.9883   55.3135 C   0  0  0  0  0  0  0  0  0  0  0  0
   72.4635   50.5431   55.2497 C   0  0  0  0  0  0  0  0  0  0  0  0
   71.4729   51.3655   54.7193 C   0  0  0  0  0  0  0  0  0  0  0  0
   71.8649   52.5973   54.2841 C   0  0  0  0  0  0  0  0  0  0  0  0
   73.1665   53.0751   54.3366 C   0  0  0  0  0  0  0  0  0  0  0  0
   74.1136   52.2430   54.8633 C   0  0  0  0  0  0  0  0  0  0  0  0
   75.4050   52.6695   54.9353 F   0  0  0  0  0  0  0  0  0  0  0  0
   73.9644   51.3561   58.7839 C   0  0  0  0  0  0  0  0  0  0  0  0
   73.7996   50.0009   58.1435 C   0  0  2  0  0  0  0  0  0  0  0  0
   73.8787   48.9604   59.2804 C   0  0  0  0  0  0  0  0  0  0  0  0
   74.1463   47.6812   58.7288 N   0  0  0  0  0  0  0  0  0  0  0  0
   73.3049   46.6015   58.6497 C   0  0  0  0  0  0  0  0  0  0  0  0
   73.8349   45.5449   58.0681 O   0  0  0  0  0  0  0  0  0  0  0  0
   75.5200   47.5355   58.1649 C   0  0  0  0  0  0  0  0  0  0  0  0
   75.9672   48.8874   57.6604 C   0  0  0  0  0  0  0  0  0  0  0  0
   74.8606   49.6956   57.1942 N   0  0  0  0  0  0  0  0  0  0  0  0
   74.8430   50.1583   55.8618 C   0  0  0  0  0  0  0  0  0  0  0  0
   75.7876   49.8612   55.0915 O   0  0  0  0  0  0  0  0  0  0  0  0
   71.9318   46.3859   59.0813 C   0  0  0  0  0  0  0  0  0  0  0  0
   70.9345   45.5538   58.3592 C   0  0  0  0  0  0  0  0  0  0  0  0
   70.8167   47.0298   58.3249 C   0  0  0  0  0  0  0  0  0  0  0  0
   70.0712   50.8918   54.6081 C   0  0  0  0  0  0  0  0  0  0  0  0
   69.8491   49.7937   53.6688 C   0  0  0  0  0  0  0  0  0  0  0  0
   70.2281   49.9161   52.3567 N   0  0  0  0  0  0  0  0  0  0  0  0
   70.1155   49.0036   51.4522 N   0  0  0  0  0  0  0  0  0  0  0  0
   69.5898   47.8070   51.7527 C   0  0  0  0  0  0  0  0  0  0  0  0
   69.4618   46.8879   50.8989 O   0  0  0  0  0  0  0  0  0  0  0  0
   69.1805   47.6016   53.0531 C   0  0  0  0  0  0  0  0  0  0  0  0
   68.6231   46.3937   53.4151 C   0  0  0  0  0  0  0  0  0  0  0  0
   68.1862   46.1428   54.7083 C   0  0  0  0  0  0  0  0  0  0  0  0
   68.3162   47.1346   55.6553 C   0  0  0  0  0  0  0  0  0  0  0  0
   68.8700   48.3533   55.3293 C   0  0  0  0  0  0  0  0  0  0  0  0
   69.3052   48.5893   54.0231 C   0  0  0  0  0  0  0  0  0  0  0  0
  9  8  1  1
  9 10  1  0
  9 16  1  0
 10 11  1  0
 11 12  1  0
 11 14  1  0
 12 13  2  0
 12 19  1  0
 19 20  1  0
 19 21  1  0
 20 21  1  0
 14 15  1  0
 15 16  1  0
 16 17  1  0
 17 18  2  0
 17  1  1  0
  1  2  2  0
  1  6  1  0
  2  3  1  0
  3 22  1  0
  3  4  2  0
 22 23  1  0
 23 24  2  0
 23 33  1  0
 24 25  1  0
 25 26  1  0
 26 27  2  0
 26 28  1  0
 28 29  1  0
 28 33  2  0
 29 30  2  0
 30 31  1  0
 31 32  2  0
 32 33  1  0
  4  5  1  0
  5  6  2  0
  6  7  1  0
M  END
>  <minimizedAffinity>  (459) 
-8.89855

$$$$
cs_full_output_folder/data/smiles/4171.pdb
     RDKit          3D

 32 36  0  0  0  0  0  0  0  0999 V2000
   71.5874   47.1579   59.0528 C   0  0  0  0  0  0  0  0  0  0  0  0
   70.5832   47.7411   58.3128 C   0  0  0  0  0  0  0  0  0  0  0  0
   69.7700   47.0892   57.4210 C   0  0  0  0  0  0  0  0  0  0  0  0
   70.0015   45.7119   57.2691 C   0  0  0  0  0  0  0  0  0  0  0  0
   70.9918   45.0678   57.9813 C   0  0  0  0  0  0  0  0  0  0  0  0
   71.7758   45.7832   58.8623 C   0  0  0  0  0  0  0  0  0  0  0  0
   72.7417   45.1309   59.5500 F   0  0  0  0  0  0  0  0  0  0  0  0
   72.2325   47.7612   61.2178 O   0  0  0  0  0  0  0  0  0  0  0  0
   72.4286   47.8947   59.9870 C   0  0  0  0  0  0  0  0  0  0  0  0
   73.4620   48.7593   59.5671 N   0  0  0  0  0  0  0  0  0  0  0  0
   74.2090   49.4379   60.5904 C   0  0  0  0  0  0  0  0  0  0  0  0
   75.2299   50.3839   59.9709 C   0  0  0  0  0  0  0  0  0  0  0  0
   76.2351   49.6188   59.1794 C   0  0  0  0  0  0  0  0  0  0  0  0
   75.8358   48.2013   59.0549 N   0  0  1  0  0  0  0  0  0  0  0  0
   74.9687   48.1167   57.8681 C   0  0  0  0  0  0  0  0  0  0  0  0
   73.6661   48.8540   58.1319 C   0  0  0  0  0  0  0  0  0  0  0  0
   77.0604   47.4696   58.8957 C   0  0  0  0  0  0  0  0  0  0  0  0
   77.0081   46.0507   59.3634 C   0  0  0  0  0  0  0  0  0  0  0  0
   77.6409   45.6906   60.6941 C   0  0  0  0  0  0  0  0  0  0  0  0
   76.1791   45.7657   60.5641 C   0  0  0  0  0  0  0  0  0  0  0  0
   68.6723   47.7000   56.6323 C   0  0  0  0  0  0  0  0  0  0  0  0
   69.1810   48.0058   55.2767 C   0  0  0  0  0  0  0  0  0  0  0  0
   70.1192   48.9940   55.1030 N   0  0  0  0  0  0  0  0  0  0  0  0
   70.6315   49.2964   53.9311 N   0  0  0  0  0  0  0  0  0  0  0  0
   70.2820   48.6667   52.8045 C   0  0  0  0  0  0  0  0  0  0  0  0
   70.7927   48.9748   51.6763 O   0  0  0  0  0  0  0  0  0  0  0  0
   69.3512   47.6671   52.8894 C   0  0  0  0  0  0  0  0  0  0  0  0
   68.9862   47.0266   51.7270 C   0  0  0  0  0  0  0  0  0  0  0  0
   68.0492   46.0371   51.8034 C   0  0  0  0  0  0  0  0  0  0  0  0
   67.4967   45.7087   53.0475 C   0  0  0  0  0  0  0  0  0  0  0  0
   67.8797   46.3639   54.1958 C   0  0  0  0  0  0  0  0  0  0  0  0
   68.8083   47.3478   54.1340 C   0  0  0  0  0  0  0  0  0  0  0  0
  8  9  2  0
  9  1  1  0
  9 10  1  0
  1  2  2  0
  1  6  1  0
  2  3  1  0
  3 21  1  0
  3  4  2  0
 21 22  1  0
 22 23  2  0
 22 32  1  0
 23 24  1  0
 24 25  1  0
 25 26  2  0
 25 27  1  0
 27 28  1  0
 27 32  2  0
 28 29  2  0
 29 30  1  0
 30 31  2  0
 31 32  1  0
  4  5  1  0
  5  6  2  0
  6  7  1  0
 10 11  1  0
 10 16  1  0
 11 12  1  0
 12 13  1  0
 13 14  1  0
 14 17  1  6
 14 15  1  0
 17 18  1  0
 18 19  1  0
 18 20  1  0
 19 20  1  0
 15 16  1  0
M  CHG  1  14   1
M  END
>  <minimizedAffinity>  (460) 
-8.89556

$$$$
cs_full_output_folder/data/smiles/1900.pdb
     RDKit          3D

 27 28  0  0  0  0  0  0  0  0999 V2000
   70.2276   49.1663   52.4401 S   0  0  0  0  0  0  0  0  0  0  0  0
   71.6273   49.1736   53.0051 O   0  0  0  0  0  0  0  0  0  0  0  0
   70.3141   48.9290   50.9437 O   0  0  0  0  0  0  0  0  0  0  0  0
   69.4004   47.7871   53.1053 C   0  0  0  0  0  0  0  0  0  0  0  0
   69.3468   47.6125   54.4933 C   0  0  0  0  0  0  0  0  0  0  0  0
   69.9844   48.5467   55.2535 F   0  0  0  0  0  0  0  0  0  0  0  0
   68.6946   46.5674   55.0909 C   0  0  0  0  0  0  0  0  0  0  0  0
   68.6542   46.4150   56.4439 F   0  0  0  0  0  0  0  0  0  0  0  0
   68.0519   45.6263   54.2908 C   0  0  0  0  0  0  0  0  0  0  0  0
   67.4053   44.5917   54.8594 F   0  0  0  0  0  0  0  0  0  0  0  0
   68.0845   45.7672   52.9208 C   0  0  0  0  0  0  0  0  0  0  0  0
   67.4520   44.8423   52.1422 F   0  0  0  0  0  0  0  0  0  0  0  0
   68.7523   46.8358   52.3593 C   0  0  0  0  0  0  0  0  0  0  0  0
   68.7925   46.9869   51.0058 F   0  0  0  0  0  0  0  0  0  0  0  0
   69.4123   50.6267   52.7296 N   0  0  0  0  0  0  0  0  0  0  0  0
   70.5525   52.9053   55.4573 C   0  0  0  0  0  0  0  0  0  0  0  0
   70.5929   52.1406   54.3035 C   0  0  0  0  0  0  0  0  0  0  0  0
   69.4923   51.4489   53.8733 C   0  0  0  0  0  0  0  0  0  0  0  0
   68.3239   51.5357   54.6361 C   0  0  0  0  0  0  0  0  0  0  0  0
   68.2417   52.2824   55.7863 C   0  0  0  0  0  0  0  0  0  0  0  0
   69.3811   52.9605   56.1744 C   0  0  0  0  0  0  0  0  0  0  0  0
   69.2733   53.6990   57.3272 F   0  0  0  0  0  0  0  0  0  0  0  0
   72.7054   53.0630   56.7110 C   0  0  0  0  0  0  0  0  0  0  0  0
   72.6611   51.8535   56.9986 O   0  0  0  0  0  0  0  0  0  0  0  0
   71.6675   53.6365   55.9373 N   0  0  0  0  0  0  0  0  0  0  0  0
   73.7610   54.6064   58.3162 C   0  0  0  0  0  0  0  0  0  0  0  0
   73.7736   53.8239   57.1558 O   0  0  0  0  0  0  0  0  0  0  0  0
 26 27  1  0
 27 23  1  0
 23 24  2  0
 23 25  1  0
 25 16  1  0
 16 17  2  0
 16 21  1  0
 17 18  1  0
 18 15  1  0
 18 19  2  0
 15  1  1  0
  1  2  2  0
  1  3  2  0
  1  4  1  0
  4  5  2  0
  4 13  1  0
  5  6  1  0
  5  7  1  0
  7  8  1  0
  7  9  2  0
  9 10  1  0
  9 11  1  0
 11 12  1  0
 11 13  2  0
 13 14  1  0
 19 20  1  0
 20 21  2  0
 21 22  1  0
M  END
>  <minimizedAffinity>  (461) 
-8.89024

$$$$
cs_full_output_folder/data/smiles/1659.pdb
     RDKit          3D

 30 32  0  0  0  0  0  0  0  0999 V2000
   72.5951   44.4688   59.0524 C   0  0  0  0  0  0  0  0  0  0  0  0
   71.5346   45.3573   58.5336 C   0  0  0  0  0  0  0  0  0  0  0  0
   70.6628   44.8043   57.6220 C   0  0  0  0  0  0  0  0  0  0  0  0
   69.6555   45.5566   57.0749 C   0  0  0  0  0  0  0  0  0  0  0  0
   69.5054   46.8963   57.4368 C   0  0  0  0  0  0  0  0  0  0  0  0
   70.3895   47.4081   58.3452 C   0  0  0  0  0  0  0  0  0  0  0  0
   71.4217   46.6809   58.9239 C   0  0  0  0  0  0  0  0  0  0  0  0
   68.1949   47.8129   56.6992 S   0  0  0  0  0  0  0  0  0  0  0  0
   68.7703   49.1334   56.2762 O   0  0  0  0  0  0  0  0  0  0  0  0
   67.0330   47.9502   57.6014 O   0  0  0  0  0  0  0  0  0  0  0  0
   67.7648   46.9450   55.2614 N   0  0  0  0  0  0  0  0  0  0  0  0
   68.4764   47.2012   54.0723 C   0  0  0  0  0  0  0  0  0  0  0  0
   69.3990   48.2150   53.9468 C   0  0  0  0  0  0  0  0  0  0  0  0
   70.0616   48.4643   52.7691 C   0  0  0  0  0  0  0  0  0  0  0  0
   69.8230   47.6904   51.6459 C   0  0  0  0  0  0  0  0  0  0  0  0
   68.9028   46.6715   51.7543 C   0  0  0  0  0  0  0  0  0  0  0  0
   68.2458   46.4266   52.9243 C   0  0  0  0  0  0  0  0  0  0  0  0
   67.3510   45.4099   52.9872 F   0  0  0  0  0  0  0  0  0  0  0  0
   72.3448   47.2233   59.9004 C   0  0  0  0  0  0  0  0  0  0  0  0
   73.3850   47.7946   59.4583 O   0  0  0  0  0  0  0  0  0  0  0  0
   72.1375   47.1446   61.2997 N   0  0  0  0  0  0  0  0  0  0  0  0
   73.0939   47.7058   62.1619 N   0  0  0  0  0  0  0  0  0  0  0  0
   74.0830   46.9426   62.8133 C   0  0  0  0  0  0  0  0  0  0  0  0
   74.0562   45.6889   62.5612 O   0  0  0  0  0  0  0  0  0  0  0  0
   75.1012   47.4326   63.7226 C   0  0  0  0  0  0  0  0  0  0  0  0
   76.3590   47.8502   63.3639 C   0  0  0  0  0  0  0  0  0  0  0  0
   77.2852   48.2973   64.2946 C   0  0  0  0  0  0  0  0  0  0  0  0
   76.9845   48.3462   65.6536 C   0  0  0  0  0  0  0  0  0  0  0  0
   75.7166   47.9230   66.0086 C   0  0  0  0  0  0  0  0  0  0  0  0
   74.8126   47.4841   65.0727 C   0  0  0  0  0  0  0  0  0  0  0  0
  1  2  1  0
  2  3  2  0
  2  7  1  0
  3  4  1  0
  4  5  2  0
  5  8  1  0
  5  6  1  0
  8  9  2  0
  8 10  2  0
  8 11  1  0
 11 12  1  0
 12 13  2  0
 12 17  1  0
 13 14  1  0
 14 15  2  0
 15 16  1  0
 16 17  2  0
 17 18  1  0
  6  7  2  0
  7 19  1  0
 19 20  2  0
 19 21  1  0
 21 22  1  0
 22 23  1  0
 23 24  2  0
 23 25  1  0
 25 26  2  0
 25 30  1  0
 26 27  1  0
 27 28  2  0
 28 29  1  0
 29 30  2  0
M  END
>  <minimizedAffinity>  (462) 
-8.88941

$$$$
cs_full_output_folder/data/smiles/4025.pdb
     RDKit          3D

 28 30  0  0  0  0  0  0  0  0999 V2000
   67.3904   44.7775   52.9064 C   0  0  0  0  0  0  0  0  0  0  0  0
   68.1322   46.0671   53.1128 C   0  0  0  0  0  0  0  0  0  0  0  0
   68.3435   46.9118   52.0420 C   0  0  0  0  0  0  0  0  0  0  0  0
   69.0247   48.1000   52.1723 C   0  0  0  0  0  0  0  0  0  0  0  0
   69.5343   48.5001   53.4087 C   0  0  0  0  0  0  0  0  0  0  0  0
   69.3173   47.6501   54.4694 C   0  0  0  0  0  0  0  0  0  0  0  0
   68.6310   46.4572   54.3333 C   0  0  0  0  0  0  0  0  0  0  0  0
   70.3851   50.0258   53.5502 S   0  0  0  0  0  0  0  0  0  0  0  0
   70.0888   50.9115   52.3626 O   0  0  0  0  0  0  0  0  0  0  0  0
   71.8743   49.8377   53.5764 O   0  0  0  0  0  0  0  0  0  0  0  0
   69.8439   50.7982   55.0076 N   0  0  0  0  0  0  0  0  0  0  0  0
   70.7190   51.9036   55.3258 C   0  0  0  0  0  0  0  0  0  0  0  0
   69.9962   52.9667   56.0751 C   0  0  0  0  0  0  0  0  0  0  0  0
   68.9580   52.4428   57.0554 C   0  0  0  0  0  0  0  0  0  0  0  0
   67.9974   51.4995   56.3574 C   0  0  0  0  0  0  0  0  0  0  0  0
   68.4912   51.2846   54.9146 C   0  0  0  0  0  0  0  0  0  0  0  0
   68.4003   45.5842   55.4907 C   0  0  0  0  0  0  0  0  0  0  0  0
   68.5394   46.0675   56.6420 O   0  0  0  0  0  0  0  0  0  0  0  0
   68.0270   44.2262   55.3614 N   0  0  0  0  0  0  0  0  0  0  0  0
   67.8165   43.4306   56.4895 N   0  0  0  0  0  0  0  0  0  0  0  0
   67.5978   42.0305   56.4572 C   0  0  0  0  0  0  0  0  0  0  0  0
   67.5988   41.4883   55.3229 O   0  0  0  0  0  0  0  0  0  0  0  0
   67.3792   41.2036   57.6390 C   0  0  0  0  0  0  0  0  0  0  0  0
   66.6731   41.6195   58.7433 C   0  0  0  0  0  0  0  0  0  0  0  0
   66.4973   40.7873   59.8483 C   0  0  0  0  0  0  0  0  0  0  0  0
   67.0239   39.5146   59.8820 C   0  0  0  0  0  0  0  0  0  0  0  0
   67.7327   39.0948   58.7772 C   0  0  0  0  0  0  0  0  0  0  0  0
   67.9007   39.9285   57.6852 C   0  0  0  0  0  0  0  0  0  0  0  0
  1  2  1  0
  2  3  2  0
  2  7  1  0
  3  4  1  0
  4  5  2  0
  5  8  1  0
  5  6  1  0
  8  9  2  0
  8 10  2  0
  8 11  1  0
 11 12  1  0
 11 16  1  0
 12 13  1  0
 13 14  1  0
 14 15  1  0
 15 16  1  0
  6  7  2  0
  7 17  1  0
 17 18  2  0
 17 19  1  0
 19 20  1  0
 20 21  1  0
 21 22  2  0
 21 23  1  0
 23 24  2  0
 23 28  1  0
 24 25  1  0
 25 26  2  0
 26 27  1  0
 27 28  2  0
M  END
>  <minimizedAffinity>  (463) 
-8.88843

$$$$
cs_full_output_folder/data/smiles/5662.pdb
     RDKit          3D

 30 33  0  0  0  0  0  0  0  0999 V2000
   71.5789   47.2546   58.8124 C   0  0  0  0  0  0  0  0  0  0  0  0
   71.7413   45.8885   58.7371 C   0  0  0  0  0  0  0  0  0  0  0  0
   70.9163   45.1601   57.9156 C   0  0  0  0  0  0  0  0  0  0  0  0
   69.9305   45.7695   57.1642 C   0  0  0  0  0  0  0  0  0  0  0  0
   69.7687   47.1405   57.2398 C   0  0  0  0  0  0  0  0  0  0  0  0
   70.5909   47.8807   58.0631 C   0  0  0  0  0  0  0  0  0  0  0  0
   73.9275   50.9928   57.9762 N   0  0  0  0  0  0  0  0  0  0  0  0
   74.9795   50.6187   58.8800 C   0  0  0  0  0  0  0  0  0  0  0  0
   74.3914   49.5992   59.8696 C   0  0  0  0  0  0  0  0  0  0  0  0
   73.5371   48.7463   59.0792 N   0  0  0  0  0  0  0  0  0  0  0  0
   72.4250   48.1071   59.6322 C   0  0  0  0  0  0  0  0  0  0  0  0
   72.0913   48.2296   60.8590 O   0  0  0  0  0  0  0  0  0  0  0  0
   73.8718   48.5623   57.6907 C   0  0  0  0  0  0  0  0  0  0  0  0
   73.7343   49.9286   57.0193 C   0  0  0  0  0  0  0  0  0  0  0  0
   72.9707   52.0731   58.2879 S   0  0  2  0  0  0  0  0  0  0  0  0
   71.3458   51.7683   58.3648 C   0  0  0  0  0  0  0  0  0  0  0  0
   73.4107   54.0367   56.5147 C   0  0  0  0  0  0  0  0  0  0  0  0
   73.3061   53.7107   57.9735 C   0  0  0  0  0  0  0  0  0  0  0  0
   68.7313   47.8083   56.4141 C   0  0  0  0  0  0  0  0  0  0  0  0
   69.1808   48.0669   55.0286 C   0  0  0  0  0  0  0  0  0  0  0  0
   70.0558   49.0644   54.7776 N   0  0  0  0  0  0  0  0  0  0  0  0
   70.5101   49.3756   53.5833 N   0  0  0  0  0  0  0  0  0  0  0  0
   70.0766   48.6509   52.5306 C   0  0  0  0  0  0  0  0  0  0  0  0
   70.4944   48.9275   51.3744 O   0  0  0  0  0  0  0  0  0  0  0  0
   69.1852   47.6152   52.6819 C   0  0  0  0  0  0  0  0  0  0  0  0
   68.7816   46.9074   51.5734 C   0  0  0  0  0  0  0  0  0  0  0  0
   67.8812   45.8536   51.7363 C   0  0  0  0  0  0  0  0  0  0  0  0
   67.4172   45.5480   53.0071 C   0  0  0  0  0  0  0  0  0  0  0  0
   67.8545   46.2909   54.0896 C   0  0  0  0  0  0  0  0  0  0  0  0
   68.7418   47.3325   53.9542 C   0  0  0  0  0  0  0  0  0  0  0  0
 17 18  1  0
 18 15  1  0
 15 16  1  6
 15  7  1  0
  7  8  1  0
  7 14  1  0
  8  9  1  0
  9 10  1  0
 10 11  1  0
 10 13  1  0
 11 12  2  0
 11  1  1  0
  1  2  2  0
  1  6  1  0
  2  3  1  0
  3  4  2  0
  4  5  1  0
  5 19  1  0
  5  6  2  0
 19 20  1  0
 20 21  2  0
 20 30  1  0
 21 22  1  0
 22 23  1  0
 23 24  2  0
 23 25  1  0
 25 26  1  0
 25 30  2  0
 26 27  2  0
 27 28  1  0
 28 29  2  0
 29 30  1  0
 13 14  1  0
M  END
>  <minimizedAffinity>  (464) 
-8.88786

$$$$
cs_full_output_folder/data/smiles/710.pdb
     RDKit          3D

 28 30  0  0  0  0  0  0  0  0999 V2000
   67.5332   45.2698   52.6519 C   0  0  0  0  0  0  0  0  0  0  0  0
   68.3010   46.4897   52.9699 C   0  0  0  0  0  0  0  0  0  0  0  0
   68.5547   47.3948   51.9331 C   0  0  0  0  0  0  0  0  0  0  0  0
   69.2643   48.5494   52.1761 C   0  0  0  0  0  0  0  0  0  0  0  0
   69.7302   48.8237   53.4371 C   0  0  0  0  0  0  0  0  0  0  0  0
   69.4576   47.8967   54.4306 C   0  0  0  0  0  0  0  0  0  0  0  0
   68.7464   46.7273   54.2349 C   0  0  0  0  0  0  0  0  0  0  0  0
   70.5736   50.3196   53.8800 S   0  0  0  0  0  0  0  0  0  0  0  0
   72.0596   50.0026   53.9579 O   0  0  0  0  0  0  0  0  0  0  0  0
   70.3841   51.3645   52.8543 O   0  0  0  0  0  0  0  0  0  0  0  0
   70.0288   50.8483   55.3872 N   0  0  0  0  0  0  0  0  0  0  0  0
   68.6348   51.0305   55.5716 C   0  0  0  0  0  0  0  0  0  0  0  0
   68.3619   51.6126   56.9561 C   0  0  0  0  0  0  0  0  0  0  0  0
   68.7833   50.6602   58.0393 C   0  0  0  0  0  0  0  0  0  0  0  0
   69.7329   49.6446   57.4904 C   0  0  0  0  0  0  0  0  0  0  0  0
   70.6816   50.3612   56.5414 C   0  0  0  0  0  0  0  0  0  0  0  0
   68.4251   45.8738   55.3992 C   0  0  0  0  0  0  0  0  0  0  0  0
   68.2175   46.3839   56.5180 O   0  0  0  0  0  0  0  0  0  0  0  0
   68.3609   44.4832   55.2722 N   0  0  0  0  0  0  0  0  0  0  0  0
   68.1362   43.5418   56.2652 N   0  0  0  0  0  0  0  0  0  0  0  0
   67.3941   42.3627   56.1980 C   0  0  0  0  0  0  0  0  0  0  0  0
   66.8172   42.0664   55.1398 O   0  0  0  0  0  0  0  0  0  0  0  0
   67.2894   41.4696   57.3658 C   0  0  0  0  0  0  0  0  0  0  0  0
   67.9743   40.2834   57.4740 C   0  0  0  0  0  0  0  0  0  0  0  0
   67.8583   39.5085   58.6005 C   0  0  0  0  0  0  0  0  0  0  0  0
   67.0901   39.8351   59.6526 N   0  0  0  0  0  0  0  0  0  0  0  0
   66.4191   40.9922   59.5544 C   0  0  0  0  0  0  0  0  0  0  0  0
   66.4964   41.8132   58.4470 C   0  0  0  0  0  0  0  0  0  0  0  0
  1  2  1  0
  2  3  2  0
  2  7  1  0
  3  4  1  0
  4  5  2  0
  5  8  1  0
  5  6  1  0
  8  9  2  0
  8 10  2  0
  8 11  1  0
 11 12  1  0
 11 16  1  0
 12 13  1  0
 13 14  1  0
 14 15  1  0
 15 16  1  0
  6  7  2  0
  7 17  1  0
 17 18  2  0
 17 19  1  0
 19 20  1  0
 20 21  1  0
 21 22  2  0
 21 23  1  0
 23 24  2  0
 23 28  1  0
 24 25  1  0
 25 26  2  0
 26 27  1  0
 27 28  2  0
M  END
>  <minimizedAffinity>  (465) 
-8.88759

$$$$
cs_full_output_folder/data/smiles/7937.pdb
     RDKit          3D

 29 32  0  0  0  0  0  0  0  0999 V2000
   71.2900   45.9958   58.2960 C   0  0  0  0  0  0  0  0  0  0  0  0
   70.2743   46.5492   57.5838 C   0  0  0  0  0  0  0  0  0  0  0  0
   69.9050   47.9046   57.6962 C   0  0  0  0  0  0  0  0  0  0  0  0
   70.6583   48.6233   58.5874 C   0  0  0  0  0  0  0  0  0  0  0  0
   71.6988   48.1136   59.3358 C   0  0  0  0  0  0  0  0  0  0  0  0
   72.0095   46.7704   59.1752 C   0  0  0  0  0  0  0  0  0  0  0  0
   73.0184   46.2628   59.8961 F   0  0  0  0  0  0  0  0  0  0  0  0
   71.0842   42.2696   58.2730 C   0  0  0  0  0  0  0  0  0  0  0  0
   72.3697   41.9358   57.9170 C   0  0  0  0  0  0  0  0  0  0  0  0
   73.2984   42.9270   57.6864 C   0  0  0  0  0  0  0  0  0  0  0  0
   72.9444   44.2471   57.8103 C   0  0  0  0  0  0  0  0  0  0  0  0
   71.6587   44.5913   58.1661 C   0  0  0  0  0  0  0  0  0  0  0  0
   70.7401   43.5940   58.3937 C   0  0  0  0  0  0  0  0  0  0  0  0
   70.7568   39.3941   58.5902 C   0  0  0  0  0  0  0  0  0  0  0  0
   69.9538   40.9752   58.5518 S   0  0  0  0  0  0  0  0  0  0  0  0
   68.9463   40.9749   57.4389 O   0  0  0  0  0  0  0  0  0  0  0  0
   69.2198   41.2387   59.8260 O   0  0  0  0  0  0  0  0  0  0  0  0
   68.7690   48.4270   56.8958 C   0  0  0  0  0  0  0  0  0  0  0  0
   68.5155   47.5348   55.7656 C   0  0  0  0  0  0  0  0  0  0  0  0
   68.0480   46.2791   55.9658 N   0  0  0  0  0  0  0  0  0  0  0  0
   67.8267   45.4016   55.0075 N   0  0  0  0  0  0  0  0  0  0  0  0
   68.0720   45.7415   53.7297 C   0  0  0  0  0  0  0  0  0  0  0  0
   67.8721   44.9193   52.7728 O   0  0  0  0  0  0  0  0  0  0  0  0
   68.5473   46.9935   53.4465 C   0  0  0  0  0  0  0  0  0  0  0  0
   68.7687   47.9035   54.4975 C   0  0  0  0  0  0  0  0  0  0  0  0
   69.2479   49.2244   54.0481 C   0  0  0  0  0  0  0  0  0  0  0  0
   70.4624   48.9509   53.1862 C   0  0  0  0  0  0  0  0  0  0  0  0
   70.0594   48.2489   51.9121 C   0  0  0  0  0  0  0  0  0  0  0  0
   68.8334   47.3881   52.0458 C   0  0  0  0  0  0  0  0  0  0  0  0
 14 15  1  0
 15 16  2  0
 15 17  2  0
 15  8  1  0
  8  9  2  0
  8 13  1  0
  9 10  1  0
 10 11  2  0
 11 12  1  0
 12  1  1  0
 12 13  2  0
  1  2  2  0
  1  6  1  0
  2  3  1  0
  3 18  1  0
  3  4  2  0
 18 19  1  0
 19 20  2  0
 19 25  1  0
 20 21  1  0
 21 22  1  0
 22 23  2  0
 22 24  1  0
 24 25  2  0
 24 29  1  0
 25 26  1  0
 26 27  1  0
 27 28  1  0
 28 29  1  0
  4  5  1  0
  5  6  2  0
  6  7  1  0
M  END
>  <minimizedAffinity>  (466) 
-8.88596

$$$$
cs_full_output_folder/data/smiles/9469.pdb
     RDKit          3D

 32 35  0  0  0  0  0  0  0  0999 V2000
   71.6620   46.6027   58.7127 C   0  0  0  0  0  0  0  0  0  0  0  0
   72.0321   47.8354   58.2581 C   0  0  0  0  0  0  0  0  0  0  0  0
   71.1855   48.5979   57.4345 C   0  0  0  0  0  0  0  0  0  0  0  0
   69.9418   48.1462   57.0414 C   0  0  0  0  0  0  0  0  0  0  0  0
   69.5690   46.8815   57.5169 C   0  0  0  0  0  0  0  0  0  0  0  0
   70.3853   46.1458   58.3108 C   0  0  0  0  0  0  0  0  0  0  0  0
   72.2945   41.9809   58.5849 C   0  0  0  0  0  0  0  0  0  0  0  0
   73.0595   42.6980   57.4657 C   0  0  0  0  0  0  0  0  0  0  0  0
   72.8882   44.2025   57.6532 C   0  0  0  0  0  0  0  0  0  0  0  0
   73.0309   44.5556   59.0470 N   0  0  0  0  0  0  0  0  0  0  0  0
   72.4714   45.7344   59.5467 C   0  0  0  0  0  0  0  0  0  0  0  0
   72.6553   46.0583   60.7432 O   0  0  0  0  0  0  0  0  0  0  0  0
   73.7173   43.5723   59.8886 C   0  0  0  0  0  0  0  0  0  0  0  0
   72.9152   42.2769   59.9091 C   0  0  0  0  0  0  0  0  0  0  0  0
   70.8667   42.3539   58.5189 C   0  0  0  0  0  0  0  0  0  0  0  0
   70.3195   42.9054   59.5194 O   0  0  0  0  0  0  0  0  0  0  0  0
   70.1492   42.1102   57.3866 O   0  0  0  0  0  0  0  0  0  0  0  0
   68.4783   43.4383   56.2265 C   0  0  0  0  0  0  0  0  0  0  0  0
   68.7915   42.3292   57.1845 C   0  0  0  0  0  0  0  0  0  0  0  0
   68.0092   41.0939   56.7456 C   0  0  0  0  0  0  0  0  0  0  0  0
   69.0154   48.8870   56.1459 C   0  0  0  0  0  0  0  0  0  0  0  0
   69.3744   48.7005   54.7461 C   0  0  0  0  0  0  0  0  0  0  0  0
   70.2888   49.5709   54.2327 N   0  0  0  0  0  0  0  0  0  0  0  0
   70.7006   49.4782   52.9938 N   0  0  0  0  0  0  0  0  0  0  0  0
   70.2620   48.5349   52.1425 C   0  0  0  0  0  0  0  0  0  0  0  0
   70.6857   48.4844   50.9591 O   0  0  0  0  0  0  0  0  0  0  0  0
   69.3360   47.6172   52.5870 C   0  0  0  0  0  0  0  0  0  0  0  0
   68.8239   46.6399   51.7560 C   0  0  0  0  0  0  0  0  0  0  0  0
   67.8814   45.7647   52.2323 C   0  0  0  0  0  0  0  0  0  0  0  0
   67.4560   45.8772   53.5439 C   0  0  0  0  0  0  0  0  0  0  0  0
   67.9597   46.8509   54.3934 C   0  0  0  0  0  0  0  0  0  0  0  0
   68.9077   47.7264   53.9083 C   0  0  0  0  0  0  0  0  0  0  0  0
 18 19  1  0
 19 20  1  0
 19 17  1  0
 17 15  1  0
 15 16  2  0
 15  7  1  0
  7  8  1  0
  7 14  1  0
  8  9  1  0
  9 10  1  0
 10 11  1  0
 10 13  1  0
 11 12  2  0
 11  1  1  0
  1  2  2  0
  1  6  1  0
  2  3  1  0
  3  4  2  0
  4 21  1  0
  4  5  1  0
 21 22  1  0
 22 23  2  0
 22 32  1  0
 23 24  1  0
 24 25  1  0
 25 26  2  0
 25 27  1  0
 27 28  1  0
 27 32  2  0
 28 29  2  0
 29 30  1  0
 30 31  2  0
 31 32  1  0
  5  6  2  0
 13 14  1  0
M  END
>  <minimizedAffinity>  (467) 
-8.88350

$$$$
cs_full_output_folder/data/smiles/428.pdb
     RDKit          3D

 28 30  0  0  0  0  0  0  0  0999 V2000
   68.3510   45.9857   54.1402 C   0  0  0  0  0  0  0  0  0  0  0  0
   67.7087   45.4071   53.0657 C   0  0  0  0  0  0  0  0  0  0  0  0
   67.7581   45.9706   51.7972 C   0  0  0  0  0  0  0  0  0  0  0  0
   68.4675   47.1390   51.6062 C   0  0  0  0  0  0  0  0  0  0  0  0
   69.1237   47.7557   52.6399 C   0  0  0  0  0  0  0  0  0  0  0  0
   69.0351   47.1426   53.8863 C   0  0  0  0  0  0  0  0  0  0  0  0
   68.0704   43.9519   55.6154 N   0  0  0  0  0  0  0  0  0  0  0  0
   68.2874   45.3353   55.4510 C   0  0  0  0  0  0  0  0  0  0  0  0
   68.4281   46.0070   56.4997 O   0  0  0  0  0  0  0  0  0  0  0  0
   67.8106   41.8677   56.9105 C   0  0  0  0  0  0  0  0  0  0  0  0
   67.7328   41.2577   55.8149 O   0  0  0  0  0  0  0  0  0  0  0  0
   67.9878   43.2669   56.8303 N   0  0  0  0  0  0  0  0  0  0  0  0
   70.2138   40.8625   58.2495 C   0  0  0  0  0  0  0  0  0  0  0  0
   68.8420   40.7530   58.8515 C   0  0  0  0  0  0  0  0  0  0  0  0
   68.7024   40.1415   60.0984 C   0  0  0  0  0  0  0  0  0  0  0  0
   67.4764   40.0298   60.6669 C   0  0  0  0  0  0  0  0  0  0  0  0
   66.3547   40.5051   60.0454 C   0  0  0  0  0  0  0  0  0  0  0  0
   66.4991   41.1134   58.8033 C   0  0  0  0  0  0  0  0  0  0  0  0
   67.7312   41.2328   58.2174 C   0  0  0  0  0  0  0  0  0  0  0  0
   70.0671   49.2334   52.4356 S   0  0  0  0  0  0  0  0  0  0  0  0
   69.7313   49.9322   51.1482 O   0  0  0  0  0  0  0  0  0  0  0  0
   71.5194   48.8190   52.4541 O   0  0  0  0  0  0  0  0  0  0  0  0
   69.7746   50.2461   53.7723 N   0  0  0  0  0  0  0  0  0  0  0  0
   69.5599   51.6260   53.5054 C   0  0  0  0  0  0  0  0  0  0  0  0
   68.6931   52.1657   54.6558 C   0  0  0  0  0  0  0  0  0  0  0  0
   69.1457   51.5933   55.9771 C   0  0  0  0  0  0  0  0  0  0  0  0
   70.6129   51.2406   55.8439 C   0  0  0  0  0  0  0  0  0  0  0  0
   70.6810   50.0651   54.8818 C   0  0  0  0  0  0  0  0  0  0  0  0
 13 14  1  0
 14 15  2  0
 14 19  1  0
 15 16  1  0
 16 17  2  0
 17 18  1  0
 18 19  2  0
 19 10  1  0
 10 11  2  0
 10 12  1  0
 12  7  1  0
  7  8  1  0
  8  9  2  0
  8  1  1  0
  1  2  2  0
  1  6  1  0
  2  3  1  0
  3  4  2  0
  4  5  1  0
  5 20  1  0
  5  6  2  0
 20 21  2  0
 20 22  2  0
 20 23  1  0
 23 24  1  0
 23 28  1  0
 24 25  1  0
 25 26  1  0
 26 27  1  0
 27 28  1  0
M  END
>  <minimizedAffinity>  (468) 
-8.87750

$$$$
cs_full_output_folder/data/smiles/6609.pdb
     RDKit          3D

 30 33  0  0  0  0  0  0  0  0999 V2000
   72.4233   48.0530   58.5434 C   0  0  0  0  0  0  0  0  0  0  0  0
   71.4534   48.5864   57.7388 C   0  0  0  0  0  0  0  0  0  0  0  0
   71.7330   49.5249   56.7274 C   0  0  0  0  0  0  0  0  0  0  0  0
   73.0491   49.8769   56.5911 C   0  0  0  0  0  0  0  0  0  0  0  0
   74.0660   49.3746   57.3703 C   0  0  0  0  0  0  0  0  0  0  0  0
   73.7321   48.4479   58.3578 C   0  0  0  0  0  0  0  0  0  0  0  0
   74.6951   47.9261   59.1485 F   0  0  0  0  0  0  0  0  0  0  0  0
   71.2140   43.6122   58.4529 C   0  0  0  0  0  0  0  0  0  0  0  0
   72.6374   43.8128   57.9367 C   0  0  0  0  0  0  0  0  0  0  0  0
   72.9509   45.2818   58.1272 C   0  0  0  0  0  0  0  0  0  0  0  0
   72.3860   45.7017   59.3919 N   0  0  0  0  0  0  0  0  0  0  0  0
   72.1275   47.0828   59.5882 C   0  0  0  0  0  0  0  0  0  0  0  0
   71.6303   47.4608   60.6980 O   0  0  0  0  0  0  0  0  0  0  0  0
   72.0940   44.7352   60.4299 C   0  0  0  0  0  0  0  0  0  0  0  0
   71.2867   43.5587   59.9430 C   0  0  0  0  0  0  0  0  0  0  0  0
   69.1959   42.6009   57.2652 C   0  0  0  0  0  0  0  0  0  0  0  0
   70.5570   42.4594   57.8391 C   0  0  0  0  0  0  0  0  0  0  0  0
   71.0966   41.3736   57.7855 O   0  0  0  0  0  0  0  0  0  0  0  0
   70.6084   50.0270   55.8946 C   0  0  0  0  0  0  0  0  0  0  0  0
   70.3599   49.2889   54.6775 C   0  0  0  0  0  0  0  0  0  0  0  0
   71.1896   49.5728   53.6122 N   0  0  0  0  0  0  0  0  0  0  0  0
   71.0814   48.9471   52.4575 N   0  0  0  0  0  0  0  0  0  0  0  0
   70.1305   47.9832   52.2714 C   0  0  0  0  0  0  0  0  0  0  0  0
   69.9873   47.3608   51.1941 O   0  0  0  0  0  0  0  0  0  0  0  0
   69.2958   47.6909   53.3252 C   0  0  0  0  0  0  0  0  0  0  0  0
   69.4037   48.3497   54.5533 C   0  0  0  0  0  0  0  0  0  0  0  0
   68.4598   47.9732   55.5713 C   0  0  0  0  0  0  0  0  0  0  0  0
   68.5404   46.4409   55.7084 C   0  0  0  0  0  0  0  0  0  0  0  0
   68.3291   45.7447   54.4109 C   0  0  0  0  0  0  0  0  0  0  0  0
   68.2434   46.6538   53.2070 C   0  0  0  0  0  0  0  0  0  0  0  0
 16 17  1  0
 17 18  2  0
 17  8  1  0
  8  9  1  0
  8 15  1  0
  9 10  1  0
 10 11  1  0
 11 12  1  0
 11 14  1  0
 12 13  2  0
 12  1  1  0
  1  2  2  0
  1  6  1  0
  2  3  1  0
  3 19  1  0
  3  4  2  0
 19 20  1  0
 20 21  2  0
 20 26  1  0
 21 22  1  0
 22 23  1  0
 23 24  2  0
 23 25  1  0
 25 26  2  0
 25 30  1  0
 26 27  1  0
 27 28  1  0
 28 29  1  0
 29 30  1  0
  4  5  1  0
  5  6  2  0
  6  7  1  0
 14 15  1  0
M  END
>  <minimizedAffinity>  (469) 
-8.87748

$$$$
cs_full_output_folder/data/smiles/1291.pdb
     RDKit          3D

 27 28  0  0  0  0  0  0  0  0999 V2000
   67.8428   41.3078   55.9162 O   0  0  0  0  0  0  0  0  0  0  0  0
   67.9325   41.9668   56.9734 C   0  0  0  0  0  0  0  0  0  0  0  0
   67.8952   41.3507   58.2357 N   0  0  0  0  0  0  0  0  0  0  0  0
   68.0774   43.3923   56.8151 N   0  0  0  0  0  0  0  0  0  0  0  0
   68.1076   43.9558   55.5380 N   0  0  0  0  0  0  0  0  0  0  0  0
   68.2622   45.3417   55.2867 C   0  0  0  0  0  0  0  0  0  0  0  0
   68.3767   46.0709   56.3075 O   0  0  0  0  0  0  0  0  0  0  0  0
   68.2937   45.9439   53.9589 C   0  0  0  0  0  0  0  0  0  0  0  0
   67.6540   45.3114   52.9152 C   0  0  0  0  0  0  0  0  0  0  0  0
   67.6438   45.8233   51.6300 C   0  0  0  0  0  0  0  0  0  0  0  0
   68.2879   47.0100   51.3490 C   0  0  0  0  0  0  0  0  0  0  0  0
   68.9271   47.6415   52.3949 C   0  0  0  0  0  0  0  0  0  0  0  0
   68.9414   47.1293   53.6947 C   0  0  0  0  0  0  0  0  0  0  0  0
   69.6002   48.8618   52.1455 N   0  0  2  0  0  0  0  0  0  0  0  0
   70.5381   48.6870   51.1886 O   0  0  0  0  0  0  0  0  0  0  0  0
   70.4089   49.5832   53.6831 Br  0  0  0  0  0  0  0  0  0  0  0  0
   67.7463   39.9212   58.3954 C   0  0  0  0  0  0  0  0  0  0  0  0
   69.0602   39.2727   58.6027 C   0  0  0  0  0  0  0  0  0  0  0  0
   70.2384   39.8395   58.1844 C   0  0  0  0  0  0  0  0  0  0  0  0
   71.4829   39.2293   58.3663 C   0  0  0  0  0  0  0  0  0  0  0  0
   71.5322   38.0125   58.9898 C   0  0  0  0  0  0  0  0  0  0  0  0
   70.3759   37.4040   59.4266 C   0  0  0  0  0  0  0  0  0  0  0  0
   69.1633   38.0271   59.2357 C   0  0  0  0  0  0  0  0  0  0  0  0
   72.8739   37.3650   59.1804 C   0  0  0  0  0  0  0  0  0  0  0  0
   72.7513   36.2811   60.0234 F   0  0  0  0  0  0  0  0  0  0  0  0
   73.7152   38.2701   59.8069 F   0  0  0  0  0  0  0  0  0  0  0  0
   73.3296   37.0150   57.9304 F   0  0  0  0  0  0  0  0  0  0  0  0
  1  2  2  0
  2  3  1  0
  2  4  1  0
  3 17  1  0
 17 18  1  0
 18 19  2  0
 18 23  1  0
 19 20  1  0
 20 21  2  0
 21 24  1  0
 21 22  1  0
 24 25  1  0
 24 26  1  0
 24 27  1  0
 22 23  2  0
  4  5  1  0
  5  6  1  0
  6  7  2  0
  6  8  1  0
  8  9  2  0
  8 13  1  0
  9 10  1  0
 10 11  2  0
 11 12  1  0
 12 14  1  0
 12 13  2  0
 14 15  1  6
 14 16  1  0
M  CHG  2  14   1  15  -1
M  END
>  <minimizedAffinity>  (470) 
-8.87688

$$$$
cs_full_output_folder/data/smiles/8217.pdb
     RDKit          3D

 30 34  0  0  0  0  0  0  0  0999 V2000
   70.8891   46.0348   58.4888 C   0  0  0  0  0  0  0  0  0  0  0  0
   70.0445   46.6718   57.5121 C   0  0  0  0  0  0  0  0  0  0  0  0
   69.9471   48.0155   57.3613 C   0  0  0  0  0  0  0  0  0  0  0  0
   70.7021   48.8332   58.1673 C   0  0  0  0  0  0  0  0  0  0  0  0
   71.5264   48.2398   59.1090 C   0  0  0  0  0  0  0  0  0  0  0  0
   71.6128   46.8624   59.2672 C   0  0  0  0  0  0  0  0  0  0  0  0
   72.4179   46.3272   60.2238 F   0  0  0  0  0  0  0  0  0  0  0  0
   76.6678   41.3369   59.8976 C   0  0  0  0  0  0  0  0  0  0  0  0
   75.2512   41.4500   59.4409 C   0  0  0  0  0  0  0  0  0  0  0  0
   74.3300   40.4854   59.6479 N   0  0  0  0  0  0  0  0  0  0  0  0
   73.0643   40.6054   59.2110 C   0  0  0  0  0  0  0  0  0  0  0  0
   72.6315   41.7304   58.5229 C   0  0  0  0  0  0  0  0  0  0  0  0
   73.6068   42.7280   58.3103 C   0  0  0  0  0  0  0  0  0  0  0  0
   74.8513   42.5558   58.7681 N   0  0  0  0  0  0  0  0  0  0  0  0
   72.8898   43.8114   57.5354 C   0  0  0  0  0  0  0  0  0  0  0  0
   71.5735   43.6800   58.1230 N   0  0  0  0  0  0  0  0  0  0  0  0
   70.6940   44.6108   58.6159 C   0  0  0  0  0  0  0  0  0  0  0  0
   69.6135   44.2719   59.2274 O   0  0  0  0  0  0  0  0  0  0  0  0
   71.3436   42.1979   57.9452 C   0  0  0  0  0  0  0  0  0  0  0  0
   68.7809   48.5827   56.5387 C   0  0  0  0  0  0  0  0  0  0  0  0
   69.3887   48.5998   55.1550 C   0  0  0  0  0  0  0  0  0  0  0  0
   70.3694   49.3925   54.8737 N   0  0  0  0  0  0  0  0  0  0  0  0
   70.9915   49.4774   53.6164 N   0  0  0  0  0  0  0  0  0  0  0  0
   70.4671   48.7592   52.4790 C   0  0  0  0  0  0  0  0  0  0  0  0
   69.4207   47.7868   52.8059 C   0  0  0  0  0  0  0  0  0  0  0  0
   69.0048   46.8463   51.8688 C   0  0  0  0  0  0  0  0  0  0  0  0
   68.0683   45.8795   52.1807 C   0  0  0  0  0  0  0  0  0  0  0  0
   67.5404   45.8583   53.4539 C   0  0  0  0  0  0  0  0  0  0  0  0
   67.9474   46.7859   54.3743 C   0  0  0  0  0  0  0  0  0  0  0  0
   68.8912   47.7728   54.0939 C   0  0  0  0  0  0  0  0  0  0  0  0
  8  9  1  0
  9 10  2  0
  9 14  1  0
 10 11  1  0
 11 12  2  0
 12 13  1  0
 12 19  1  0
 13 14  2  0
 13 15  1  0
 15 16  1  0
 16 17  1  0
 16 19  1  0
 17 18  2  0
 17  1  1  0
  1  2  2  0
  1  6  1  0
  2  3  1  0
  3 20  1  0
  3  4  2  0
 20 21  1  0
 21 22  2  0
 21 30  1  0
 22 23  1  0
 23 24  1  0
 24 25  1  0
 25 26  2  0
 25 30  1  0
 26 27  1  0
 27 28  2  0
 28 29  1  0
 29 30  2  0
  4  5  1  0
  5  6  2  0
  6  7  1  0
M  END
>  <minimizedAffinity>  (471) 
-8.87671

$$$$
cs_full_output_folder/data/smiles/7985.pdb
     RDKit          3D

 30 33  0  0  0  0  0  0  0  0999 V2000
   71.4529   47.1674   58.8351 C   0  0  0  0  0  0  0  0  0  0  0  0
   70.5881   47.8762   58.0111 C   0  0  0  0  0  0  0  0  0  0  0  0
   69.7418   47.2910   57.1270 C   0  0  0  0  0  0  0  0  0  0  0  0
   69.7291   45.8940   57.0282 C   0  0  0  0  0  0  0  0  0  0  0  0
   70.5736   45.1647   57.8282 C   0  0  0  0  0  0  0  0  0  0  0  0
   71.4303   45.7966   58.7268 C   0  0  0  0  0  0  0  0  0  0  0  0
   72.2496   45.0231   59.4985 F   0  0  0  0  0  0  0  0  0  0  0  0
   76.2345   48.6098   58.9325 C   0  0  0  0  0  0  0  0  0  0  0  0
   75.7633   48.5270   60.1760 C   0  0  0  0  0  0  0  0  0  0  0  0
   76.4817   47.9857   61.2561 N   0  0  0  0  0  0  0  0  0  0  0  0
   74.3968   49.0445   60.4011 C   0  0  0  0  0  0  0  0  0  0  0  0
   73.5558   48.4409   59.3915 N   0  0  0  0  0  0  0  0  0  0  0  0
   72.3596   47.8064   59.7840 C   0  0  0  0  0  0  0  0  0  0  0  0
   72.0728   47.8004   61.0193 O   0  0  0  0  0  0  0  0  0  0  0  0
   73.9904   48.5231   58.0093 C   0  0  0  0  0  0  0  0  0  0  0  0
   75.3596   49.2066   57.8927 C   0  0  0  0  0  0  0  0  0  0  0  0
   78.2228   48.3905   57.5658 N   0  0  0  0  0  0  0  0  0  0  0  0
   77.5635   48.1234   58.6279 C   0  0  0  0  0  0  0  0  0  0  0  0
   68.7860   47.9707   56.2244 C   0  0  0  0  0  0  0  0  0  0  0  0
   69.2192   48.1423   54.8513 C   0  0  0  0  0  0  0  0  0  0  0  0
   70.1649   49.0619   54.5780 N   0  0  0  0  0  0  0  0  0  0  0  0
   70.6755   49.2827   53.3819 N   0  0  0  0  0  0  0  0  0  0  0  0
   70.2290   48.5424   52.3466 C   0  0  0  0  0  0  0  0  0  0  0  0
   70.7308   48.7706   51.2179 O   0  0  0  0  0  0  0  0  0  0  0  0
   69.2605   47.5781   52.5329 C   0  0  0  0  0  0  0  0  0  0  0  0
   68.7850   46.8232   51.4756 C   0  0  0  0  0  0  0  0  0  0  0  0
   67.8051   45.8624   51.6324 C   0  0  0  0  0  0  0  0  0  0  0  0
   67.3090   45.6828   52.9183 C   0  0  0  0  0  0  0  0  0  0  0  0
   67.7766   46.4284   53.9732 C   0  0  0  0  0  0  0  0  0  0  0  0
   68.7520   47.3831   53.8188 C   0  0  0  0  0  0  0  0  0  0  0  0
 17 18  2  0
 18  8  1  0
  8  9  2  0
  8 16  1  0
  9 10  1  0
  9 11  1  0
 11 12  1  0
 12 13  1  0
 12 15  1  0
 13 14  2  0
 13  1  1  0
  1  2  2  0
  1  6  1  0
  2  3  1  0
  3 19  1  0
  3  4  2  0
 19 20  1  0
 20 21  2  0
 20 30  1  0
 21 22  1  0
 22 23  1  0
 23 24  2  0
 23 25  1  0
 25 26  1  0
 25 30  2  0
 26 27  2  0
 27 28  1  0
 28 29  2  0
 29 30  1  0
  4  5  1  0
  5  6  2  0
  6  7  1  0
 15 16  1  0
M  END
>  <minimizedAffinity>  (472) 
-8.87319

$$$$
cs_full_output_folder/data/smiles/8861.pdb
     RDKit          3D

 30 33  0  0  0  0  0  0  0  0999 V2000
   71.6355   46.9799   58.9353 C   0  0  0  0  0  0  0  0  0  0  0  0
   71.8230   45.6232   58.8922 C   0  0  0  0  0  0  0  0  0  0  0  0
   71.0035   44.8182   58.0974 C   0  0  0  0  0  0  0  0  0  0  0  0
   70.0264   45.4277   57.3749 C   0  0  0  0  0  0  0  0  0  0  0  0
   69.7820   46.8145   57.3737 C   0  0  0  0  0  0  0  0  0  0  0  0
   70.6115   47.5486   58.1679 C   0  0  0  0  0  0  0  0  0  0  0  0
   73.7965   50.6515   58.6067 N   0  0  1  0  0  0  0  0  0  0  0  0
   74.1938   50.2875   57.2652 C   0  0  0  0  0  0  0  0  0  0  0  0
   74.8536   48.9441   57.1831 C   0  0  0  0  0  0  0  0  0  0  0  0
   74.0995   47.8814   57.9450 C   0  0  0  0  0  0  0  0  0  0  0  0
   73.7510   48.2561   59.2897 N   0  0  0  0  0  0  0  0  0  0  0  0
   72.4961   47.7911   59.7702 C   0  0  0  0  0  0  0  0  0  0  0  0
   72.1073   48.0736   60.9333 O   0  0  0  0  0  0  0  0  0  0  0  0
   74.5278   49.0413   60.2139 C   0  0  0  0  0  0  0  0  0  0  0  0
   74.8047   50.3841   59.5807 C   0  0  0  0  0  0  0  0  0  0  0  0
   73.2883   51.9822   58.5656 C   0  0  0  0  0  0  0  0  0  0  0  0
   70.9176   51.2087   58.4899 C   0  0  0  0  0  0  0  0  0  0  0  0
   71.9585   52.1320   57.8846 C   0  0  0  0  0  0  0  0  0  0  0  0
   68.6804   47.3646   56.5419 C   0  0  0  0  0  0  0  0  0  0  0  0
   69.1296   47.7955   55.2366 C   0  0  0  0  0  0  0  0  0  0  0  0
   70.0406   48.8138   55.1608 N   0  0  0  0  0  0  0  0  0  0  0  0
   70.5620   49.2164   54.0219 N   0  0  0  0  0  0  0  0  0  0  0  0
   70.2332   48.6552   52.8486 C   0  0  0  0  0  0  0  0  0  0  0  0
   70.7357   49.0470   51.7629 O   0  0  0  0  0  0  0  0  0  0  0  0
   69.3240   47.6263   52.8258 C   0  0  0  0  0  0  0  0  0  0  0  0
   68.9449   47.0456   51.6438 C   0  0  0  0  0  0  0  0  0  0  0  0
   68.0028   46.0283   51.6502 C   0  0  0  0  0  0  0  0  0  0  0  0
   67.4731   45.6304   52.8553 C   0  0  0  0  0  0  0  0  0  0  0  0
   67.8656   46.2232   54.0345 C   0  0  0  0  0  0  0  0  0  0  0  0
   68.7862   47.2163   54.0372 C   0  0  0  0  0  0  0  0  0  0  0  0
 17 18  1  0
 18 16  1  0
  7 16  1  6
  7  8  1  0
  7 15  1  0
  8  9  1  0
  9 10  1  0
 10 11  1  0
 11 12  1  0
 11 14  1  0
 12 13  2  0
 12  1  1  0
  1  2  2  0
  1  6  1  0
  2  3  1  0
  3  4  2  0
  4  5  1  0
  5 19  1  0
  5  6  2  0
 19 20  1  0
 20 21  2  0
 20 30  1  0
 21 22  1  0
 22 23  1  0
 23 24  2  0
 23 25  1  0
 25 26  1  0
 25 30  2  0
 26 27  2  0
 27 28  1  0
 28 29  2  0
 29 30  1  0
 14 15  1  0
M  CHG  1   7   1
M  END
>  <minimizedAffinity>  (473) 
-8.87291

$$$$
cs_full_output_folder/data/smiles/783.pdb
     RDKit          3D

 31 34  0  0  0  0  0  0  0  0999 V2000
   68.3765   44.8049   55.9083 N   0  0  0  0  0  0  0  0  0  0  0  0
   68.5106   45.9217   55.4351 C   0  0  0  0  0  0  0  0  0  0  0  0
   68.9800   46.9414   56.3946 C   0  0  0  0  0  0  0  0  0  0  0  0
   68.4618   48.2370   56.2334 C   0  0  0  0  0  0  0  0  0  0  0  0
   68.9264   49.3120   56.8881 C   0  0  0  0  0  0  0  0  0  0  0  0
   69.9991   49.1943   57.8099 C   0  0  0  0  0  0  0  0  0  0  0  0
   70.4974   47.9563   57.9752 C   0  0  0  0  0  0  0  0  0  0  0  0
   69.9910   46.8419   57.2720 C   0  0  0  0  0  0  0  0  0  0  0  0
   70.4460   50.4603   58.3730 C   0  0  0  0  0  0  0  0  0  0  0  0
   69.8793   50.9772   59.3320 O   0  0  0  0  0  0  0  0  0  0  0  0
   71.5524   51.0812   57.7409 N   0  0  0  0  0  0  0  0  0  0  0  0
   72.1122   52.3688   58.0502 C   0  0  0  0  0  0  0  0  0  0  0  0
   72.2449   53.0818   56.6946 C   0  0  0  0  0  0  0  0  0  0  0  0
   71.5501   52.4366   55.6981 O   0  0  0  0  0  0  0  0  0  0  0  0
   71.9958   51.1458   55.4035 C   0  0  0  0  0  0  0  0  0  0  0  0
   72.2603   50.3531   56.6573 C   0  0  0  0  0  0  0  0  0  0  0  0
   68.3641   46.0906   54.0154 C   0  0  0  0  0  0  0  0  0  0  0  0
   67.5267   45.4032   53.2234 C   0  0  0  0  0  0  0  0  0  0  0  0
   67.3976   45.6375   51.8510 C   0  0  0  0  0  0  0  0  0  0  0  0
   68.1642   46.6177   51.2841 C   0  0  0  0  0  0  0  0  0  0  0  0
   69.0135   47.3059   52.1208 C   0  0  0  0  0  0  0  0  0  0  0  0
   69.1276   47.0743   53.4165 N   0  0  0  0  0  0  0  0  0  0  0  0
   70.3952   43.6337   57.1906 O   0  0  0  0  0  0  0  0  0  0  0  0
   69.3198   42.9274   57.1116 C   0  0  0  0  0  0  0  0  0  0  0  0
   68.2308   43.6217   56.3958 N   0  0  0  0  0  0  0  0  0  0  0  0
   69.2228   41.6252   57.6671 C   0  0  0  0  0  0  0  0  0  0  0  0
   70.0461   41.0495   58.5678 C   0  0  0  0  0  0  0  0  0  0  0  0
   69.8719   39.7688   59.0287 C   0  0  0  0  0  0  0  0  0  0  0  0
   68.8169   38.9682   58.5931 C   0  0  0  0  0  0  0  0  0  0  0  0
   67.9661   39.5386   57.6775 C   0  0  0  0  0  0  0  0  0  0  0  0
   68.1508   40.8199   57.2229 C   0  0  0  0  0  0  0  0  0  0  0  0
 23 24  2  0
 24 25  1  0
 24 26  1  0
 25  1  1  0
  1  2  2  3
  2  3  1  0
  2 17  1  0
  3  4  2  0
  3  8  1  0
  4  5  1  0
  5  6  2  0
  6  9  1  0
  6  7  1  0
  9 10  2  0
  9 11  1  0
 11 12  1  0
 11 16  1  0
 12 13  1  0
 13 14  1  0
 14 15  1  0
 15 16  1  0
  7  8  2  0
 17 18  2  0
 17 22  1  0
 18 19  1  0
 19 20  2  0
 20 21  1  0
 21 22  2  0
 26 27  2  0
 26 31  1  0
 27 28  1  0
 28 29  2  0
 29 30  1  0
 30 31  2  0
M  END
>  <minimizedAffinity>  (474) 
-8.86532

$$$$
cs_full_output_folder/data/smiles/9626.pdb
     RDKit          3D

 29 32  0  0  0  0  0  0  0  0999 V2000
   70.4282   46.7898   57.9760 C   0  0  0  0  0  0  0  0  0  0  0  0
   71.4289   47.3797   58.7099 C   0  0  0  0  0  0  0  0  0  0  0  0
   71.7580   48.7230   58.5138 C   0  0  0  0  0  0  0  0  0  0  0  0
   71.1081   49.5120   57.5908 C   0  0  0  0  0  0  0  0  0  0  0  0
   70.1007   48.9201   56.8528 C   0  0  0  0  0  0  0  0  0  0  0  0
   69.7825   47.5923   57.0532 C   0  0  0  0  0  0  0  0  0  0  0  0
   69.7558   44.5099   57.0662 N   0  0  0  0  0  0  0  0  0  0  0  0
   70.0356   45.3946   58.1322 C   0  0  0  0  0  0  0  0  0  0  0  0
   69.9296   44.9122   59.2882 O   0  0  0  0  0  0  0  0  0  0  0  0
   69.7757   37.5160   59.1780 O   0  0  0  0  0  0  0  0  0  0  0  0
   69.5911   38.6717   58.7155 C   0  0  0  0  0  0  0  0  0  0  0  0
   70.4643   39.8211   58.9171 C   0  0  0  0  0  0  0  0  0  0  0  0
   69.7890   40.9368   58.1588 C   0  0  0  0  0  0  0  0  0  0  0  0
   70.1301   42.2605   57.9754 C   0  0  0  0  0  0  0  0  0  0  0  0
   69.3722   43.1466   57.2349 C   0  0  0  0  0  0  0  0  0  0  0  0
   68.2224   42.6352   56.6686 C   0  0  0  0  0  0  0  0  0  0  0  0
   67.8422   41.3079   56.8295 C   0  0  0  0  0  0  0  0  0  0  0  0
   68.6342   40.4506   57.5824 C   0  0  0  0  0  0  0  0  0  0  0  0
   68.4992   39.0817   57.9085 N   0  0  0  0  0  0  0  0  0  0  0  0
   69.4074   49.7077   55.8885 N   0  0  0  0  0  0  0  0  0  0  0  0
   69.7757   49.5249   54.2370 S   0  0  0  0  0  0  0  0  0  0  0  0
   71.2735   49.3915   54.0420 O   0  0  0  0  0  0  0  0  0  0  0  0
   69.3561   50.7118   53.4172 O   0  0  0  0  0  0  0  0  0  0  0  0
   69.0539   48.0938   53.5384 C   0  0  0  0  0  0  0  0  0  0  0  0
   69.2221   47.8772   52.1921 C   0  0  0  0  0  0  0  0  0  0  0  0
   68.6743   46.7579   51.5696 C   0  0  0  0  0  0  0  0  0  0  0  0
   67.9558   45.8583   52.3110 C   0  0  0  0  0  0  0  0  0  0  0  0
   67.7839   46.0694   53.6578 C   0  0  0  0  0  0  0  0  0  0  0  0
   68.3284   47.1751   54.2566 C   0  0  0  0  0  0  0  0  0  0  0  0
 10 11  2  0
 11 12  1  0
 11 19  1  0
 12 13  1  0
 13 14  2  0
 13 18  1  0
 14 15  1  0
 15  7  1  0
 15 16  2  0
  7  8  1  0
  8  9  2  0
  8  1  1  0
  1  2  2  0
  1  6  1  0
  2  3  1  0
  3  4  2  0
  4  5  1  0
  5 20  1  0
  5  6  2  0
 20 21  1  0
 21 22  2  0
 21 23  2  0
 21 24  1  0
 24 25  2  0
 24 29  1  0
 25 26  1  0
 26 27  2  0
 27 28  1  0
 28 29  2  0
 16 17  1  0
 17 18  2  0
 18 19  1  0
M  END
>  <minimizedAffinity>  (475) 
-8.86004

$$$$
cs_full_output_folder/data/smiles/5608.pdb
     RDKit          3D

 27 29  0  0  0  0  0  0  0  0999 V2000
   67.9881   47.5332   57.5409 N   0  0  0  0  0  0  0  0  0  0  0  0
   68.9752   51.1318   57.2068 C   0  0  0  0  0  0  0  0  0  0  0  0
   67.7321   51.7150   57.3244 C   0  0  0  0  0  0  0  0  0  0  0  0
   66.6016   50.9413   57.5097 C   0  0  0  0  0  0  0  0  0  0  0  0
   66.6902   49.5788   57.5803 C   0  0  0  0  0  0  0  0  0  0  0  0
   67.9235   48.9476   57.4660 C   0  0  0  0  0  0  0  0  0  0  0  0
   69.0303   49.7611   57.2811 C   0  0  0  0  0  0  0  0  0  0  0  0
   73.5599   54.1970   56.5489 C   0  0  0  0  0  0  0  0  0  0  0  0
   72.2360   53.8533   56.9569 N   0  0  0  0  0  0  0  0  0  0  0  0
   71.3029   53.7314   55.8750 C   0  0  0  0  0  0  0  0  0  0  0  0
   69.9630   53.2799   56.4494 C   0  0  0  0  0  0  0  0  0  0  0  0
   70.1131   51.9589   57.0157 N   0  0  0  0  0  0  0  0  0  0  0  0
   71.4643   51.5632   57.3597 C   0  0  0  0  0  0  0  0  0  0  0  0
   72.1477   52.8146   57.9266 C   0  0  0  0  0  0  0  0  0  0  0  0
   69.2077   46.7167   56.6412 S   0  0  0  0  0  0  0  0  0  0  0  0
   69.2423   45.2809   57.0870 O   0  0  0  0  0  0  0  0  0  0  0  0
   70.5399   47.3308   56.9252 O   0  0  0  0  0  0  0  0  0  0  0  0
   68.8398   46.7418   54.9304 C   0  0  0  0  0  0  0  0  0  0  0  0
   68.0709   45.7178   54.4187 C   0  0  0  0  0  0  0  0  0  0  0  0
   67.7918   45.7553   53.0692 C   0  0  0  0  0  0  0  0  0  0  0  0
   67.0367   44.7608   52.5356 F   0  0  0  0  0  0  0  0  0  0  0  0
   68.2601   46.7767   52.2516 C   0  0  0  0  0  0  0  0  0  0  0  0
   67.9639   46.7748   50.9410 F   0  0  0  0  0  0  0  0  0  0  0  0
   69.0295   47.7919   52.7951 C   0  0  0  0  0  0  0  0  0  0  0  0
   69.4717   48.7702   51.9850 F   0  0  0  0  0  0  0  0  0  0  0  0
   69.3231   47.7730   54.1550 C   0  0  0  0  0  0  0  0  0  0  0  0
   70.0805   48.7808   54.6618 F   0  0  0  0  0  0  0  0  0  0  0  0
  8  9  1  0
  9 10  1  0
  9 14  1  0
 10 11  1  0
 11 12  1  0
 12  2  1  0
 12 13  1  0
  2  3  2  0
  2  7  1  0
  3  4  1  0
  4  5  2  0
  5  6  1  0
  6  1  1  0
  6  7  2  0
  1 15  1  0
 15 16  2  0
 15 17  2  0
 15 18  1  0
 18 19  2  0
 18 26  1  0
 19 20  1  0
 20 21  1  0
 20 22  2  0
 22 23  1  0
 22 24  1  0
 24 25  1  0
 24 26  2  0
 26 27  1  0
 13 14  1  0
M  CHG  1   9   1
M  END
>  <minimizedAffinity>  (476) 
-8.85879

$$$$
cs_full_output_folder/data/smiles/5499.pdb
     RDKit          3D

 29 32  0  0  0  0  0  0  0  0999 V2000
   71.4276   42.5678   58.9235 C   0  0  0  0  0  0  0  0  0  0  0  0
   70.7304   43.4224   58.0805 C   0  0  0  0  0  0  0  0  0  0  0  0
   70.9031   44.7240   58.5058 C   0  0  0  0  0  0  0  0  0  0  0  0
   70.4116   45.9333   57.9931 C   0  0  0  0  0  0  0  0  0  0  0  0
   70.7820   47.0588   58.6619 C   0  0  0  0  0  0  0  0  0  0  0  0
   71.6008   46.9503   59.7792 C   0  0  0  0  0  0  0  0  0  0  0  0
   72.0598   45.7887   60.2541 N   0  0  0  0  0  0  0  0  0  0  0  0
   71.7115   44.6547   59.6140 C   0  0  0  0  0  0  0  0  0  0  0  0
   72.0072   43.3545   59.8379 N   0  0  0  0  0  0  0  0  0  0  0  0
   71.5221   38.3046   58.4554 C   0  0  0  0  0  0  0  0  0  0  0  0
   72.6636   39.0283   58.7646 C   0  0  0  0  0  0  0  0  0  0  0  0
   72.6375   40.3967   58.9154 C   0  0  0  0  0  0  0  0  0  0  0  0
   71.4661   41.1150   58.7637 C   0  0  0  0  0  0  0  0  0  0  0  0
   70.3269   40.4085   58.4577 C   0  0  0  0  0  0  0  0  0  0  0  0
   70.3512   39.0168   58.3034 C   0  0  0  0  0  0  0  0  0  0  0  0
   71.6492   34.4900   59.1736 C   0  0  0  0  0  0  0  0  0  0  0  0
   71.5826   35.9650   59.3561 C   0  0  0  0  0  0  0  0  0  0  0  0
   71.5212   36.3931   60.5382 O   0  0  0  0  0  0  0  0  0  0  0  0
   71.5844   36.8955   58.3059 N   0  0  0  0  0  0  0  0  0  0  0  0
   69.5970   45.8943   56.8733 N   0  0  0  0  0  0  0  0  0  0  0  0
   68.7360   47.1185   56.0818 S   0  0  0  0  0  0  0  0  0  0  0  0
   69.5015   48.4332   56.2350 O   0  0  0  0  0  0  0  0  0  0  0  0
   67.4016   47.3971   56.7364 O   0  0  0  0  0  0  0  0  0  0  0  0
   68.5647   46.8986   54.3657 C   0  0  0  0  0  0  0  0  0  0  0  0
   67.7989   45.8484   53.8450 C   0  0  0  0  0  0  0  0  0  0  0  0
   67.6851   45.6515   52.4894 C   0  0  0  0  0  0  0  0  0  0  0  0
   68.3155   46.4719   51.5752 C   0  0  0  0  0  0  0  0  0  0  0  0
   69.0710   47.5095   52.0824 C   0  0  0  0  0  0  0  0  0  0  0  0
   69.1840   47.7067   53.4443 C   0  0  0  0  0  0  0  0  0  0  0  0
 16 17  1  0
 17 18  2  0
 17 19  1  0
 19 10  1  0
 10 11  2  0
 10 15  1  0
 11 12  1  0
 12 13  2  0
 13  1  1  0
 13 14  1  0
  1  2  2  0
  1  9  1  0
  2  3  1  0
  3  4  2  0
  3  8  1  0
  4 20  1  0
  4  5  1  0
 20 21  1  0
 21 22  2  0
 21 23  2  0
 21 24  1  0
 24 25  2  0
 24 29  1  0
 25 26  1  0
 26 27  2  0
 27 28  1  0
 28 29  2  0
  5  6  2  0
  6  7  1  0
  7  8  2  0
  8  9  1  0
 14 15  2  0
M  END
>  <minimizedAffinity>  (477) 
-8.85760

$$$$
cs_full_output_folder/data/smiles/140.pdb
     RDKit          3D

 28 31  0  0  0  0  0  0  0  0999 V2000
   70.0944   47.1129   57.2250 C   0  0  2  0  0  0  0  0  0  0  0  0
   70.5798   46.2547   58.3832 C   0  0  0  0  0  0  0  0  0  0  0  0
   71.8870   46.9000   58.8593 C   0  0  0  0  0  0  0  0  0  0  0  0
   71.5841   48.2768   59.4048 C   0  0  0  0  0  0  0  0  0  0  0  0
   70.9483   49.0239   58.3384 N   0  0  1  0  0  0  0  0  0  0  0  0
   69.7363   48.4637   57.8810 C   0  0  0  0  0  0  0  0  0  0  0  0
   68.9882   46.5456   56.5506 N   0  0  0  0  0  0  0  0  0  0  0  0
   69.8271   48.9635   52.2783 C   0  0  0  0  0  0  0  0  0  0  0  0
   69.2009   47.8601   53.0474 C   0  0  0  0  0  0  0  0  0  0  0  0
   69.3831   47.7191   54.4070 C   0  0  0  0  0  0  0  0  0  0  0  0
   68.8176   46.6983   55.1488 C   0  0  0  0  0  0  0  0  0  0  0  0
   68.0277   45.7877   54.4353 C   0  0  0  0  0  0  0  0  0  0  0  0
   67.8477   45.9296   53.0835 C   0  0  0  0  0  0  0  0  0  0  0  0
   67.1278   45.1871   52.1383 C   0  0  0  0  0  0  0  0  0  0  0  0
   67.2902   45.7695   50.9410 N   0  0  0  0  0  0  0  0  0  0  0  0
   68.0628   46.8308   51.0571 N   0  0  0  0  0  0  0  0  0  0  0  0
   68.4224   46.9559   52.3670 C   0  0  0  0  0  0  0  0  0  0  0  0
   71.0062   50.4330   58.5407 C   0  0  0  0  0  0  0  0  0  0  0  0
   71.1626   51.1197   57.2502 C   0  0  0  0  0  0  0  0  0  0  0  0
   70.0570   51.8437   56.7941 C   0  0  0  0  0  0  0  0  0  0  0  0
   70.0753   52.5095   55.5986 C   0  0  0  0  0  0  0  0  0  0  0  0
   71.1979   52.4790   54.8110 C   0  0  0  0  0  0  0  0  0  0  0  0
   72.2973   51.7652   55.2547 C   0  0  0  0  0  0  0  0  0  0  0  0
   72.2831   51.0954   56.4556 C   0  0  0  0  0  0  0  0  0  0  0  0
   73.7323   51.7361   54.2364 S   0  0  0  0  0  0  0  0  0  0  0  0
   75.1416   52.1253   55.1785 N   0  0  0  0  0  0  0  0  0  0  0  0
   73.5481   52.7326   53.1554 O   0  0  0  0  0  0  0  0  0  0  0  0
   73.8738   50.3301   53.7321 O   0  0  0  0  0  0  0  0  0  0  0  0
  8  9  1  0
  9 10  2  0
  9 17  1  0
 10 11  1  0
 11  7  1  0
 11 12  2  0
  1  7  1  1
  1  2  1  0
  1  6  1  0
  2  3  1  0
  3  4  1  0
  4  5  1  0
  5 18  1  1
  5  6  1  0
 18 19  1  0
 19 20  2  0
 19 24  1  0
 20 21  1  0
 21 22  2  0
 22 23  1  0
 23 25  1  0
 23 24  2  0
 25 26  1  0
 25 27  2  0
 25 28  2  0
 12 13  1  0
 13 14  1  0
 13 17  2  0
 14 15  2  0
 15 16  1  0
 16 17  1  0
M  CHG  1   5   1
M  END
>  <minimizedAffinity>  (478) 
-8.85233

$$$$
cs_full_output_folder/data/smiles/1500.pdb
     RDKit          3D

 31 33  0  0  0  0  0  0  0  0999 V2000
   69.3295   41.1624   58.0637 C   0  0  0  0  0  0  0  0  0  0  0  0
   69.8715   40.6400   59.2109 C   0  0  0  0  0  0  0  0  0  0  0  0
   69.4463   39.4366   59.7478 C   0  0  0  0  0  0  0  0  0  0  0  0
   68.4438   38.7404   59.1102 C   0  0  0  0  0  0  0  0  0  0  0  0
   67.8906   39.2470   57.9652 C   0  0  0  0  0  0  0  0  0  0  0  0
   68.3314   40.4594   57.4381 C   0  0  0  0  0  0  0  0  0  0  0  0
   67.7033   40.9788   56.1868 C   0  0  0  0  0  0  0  0  0  0  0  0
   68.8451   43.4765   57.1930 N   0  0  0  0  0  0  0  0  0  0  0  0
   69.7801   42.4093   57.4551 C   0  0  0  0  0  0  0  0  0  0  0  0
   70.9566   42.6130   57.1407 O   0  0  0  0  0  0  0  0  0  0  0  0
   68.4617   45.1081   55.4818 C   0  0  0  0  0  0  0  0  0  0  0  0
   67.5522   44.3421   55.0118 O   0  0  0  0  0  0  0  0  0  0  0  0
   69.1680   44.6944   56.6329 N   0  0  0  0  0  0  0  0  0  0  0  0
   68.8789   47.4643   56.9825 C   0  0  0  0  0  0  0  0  0  0  0  0
   68.8964   47.5342   55.4910 C   0  0  0  0  0  0  0  0  0  0  0  0
   69.1147   48.7392   54.8840 C   0  0  0  0  0  0  0  0  0  0  0  0
   69.1401   48.7964   53.4992 C   0  0  0  0  0  0  0  0  0  0  0  0
   68.9448   47.6388   52.7836 C   0  0  0  0  0  0  0  0  0  0  0  0
   68.7254   46.4305   53.4045 C   0  0  0  0  0  0  0  0  0  0  0  0
   68.6957   46.3508   54.7891 C   0  0  0  0  0  0  0  0  0  0  0  0
   70.1218   38.7462   61.2069 S   0  0  0  0  0  0  0  0  0  0  0  0
   70.3145   39.8081   62.2595 O   0  0  0  0  0  0  0  0  0  0  0  0
   69.1765   37.7412   61.8012 O   0  0  0  0  0  0  0  0  0  0  0  0
   71.6108   37.9196   60.8924 N   0  0  0  0  0  0  0  0  0  0  0  0
   71.8404   37.0617   59.7976 C   0  0  0  0  0  0  0  0  0  0  0  0
   71.6418   35.7109   59.7757 C   0  0  0  0  0  0  0  0  0  0  0  0
   71.8602   34.8944   58.6756 C   0  0  0  0  0  0  0  0  0  0  0  0
   72.3145   35.4814   57.5131 C   0  0  0  0  0  0  0  0  0  0  0  0
   72.5258   36.8285   57.4973 C   0  0  0  0  0  0  0  0  0  0  0  0
   72.3035   37.6403   58.6047 C   0  0  0  0  0  0  0  0  0  0  0  0
   72.5469   38.9514   58.4795 F   0  0  0  0  0  0  0  0  0  0  0  0
 14 15  1  0
 15 16  2  0
 15 20  1  0
 16 17  1  0
 17 18  2  0
 18 19  1  0
 19 20  2  0
 20 11  1  0
 11 12  2  0
 11 13  1  0
 13  8  1  0
  8  9  1  0
  9 10  2  0
  9  1  1  0
  1  2  2  0
  1  6  1  0
  2  3  1  0
  3 21  1  0
  3  4  2  0
 21 22  2  0
 21 23  2  0
 21 24  1  0
 24 25  1  0
 25 26  2  0
 25 30  1  0
 26 27  1  0
 27 28  2  0
 28 29  1  0
 29 30  2  0
 30 31  1  0
  4  5  1  0
  5  6  2  0
  6  7  1  0
M  END
>  <minimizedAffinity>  (479) 
-8.85025

$$$$
cs_full_output_folder/data/smiles/8640.pdb
     RDKit          3D

 29 31  0  0  0  0  0  0  0  0999 V2000
   69.4338   51.1907   55.6062 C   0  0  0  0  0  0  0  0  0  0  0  0
   68.3985   50.6252   56.3169 C   0  0  0  0  0  0  0  0  0  0  0  0
   68.5877   50.3365   57.6520 C   0  0  0  0  0  0  0  0  0  0  0  0
   69.8136   50.6211   58.2480 C   0  0  0  0  0  0  0  0  0  0  0  0
   70.0009   50.3424   59.5505 F   0  0  0  0  0  0  0  0  0  0  0  0
   70.8491   51.1869   57.5321 C   0  0  0  0  0  0  0  0  0  0  0  0
   70.6637   51.4795   56.1921 C   0  0  0  0  0  0  0  0  0  0  0  0
   72.0992   51.4495   58.2222 C   0  0  0  0  0  0  0  0  0  0  0  0
   72.1931   52.4965   58.9046 O   0  0  0  0  0  0  0  0  0  0  0  0
   73.2276   50.5890   58.1719 N   0  0  0  0  0  0  0  0  0  0  0  0
   74.4130   50.9357   58.8878 C   0  0  0  0  0  0  0  0  0  0  0  0
   74.4235   50.3524   60.2714 C   0  0  0  0  0  0  0  0  0  0  0  0
   74.3911   48.8668   60.3198 C   0  0  0  0  0  0  0  0  0  0  0  0
   73.4801   48.2444   59.3790 N   0  0  0  0  0  0  0  0  0  0  0  0
   72.3160   47.6313   59.9317 C   0  0  0  0  0  0  0  0  0  0  0  0
   71.3130   46.9571   59.1065 C   0  0  0  0  0  0  0  0  0  0  0  0
   72.1505   47.6755   61.1810 O   0  0  0  0  0  0  0  0  0  0  0  0
   73.6605   48.1966   57.9534 C   0  0  0  0  0  0  0  0  0  0  0  0
   73.0035   49.4168   57.3502 C   0  0  0  0  0  0  0  0  0  0  0  0
   69.2316   51.5025   54.1677 C   0  0  0  0  0  0  0  0  0  0  0  0
   69.0609   47.8811   53.0227 C   0  0  0  0  0  0  0  0  0  0  0  0
   68.9389   49.0359   53.7719 C   0  0  0  0  0  0  0  0  0  0  0  0
   69.3815   50.2655   53.3297 C   0  0  0  0  0  0  0  0  0  0  0  0
   69.9534   50.3088   52.1134 N   0  0  0  0  0  0  0  0  0  0  0  0
   70.0788   49.2102   51.3805 N   0  0  0  0  0  0  0  0  0  0  0  0
   69.6564   47.9989   51.7847 C   0  0  0  0  0  0  0  0  0  0  0  0
   69.8165   47.0137   51.0231 O   0  0  0  0  0  0  0  0  0  0  0  0
   68.3734   46.5201   54.9935 C   0  0  0  0  0  0  0  0  0  0  0  0
   68.5774   46.5631   53.5156 C   0  0  0  0  0  0  0  0  0  0  0  0
 28 29  1  0
 29 21  1  0
 21 22  2  0
 21 26  1  0
 22 23  1  0
 23 20  1  0
 23 24  2  0
 20  1  1  0
  1  2  2  0
  1  7  1  0
  2  3  1  0
  3  4  2  0
  4  5  1  0
  4  6  1  0
  6  8  1  0
  6  7  2  0
  8  9  2  0
  8 10  1  0
 10 11  1  0
 10 19  1  0
 11 12  1  0
 12 13  1  0
 13 14  1  0
 14 15  1  0
 14 18  1  0
 15 16  1  0
 15 17  2  0
 18 19  1  0
 24 25  1  0
 25 26  1  0
 26 27  2  0
M  END
>  <minimizedAffinity>  (480) 
-8.85012

$$$$
cs_full_output_folder/data/smiles/4919.pdb
     RDKit          3D

 28 30  0  0  0  0  0  0  0  0999 V2000
   69.1848   49.1952   53.8647 C   0  0  0  0  0  0  0  0  0  0  0  0
   69.0992   48.7775   52.5524 C   0  0  0  0  0  0  0  0  0  0  0  0
   68.8854   47.4476   52.2406 C   0  0  0  0  0  0  0  0  0  0  0  0
   68.7576   46.5229   53.2708 C   0  0  0  0  0  0  0  0  0  0  0  0
   68.8378   46.9008   54.5960 C   0  0  0  0  0  0  0  0  0  0  0  0
   69.0512   48.2375   54.8423 C   0  0  0  0  0  0  0  0  0  0  0  0
   69.4563   50.8891   54.2367 S   0  0  0  0  0  0  0  0  0  0  0  0
   70.3795   51.4310   53.1776 O   0  0  0  0  0  0  0  0  0  0  0  0
   68.1900   51.6566   54.2061 O   0  0  0  0  0  0  0  0  0  0  0  0
   68.0045   51.1604   57.0010 C   0  0  0  0  0  0  0  0  0  0  0  0
   69.3672   51.7222   56.7360 C   0  0  2  0  0  0  0  0  0  0  0  0
   69.3407   53.1941   56.3724 C   0  0  0  0  0  0  0  0  0  0  0  0
   70.7509   53.7019   56.3704 C   0  0  0  0  0  0  0  0  0  0  0  0
   71.7130   52.8294   55.6308 C   0  0  0  0  0  0  0  0  0  0  0  0
   71.5035   51.3651   55.8328 C   0  0  0  0  0  0  0  0  0  0  0  0
   70.1389   50.9452   55.7976 N   0  0  0  0  0  0  0  0  0  0  0  0
   68.6977   45.8991   55.6458 C   0  0  0  0  0  0  0  0  0  0  0  0
   68.9577   46.2156   56.8348 O   0  0  0  0  0  0  0  0  0  0  0  0
   68.2816   44.5692   55.4234 N   0  0  0  0  0  0  0  0  0  0  0  0
   68.1576   43.6242   56.4715 N   0  0  0  0  0  0  0  0  0  0  0  0
   67.4883   42.4022   56.3344 C   0  0  0  0  0  0  0  0  0  0  0  0
   66.9687   42.1172   55.2333 O   0  0  0  0  0  0  0  0  0  0  0  0
   67.3752   41.4393   57.4423 C   0  0  0  0  0  0  0  0  0  0  0  0
   68.0315   40.2272   57.4094 C   0  0  0  0  0  0  0  0  0  0  0  0
   67.9272   39.3099   58.4608 C   0  0  0  0  0  0  0  0  0  0  0  0
   67.1493   39.6179   59.5589 C   0  0  0  0  0  0  0  0  0  0  0  0
   66.5084   40.8393   59.5550 C   0  0  0  0  0  0  0  0  0  0  0  0
   66.6265   41.7083   58.5267 N   0  0  0  0  0  0  0  0  0  0  0  0
 11 10  1  6
 11 12  1  0
 11 16  1  0
 12 13  1  0
 13 14  1  0
 14 15  1  0
 15 16  1  0
 16  7  1  0
  7  8  2  0
  7  9  2  0
  7  1  1  0
  1  2  2  0
  1  6  1  0
  2  3  1  0
  3  4  2  0
  4  5  1  0
  5 17  1  0
  5  6  2  0
 17 18  2  0
 17 19  1  0
 19 20  1  0
 20 21  1  0
 21 22  2  0
 21 23  1  0
 23 24  2  0
 23 28  1  0
 24 25  1  0
 25 26  2  0
 26 27  1  0
 27 28  2  0
M  END
>  <minimizedAffinity>  (481) 
-8.84824

$$$$
cs_full_output_folder/data/smiles/6987.pdb
     RDKit          3D

 31 34  0  0  0  0  0  0  0  0999 V2000
   71.5144   46.7929   58.9776 C   0  0  0  0  0  0  0  0  0  0  0  0
   70.5848   47.5186   58.2696 C   0  0  0  0  0  0  0  0  0  0  0  0
   69.7458   46.9149   57.3657 C   0  0  0  0  0  0  0  0  0  0  0  0
   69.8428   45.5346   57.1658 C   0  0  0  0  0  0  0  0  0  0  0  0
   70.7622   44.7823   57.8590 C   0  0  0  0  0  0  0  0  0  0  0  0
   71.5819   45.4377   58.7556 C   0  0  0  0  0  0  0  0  0  0  0  0
   72.4876   44.6645   59.4317 F   0  0  0  0  0  0  0  0  0  0  0  0
   75.3629   52.2103   59.7074 O   0  0  0  0  0  0  0  0  0  0  0  0
   74.7742   51.4653   58.8816 C   0  0  0  0  0  0  0  0  0  0  0  0
   73.7082   52.0625   58.1822 O   0  0  0  0  0  0  0  0  0  0  0  0
   75.1518   50.1241   58.6668 N   0  0  0  0  0  0  0  0  0  0  0  0
   76.2570   49.6569   59.4536 C   0  0  0  0  0  0  0  0  0  0  0  0
   75.8407   48.6087   60.4654 C   0  0  0  0  0  0  0  0  0  0  0  0
   74.3316   48.6876   60.7125 C   0  0  0  0  0  0  0  0  0  0  0  0
   73.6107   48.0622   59.6048 N   0  0  0  0  0  0  0  0  0  0  0  0
   72.3822   47.4666   59.9298 C   0  0  0  0  0  0  0  0  0  0  0  0
   71.9824   47.5035   61.1210 O   0  0  0  0  0  0  0  0  0  0  0  0
   74.0927   48.0328   58.2511 C   0  0  0  0  0  0  0  0  0  0  0  0
   74.3786   49.4120   57.6913 C   0  0  0  0  0  0  0  0  0  0  0  0
   68.7228   47.6935   56.5749 C   0  0  0  0  0  0  0  0  0  0  0  0
   69.1886   47.9334   55.2075 C   0  0  0  0  0  0  0  0  0  0  0  0
   70.1809   48.8698   55.0769 N   0  0  0  0  0  0  0  0  0  0  0  0
   70.7063   49.2136   53.9385 N   0  0  0  0  0  0  0  0  0  0  0  0
   70.2798   48.6441   52.8131 C   0  0  0  0  0  0  0  0  0  0  0  0
   70.7931   48.9830   51.7141 O   0  0  0  0  0  0  0  0  0  0  0  0
   69.2739   47.6834   52.8611 C   0  0  0  0  0  0  0  0  0  0  0  0
   68.7327   47.3334   54.0718 C   0  0  0  0  0  0  0  0  0  0  0  0
   67.6906   46.3244   54.1291 C   0  0  0  0  0  0  0  0  0  0  0  0
   67.7025   45.3577   52.9791 C   0  0  0  0  0  0  0  0  0  0  0  0
   67.8773   46.0050   51.6410 C   0  0  0  0  0  0  0  0  0  0  0  0
   68.8622   47.1005   51.5700 C   0  0  0  0  0  0  0  0  0  0  0  0
  8  9  2  0
  9 10  1  0
  9 11  1  0
 11 12  1  0
 11 19  1  0
 12 13  1  0
 13 14  1  0
 14 15  1  0
 15 16  1  0
 15 18  1  0
 16 17  2  0
 16  1  1  0
  1  2  2  0
  1  6  1  0
  2  3  1  0
  3 20  1  0
  3  4  2  0
 20 21  1  0
 21 22  2  0
 21 27  1  0
 22 23  1  0
 23 24  1  0
 24 25  2  0
 24 26  1  0
 26 27  2  0
 26 31  1  0
 27 28  1  0
 28 29  1  0
 29 30  1  0
 30 31  1  0
  4  5  1  0
  5  6  2  0
  6  7  1  0
 18 19  1  0
M  END
>  <minimizedAffinity>  (482) 
-8.84756

$$$$
cs_full_output_folder/data/smiles/4803.pdb
     RDKit          3D

 30 32  0  0  0  0  0  0  0  0999 V2000
   70.4420   47.6199   57.6697 C   0  0  0  0  0  0  0  0  0  0  0  0
   70.9334   48.3133   58.7504 C   0  0  0  0  0  0  0  0  0  0  0  0
   71.4143   49.5998   58.6697 C   0  0  0  0  0  0  0  0  0  0  0  0
   71.3954   50.2191   57.4243 C   0  0  0  0  0  0  0  0  0  0  0  0
   70.9167   49.5798   56.3057 C   0  0  0  0  0  0  0  0  0  0  0  0
   70.4413   48.2696   56.4561 C   0  0  0  0  0  0  0  0  0  0  0  0
   69.2188   45.7525   56.8850 O   0  0  0  0  0  0  0  0  0  0  0  0
   69.9424   46.2567   57.8032 C   0  0  0  0  0  0  0  0  0  0  0  0
   70.1990   45.4083   58.9097 N   0  0  0  0  0  0  0  0  0  0  0  0
   69.6826   44.1059   58.9668 N   0  0  0  0  0  0  0  0  0  0  0  0
   70.2163   42.9997   58.2627 C   0  0  0  0  0  0  0  0  0  0  0  0
   71.2251   43.2173   57.5395 O   0  0  0  0  0  0  0  0  0  0  0  0
   69.6688   41.6507   58.3316 C   0  0  0  0  0  0  0  0  0  0  0  0
   70.1493   40.6779   59.1810 C   0  0  0  0  0  0  0  0  0  0  0  0
   69.5869   39.3984   59.2054 C   0  0  0  0  0  0  0  0  0  0  0  0
   68.5357   39.0720   58.3838 C   0  0  0  0  0  0  0  0  0  0  0  0
   68.0430   40.0325   57.5289 C   0  0  0  0  0  0  0  0  0  0  0  0
   68.6144   41.3077   57.5128 C   0  0  0  0  0  0  0  0  0  0  0  0
   67.9735   42.5177   56.4176 Cl  0  0  0  0  0  0  0  0  0  0  0  0
   70.8756   50.3453   54.7259 S   0  0  0  0  0  0  0  0  0  0  0  0
   72.0741   49.9312   53.9086 O   0  0  0  0  0  0  0  0  0  0  0  0
   70.9549   51.8374   54.9021 O   0  0  0  0  0  0  0  0  0  0  0  0
   69.4095   49.9648   53.9224 N   0  0  0  0  0  0  0  0  0  0  0  0
   69.1006   48.6703   53.4677 C   0  0  0  0  0  0  0  0  0  0  0  0
   68.3500   47.7686   54.1727 C   0  0  0  0  0  0  0  0  0  0  0  0
   68.0305   46.5008   53.7375 C   0  0  0  0  0  0  0  0  0  0  0  0
   68.4843   46.0858   52.5144 C   0  0  0  0  0  0  0  0  0  0  0  0
   69.2472   46.9659   51.7691 C   0  0  0  0  0  0  0  0  0  0  0  0
   69.5559   48.2267   52.2192 C   0  0  0  0  0  0  0  0  0  0  0  0
   70.3095   49.0813   51.4701 F   0  0  0  0  0  0  0  0  0  0  0  0
  7  8  2  0
  8  9  1  0
  8  1  1  0
  9 10  1  0
 10 11  1  0
 11 12  2  0
 11 13  1  0
 13 14  2  0
 13 18  1  0
 14 15  1  0
 15 16  2  0
 16 17  1  0
 17 18  2  0
 18 19  1  0
  1  2  2  0
  1  6  1  0
  2  3  1  0
  3  4  2  0
  4  5  1  0
  5 20  1  0
  5  6  2  0
 20 21  2  0
 20 22  2  0
 20 23  1  0
 23 24  1  0
 24 25  2  0
 24 29  1  0
 25 26  1  0
 26 27  2  0
 27 28  1  0
 28 29  2  0
 29 30  1  0
M  END
>  <minimizedAffinity>  (483) 
-8.84591

$$$$
cs_full_output_folder/data/smiles/6632.pdb
     RDKit          3D

 29 32  0  0  0  0  0  0  0  0999 V2000
   73.1034   53.2752   56.5637 C   0  0  0  0  0  0  0  0  0  0  0  0
   72.3392   52.2699   55.7464 C   0  0  0  0  0  0  0  0  0  0  0  0
   71.0006   52.4218   55.4721 C   0  0  0  0  0  0  0  0  0  0  0  0
   70.3198   51.4880   54.7203 C   0  0  0  0  0  0  0  0  0  0  0  0
   70.9799   50.3741   54.2274 C   0  0  0  0  0  0  0  0  0  0  0  0
   72.3177   50.2459   54.5178 C   0  0  0  0  0  0  0  0  0  0  0  0
   73.0058   51.1601   55.2597 C   0  0  0  0  0  0  0  0  0  0  0  0
   70.2779   49.3665   53.4560 C   0  0  0  0  0  0  0  0  0  0  0  0
   70.4744   49.3004   52.1164 N   0  0  0  0  0  0  0  0  0  0  0  0
   69.8820   48.4047   51.3478 N   0  0  0  0  0  0  0  0  0  0  0  0
   69.0280   47.4858   51.8803 C   0  0  0  0  0  0  0  0  0  0  0  0
   68.4984   46.6594   51.0799 O   0  0  0  0  0  0  0  0  0  0  0  0
   68.7846   47.4937   53.2194 C   0  0  0  0  0  0  0  0  0  0  0  0
   69.4242   48.4514   54.0056 C   0  0  0  0  0  0  0  0  0  0  0  0
   69.1740   48.4351   55.4446 C   0  0  0  0  0  0  0  0  0  0  0  0
   69.0297   47.0392   56.0148 C   0  0  0  0  0  0  0  0  0  0  0  0
   68.5034   46.0165   55.0819 C   0  0  0  0  0  0  0  0  0  0  0  0
   67.8731   46.5219   53.8264 C   0  0  0  0  0  0  0  0  0  0  0  0
   74.7113   50.9241   55.5454 S   0  0  0  0  0  0  0  0  0  0  0  0
   75.1485   49.8320   54.5843 O   0  0  0  0  0  0  0  0  0  0  0  0
   75.5037   52.1480   55.1759 O   0  0  0  0  0  0  0  0  0  0  0  0
   74.9854   50.4060   57.1323 N   0  0  0  0  0  0  0  0  0  0  0  0
   76.2742   49.8701   57.4047 C   0  0  0  0  0  0  0  0  0  0  0  0
   76.7188   50.1216   58.8400 C   0  0  0  0  0  0  0  0  0  0  0  0
   76.2961   49.0032   59.7113 C   0  0  0  0  0  0  0  0  0  0  0  0
   74.9545   49.0452   60.3085 C   0  0  0  0  0  0  0  0  0  0  0  0
   74.1256   50.2514   60.1140 C   0  0  0  0  0  0  0  0  0  0  0  0
   73.2788   50.2785   58.8871 C   0  0  0  0  0  0  0  0  0  0  0  0
   73.9342   49.6124   57.6995 C   0  0  0  0  0  0  0  0  0  0  0  0
  1  2  1  0
  2  3  2  0
  2  7  1  0
  3  4  1  0
  4  5  2  0
  5  8  1  0
  5  6  1  0
  8  9  2  0
  8 14  1  0
  9 10  1  0
 10 11  1  0
 11 12  2  0
 11 13  1  0
 13 14  2  0
 13 18  1  0
 14 15  1  0
 15 16  1  0
 16 17  1  0
 17 18  1  0
  6  7  2  0
  7 19  1  0
 19 20  2  0
 19 21  2  0
 19 22  1  0
 22 23  1  0
 22 29  1  0
 23 24  1  0
 24 25  1  0
 25 26  1  0
 26 27  1  0
 27 28  1  0
 28 29  1  0
M  END
>  <minimizedAffinity>  (484) 
-8.84304

$$$$
cs_full_output_folder/data/smiles/1070.pdb
     RDKit          3D

 32 36  0  0  0  0  0  0  0  0999 V2000
   70.5286   48.9982   58.4068 C   0  0  0  0  0  0  0  0  0  0  0  0
   70.1582   48.1415   57.3914 C   0  0  0  0  0  0  0  0  0  0  0  0
   69.0232   48.3325   56.6158 C   0  0  0  0  0  0  0  0  0  0  0  0
   68.2225   49.4509   56.8874 C   0  0  0  0  0  0  0  0  0  0  0  0
   68.5686   50.3043   57.8797 C   0  0  0  0  0  0  0  0  0  0  0  0
   69.7175   50.0863   58.6443 C   0  0  0  0  0  0  0  0  0  0  0  0
   70.0397   50.9492   59.6269 F   0  0  0  0  0  0  0  0  0  0  0  0
   68.6780   47.4288   55.5444 C   0  0  0  0  0  0  0  0  0  0  0  0
   67.9710   46.3206   55.8253 N   0  0  0  0  0  0  0  0  0  0  0  0
   67.6228   45.4637   54.8765 N   0  0  0  0  0  0  0  0  0  0  0  0
   67.9547   45.6545   53.5892 C   0  0  0  0  0  0  0  0  0  0  0  0
   67.6299   44.8513   52.6953 O   0  0  0  0  0  0  0  0  0  0  0  0
   68.6781   46.7736   53.2286 C   0  0  0  0  0  0  0  0  0  0  0  0
   69.0180   47.0055   51.9193 C   0  0  0  0  0  0  0  0  0  0  0  0
   69.7222   48.1371   51.5952 C   0  0  0  0  0  0  0  0  0  0  0  0
   70.0998   49.0515   52.5470 C   0  0  0  0  0  0  0  0  0  0  0  0
   69.7445   48.7982   53.8808 C   0  0  0  0  0  0  0  0  0  0  0  0
   69.0396   47.6733   54.2461 C   0  0  0  0  0  0  0  0  0  0  0  0
   73.9253   51.2158   58.2817 N   0  0  0  0  0  0  0  0  0  0  0  0
   74.2442   50.9722   59.6580 C   0  0  0  0  0  0  0  0  0  0  0  0
   74.9734   49.6602   59.8593 C   0  0  0  0  0  0  0  0  0  0  0  0
   74.1403   48.4565   59.4865 C   0  0  0  0  0  0  0  0  0  0  0  0
   73.0376   48.7892   58.6056 N   0  0  0  0  0  0  0  0  0  0  0  0
   71.7391   48.7000   59.1507 C   0  0  0  0  0  0  0  0  0  0  0  0
   71.6154   48.3422   60.3485 O   0  0  0  0  0  0  0  0  0  0  0  0
   73.1781   49.1997   57.2173 C   0  0  0  0  0  0  0  0  0  0  0  0
   74.2103   50.2963   57.1735 C   0  0  0  0  0  0  0  0  0  0  0  0
   73.9616   53.5289   57.9945 N   0  0  0  0  0  0  0  0  0  0  0  0
   73.2857   52.4325   57.9585 C   0  0  0  0  0  0  0  0  0  0  0  0
   71.8522   52.5042   57.5745 C   0  0  0  0  0  0  0  0  0  0  0  0
   71.3741   53.7289   56.8980 C   0  0  0  0  0  0  0  0  0  0  0  0
   71.4524   52.4447   56.1593 C   0  0  0  0  0  0  0  0  0  0  0  0
 28 29  2  0
 29 30  1  0
 29 19  1  0
 30 31  1  0
 30 32  1  0
 31 32  1  0
 19 20  1  0
 19 27  1  0
 20 21  1  0
 21 22  1  0
 22 23  1  0
 23 24  1  0
 23 26  1  0
 24 25  2  0
 24  1  1  0
  1  2  2  0
  1  6  1  0
  2  3  1  0
  3  8  1  0
  3  4  2  0
  8  9  2  0
  8 18  1  0
  9 10  1  0
 10 11  1  0
 11 12  2  0
 11 13  1  0
 13 14  1  0
 13 18  2  0
 14 15  2  0
 15 16  1  0
 16 17  2  0
 17 18  1  0
  4  5  1  0
  5  6  2  0
  6  7  1  0
 26 27  1  0
M  CHG  1  28   1
M  END
>  <minimizedAffinity>  (485) 
-8.83826

$$$$
cs_full_output_folder/data/smiles/1083.pdb
     RDKit          3D

 31 33  0  0  0  0  0  0  0  0999 V2000
   70.1936   49.3332   53.9612 C   0  0  0  0  0  0  0  0  0  0  0  0
   69.9442   49.1592   52.6206 C   0  0  0  0  0  0  0  0  0  0  0  0
   69.1922   48.0493   52.2408 C   0  0  0  0  0  0  0  0  0  0  0  0
   68.7204   47.1631   53.1964 C   0  0  0  0  0  0  0  0  0  0  0  0
   67.9251   45.9892   52.7442 C   0  0  0  0  0  0  0  0  0  0  0  0
   68.9690   47.3348   54.5415 C   0  0  0  0  0  0  0  0  0  0  0  0
   69.7138   48.4393   54.8921 C   0  0  0  0  0  0  0  0  0  0  0  0
   71.1675   50.7211   54.4459 S   0  0  0  0  0  0  0  0  0  0  0  0
   71.1087   51.7983   53.4071 O   0  0  0  0  0  0  0  0  0  0  0  0
   72.5952   50.3053   54.5543 O   0  0  0  0  0  0  0  0  0  0  0  0
   70.6561   51.3420   55.9528 N   0  0  0  0  0  0  0  0  0  0  0  0
   70.6233   49.6690   58.1849 C   0  0  0  0  0  0  0  0  0  0  0  0
   69.3576   50.2471   57.6663 C   0  0  0  0  0  0  0  0  0  0  0  0
   68.1696   49.9480   58.2978 C   0  0  0  0  0  0  0  0  0  0  0  0
   66.9892   50.4908   57.8079 C   0  0  0  0  0  0  0  0  0  0  0  0
   67.0523   51.3127   56.7038 C   0  0  0  0  0  0  0  0  0  0  0  0
   68.2456   51.6207   56.0610 C   0  0  0  0  0  0  0  0  0  0  0  0
   69.4046   51.0738   56.5591 C   0  0  0  0  0  0  0  0  0  0  0  0
   68.4640   46.3687   55.5350 C   0  0  0  0  0  0  0  0  0  0  0  0
   67.8614   46.7604   56.5516 O   0  0  0  0  0  0  0  0  0  0  0  0
   68.6486   44.9698   55.3619 N   0  0  0  0  0  0  0  0  0  0  0  0
   68.2044   43.9886   56.2526 N   0  0  0  0  0  0  0  0  0  0  0  0
   69.1291   43.2348   57.0614 C   0  0  0  0  0  0  0  0  0  0  0  0
   70.3450   43.5243   56.9093 O   0  0  0  0  0  0  0  0  0  0  0  0
   68.6615   42.2080   57.9869 C   0  0  0  0  0  0  0  0  0  0  0  0
   68.9428   42.3440   59.3384 C   0  0  0  0  0  0  0  0  0  0  0  0
   68.5201   41.3979   60.2594 C   0  0  0  0  0  0  0  0  0  0  0  0
   67.8030   40.2861   59.8677 C   0  0  0  0  0  0  0  0  0  0  0  0
   67.5142   40.1363   58.5229 C   0  0  0  0  0  0  0  0  0  0  0  0
   67.9440   41.0915   57.6135 C   0  0  0  0  0  0  0  0  0  0  0  0
   67.6438   40.9549   56.1570 C   0  0  0  0  0  0  0  0  0  0  0  0
 12 13  1  0
 13 14  2  0
 13 18  1  0
 14 15  1  0
 15 16  2  0
 16 17  1  0
 17 18  2  0
 18 11  1  0
 11  8  1  0
  8  9  2  0
  8 10  2  0
  8  1  1  0
  1  2  2  0
  1  7  1  0
  2  3  1  0
  3  4  2  0
  4  5  1  0
  4  6  1  0
  6 19  1  0
  6  7  2  0
 19 20  2  0
 19 21  1  0
 21 22  1  0
 22 23  1  0
 23 24  2  0
 23 25  1  0
 25 26  2  0
 25 30  1  0
 26 27  1  0
 27 28  2  0
 28 29  1  0
 29 30  2  0
 30 31  1  0
M  END
>  <minimizedAffinity>  (486) 
-8.83255

$$$$
cs_full_output_folder/data/smiles/7067.pdb
     RDKit          3D

 31 35  0  0  0  0  0  0  0  0999 V2000
   71.9477   48.0433   58.8136 C   0  0  0  0  0  0  0  0  0  0  0  0
   70.7388   48.2379   58.2355 C   0  0  0  0  0  0  0  0  0  0  0  0
   70.6231   49.0824   57.1198 C   0  0  0  0  0  0  0  0  0  0  0  0
   71.7195   49.7173   56.6029 C   0  0  0  0  0  0  0  0  0  0  0  0
   72.9489   49.5019   57.2134 C   0  0  0  0  0  0  0  0  0  0  0  0
   73.0476   48.6723   58.3053 C   0  0  0  0  0  0  0  0  0  0  0  0
   74.2564   48.4931   58.8632 F   0  0  0  0  0  0  0  0  0  0  0  0
   73.5611   42.6338   56.5100 O   0  0  0  0  0  0  0  0  0  0  0  0
   73.1834   42.5839   57.6732 C   0  0  0  0  0  0  0  0  0  0  0  0
   74.1245   42.3761   58.7889 C   0  0  0  0  0  0  0  0  0  0  0  0
   73.6873   42.8316   60.1099 C   0  0  0  0  0  0  0  0  0  0  0  0
   72.3642   43.4419   60.2614 C   0  0  1  0  0  0  0  0  0  0  0  0
   72.4459   44.8253   60.9225 C   0  0  0  0  0  0  0  0  0  0  0  0
   72.2724   45.7784   59.8542 N   0  0  0  0  0  0  0  0  0  0  0  0
   72.1173   47.1761   59.9758 C   0  0  0  0  0  0  0  0  0  0  0  0
   72.1236   47.6995   61.1199 O   0  0  0  0  0  0  0  0  0  0  0  0
   72.2835   45.0573   58.6045 C   0  0  0  0  0  0  0  0  0  0  0  0
   71.6105   43.7670   59.0248 C   0  0  1  0  0  0  0  0  0  0  0  0
   71.7476   42.7389   57.9329 C   0  0  0  0  0  0  0  0  0  0  0  0
   69.2432   49.2651   56.5628 C   0  0  0  0  0  0  0  0  0  0  0  0
   68.8432   48.0824   55.7767 C   0  0  0  0  0  0  0  0  0  0  0  0
   68.2772   47.0181   56.4172 N   0  0  0  0  0  0  0  0  0  0  0  0
   67.9463   45.9213   55.7888 N   0  0  0  0  0  0  0  0  0  0  0  0
   68.1364   45.7585   54.4714 C   0  0  0  0  0  0  0  0  0  0  0  0
   67.8239   44.7082   53.8521 O   0  0  0  0  0  0  0  0  0  0  0  0
   68.7066   46.8091   53.7744 C   0  0  0  0  0  0  0  0  0  0  0  0
   68.9177   46.7166   52.4180 C   0  0  0  0  0  0  0  0  0  0  0  0
   69.4683   47.7601   51.7240 C   0  0  0  0  0  0  0  0  0  0  0  0
   69.8240   48.9266   52.3575 C   0  0  0  0  0  0  0  0  0  0  0  0
   69.6170   49.0322   53.7206 C   0  0  0  0  0  0  0  0  0  0  0  0
   69.0637   47.9874   54.4423 C   0  0  0  0  0  0  0  0  0  0  0  0
  8  9  2  0
  9 10  1  0
  9 19  1  0
 10 11  1  0
 12 11  1  6
 12 13  1  0
 12 18  1  0
 13 14  1  0
 14 15  1  0
 14 17  1  0
 15 16  2  0
 15  1  1  0
  1  2  2  0
  1  6  1  0
  2  3  1  0
  3 20  1  0
  3  4  2  0
 20 21  1  0
 21 22  2  0
 21 31  1  0
 22 23  1  0
 23 24  1  0
 24 25  2  0
 24 26  1  0
 26 27  1  0
 26 31  2  0
 27 28  2  0
 28 29  1  0
 29 30  2  0
 30 31  1  0
  4  5  1  0
  5  6  2  0
  6  7  1  0
 18 17  1  6
 18 19  1  0
M  END
>  <minimizedAffinity>  (487) 
-8.81520

$$$$
cs_full_output_folder/data/smiles/2077.pdb
     RDKit          3D

 31 34  0  0  0  0  0  0  0  0999 V2000
   71.3562   47.7655   58.6449 C   0  0  0  0  0  0  0  0  0  0  0  0
   71.8292   48.9551   58.0217 C   0  0  0  0  0  0  0  0  0  0  0  0
   72.9862   48.7907   57.4046 O   0  0  0  0  0  0  0  0  0  0  0  0
   71.3384   50.2400   57.9224 N   0  0  0  0  0  0  0  0  0  0  0  0
   70.2156   50.8777   58.5834 C   0  0  0  0  0  0  0  0  0  0  0  0
   69.1371   51.0938   57.5092 C   0  0  0  0  0  0  0  0  0  0  0  0
   69.7526   50.5189   56.3016 N   0  0  0  0  0  0  0  0  0  0  0  0
   70.8470   51.3012   55.7907 C   0  0  0  0  0  0  0  0  0  0  0  0
   71.9399   51.1719   56.8928 C   0  0  0  0  0  0  0  0  0  0  0  0
   69.3531   49.2977   55.7386 C   0  0  0  0  0  0  0  0  0  0  0  0
   69.6782   48.9630   54.4224 C   0  0  0  0  0  0  0  0  0  0  0  0
   69.2648   47.7939   53.8386 C   0  0  0  0  0  0  0  0  0  0  0  0
   68.4951   46.8769   54.5359 C   0  0  0  0  0  0  0  0  0  0  0  0
   68.0646   45.7176   54.0063 F   0  0  0  0  0  0  0  0  0  0  0  0
   68.1567   47.1709   55.8295 C   0  0  0  0  0  0  0  0  0  0  0  0
   68.5869   48.3598   56.3986 C   0  0  0  0  0  0  0  0  0  0  0  0
   69.7465   45.6753   59.0404 O   0  0  0  0  0  0  0  0  0  0  0  0
   70.7940   45.3599   58.3599 C   0  0  0  0  0  0  0  0  0  0  0  0
   71.6775   46.4721   58.1187 N   0  0  0  0  0  0  0  0  0  0  0  0
   70.9690   43.9807   57.9178 C   0  0  0  0  0  0  0  0  0  0  0  0
   69.7763   43.3827   57.3860 C   0  0  0  0  0  0  0  0  0  0  0  0
   68.9432   44.1236   56.6218 N   0  0  0  0  0  0  0  0  0  0  0  0
   67.8571   43.6249   56.0442 N   0  0  0  0  0  0  0  0  0  0  0  0
   67.4946   42.3433   56.1716 C   0  0  0  0  0  0  0  0  0  0  0  0
   66.4656   41.8435   55.6296 O   0  0  0  0  0  0  0  0  0  0  0  0
   68.2858   41.5075   56.9371 C   0  0  0  0  0  0  0  0  0  0  0  0
   67.9735   40.1936   57.1558 C   0  0  0  0  0  0  0  0  0  0  0  0
   68.7705   39.4009   57.9613 C   0  0  0  0  0  0  0  0  0  0  0  0
   69.8976   39.9085   58.5633 C   0  0  0  0  0  0  0  0  0  0  0  0
   70.2050   41.2572   58.3274 C   0  0  0  0  0  0  0  0  0  0  0  0
   69.4152   42.0346   57.5331 C   0  0  0  0  0  0  0  0  0  0  0  0
 17 18  2  0
 18 20  1  0
 18 19  1  0
 20 21  1  0
 21 22  2  0
 21 31  1  0
 22 23  1  0
 23 24  1  0
 24 25  2  0
 24 26  1  0
 26 27  1  0
 26 31  2  0
 27 28  2  0
 28 29  1  0
 29 30  2  0
 30 31  1  0
 19  1  1  0
  1  2  1  0
  2  3  2  0
  2  4  1  0
  4  5  1  0
  4  9  1  0
  5  6  1  0
  6  7  1  0
  7 10  1  0
  7  8  1  0
 10 11  2  0
 10 16  1  0
 11 12  1  0
 12 13  2  0
 13 14  1  0
 13 15  1  0
 15 16  2  0
  8  9  1  0
M  END
>  <minimizedAffinity>  (488) 
-8.80940

$$$$
cs_full_output_folder/data/smiles/2185.pdb
     RDKit          3D

 31 35  0  0  0  0  0  0  0  0999 V2000
   70.2848   47.9305   57.4510 C   0  0  0  0  0  0  0  0  0  0  0  0
   70.7475   46.8650   58.1769 C   0  0  0  0  0  0  0  0  0  0  0  0
   72.0371   46.7353   58.6502 C   0  0  0  0  0  0  0  0  0  0  0  0
   72.9324   47.7390   58.3823 C   0  0  0  0  0  0  0  0  0  0  0  0
   74.2034   47.6453   58.8290 F   0  0  0  0  0  0  0  0  0  0  0  0
   72.4852   48.8347   57.6442 C   0  0  0  0  0  0  0  0  0  0  0  0
   71.2003   48.9492   57.1812 C   0  0  0  0  0  0  0  0  0  0  0  0
   73.7481   50.1356   57.3295 P   0  0  0  0  0  0  0  0  0  0  0  0
   73.5124   50.8842   55.6355 C   0  0  0  0  0  0  0  0  0  0  0  0
   73.1130   52.3437   55.8653 C   0  0  0  0  0  0  0  0  0  0  0  0
   72.0308   52.3190   56.8282 N   0  0  0  0  0  0  0  0  0  0  0  0
   72.3726   52.3823   58.2169 C   0  0  0  0  0  0  0  0  0  0  0  0
   73.5682   51.5123   58.5618 C   0  0  0  0  0  0  0  0  0  0  0  0
   70.6946   52.2366   56.3469 C   0  0  0  0  0  0  0  0  0  0  0  0
   70.3571   52.5114   55.0806 N   0  0  0  0  0  0  0  0  0  0  0  0
   69.1223   52.4415   54.5995 C   0  0  0  0  0  0  0  0  0  0  0  0
   68.0973   52.0641   55.4390 C   0  0  0  0  0  0  0  0  0  0  0  0
   68.4111   51.7750   56.7478 C   0  0  0  0  0  0  0  0  0  0  0  0
   69.6843   51.8658   57.1703 N   0  0  0  0  0  0  0  0  0  0  0  0
   68.8825   48.0468   56.9275 C   0  0  0  0  0  0  0  0  0  0  0  0
   67.8260   44.9762   52.5230 O   0  0  0  0  0  0  0  0  0  0  0  0
   68.0930   45.6986   53.5295 C   0  0  0  0  0  0  0  0  0  0  0  0
   67.7834   45.3080   54.7726 N   0  0  0  0  0  0  0  0  0  0  0  0
   68.0390   46.0203   55.8408 N   0  0  0  0  0  0  0  0  0  0  0  0
   68.6531   47.2326   55.7151 C   0  0  0  0  0  0  0  0  0  0  0  0
   68.9914   47.6755   54.4693 C   0  0  0  0  0  0  0  0  0  0  0  0
   69.6383   48.9026   54.2713 C   0  0  0  0  0  0  0  0  0  0  0  0
   69.9709   49.3047   52.9975 C   0  0  0  0  0  0  0  0  0  0  0  0
   69.6795   48.5188   51.8892 C   0  0  0  0  0  0  0  0  0  0  0  0
   69.0455   47.3088   52.0568 C   0  0  0  0  0  0  0  0  0  0  0  0
   68.7175   46.9166   53.3418 C   0  0  0  0  0  0  0  0  0  0  0  0
 21 22  2  0
 22 23  1  0
 22 31  1  0
 23 24  1  0
 24 25  2  0
 25 20  1  0
 25 26  1  0
 20  1  1  0
  1  2  2  0
  1  7  1  0
  2  3  1  0
  3  4  2  0
  4  5  1  0
  4  6  1  0
  6  8  1  0
  6  7  2  0
  8  9  1  0
  8 13  1  0
  9 10  1  0
 10 11  1  0
 11 14  1  0
 11 12  1  0
 14 15  2  0
 14 19  1  0
 15 16  1  0
 16 17  2  0
 17 18  1  0
 18 19  2  0
 12 13  1  0
 26 27  1  0
 26 31  2  0
 27 28  2  0
 28 29  1  0
 29 30  2  0
 30 31  1  0
M  END
>  <minimizedAffinity>  (489) 
-8.80794

$$$$
cs_full_output_folder/data/smiles/1523.pdb
     RDKit          3D

 32 36  0  0  0  0  0  0  0  0999 V2000
   72.5402   47.9475   58.0723 C   0  0  0  0  0  0  0  0  0  0  0  0
   72.6224   46.7502   58.8137 C   0  0  0  0  0  0  0  0  0  0  0  0
   71.5700   45.8905   58.9672 C   0  0  0  0  0  0  0  0  0  0  0  0
   70.3730   46.2393   58.3539 C   0  0  0  0  0  0  0  0  0  0  0  0
   70.2627   47.3891   57.6315 C   0  0  0  0  0  0  0  0  0  0  0  0
   71.3460   48.2542   57.4849 C   0  0  0  0  0  0  0  0  0  0  0  0
   74.8599   48.2175   58.2228 N   0  0  0  0  0  0  0  0  0  0  0  0
   73.7162   48.8014   57.9868 C   0  0  0  0  0  0  0  0  0  0  0  0
   73.7597   50.1703   57.6562 N   0  0  0  0  0  0  0  0  0  0  0  0
   73.9083   50.5714   56.2306 C   0  0  0  0  0  0  0  0  0  0  0  0
   73.0884   51.8354   56.0326 C   0  0  0  0  0  0  0  0  0  0  0  0
   71.9772   51.8770   56.9534 N   0  0  0  0  0  0  0  0  0  0  0  0
   72.3563   51.9658   58.3769 C   0  0  0  0  0  0  0  0  0  0  0  0
   73.6868   51.2748   58.5789 C   0  0  0  0  0  0  0  0  0  0  0  0
   70.6112   51.8320   56.5835 C   0  0  0  0  0  0  0  0  0  0  0  0
   69.6251   51.3950   57.4372 C   0  0  0  0  0  0  0  0  0  0  0  0
   68.2851   51.3632   57.0253 C   0  0  0  0  0  0  0  0  0  0  0  0
   67.9073   51.7645   55.7635 C   0  0  0  0  0  0  0  0  0  0  0  0
   68.9365   52.1993   54.9345 C   0  0  0  0  0  0  0  0  0  0  0  0
   70.2047   52.2185   55.3542 N   0  0  0  0  0  0  0  0  0  0  0  0
   68.9796   47.7417   56.9832 C   0  0  0  0  0  0  0  0  0  0  0  0
   68.7089   47.0883   55.7110 C   0  0  0  0  0  0  0  0  0  0  0  0
   68.0470   45.9160   55.7396 N   0  0  0  0  0  0  0  0  0  0  0  0
   67.6943   45.2202   54.6839 N   0  0  0  0  0  0  0  0  0  0  0  0
   68.0172   45.7120   53.4830 C   0  0  0  0  0  0  0  0  0  0  0  0
   67.7087   45.0964   52.4245 O   0  0  0  0  0  0  0  0  0  0  0  0
   68.6976   46.9082   53.3555 C   0  0  0  0  0  0  0  0  0  0  0  0
   69.0222   47.3733   52.0787 C   0  0  0  0  0  0  0  0  0  0  0  0
   69.7007   48.5422   51.9703 C   0  0  0  0  0  0  0  0  0  0  0  0
   70.0593   49.2500   53.1098 C   0  0  0  0  0  0  0  0  0  0  0  0
   69.7420   48.7956   54.3633 C   0  0  0  0  0  0  0  0  0  0  0  0
   69.0527   47.6120   54.4949 C   0  0  0  0  0  0  0  0  0  0  0  0
  7  8  2  0
  8  1  1  0
  8  9  1  0
  1  2  2  0
  1  6  1  0
  2  3  1  0
  3  4  2  0
  4  5  1  0
  5 21  1  0
  5  6  2  0
 21 22  1  0
 22 23  2  0
 22 32  1  0
 23 24  1  0
 24 25  1  0
 25 26  2  0
 25 27  1  0
 27 28  1  0
 27 32  2  0
 28 29  2  0
 29 30  1  0
 30 31  2  0
 31 32  1  0
  9 10  1  0
  9 14  1  0
 10 11  1  0
 11 12  1  0
 12 15  1  0
 12 13  1  0
 15 16  2  0
 15 20  1  0
 16 17  1  0
 17 18  2  0
 18 19  1  0
 19 20  2  0
 13 14  1  0
M  CHG  1   7   1
M  END
>  <minimizedAffinity>  (490) 
-8.80675

$$$$
cs_full_output_folder/data/smiles/8562.pdb
     RDKit          3D

 30 34  0  0  0  0  0  0  0  0999 V2000
   71.8621   47.5350   58.8155 C   0  0  0  0  0  0  0  0  0  0  0  0
   70.6972   47.8705   58.1114 C   0  0  0  0  0  0  0  0  0  0  0  0
   70.6836   48.8396   57.1530 C   0  0  0  0  0  0  0  0  0  0  0  0
   71.9057   49.4836   56.9110 C   0  0  0  0  0  0  0  0  0  0  0  0
   73.0664   49.1810   57.5823 C   0  0  0  0  0  0  0  0  0  0  0  0
   73.0375   48.1960   58.5431 C   0  0  0  0  0  0  0  0  0  0  0  0
   74.2085   47.9264   59.1843 F   0  0  0  0  0  0  0  0  0  0  0  0
   71.4764   43.2274   58.8439 C   0  0  0  0  0  0  0  0  0  0  0  0
   72.1028   44.4392   58.1940 C   0  0  0  0  0  0  0  0  0  0  0  0
   71.9540   45.1414   59.4420 N   0  0  0  0  0  0  0  0  0  0  0  0
   71.8407   46.4961   59.8351 C   0  0  0  0  0  0  0  0  0  0  0  0
   71.7209   46.8522   61.0240 O   0  0  0  0  0  0  0  0  0  0  0  0
   71.9677   43.8662   60.1218 C   0  0  0  0  0  0  0  0  0  0  0  0
   69.5179   42.5472   59.8838 C   0  0  0  0  0  0  0  0  0  0  0  0
   70.0264   43.2160   58.7057 N   0  0  2  0  0  0  0  0  0  0  0  0
   69.6985   42.5008   57.4860 C   0  0  0  0  0  0  0  0  0  0  0  0
   68.4941   41.6576   57.3714 C   0  0  0  0  0  0  0  0  0  0  0  0
   68.5871   42.9630   56.6213 C   0  0  0  0  0  0  0  0  0  0  0  0
   69.5136   49.2649   56.3442 C   0  0  0  0  0  0  0  0  0  0  0  0
   69.6528   49.0211   54.9164 C   0  0  0  0  0  0  0  0  0  0  0  0
   70.3990   49.9062   54.1858 N   0  0  0  0  0  0  0  0  0  0  0  0
   70.6392   49.7910   52.9120 N   0  0  0  0  0  0  0  0  0  0  0  0
   70.1617   48.7662   52.1901 C   0  0  0  0  0  0  0  0  0  0  0  0
   70.4323   48.7178   50.9745 O   0  0  0  0  0  0  0  0  0  0  0  0
   69.4039   47.8279   52.8266 C   0  0  0  0  0  0  0  0  0  0  0  0
   68.8963   46.7769   52.1029 C   0  0  0  0  0  0  0  0  0  0  0  0
   68.1250   45.8535   52.7651 C   0  0  0  0  0  0  0  0  0  0  0  0
   67.8714   45.9823   54.1167 C   0  0  0  0  0  0  0  0  0  0  0  0
   68.3924   47.0448   54.8221 C   0  0  0  0  0  0  0  0  0  0  0  0
   69.1564   47.9673   54.1885 C   0  0  0  0  0  0  0  0  0  0  0  0
 15 14  1  1
 15 16  1  0
 15  8  1  0
 16 17  1  0
 16 18  1  0
 17 18  1  0
  8  9  1  0
  8 13  1  0
  9 10  1  0
 10 11  1  0
 10 13  1  0
 11 12  2  0
 11  1  1  0
  1  2  2  0
  1  6  1  0
  2  3  1  0
  3 19  1  0
  3  4  2  0
 19 20  1  0
 20 21  2  0
 20 30  1  0
 21 22  1  0
 22 23  1  0
 23 24  2  0
 23 25  1  0
 25 26  1  0
 25 30  2  0
 26 27  2  0
 27 28  1  0
 28 29  2  0
 29 30  1  0
  4  5  1  0
  5  6  2  0
  6  7  1  0
M  CHG  1  15   1
M  END
>  <minimizedAffinity>  (491) 
-8.79840

$$$$
cs_full_output_folder/data/smiles/6115.pdb
     RDKit          3D

 30 33  0  0  0  0  0  0  0  0999 V2000
   68.6401   51.7534   54.6930 O   0  0  0  0  0  0  0  0  0  0  0  0
   69.6756   51.0627   54.5526 C   0  0  0  0  0  0  0  0  0  0  0  0
   70.8131   51.3908   55.3320 N   0  0  0  0  0  0  0  0  0  0  0  0
   72.0622   50.6468   55.2395 C   0  0  0  0  0  0  0  0  0  0  0  0
   72.5543   50.3408   56.6169 C   0  0  0  0  0  0  0  0  0  0  0  0
   71.6605   50.6497   57.6666 N   0  0  0  0  0  0  0  0  0  0  0  0
   71.0908   51.9630   57.6309 C   0  0  0  0  0  0  0  0  0  0  0  0
   70.7953   52.4932   56.2708 C   0  0  0  0  0  0  0  0  0  0  0  0
   69.6578   49.9644   53.6011 C   0  0  0  0  0  0  0  0  0  0  0  0
   70.1139   50.1060   52.3401 N   0  0  0  0  0  0  0  0  0  0  0  0
   70.0995   49.1102   51.4734 N   0  0  0  0  0  0  0  0  0  0  0  0
   69.6301   47.8888   51.7861 C   0  0  0  0  0  0  0  0  0  0  0  0
   69.6411   46.9728   50.9142 O   0  0  0  0  0  0  0  0  0  0  0  0
   69.1508   47.6703   53.0478 C   0  0  0  0  0  0  0  0  0  0  0  0
   68.6690   46.4205   53.3723 C   0  0  0  0  0  0  0  0  0  0  0  0
   68.1885   46.1893   54.6258 C   0  0  0  0  0  0  0  0  0  0  0  0
   68.1987   47.2366   55.5532 C   0  0  0  0  0  0  0  0  0  0  0  0
   68.6824   48.4759   55.2142 C   0  0  0  0  0  0  0  0  0  0  0  0
   69.1672   48.7234   53.9608 C   0  0  0  0  0  0  0  0  0  0  0  0
   70.6311   49.6879   57.9230 C   0  0  0  0  0  0  0  0  0  0  0  0
   71.0730   48.4451   58.5424 C   0  0  0  0  0  0  0  0  0  0  0  0
   71.8949   48.4966   59.6421 C   0  0  0  0  0  0  0  0  0  0  0  0
   72.3017   47.3093   60.2133 C   0  0  0  0  0  0  0  0  0  0  0  0
   71.9157   46.0985   59.7231 C   0  0  0  0  0  0  0  0  0  0  0  0
   71.0922   46.0213   58.6207 C   0  0  0  0  0  0  0  0  0  0  0  0
   70.6918   47.2172   58.0591 C   0  0  0  0  0  0  0  0  0  0  0  0
   70.6728   44.6985   58.0879 C   0  0  0  0  0  0  0  0  0  0  0  0
   70.1072   44.0055   59.1534 F   0  0  0  0  0  0  0  0  0  0  0  0
   69.7642   44.7859   57.0764 F   0  0  0  0  0  0  0  0  0  0  0  0
   71.8142   44.0112   57.7394 F   0  0  0  0  0  0  0  0  0  0  0  0
  1  2  2  0
  2  9  1  0
  2  3  1  0
  9 10  2  0
  9 19  1  0
 10 11  1  0
 11 12  1  0
 12 13  2  0
 12 14  1  0
 14 15  1  0
 14 19  2  0
 15 16  2  0
 16 17  1  0
 17 18  2  0
 18 19  1  0
  3  4  1  0
  3  8  1  0
  4  5  1  0
  5  6  1  0
  6 20  1  0
  6  7  1  0
 20 21  1  0
 21 22  2  0
 21 26  1  0
 22 23  1  0
 23 24  2  0
 24 25  1  0
 25 27  1  0
 25 26  2  0
 27 28  1  0
 27 29  1  0
 27 30  1  0
  7  8  1  0
M  CHG  1   6   1
M  END
>  <minimizedAffinity>  (492) 
-8.79286

$$$$
cs_full_output_folder/data/smiles/7912.pdb
     RDKit          3D

 32 36  0  0  0  0  0  0  0  0999 V2000
   70.7742   45.9488   58.4373 C   0  0  0  0  0  0  0  0  0  0  0  0
   69.8904   46.5903   57.5783 C   0  0  0  0  0  0  0  0  0  0  0  0
   69.9509   47.8987   57.2034 C   0  0  0  0  0  0  0  0  0  0  0  0
   71.0280   48.6097   57.7746 C   0  0  0  0  0  0  0  0  0  0  0  0
   71.9308   48.0338   58.6276 C   0  0  0  0  0  0  0  0  0  0  0  0
   71.8039   46.6960   58.9618 C   0  0  0  0  0  0  0  0  0  0  0  0
   72.6904   46.1017   59.8097 F   0  0  0  0  0  0  0  0  0  0  0  0
   69.6311   44.1749   59.4616 O   0  0  0  0  0  0  0  0  0  0  0  0
   70.6179   44.5378   58.7726 C   0  0  0  0  0  0  0  0  0  0  0  0
   71.5691   43.5897   58.3248 N   0  0  0  0  0  0  0  0  0  0  0  0
   72.7380   43.8766   57.5362 C   0  0  0  0  0  0  0  0  0  0  0  0
   73.6866   42.7315   57.5180 C   0  0  0  0  0  0  0  0  0  0  0  0
   73.8368   42.2125   58.9635 C   0  0  0  0  0  0  0  0  0  0  0  0
   72.5731   41.8853   59.5542 N   0  0  0  0  0  0  0  0  0  0  0  0
   72.3589   41.3686   60.8219 C   0  0  0  0  0  0  0  0  0  0  0  0
   71.1087   41.1072   61.0924 O   0  0  0  0  0  0  0  0  0  0  0  0
   71.4054   42.1674   58.6760 C   0  0  0  0  0  0  0  0  0  0  0  0
   73.3047   41.0723   61.8924 C   0  0  0  0  0  0  0  0  0  0  0  0
   73.1258   40.1487   62.9995 C   0  0  0  0  0  0  0  0  0  0  0  0
   73.9013   39.6519   61.8396 C   0  0  0  0  0  0  0  0  0  0  0  0
   69.0188   48.6028   56.2925 C   0  0  0  0  0  0  0  0  0  0  0  0
   69.3752   48.6049   54.8788 C   0  0  0  0  0  0  0  0  0  0  0  0
   70.2585   49.5060   54.3688 N   0  0  0  0  0  0  0  0  0  0  0  0
   70.6783   49.5533   53.1420 N   0  0  0  0  0  0  0  0  0  0  0  0
   70.2402   48.6616   52.2396 C   0  0  0  0  0  0  0  0  0  0  0  0
   70.6182   48.6663   51.0371 O   0  0  0  0  0  0  0  0  0  0  0  0
   69.3216   47.6909   52.6767 C   0  0  0  0  0  0  0  0  0  0  0  0
   68.8430   46.7747   51.7590 C   0  0  0  0  0  0  0  0  0  0  0  0
   67.9308   45.8200   52.1246 C   0  0  0  0  0  0  0  0  0  0  0  0
   67.5140   45.8147   53.4455 C   0  0  0  0  0  0  0  0  0  0  0  0
   67.9769   46.7111   54.3637 C   0  0  0  0  0  0  0  0  0  0  0  0
   68.8914   47.6621   53.9862 C   0  0  0  0  0  0  0  0  0  0  0  0
  8  9  2  0
  9  1  1  0
  9 10  1  0
  1  2  2  0
  1  6  1  0
  2  3  1  0
  3 21  1  0
  3  4  2  0
 21 22  1  0
 22 23  2  0
 22 32  1  0
 23 24  1  0
 24 25  1  0
 25 26  2  0
 25 27  1  0
 27 28  1  0
 27 32  2  0
 28 29  2  0
 29 30  1  0
 30 31  2  0
 31 32  1  0
  4  5  1  0
  5  6  2  0
  6  7  1  0
 10 11  1  0
 10 17  1  0
 11 12  1  0
 12 13  1  0
 13 14  1  0
 14 15  1  0
 14 17  1  0
 15 16  2  0
 15 18  1  0
 18 19  1  0
 18 20  1  0
 19 20  1  0
M  END
>  <minimizedAffinity>  (493) 
-8.79146

$$$$
cs_full_output_folder/data/smiles/240.pdb
     RDKit          3D

 30 33  0  0  0  0  0  0  0  0999 V2000
   71.4700   47.0213   58.7666 C   0  0  0  0  0  0  0  0  0  0  0  0
   71.4016   45.6694   58.5520 C   0  0  0  0  0  0  0  0  0  0  0  0
   70.4839   45.1423   57.6343 C   0  0  0  0  0  0  0  0  0  0  0  0
   69.6447   45.9504   56.9367 C   0  0  0  0  0  0  0  0  0  0  0  0
   69.6940   47.3306   57.1340 C   0  0  0  0  0  0  0  0  0  0  0  0
   70.5957   47.8295   58.0351 C   0  0  0  0  0  0  0  0  0  0  0  0
   76.2035   47.0216   59.4655 N   0  0  0  0  0  0  0  0  0  0  0  0
   75.8245   47.8275   58.3442 C   0  0  0  0  0  0  0  0  0  0  0  0
   74.2988   47.8287   58.1239 C   0  0  0  0  0  0  0  0  0  0  0  0
   73.7158   47.9827   59.4182 N   0  0  0  0  0  0  0  0  0  0  0  0
   72.4014   47.6347   59.7171 C   0  0  0  0  0  0  0  0  0  0  0  0
   72.0010   47.8722   60.9138 O   0  0  0  0  0  0  0  0  0  0  0  0
   74.5952   48.4781   60.4679 C   0  0  0  0  0  0  0  0  0  0  0  0
   75.5687   47.3116   60.7043 C   0  0  0  0  0  0  0  0  0  0  0  0
   74.5003   43.4754   58.6850 C   0  0  0  0  0  0  0  0  0  0  0  0
   75.0040   44.5298   59.5515 C   0  0  0  0  0  0  0  0  0  0  0  0
   76.2174   45.3934   58.9933 S   0  0  2  0  0  0  0  0  0  0  0  0
   77.3808   44.5861   59.4613 O   0  0  0  0  0  0  0  0  0  0  0  0
   68.7895   48.2396   56.3380 C   0  0  0  0  0  0  0  0  0  0  0  0
   69.2720   48.2855   54.9768 C   0  0  0  0  0  0  0  0  0  0  0  0
   70.2477   49.1866   54.6713 N   0  0  0  0  0  0  0  0  0  0  0  0
   70.7256   49.3102   53.4392 N   0  0  0  0  0  0  0  0  0  0  0  0
   70.2825   48.5563   52.4063 C   0  0  0  0  0  0  0  0  0  0  0  0
   70.7771   48.7162   51.2374 O   0  0  0  0  0  0  0  0  0  0  0  0
   69.2978   47.6212   52.6288 C   0  0  0  0  0  0  0  0  0  0  0  0
   68.8258   46.8195   51.6113 C   0  0  0  0  0  0  0  0  0  0  0  0
   67.8502   45.8872   51.8816 C   0  0  0  0  0  0  0  0  0  0  0  0
   67.3484   45.7607   53.1683 C   0  0  0  0  0  0  0  0  0  0  0  0
   67.8271   46.5721   54.2011 C   0  0  0  0  0  0  0  0  0  0  0  0
   68.8107   47.5085   53.9261 C   0  0  0  0  0  0  0  0  0  0  0  0
 15 16  1  0
 16 17  2  0
 17 18  2  0
 17  7  1  1
  7  8  1  0
  7 14  1  0
  8  9  1  0
  9 10  1  0
 10 11  1  0
 10 13  1  0
 11 12  2  0
 11  1  1  0
  1  2  2  0
  1  6  1  0
  2  3  1  0
  3  4  2  0
  4  5  1  0
  5 19  1  0
  5  6  2  0
 19 20  1  0
 20 21  2  0
 20 30  1  0
 21 22  1  0
 22 23  1  0
 23 24  2  0
 23 25  1  0
 25 26  1  0
 25 30  2  0
 26 27  2  0
 27 28  1  0
 28 29  2  0
 29 30  1  0
 13 14  1  0
M  END
>  <minimizedAffinity>  (494) 
-8.79010

$$$$
cs_full_output_folder/data/smiles/1777.pdb
     RDKit          3D

 32 35  0  0  0  0  0  0  0  0999 V2000
   72.1276   51.6969   57.1743 C   0  0  0  0  0  0  0  0  0  0  0  0
   70.1338   49.7556   57.2799 O   0  0  0  0  0  0  0  0  0  0  0  0
   70.6216   49.9606   56.1370 C   0  0  0  0  0  0  0  0  0  0  0  0
   71.6272   50.9245   56.0264 N   0  0  0  0  0  0  0  0  0  0  0  0
   70.1078   49.1852   55.0129 C   0  0  0  0  0  0  0  0  0  0  0  0
   69.3573   48.0802   55.1600 N   0  0  0  0  0  0  0  0  0  0  0  0
   68.8815   47.3565   54.1126 C   0  0  0  0  0  0  0  0  0  0  0  0
   68.1132   46.2222   54.2962 C   0  0  0  0  0  0  0  0  0  0  0  0
   67.6228   45.4746   53.2463 C   0  0  0  0  0  0  0  0  0  0  0  0
   67.8911   45.8461   51.9368 C   0  0  0  0  0  0  0  0  0  0  0  0
   68.6529   46.9695   51.7481 C   0  0  0  0  0  0  0  0  0  0  0  0
   69.1454   47.7210   52.8089 C   0  0  0  0  0  0  0  0  0  0  0  0
   69.9134   48.8520   52.6277 C   0  0  0  0  0  0  0  0  0  0  0  0
   70.1716   49.2106   51.4353 O   0  0  0  0  0  0  0  0  0  0  0  0
   70.3863   49.5713   53.7021 C   0  0  0  0  0  0  0  0  0  0  0  0
   71.1567   50.7071   53.5369 O   0  0  0  0  0  0  0  0  0  0  0  0
   73.4844   51.1589   57.5008 C   0  0  0  0  0  0  0  0  0  0  0  0
   73.5355   49.9458   58.2197 N   0  0  0  0  0  0  0  0  0  0  0  0
   74.0293   50.0605   59.5304 C   0  0  0  0  0  0  0  0  0  0  0  0
   74.0796   48.7649   60.3034 C   0  0  0  0  0  0  0  0  0  0  0  0
   73.3827   47.7555   59.4967 N   0  0  0  0  0  0  0  0  0  0  0  0
   72.2463   47.0694   59.9777 C   0  0  0  0  0  0  0  0  0  0  0  0
   71.7970   47.3015   61.1254 O   0  0  0  0  0  0  0  0  0  0  0  0
   73.9574   47.5308   58.1830 C   0  0  0  0  0  0  0  0  0  0  0  0
   73.9020   48.8390   57.4262 C   0  0  0  0  0  0  0  0  0  0  0  0
   71.5819   46.0862   59.1476 C   0  0  0  0  0  0  0  0  0  0  0  0
   71.9081   44.7590   59.2909 C   0  0  0  0  0  0  0  0  0  0  0  0
   71.2859   43.7995   58.5059 C   0  0  0  0  0  0  0  0  0  0  0  0
   70.3395   44.1920   57.5833 C   0  0  0  0  0  0  0  0  0  0  0  0
   69.7367   43.2436   56.8199 F   0  0  0  0  0  0  0  0  0  0  0  0
   70.0066   45.5237   57.4334 C   0  0  0  0  0  0  0  0  0  0  0  0
   70.6321   46.4782   58.2207 C   0  0  0  0  0  0  0  0  0  0  0  0
  2  3  2  0
  3  4  1  0
  3  5  1  0
  4  1  1  0
  1 17  1  0
 17 18  1  0
 18 19  1  0
 18 25  1  0
 19 20  1  0
 20 21  1  0
 21 22  1  0
 21 24  1  0
 22 23  2  0
 22 26  1  0
 26 27  2  0
 26 32  1  0
 27 28  1  0
 28 29  2  0
 29 30  1  0
 29 31  1  0
 31 32  2  0
 24 25  1  0
  5  6  1  0
  5 15  2  0
  6  7  1  0
  7  8  2  0
  7 12  1  0
  8  9  1  0
  9 10  2  0
 10 11  1  0
 11 12  2  0
 12 13  1  0
 13 14  2  0
 13 15  1  0
 15 16  1  0
M  CHG  1  18   1
M  END
>  <minimizedAffinity>  (495) 
-8.78985

$$$$
cs_full_output_folder/data/smiles/2961.pdb
     RDKit          3D

 22 23  0  0  0  0  0  0  0  0999 V2000
   69.0442   46.7490   57.3700 O   0  0  0  0  0  0  0  0  0  0  0  0
   68.4759   47.6362   56.6389 C   0  0  0  0  0  0  0  0  0  0  0  0
   68.5490   47.4332   55.2161 C   0  0  0  0  0  0  0  0  0  0  0  0
   67.7812   46.4867   54.5300 C   0  0  0  0  0  0  0  0  0  0  0  0
   67.8543   46.3176   53.1726 C   0  0  0  0  0  0  0  0  0  0  0  0
   67.1012   45.3866   52.4791 O   0  0  0  0  0  0  0  0  0  0  0  0
   68.7229   47.1011   52.4021 C   0  0  0  0  0  0  0  0  0  0  0  0
   68.8214   46.9599   51.0274 O   0  0  0  0  0  0  0  0  0  0  0  0
   69.5106   48.0599   53.0471 C   0  0  0  0  0  0  0  0  0  0  0  0
   69.3988   48.1870   54.3989 C   0  0  0  0  0  0  0  0  0  0  0  0
   70.4014   48.8399   52.2672 N   0  0  0  0  0  0  0  0  0  0  0  0
   70.0085   49.3705   51.2273 O   0  0  0  0  0  0  0  0  0  0  0  0
   71.6848   48.9940   52.6838 O   0  0  0  0  0  0  0  0  0  0  0  0
   67.8160   48.7619   57.3098 C   0  0  0  0  0  0  0  0  0  0  0  0
   68.4899   50.0545   57.0763 C   0  0  0  0  0  0  0  0  0  0  0  0
   67.8857   51.0941   56.4710 C   0  0  0  0  0  0  0  0  0  0  0  0
   68.5958   52.2799   56.2709 C   0  0  0  0  0  0  0  0  0  0  0  0
   69.8919   52.3820   56.6867 C   0  0  0  0  0  0  0  0  0  0  0  0
   70.5413   51.3140   57.3190 C   0  0  0  0  0  0  0  0  0  0  0  0
   69.8321   50.1518   57.5108 C   0  0  0  0  0  0  0  0  0  0  0  0
   70.6675   53.6200   56.5059 C   0  0  0  0  0  0  0  0  0  0  0  0
   72.4951   53.5051   57.6233 I   0  0  0  0  0  0  0  0  0  0  0  0
  1  2  2  0
  2 14  1  0
  2  3  1  0
 14 15  1  0
 15 16  2  0
 15 20  1  0
 16 17  1  0
 17 18  2  0
 18 21  1  0
 18 19  1  0
 21 22  1  0
 19 20  2  0
  3  4  2  0
  3 10  1  0
  4  5  1  0
  5  6  1  0
  5  7  2  0
  7  8  1  0
  7  9  1  0
  9 11  1  0
  9 10  2  0
 11 12  2  0
 11 13  1  0
M  CHG  2  11   1  13  -1
M  END
>  <minimizedAffinity>  (496) 
-8.78976

$$$$
cs_full_output_folder/data/smiles/8612.pdb
     RDKit          3D

 30 33  0  0  0  0  0  0  0  0999 V2000
   69.6911   46.0034   57.3650 O   0  0  0  0  0  0  0  0  0  0  0  0
   69.7345   47.3037   57.3349 C   0  0  0  0  0  0  0  0  0  0  0  0
   70.6371   47.8911   58.2153 N   0  0  0  0  0  0  0  0  0  0  0  0
   70.9923   49.2679   58.3980 C   0  0  0  0  0  0  0  0  0  0  0  0
   72.4865   49.4711   58.2235 C   0  0  0  0  0  0  0  0  0  0  0  0
   73.2689   48.2953   58.2632 N   0  0  0  0  0  0  0  0  0  0  0  0
   72.7609   46.9383   58.5250 C   0  0  0  0  0  0  0  0  0  0  0  0
   71.3818   47.0246   59.1696 C   0  0  0  0  0  0  0  0  0  0  0  0
   74.6634   48.3572   58.0496 C   0  0  0  0  0  0  0  0  0  0  0  0
   75.5024   47.6666   58.9154 C   0  0  0  0  0  0  0  0  0  0  0  0
   76.8793   47.6967   58.7993 C   0  0  0  0  0  0  0  0  0  0  0  0
   77.4223   48.4454   57.7791 C   0  0  0  0  0  0  0  0  0  0  0  0
   76.6337   49.1514   56.8908 C   0  0  0  0  0  0  0  0  0  0  0  0
   75.2682   49.0870   57.0507 C   0  0  0  0  0  0  0  0  0  0  0  0
   77.2754   49.9750   55.7998 C   0  0  0  0  0  0  0  0  0  0  0  0
   78.5293   50.3182   56.2458 F   0  0  0  0  0  0  0  0  0  0  0  0
   77.4876   49.0619   54.7583 F   0  0  0  0  0  0  0  0  0  0  0  0
   76.4946   51.0244   55.4262 F   0  0  0  0  0  0  0  0  0  0  0  0
   68.8251   47.8943   56.3828 C   0  0  0  0  0  0  0  0  0  0  0  0
   69.2444   48.1031   55.0092 C   0  0  0  0  0  0  0  0  0  0  0  0
   70.0823   49.1000   54.7385 N   0  0  0  0  0  0  0  0  0  0  0  0
   70.4812   49.4029   53.5413 N   0  0  0  0  0  0  0  0  0  0  0  0
   70.0397   48.6827   52.4932 C   0  0  0  0  0  0  0  0  0  0  0  0
   70.4263   48.9720   51.3238 O   0  0  0  0  0  0  0  0  0  0  0  0
   69.1674   47.6230   52.6594 C   0  0  0  0  0  0  0  0  0  0  0  0
   68.7211   46.8773   51.5793 C   0  0  0  0  0  0  0  0  0  0  0  0
   67.8575   45.8295   51.8113 C   0  0  0  0  0  0  0  0  0  0  0  0
   67.4382   45.5209   53.1077 C   0  0  0  0  0  0  0  0  0  0  0  0
   67.9111   46.2917   54.1442 C   0  0  0  0  0  0  0  0  0  0  0  0
   68.7797   47.3539   53.9572 C   0  0  0  0  0  0  0  0  0  0  0  0
  1  2  2  0
  2 19  1  0
  2  3  1  0
 19 20  1  0
 20 21  2  0
 20 30  1  0
 21 22  1  0
 22 23  1  0
 23 24  2  0
 23 25  1  0
 25 26  1  0
 25 30  2  0
 26 27  2  0
 27 28  1  0
 28 29  2  0
 29 30  1  0
  3  4  1  0
  3  8  1  0
  4  5  1  0
  5  6  1  0
  6  9  1  0
  6  7  1  0
  9 10  2  0
  9 14  1  0
 10 11  1  0
 11 12  2  0
 12 13  1  0
 13 15  1  0
 13 14  2  0
 15 16  1  0
 15 17  1  0
 15 18  1  0
  7  8  1  0
M  END
>  <minimizedAffinity>  (497) 
-8.77574

$$$$
cs_full_output_folder/data/smiles/1177.pdb
     RDKit          3D

 22 24  0  0  0  0  0  0  0  0999 V2000
   69.4612   47.6768   56.8421 C   0  0  0  0  0  0  0  0  0  0  0  0
   68.9379   46.9849   55.6388 C   0  0  0  0  0  0  0  0  0  0  0  0
   68.1338   45.8933   55.8122 N   0  0  0  0  0  0  0  0  0  0  0  0
   67.5836   45.2696   54.7995 N   0  0  0  0  0  0  0  0  0  0  0  0
   67.7780   45.6637   53.5411 C   0  0  0  0  0  0  0  0  0  0  0  0
   67.2346   45.0460   52.5570 O   0  0  0  0  0  0  0  0  0  0  0  0
   68.5766   46.7576   53.2554 C   0  0  0  0  0  0  0  0  0  0  0  0
   68.7933   47.1585   51.9561 C   0  0  0  0  0  0  0  0  0  0  0  0
   69.6066   48.2338   51.7149 C   0  0  0  0  0  0  0  0  0  0  0  0
   70.1803   48.8763   52.7880 C   0  0  0  0  0  0  0  0  0  0  0  0
   69.9678   48.4817   54.1048 C   0  0  0  0  0  0  0  0  0  0  0  0
   69.1533   47.4070   54.3604 C   0  0  0  0  0  0  0  0  0  0  0  0
   68.2109   51.1209   57.4228 C   0  0  0  0  0  0  0  0  0  0  0  0
   66.8927   50.8525   57.8045 C   0  0  0  0  0  0  0  0  0  0  0  0
   66.3756   49.5913   57.8787 C   0  0  0  0  0  0  0  0  0  0  0  0
   67.2495   48.5487   57.5469 C   0  0  0  0  0  0  0  0  0  0  0  0
   68.5275   48.7685   57.1754 C   0  0  0  0  0  0  0  0  0  0  0  0
   69.0189   50.0599   57.1104 C   0  0  0  0  0  0  0  0  0  0  0  0
   68.6249   52.4361   57.3822 O   0  0  0  0  0  0  0  0  0  0  0  0
   70.8229   52.8707   56.5531 C   0  0  0  0  0  0  0  0  0  0  0  0
   69.3130   53.0624   56.3603 C   0  0  1  0  0  0  0  0  0  0  0  0
   68.7685   52.1622   54.4743 I   0  0  0  0  0  0  0  0  0  0  0  0
 21 20  1  1
 21 22  1  0
 21 19  1  0
 19 13  1  0
 13 14  2  0
 13 18  1  0
 14 15  1  0
 15 16  2  0
 16 17  1  0
 17  1  1  0
 17 18  2  0
  1  2  1  0
  2  3  2  0
  2 12  1  0
  3  4  1  0
  4  5  1  0
  5  6  2  0
  5  7  1  0
  7  8  1  0
  7 12  2  0
  8  9  2  0
  9 10  1  0
 10 11  2  0
 11 12  1  0
M  END
>  <minimizedAffinity>  (498) 
-8.77317

$$$$
cs_full_output_folder/data/smiles/7141.pdb
     RDKit          3D

 32 36  0  0  0  0  0  0  0  0999 V2000
   71.8551   47.4937   58.8763 C   0  0  0  0  0  0  0  0  0  0  0  0
   70.6415   47.6972   58.3077 C   0  0  0  0  0  0  0  0  0  0  0  0
   70.3803   48.6350   57.3045 C   0  0  0  0  0  0  0  0  0  0  0  0
   71.4442   49.3822   56.8909 C   0  0  0  0  0  0  0  0  0  0  0  0
   72.7155   49.2061   57.4497 C   0  0  0  0  0  0  0  0  0  0  0  0
   72.9150   48.2685   58.4337 C   0  0  0  0  0  0  0  0  0  0  0  0
   74.1493   48.0870   58.9883 F   0  0  0  0  0  0  0  0  0  0  0  0
   68.7553   42.5031   60.1851 C   0  0  0  0  0  0  0  0  0  0  0  0
   69.5408   42.7000   58.9640 C   0  0  0  0  0  0  0  0  0  0  0  0
   68.9504   43.1125   57.9345 O   0  0  0  0  0  0  0  0  0  0  0  0
   70.9367   42.4531   58.8683 N   0  0  0  0  0  0  0  0  0  0  0  0
   71.8327   41.9753   59.9209 C   0  0  0  0  0  0  0  0  0  0  0  0
   72.9981   42.9082   59.7847 C   0  0  2  0  0  0  0  0  0  0  0  0
   72.8649   44.1738   60.5717 C   0  0  0  0  0  0  0  0  0  0  0  0
   72.5771   45.2273   59.6191 N   0  0  0  0  0  0  0  0  0  0  0  0
   72.1132   46.5140   59.9195 C   0  0  0  0  0  0  0  0  0  0  0  0
   71.9081   46.8476   61.1093 O   0  0  0  0  0  0  0  0  0  0  0  0
   72.8499   44.7439   58.2641 C   0  0  0  0  0  0  0  0  0  0  0  0
   73.0093   43.2665   58.3364 C   0  0  2  0  0  0  0  0  0  0  0  0
   71.7908   42.6167   57.7096 C   0  0  0  0  0  0  0  0  0  0  0  0
   69.0308   48.7609   56.7230 C   0  0  0  0  0  0  0  0  0  0  0  0
   68.7266   47.6945   55.7035 C   0  0  0  0  0  0  0  0  0  0  0  0
   68.1110   46.5689   56.1080 N   0  0  0  0  0  0  0  0  0  0  0  0
   67.7962   45.6435   55.2425 N   0  0  0  0  0  0  0  0  0  0  0  0
   68.0529   45.7406   53.9285 C   0  0  0  0  0  0  0  0  0  0  0  0
   67.7434   44.8416   53.1016 O   0  0  0  0  0  0  0  0  0  0  0  0
   68.6875   46.8804   53.4591 C   0  0  0  0  0  0  0  0  0  0  0  0
   68.9804   47.0148   52.1135 C   0  0  0  0  0  0  0  0  0  0  0  0
   69.6214   48.1484   51.6837 C   0  0  0  0  0  0  0  0  0  0  0  0
   69.9733   49.1496   52.5705 C   0  0  0  0  0  0  0  0  0  0  0  0
   69.6775   49.0113   53.9099 C   0  0  0  0  0  0  0  0  0  0  0  0
   69.0235   47.8661   54.3831 C   0  0  0  0  0  0  0  0  0  0  0  0
  8  9  1  0
  9 10  2  0
  9 11  1  0
 11 12  1  0
 11 20  1  0
 13 12  1  6
 13 14  1  0
 13 19  1  0
 14 15  1  0
 15 16  1  0
 15 18  1  0
 16 17  2  0
 16  1  1  0
  1  2  2  0
  1  6  1  0
  2  3  1  0
  3 21  1  0
  3  4  2  0
 21 22  1  0
 22 23  2  0
 22 32  1  0
 23 24  1  0
 24 25  1  0
 25 26  2  0
 25 27  1  0
 27 28  1  0
 27 32  2  0
 28 29  2  0
 29 30  1  0
 30 31  2  0
 31 32  1  0
  4  5  1  0
  5  6  2  0
  6  7  1  0
 19 18  1  1
 19 20  1  0
M  END
>  <minimizedAffinity>  (499) 
-8.77115

$$$$
cs_full_output_folder/data/smiles/8038.pdb
     RDKit          3D

 31 34  0  0  0  0  0  0  0  0999 V2000
   71.4709   47.2005   58.7743 C   0  0  0  0  0  0  0  0  0  0  0  0
   70.5370   47.8785   58.0035 C   0  0  0  0  0  0  0  0  0  0  0  0
   69.6846   47.2368   57.1602 C   0  0  0  0  0  0  0  0  0  0  0  0
   69.7375   45.8452   57.0547 C   0  0  0  0  0  0  0  0  0  0  0  0
   70.6659   45.1776   57.8212 C   0  0  0  0  0  0  0  0  0  0  0  0
   71.5240   45.8281   58.6698 C   0  0  0  0  0  0  0  0  0  0  0  0
   72.4130   45.0693   59.3913 F   0  0  0  0  0  0  0  0  0  0  0  0
   72.0365   47.9215   60.8880 O   0  0  0  0  0  0  0  0  0  0  0  0
   72.3981   47.8530   59.6786 C   0  0  0  0  0  0  0  0  0  0  0  0
   73.6392   48.3935   59.2829 N   0  0  0  0  0  0  0  0  0  0  0  0
   74.4718   49.0301   60.2820 C   0  0  0  0  0  0  0  0  0  0  0  0
   75.6366   48.1005   60.5447 C   0  0  0  0  0  0  0  0  0  0  0  0
   75.9334   47.3529   59.2613 C   0  0  0  0  0  0  0  0  0  0  0  0
   75.6813   48.2367   58.0357 C   0  0  0  0  0  0  0  0  0  0  0  0
   74.1563   48.3555   57.9304 C   0  0  0  0  0  0  0  0  0  0  0  0
   77.2208   46.8710   59.2851 O   0  0  0  0  0  0  0  0  0  0  0  0
   77.1882   45.4862   59.3702 C   0  0  0  0  0  0  0  0  0  0  0  0
   77.3798   45.0863   60.6952 F   0  0  0  0  0  0  0  0  0  0  0  0
   76.0298   44.9433   58.8595 F   0  0  0  0  0  0  0  0  0  0  0  0
   68.7067   47.9997   56.3406 C   0  0  0  0  0  0  0  0  0  0  0  0
   69.1879   48.0805   54.9852 C   0  0  0  0  0  0  0  0  0  0  0  0
   70.1542   49.0201   54.7413 N   0  0  0  0  0  0  0  0  0  0  0  0
   70.6337   49.2451   53.5334 N   0  0  0  0  0  0  0  0  0  0  0  0
   70.2030   48.5635   52.4630 C   0  0  0  0  0  0  0  0  0  0  0  0
   70.6651   48.7833   51.3009 O   0  0  0  0  0  0  0  0  0  0  0  0
   69.2313   47.5971   52.6188 C   0  0  0  0  0  0  0  0  0  0  0  0
   68.7787   46.8651   51.5405 C   0  0  0  0  0  0  0  0  0  0  0  0
   67.8241   45.8948   51.7368 C   0  0  0  0  0  0  0  0  0  0  0  0
   67.3493   45.6860   53.0084 C   0  0  0  0  0  0  0  0  0  0  0  0
   67.7869   46.4052   54.0929 C   0  0  0  0  0  0  0  0  0  0  0  0
   68.7402   47.3764   53.9046 C   0  0  0  0  0  0  0  0  0  0  0  0
  8  9  2  0
  9  1  1  0
  9 10  1  0
  1  2  2  0
  1  6  1  0
  2  3  1  0
  3 20  1  0
  3  4  2  0
 20 21  1  0
 21 22  2  0
 21 31  1  0
 22 23  1  0
 23 24  1  0
 24 25  2  0
 24 26  1  0
 26 27  1  0
 26 31  2  0
 27 28  2  0
 28 29  1  0
 29 30  2  0
 30 31  1  0
  4  5  1  0
  5  6  2  0
  6  7  1  0
 10 11  1  0
 10 15  1  0
 11 12  1  0
 12 13  1  0
 13 16  1  0
 13 14  1  0
 16 17  1  0
 17 18  1  0
 17 19  1  0
 14 15  1  0
M  END
>  <minimizedAffinity>  (500) 
-8.76656

$$$$
cs_full_output_folder/data/smiles/6021.pdb
     RDKit          3D

 31 35  0  0  0  0  0  0  0  0999 V2000
   72.2164   51.0782   55.8214 O   0  0  0  0  0  0  0  0  0  0  0  0
   71.3946   50.1377   56.1183 C   0  0  0  0  0  0  0  0  0  0  0  0
   71.8919   49.1493   57.0136 N   0  0  0  0  0  0  0  0  0  0  0  0
   73.2704   49.1782   57.4287 C   0  0  0  0  0  0  0  0  0  0  0  0
   73.7311   48.1150   58.3555 C   0  0  0  0  0  0  0  0  0  0  0  0
   72.7336   47.4367   59.0706 N   0  0  0  0  0  0  0  0  0  0  0  0
   71.4415   47.9348   59.0122 C   0  0  0  0  0  0  0  0  0  0  0  0
   71.0088   48.1480   57.5456 C   0  0  0  0  0  0  0  0  0  0  0  0
   70.0328   50.1391   55.5286 C   0  0  0  0  0  0  0  0  0  0  0  0
   70.0466   49.2568   54.3804 C   0  0  0  0  0  0  0  0  0  0  0  0
   70.7652   49.7063   53.3017 N   0  0  0  0  0  0  0  0  0  0  0  0
   70.7364   49.0770   52.1586 N   0  0  0  0  0  0  0  0  0  0  0  0
   70.0049   47.9458   51.9599 C   0  0  0  0  0  0  0  0  0  0  0  0
   70.0064   47.3715   50.8426 O   0  0  0  0  0  0  0  0  0  0  0  0
   69.2574   47.4349   53.0041 C   0  0  0  0  0  0  0  0  0  0  0  0
   68.5304   46.2539   52.8468 C   0  0  0  0  0  0  0  0  0  0  0  0
   67.8642   45.8132   53.9507 C   0  0  0  0  0  0  0  0  0  0  0  0
   67.8840   46.4607   55.1585 C   0  0  0  0  0  0  0  0  0  0  0  0
   68.6098   47.6364   55.3024 C   0  0  0  0  0  0  0  0  0  0  0  0
   69.2976   48.1241   54.2224 C   0  0  0  0  0  0  0  0  0  0  0  0
   73.1024   46.4268   59.9997 C   0  0  0  0  0  0  0  0  0  0  0  0
   73.5637   45.2141   59.3378 C   0  0  0  0  0  0  0  0  0  0  0  0
   74.8994   44.9276   59.2580 C   0  0  0  0  0  0  0  0  0  0  0  0
   75.3973   43.7958   58.6337 C   0  0  0  0  0  0  0  0  0  0  0  0
   74.4792   42.9237   58.0708 C   0  0  0  0  0  0  0  0  0  0  0  0
   73.1313   43.1651   58.1250 C   0  0  0  0  0  0  0  0  0  0  0  0
   72.2428   42.2865   57.5704 C   0  0  0  0  0  0  0  0  0  0  0  0
   70.8635   42.5159   57.6265 C   0  0  0  0  0  0  0  0  0  0  0  0
   70.4447   43.6837   58.2745 C   0  0  0  0  0  0  0  0  0  0  0  0
   71.3784   44.5352   58.8143 C   0  0  0  0  0  0  0  0  0  0  0  0
   72.7081   44.2984   58.7531 C   0  0  0  0  0  0  0  0  0  0  0  0
  1  2  2  0
  2  9  1  0
  2  3  1  0
  9 10  1  0
 10 11  2  0
 10 20  1  0
 11 12  1  0
 12 13  1  0
 13 14  2  0
 13 15  1  0
 15 16  1  0
 15 20  2  0
 16 17  2  0
 17 18  1  0
 18 19  2  0
 19 20  1  0
  3  4  1  0
  3  8  1  0
  4  5  1  0
  5  6  1  0
  6 21  1  0
  6  7  1  0
 21 22  1  0
 22 23  2  0
 22 31  1  0
 23 24  1  0
 24 25  2  0
 25 26  1  0
 26 27  1  0
 26 31  2  0
 27 28  2  0
 28 29  1  0
 29 30  2  0
 30 31  1  0
  7  8  1  0
M  CHG  1   6   1
M  END
>  <minimizedAffinity>  (501) 
-8.76504

$$$$
cs_full_output_folder/data/smiles/8013.pdb
     RDKit          3D

 32 36  0  0  0  0  0  0  0  0999 V2000
   72.3430   47.5984   58.7252 C   0  0  0  0  0  0  0  0  0  0  0  0
   71.1591   48.0335   58.1742 C   0  0  0  0  0  0  0  0  0  0  0  0
   70.1832   47.1931   57.7094 C   0  0  0  0  0  0  0  0  0  0  0  0
   70.4243   45.8174   57.8089 C   0  0  0  0  0  0  0  0  0  0  0  0
   71.5890   45.3356   58.3506 C   0  0  0  0  0  0  0  0  0  0  0  0
   72.5509   46.2404   58.8107 C   0  0  0  0  0  0  0  0  0  0  0  0
   73.6883   45.7070   59.3387 F   0  0  0  0  0  0  0  0  0  0  0  0
   73.6718   48.4100   60.4516 O   0  0  0  0  0  0  0  0  0  0  0  0
   73.3881   48.4817   59.2263 C   0  0  0  0  0  0  0  0  0  0  0  0
   74.0833   49.3975   58.4107 N   0  0  0  0  0  0  0  0  0  0  0  0
   73.8215   49.5466   57.0006 C   0  0  0  0  0  0  0  0  0  0  0  0
   74.9734   50.2093   56.3091 C   0  0  0  0  0  0  0  0  0  0  0  0
   76.2619   49.8616   56.8682 N   0  0  0  0  0  0  0  0  0  0  0  0
   77.3544   49.4416   56.0738 C   0  0  0  0  0  0  0  0  0  0  0  0
   77.1754   49.3739   54.8220 O   0  0  0  0  0  0  0  0  0  0  0  0
   76.4278   49.9476   58.3010 C   0  0  0  0  0  0  0  0  0  0  0  0
   75.1088   50.2343   58.9937 C   0  0  0  0  0  0  0  0  0  0  0  0
   78.6311   49.1070   56.7130 C   0  0  0  0  0  0  0  0  0  0  0  0
   79.7313   48.7855   55.6840 C   0  0  0  0  0  0  0  0  0  0  0  0
   79.8289   49.9625   56.5725 C   0  0  0  0  0  0  0  0  0  0  0  0
   68.8889   47.6159   57.1181 C   0  0  0  0  0  0  0  0  0  0  0  0
   68.6529   46.9966   55.8052 C   0  0  0  0  0  0  0  0  0  0  0  0
   68.0425   45.7759   55.7855 N   0  0  0  0  0  0  0  0  0  0  0  0
   67.7749   45.1511   54.6682 N   0  0  0  0  0  0  0  0  0  0  0  0
   68.0999   45.7061   53.4873 C   0  0  0  0  0  0  0  0  0  0  0  0
   67.8253   45.0746   52.4438 O   0  0  0  0  0  0  0  0  0  0  0  0
   68.7212   46.9407   53.4388 C   0  0  0  0  0  0  0  0  0  0  0  0
   69.0005   47.5948   54.6262 C   0  0  0  0  0  0  0  0  0  0  0  0
   69.6707   48.9032   54.5858 C   0  0  0  0  0  0  0  0  0  0  0  0
   70.4796   48.9842   53.3025 C   0  0  0  0  0  0  0  0  0  0  0  0
   69.4632   48.9265   52.1565 C   0  0  0  0  0  0  0  0  0  0  0  0
   69.0339   47.4685   52.0978 C   0  0  0  0  0  0  0  0  0  0  0  0
  8  9  2  0
  9  1  1  0
  9 10  1  0
  1  2  2  0
  1  6  1  0
  2  3  1  0
  3 21  1  0
  3  4  2  0
 21 22  1  0
 22 23  2  0
 22 28  1  0
 23 24  1  0
 24 25  1  0
 25 26  2  0
 25 27  1  0
 27 28  2  0
 27 32  1  0
 28 29  1  0
 29 30  1  0
 30 31  1  0
 31 32  1  0
  4  5  1  0
  5  6  2  0
  6  7  1  0
 10 11  1  0
 10 17  1  0
 11 12  1  0
 12 13  1  0
 13 14  1  0
 13 16  1  0
 14 15  2  0
 14 18  1  0
 18 19  1  0
 18 20  1  0
 19 20  1  0
 16 17  1  0
M  END
>  <minimizedAffinity>  (502) 
-8.75759

$$$$
cs_full_output_folder/data/smiles/3167.pdb
     RDKit          3D

 25 26  0  0  0  0  0  0  0  0999 V2000
   69.9603   49.2452   52.6586 S   0  0  0  0  0  0  0  0  0  0  0  0
   69.9536   49.1432   51.1625 O   0  0  0  0  0  0  0  0  0  0  0  0
   71.4108   49.3138   53.0605 O   0  0  0  0  0  0  0  0  0  0  0  0
   69.2125   47.7844   53.2747 C   0  0  0  0  0  0  0  0  0  0  0  0
   68.5761   46.9070   52.4250 C   0  0  0  0  0  0  0  0  0  0  0  0
   68.5152   47.1324   51.0806 F   0  0  0  0  0  0  0  0  0  0  0  0
   67.9820   45.7524   52.9477 C   0  0  0  0  0  0  0  0  0  0  0  0
   67.3680   44.9199   52.0766 F   0  0  0  0  0  0  0  0  0  0  0  0
   68.0542   45.5315   54.2932 C   0  0  0  0  0  0  0  0  0  0  0  0
   67.4742   44.4038   54.8063 F   0  0  0  0  0  0  0  0  0  0  0  0
   68.6937   46.4090   55.1606 C   0  0  0  0  0  0  0  0  0  0  0  0
   68.7137   46.1064   56.4742 F   0  0  0  0  0  0  0  0  0  0  0  0
   69.2743   47.5398   54.6428 C   0  0  0  0  0  0  0  0  0  0  0  0
   69.9077   48.4228   55.4393 F   0  0  0  0  0  0  0  0  0  0  0  0
   69.1162   50.6674   53.1253 N   0  0  0  0  0  0  0  0  0  0  0  0
   71.0252   53.2216   55.8824 C   0  0  0  0  0  0  0  0  0  0  0  0
   69.6546   53.0849   55.8907 C   0  0  0  0  0  0  0  0  0  0  0  0
   68.9985   52.2571   55.0072 C   0  0  0  0  0  0  0  0  0  0  0  0
   69.7208   51.5385   54.0838 C   0  0  0  0  0  0  0  0  0  0  0  0
   71.1164   51.6812   54.0797 C   0  0  0  0  0  0  0  0  0  0  0  0
   71.7603   52.5073   54.9629 C   0  0  0  0  0  0  0  0  0  0  0  0
   72.3006   53.5934   57.9463 C   0  0  0  0  0  0  0  0  0  0  0  0
   71.6921   54.0560   56.7717 O   0  0  0  0  0  0  0  0  0  0  0  0
   73.1936   52.6093   54.9078 N   0  0  0  0  0  0  0  0  0  0  0  0
   74.2489   51.0602   54.9958 Br  0  0  0  0  0  0  0  0  0  0  0  0
 22 23  1  0
 23 16  1  0
 16 17  2  0
 16 21  1  0
 17 18  1  0
 18 19  2  0
 19 15  1  0
 19 20  1  0
 15  1  1  0
  1  2  2  0
  1  3  2  0
  1  4  1  0
  4  5  2  0
  4 13  1  0
  5  6  1  0
  5  7  1  0
  7  8  1  0
  7  9  2  0
  9 10  1  0
  9 11  1  0
 11 12  1  0
 11 13  2  0
 13 14  1  0
 20 21  2  0
 21 24  1  0
 24 25  1  0
M  END
>  <minimizedAffinity>  (503) 
-8.75594

$$$$
cs_full_output_folder/data/smiles/3939.pdb
     RDKit          3D

 28 30  0  0  0  0  0  0  0  0999 V2000
   67.3388   44.7255   52.8219 C   0  0  0  0  0  0  0  0  0  0  0  0
   68.0705   46.0112   52.9216 C   0  0  0  0  0  0  0  0  0  0  0  0
   68.2776   46.8036   51.8170 C   0  0  0  0  0  0  0  0  0  0  0  0
   68.9628   48.0126   51.9482 C   0  0  0  0  0  0  0  0  0  0  0  0
   69.4296   48.4093   53.1805 C   0  0  0  0  0  0  0  0  0  0  0  0
   69.2009   47.5843   54.2578 C   0  0  0  0  0  0  0  0  0  0  0  0
   68.5245   46.3857   54.1453 C   0  0  0  0  0  0  0  0  0  0  0  0
   70.1988   49.9270   53.3902 S   0  0  0  0  0  0  0  0  0  0  0  0
   71.6076   49.6332   53.4020 O   0  0  0  0  0  0  0  0  0  0  0  0
   69.9978   50.6360   52.1247 O   0  0  0  0  0  0  0  0  0  0  0  0
   69.6297   50.7419   54.8592 S   0  0  0  0  0  0  0  0  0  0  0  0
   70.4798   50.3774   56.3145 C   0  0  0  0  0  0  0  0  0  0  0  0
   69.8681   51.2405   57.4282 C   0  0  0  0  0  0  0  0  0  0  0  0
   70.1377   52.5786   57.2896 O   0  0  0  0  0  0  0  0  0  0  0  0
   69.3563   53.0453   56.2315 C   0  0  0  0  0  0  0  0  0  0  0  0
   69.9102   52.4650   54.9503 C   0  0  0  0  0  0  0  0  0  0  0  0
   68.3503   45.6090   55.3768 C   0  0  0  0  0  0  0  0  0  0  0  0
   68.3670   46.1929   56.4884 O   0  0  0  0  0  0  0  0  0  0  0  0
   68.1604   44.2048   55.3665 N   0  0  0  0  0  0  0  0  0  0  0  0
   67.9854   43.4166   56.5215 N   0  0  0  0  0  0  0  0  0  0  0  0
   67.5641   42.0615   56.4479 C   0  0  0  0  0  0  0  0  0  0  0  0
   67.3593   41.6099   55.2925 O   0  0  0  0  0  0  0  0  0  0  0  0
   67.3636   41.1889   57.5876 C   0  0  0  0  0  0  0  0  0  0  0  0
   66.6171   41.5212   58.6993 C   0  0  0  0  0  0  0  0  0  0  0  0
   66.4850   40.6216   59.7370 C   0  0  0  0  0  0  0  0  0  0  0  0
   67.0676   39.3706   59.7381 C   0  0  0  0  0  0  0  0  0  0  0  0
   67.8195   39.0375   58.6157 C   0  0  0  0  0  0  0  0  0  0  0  0
   67.9452   39.9372   57.5899 C   0  0  0  0  0  0  0  0  0  0  0  0
  1  2  1  0
  2  3  2  0
  2  7  1  0
  3  4  1  0
  4  5  2  0
  5  8  1  0
  5  6  1  0
  8  9  2  0
  8 10  2  0
  8 11  1  0
 11 12  1  0
 11 16  1  0
 12 13  1  0
 13 14  1  0
 14 15  1  0
 15 16  1  0
  6  7  2  0
  7 17  1  0
 17 18  2  0
 17 19  1  0
 19 20  1  0
 20 21  1  0
 21 22  2  0
 21 23  1  0
 23 24  2  0
 23 28  1  0
 24 25  1  0
 25 26  2  0
 26 27  1  0
 27 28  2  0
M  END
>  <minimizedAffinity>  (504) 
-8.75292

$$$$
cs_full_output_folder/data/smiles/371.pdb
     RDKit          3D

 28 30  0  0  0  0  0  0  0  0999 V2000
   68.9839   46.7556   54.8788 C   0  0  0  0  0  0  0  0  0  0  0  0
   68.4434   46.4637   53.6429 C   0  0  0  0  0  0  0  0  0  0  0  0
   68.5334   47.3304   52.5723 C   0  0  0  0  0  0  0  0  0  0  0  0
   69.1948   48.5271   52.7742 C   0  0  0  0  0  0  0  0  0  0  0  0
   69.7533   48.8688   53.9891 C   0  0  0  0  0  0  0  0  0  0  0  0
   69.6226   47.9482   55.0152 C   0  0  0  0  0  0  0  0  0  0  0  0
   68.2778   44.4705   55.7310 N   0  0  0  0  0  0  0  0  0  0  0  0
   68.8305   45.7669   55.9352 C   0  0  0  0  0  0  0  0  0  0  0  0
   69.1905   46.0200   57.1146 O   0  0  0  0  0  0  0  0  0  0  0  0
   67.2380   41.9411   55.3869 O   0  0  0  0  0  0  0  0  0  0  0  0
   67.5983   42.2318   56.5538 C   0  0  0  0  0  0  0  0  0  0  0  0
   68.1359   43.5257   56.7573 N   0  0  0  0  0  0  0  0  0  0  0  0
   67.4338   41.2224   57.5911 C   0  0  0  0  0  0  0  0  0  0  0  0
   66.6609   41.4067   58.7141 C   0  0  0  0  0  0  0  0  0  0  0  0
   66.5479   40.3951   59.6719 C   0  0  0  0  0  0  0  0  0  0  0  0
   67.2058   39.1944   59.5121 C   0  0  0  0  0  0  0  0  0  0  0  0
   67.1218   38.1964   60.4110 F   0  0  0  0  0  0  0  0  0  0  0  0
   67.9945   38.9832   58.3851 C   0  0  0  0  0  0  0  0  0  0  0  0
   68.0738   40.0077   57.4729 C   0  0  0  0  0  0  0  0  0  0  0  0
   70.5527   50.3865   54.1205 S   0  0  0  0  0  0  0  0  0  0  0  0
   70.1585   51.2165   52.9050 O   0  0  0  0  0  0  0  0  0  0  0  0
   72.0308   50.1569   53.9928 O   0  0  0  0  0  0  0  0  0  0  0  0
   70.2108   51.2793   55.5003 N   0  0  0  0  0  0  0  0  0  0  0  0
   69.0379   52.0483   55.5119 C   0  0  0  0  0  0  0  0  0  0  0  0
   67.9026   51.4522   56.3115 C   0  0  0  0  0  0  0  0  0  0  0  0
   68.3784   50.4645   57.3419 C   0  0  0  0  0  0  0  0  0  0  0  0
   69.7899   50.7244   57.7940 C   0  0  0  0  0  0  0  0  0  0  0  0
   70.7910   50.8675   56.7099 C   0  0  0  0  0  0  0  0  0  0  0  0
 10 11  2  0
 11 12  1  0
 11 13  1  0
 12  7  1  0
  7  8  1  0
  8  9  2  0
  8  1  1  0
  1  2  2  0
  1  6  1  0
  2  3  1  0
  3  4  2  0
  4  5  1  0
  5 20  1  0
  5  6  2  0
 20 21  2  0
 20 22  2  0
 20 23  1  0
 23 24  1  0
 23 28  1  0
 24 25  1  0
 25 26  1  0
 26 27  1  0
 27 28  1  0
 13 14  2  0
 13 19  1  0
 14 15  1  0
 15 16  2  0
 16 17  1  0
 16 18  1  0
 18 19  2  0
M  END
>  <minimizedAffinity>  (505) 
-8.75215

$$$$
cs_full_output_folder/data/smiles/729.pdb
     RDKit          3D

 31 33  0  0  0  0  0  0  0  0999 V2000
   67.4290   41.1391   55.9206 C   0  0  0  0  0  0  0  0  0  0  0  0
   68.1400   40.7084   57.1536 C   0  0  0  0  0  0  0  0  0  0  0  0
   67.8649   39.4538   57.6470 C   0  0  0  0  0  0  0  0  0  0  0  0
   68.4742   38.9754   58.7918 C   0  0  0  0  0  0  0  0  0  0  0  0
   69.3756   39.7770   59.4483 C   0  0  0  0  0  0  0  0  0  0  0  0
   69.6740   41.0100   59.0018 C   0  0  0  0  0  0  0  0  0  0  0  0
   69.0393   41.4638   57.8386 C   0  0  0  0  0  0  0  0  0  0  0  0
   70.1263   39.1252   60.8532 S   0  0  0  0  0  0  0  0  0  0  0  0
   69.7224   39.5911   62.3073 O   0  0  0  0  0  0  0  0  0  0  0  0
   69.1692   38.0078   60.8867 O   0  0  0  0  0  0  0  0  0  0  0  0
   71.4277   38.1081   60.6295 N   0  0  0  0  0  0  0  0  0  0  0  0
   71.7089   37.1940   59.6437 C   0  0  0  0  0  0  0  0  0  0  0  0
   71.5810   35.8337   59.8366 C   0  0  0  0  0  0  0  0  0  0  0  0
   71.8689   34.9341   58.8234 C   0  0  0  0  0  0  0  0  0  0  0  0
   72.2902   35.3852   57.6009 C   0  0  0  0  0  0  0  0  0  0  0  0
   72.4238   36.7189   57.3846 C   0  0  0  0  0  0  0  0  0  0  0  0
   72.1339   37.6148   58.4053 C   0  0  0  0  0  0  0  0  0  0  0  0
   72.2891   38.9442   58.1240 F   0  0  0  0  0  0  0  0  0  0  0  0
   69.3833   42.7977   57.3391 C   0  0  0  0  0  0  0  0  0  0  0  0
   70.5796   43.1932   57.3688 O   0  0  0  0  0  0  0  0  0  0  0  0
   68.4455   43.7177   56.8048 N   0  0  0  0  0  0  0  0  0  0  0  0
   68.8715   44.9949   56.3456 N   0  0  0  0  0  0  0  0  0  0  0  0
   68.3848   45.5822   55.1608 C   0  0  0  0  0  0  0  0  0  0  0  0
   67.5288   44.8570   54.5365 O   0  0  0  0  0  0  0  0  0  0  0  0
   68.7414   46.8654   54.6087 C   0  0  0  0  0  0  0  0  0  0  0  0
   68.8758   47.9294   55.4957 C   0  0  0  0  0  0  0  0  0  0  0  0
   69.2071   49.2059   55.1315 C   0  0  0  0  0  0  0  0  0  0  0  0
   69.4214   49.4513   53.7808 C   0  0  0  0  0  0  0  0  0  0  0  0
   69.3029   48.4423   52.8570 C   0  0  0  0  0  0  0  0  0  0  0  0
   68.9631   47.1593   53.2911 C   0  0  0  0  0  0  0  0  0  0  0  0
   68.8449   46.1473   52.3554 O   0  0  0  0  0  0  0  0  0  0  0  0
  1  2  1  0
  2  3  2  0
  2  7  1  0
  3  4  1  0
  4  5  2  0
  5  8  1  0
  5  6  1  0
  8  9  2  0
  8 10  1  0
  8 11  1  0
 11 12  1  0
 12 13  2  0
 12 17  1  0
 13 14  1  0
 14 15  2  0
 15 16  1  0
 16 17  2  0
 17 18  1  0
  6  7  2  0
  7 19  1  0
 19 20  2  0
 19 21  1  0
 21 22  1  0
 22 23  1  0
 23 24  2  0
 23 25  1  0
 25 26  2  0
 25 30  1  0
 26 27  1  0
 27 28  2  0
 28 29  1  0
 29 30  2  0
 30 31  1  0
M  END
>  <minimizedAffinity>  (506) 
-8.74939

$$$$
cs_full_output_folder/data/smiles/318.pdb
     RDKit          3D

 28 30  0  0  0  0  0  0  0  0999 V2000
   68.0593   45.7717   53.9183 C   0  0  0  0  0  0  0  0  0  0  0  0
   68.2096   45.9003   52.5496 C   0  0  0  0  0  0  0  0  0  0  0  0
   68.8816   46.9624   51.9678 C   0  0  0  0  0  0  0  0  0  0  0  0
   69.4159   47.9224   52.8177 C   0  0  0  0  0  0  0  0  0  0  0  0
   69.2876   47.8289   54.1890 C   0  0  0  0  0  0  0  0  0  0  0  0
   68.6061   46.7454   54.7113 C   0  0  0  0  0  0  0  0  0  0  0  0
   68.9748   44.0839   55.9712 O   0  0  0  0  0  0  0  0  0  0  0  0
   67.8467   43.8338   55.4892 C   0  0  0  0  0  0  0  0  0  0  0  0
   67.1228   42.7187   56.0199 N   0  0  0  0  0  0  0  0  0  0  0  0
   67.3581   44.6573   54.4618 N   0  0  0  0  0  0  0  0  0  0  0  0
   67.6359   41.9126   57.0475 N   0  0  0  0  0  0  0  0  0  0  0  0
   67.9478   40.5482   56.8744 C   0  0  0  0  0  0  0  0  0  0  0  0
   67.7370   40.0743   55.7191 O   0  0  0  0  0  0  0  0  0  0  0  0
   68.4803   39.6615   57.8954 C   0  0  0  0  0  0  0  0  0  0  0  0
   67.6278   38.9505   58.7155 C   0  0  0  0  0  0  0  0  0  0  0  0
   68.0972   38.0999   59.6946 C   0  0  0  0  0  0  0  0  0  0  0  0
   69.4582   37.9288   59.8906 C   0  0  0  0  0  0  0  0  0  0  0  0
   70.3159   38.6273   59.0832 C   0  0  0  0  0  0  0  0  0  0  0  0
   69.8304   39.4843   58.0976 C   0  0  0  0  0  0  0  0  0  0  0  0
   69.9910   49.0803   55.1839 S   0  0  0  0  0  0  0  0  0  0  0  0
   70.3215   48.5298   56.5641 O   0  0  0  0  0  0  0  0  0  0  0  0
   71.3001   49.5239   54.5954 O   0  0  0  0  0  0  0  0  0  0  0  0
   68.9465   50.4055   55.4007 N   0  0  0  0  0  0  0  0  0  0  0  0
   69.0382   51.4348   54.4724 C   0  0  0  0  0  0  0  0  0  0  0  0
   68.8378   52.8239   54.9495 C   0  0  0  0  0  0  0  0  0  0  0  0
   69.2875   52.9890   56.3836 C   0  0  0  0  0  0  0  0  0  0  0  0
   68.5293   52.0118   57.2207 C   0  0  0  0  0  0  0  0  0  0  0  0
   68.4697   50.6325   56.6858 C   0  0  0  0  0  0  0  0  0  0  0  0
  7  8  2  0
  8  9  1  0
  8 10  1  0
  9 11  1  0
 11 12  1  0
 12 13  2  0
 12 14  1  0
 14 15  2  0
 14 19  1  0
 15 16  1  0
 16 17  2  0
 17 18  1  0
 18 19  2  0
 10  1  1  0
  1  2  2  0
  1  6  1  0
  2  3  1  0
  3  4  2  0
  4  5  1  0
  5 20  1  0
  5  6  2  0
 20 21  2  0
 20 22  2  0
 20 23  1  0
 23 24  1  0
 23 28  1  0
 24 25  1  0
 25 26  1  0
 26 27  1  0
 27 28  1  0
M  END
>  <minimizedAffinity>  (507) 
-8.74706

$$$$
cs_full_output_folder/data/smiles/4039.pdb
     RDKit          3D

 23 25  0  0  0  0  0  0  0  0999 V2000
   68.9459   48.6593   56.2705 C   0  0  0  0  0  0  0  0  0  0  0  0
   69.3015   48.6525   54.8372 C   0  0  0  0  0  0  0  0  0  0  0  0
   70.1576   49.6015   54.3562 N   0  0  0  0  0  0  0  0  0  0  0  0
   70.5442   49.6150   53.0996 N   0  0  0  0  0  0  0  0  0  0  0  0
   70.1210   48.7005   52.2155 C   0  0  0  0  0  0  0  0  0  0  0  0
   70.5296   48.7611   51.0043 O   0  0  0  0  0  0  0  0  0  0  0  0
   69.2543   47.7049   52.6107 C   0  0  0  0  0  0  0  0  0  0  0  0
   68.8183   46.7811   51.6934 C   0  0  0  0  0  0  0  0  0  0  0  0
   67.9421   45.8084   52.1156 C   0  0  0  0  0  0  0  0  0  0  0  0
   67.5177   45.7766   53.4401 C   0  0  0  0  0  0  0  0  0  0  0  0
   67.9810   46.7252   54.3319 C   0  0  0  0  0  0  0  0  0  0  0  0
   68.8576   47.7116   53.9523 C   0  0  0  0  0  0  0  0  0  0  0  0
   70.7846   46.0424   58.2367 C   0  0  0  0  0  0  0  0  0  0  0  0
   71.8036   46.7642   58.8076 C   0  0  0  0  0  0  0  0  0  0  0  0
   71.9546   48.1149   58.5893 C   0  0  0  0  0  0  0  0  0  0  0  0
   71.0160   48.7340   57.7498 C   0  0  0  0  0  0  0  0  0  0  0  0
   69.9792   48.0670   57.1530 C   0  0  0  0  0  0  0  0  0  0  0  0
   69.8845   46.6902   57.4187 C   0  0  0  0  0  0  0  0  0  0  0  0
   70.6558   44.3188   58.5618 S   0  0  0  0  0  0  0  0  0  0  0  0
   69.3499   43.9232   59.5911 O   0  0  0  0  0  0  0  0  0  0  0  0
   67.8669   42.2748   60.3145 C   0  0  0  0  0  0  0  0  0  0  0  0
   68.9101   42.6812   59.4311 N   0  0  0  0  0  0  0  0  0  0  0  0
   68.6644   42.0886   57.4846 I   0  0  0  0  0  0  0  0  0  0  0  0
 21 22  1  0
 22 23  1  0
 22 20  1  0
 20 19  1  0
 19 13  1  0
 13 14  2  0
 13 18  1  0
 14 15  1  0
 15 16  2  0
 16 17  1  0
 17  1  1  0
 17 18  2  0
  1  2  1  0
  2  3  2  0
  2 12  1  0
  3  4  1  0
  4  5  1  0
  5  6  2  0
  5  7  1  0
  7  8  1  0
  7 12  2  0
  8  9  2  0
  9 10  1  0
 10 11  2  0
 11 12  1  0
M  END
>  <minimizedAffinity>  (508) 
-8.74494

$$$$
cs_full_output_folder/data/smiles/8413.pdb
     RDKit          3D

 30 33  0  0  0  0  0  0  0  0999 V2000
   71.4709   47.2423   58.9880 C   0  0  0  0  0  0  0  0  0  0  0  0
   70.6395   48.0172   58.1749 C   0  0  0  0  0  0  0  0  0  0  0  0
   69.7993   47.4958   57.2269 C   0  0  0  0  0  0  0  0  0  0  0  0
   69.7670   46.1063   57.0561 C   0  0  0  0  0  0  0  0  0  0  0  0
   70.5781   45.3316   57.8457 C   0  0  0  0  0  0  0  0  0  0  0  0
   71.4164   45.8773   58.7963 C   0  0  0  0  0  0  0  0  0  0  0  0
   72.1770   45.0328   59.5256 F   0  0  0  0  0  0  0  0  0  0  0  0
   77.1979   49.1877   56.8278 C   0  0  0  0  0  0  0  0  0  0  0  0
   77.0331   48.9755   58.2681 C   0  0  0  0  0  0  0  0  0  0  0  0
   77.9472   48.3949   58.9087 O   0  0  0  0  0  0  0  0  0  0  0  0
   75.8723   49.4121   58.9419 N   0  0  0  0  0  0  0  0  0  0  0  0
   75.6496   49.2318   60.3556 C   0  0  0  0  0  0  0  0  0  0  0  0
   74.1767   49.3774   60.6949 C   0  0  0  0  0  0  0  0  0  0  0  0
   73.3442   48.7925   59.6636 N   0  0  0  0  0  0  0  0  0  0  0  0
   72.3368   47.8611   59.9762 C   0  0  0  0  0  0  0  0  0  0  0  0
   72.1639   47.5347   61.1889 O   0  0  0  0  0  0  0  0  0  0  0  0
   73.5908   49.2050   58.2939 C   0  0  0  0  0  0  0  0  0  0  0  0
   74.8166   50.0869   58.1918 C   0  0  0  0  0  0  0  0  0  0  0  0
   68.9153   48.3436   56.3761 C   0  0  0  0  0  0  0  0  0  0  0  0
   69.3417   48.4112   54.9666 C   0  0  0  0  0  0  0  0  0  0  0  0
   70.3221   49.2798   54.5684 N   0  0  0  0  0  0  0  0  0  0  0  0
   70.7494   49.3440   53.3172 N   0  0  0  0  0  0  0  0  0  0  0  0
   70.2453   48.5564   52.3529 C   0  0  0  0  0  0  0  0  0  0  0  0
   70.7038   48.6771   51.1916 O   0  0  0  0  0  0  0  0  0  0  0  0
   69.2564   47.6550   52.6671 C   0  0  0  0  0  0  0  0  0  0  0  0
   68.8173   47.6021   53.9954 C   0  0  0  0  0  0  0  0  0  0  0  0
   67.7618   46.6855   54.3114 N   0  0  0  0  0  0  0  0  0  0  0  0
   67.6810   45.4860   53.5034 C   0  0  0  0  0  0  0  0  0  0  0  0
   67.6142   45.8836   52.0510 C   0  0  0  0  0  0  0  0  0  0  0  0
   68.7083   46.7940   51.6237 C   0  0  0  0  0  0  0  0  0  0  0  0
  8  9  1  0
  9 10  2  0
  9 11  1  0
 11 12  1  0
 11 18  1  0
 12 13  1  0
 13 14  1  0
 14 15  1  0
 14 17  1  0
 15 16  2  0
 15  1  1  0
  1  2  2  0
  1  6  1  0
  2  3  1  0
  3 19  1  0
  3  4  2  0
 19 20  1  0
 20 21  2  0
 20 26  1  0
 21 22  1  0
 22 23  1  0
 23 24  2  0
 23 25  1  0
 25 26  2  0
 25 30  1  0
 26 27  1  0
 27 28  1  0
 28 29  1  0
 29 30  1  0
  4  5  1  0
  5  6  2  0
  6  7  1  0
 17 18  1  0
M  END
>  <minimizedAffinity>  (509) 
-8.74454

$$$$
cs_full_output_folder/data/smiles/9027.pdb
     RDKit          3D

 31 34  0  0  0  0  0  0  0  0999 V2000
   71.6943   47.6747   58.8683 C   0  0  0  0  0  0  0  0  0  0  0  0
   70.8603   48.4680   58.1015 C   0  0  0  0  0  0  0  0  0  0  0  0
   69.9584   47.8560   57.2701 C   0  0  0  0  0  0  0  0  0  0  0  0
   69.8988   46.4495   57.2130 C   0  0  0  0  0  0  0  0  0  0  0  0
   70.7315   45.6674   57.9786 C   0  0  0  0  0  0  0  0  0  0  0  0
   71.6317   46.3055   58.8093 C   0  0  0  0  0  0  0  0  0  0  0  0
   72.4653   45.5504   59.5753 F   0  0  0  0  0  0  0  0  0  0  0  0
   79.2908   51.1887   56.6717 C   0  0  0  0  0  0  0  0  0  0  0  0
   78.2983   50.6761   57.6193 N   0  0  0  0  0  0  0  0  0  0  0  0
   77.2780   49.7760   57.2062 C   0  0  0  0  0  0  0  0  0  0  0  0
   77.2478   49.4258   56.0010 O   0  0  0  0  0  0  0  0  0  0  0  0
   76.3026   49.2608   58.0892 N   0  0  0  0  0  0  0  0  0  0  0  0
   75.3102   48.3372   57.5444 C   0  0  0  0  0  0  0  0  0  0  0  0
   73.9659   49.0340   57.8010 C   0  0  0  0  0  0  0  0  0  0  0  0
   73.8151   48.9354   59.2603 N   0  0  0  0  0  0  0  0  0  0  0  0
   72.6827   48.2533   59.7819 C   0  0  0  0  0  0  0  0  0  0  0  0
   72.5368   48.1524   61.0400 O   0  0  0  0  0  0  0  0  0  0  0  0
   74.8294   49.5383   60.0616 C   0  0  0  0  0  0  0  0  0  0  0  0
   76.2004   49.5669   59.4859 C   0  0  0  0  0  0  0  0  0  0  0  0
   69.0004   48.5743   56.3823 C   0  0  0  0  0  0  0  0  0  0  0  0
   69.4376   48.4935   54.9962 C   0  0  0  0  0  0  0  0  0  0  0  0
   70.5251   49.2492   54.6535 N   0  0  0  0  0  0  0  0  0  0  0  0
   70.9557   49.2663   53.4085 N   0  0  0  0  0  0  0  0  0  0  0  0
   70.3470   48.5498   52.4495 C   0  0  0  0  0  0  0  0  0  0  0  0
   70.7416   48.5500   51.2426 O   0  0  0  0  0  0  0  0  0  0  0  0
   69.2360   47.7688   52.7694 C   0  0  0  0  0  0  0  0  0  0  0  0
   68.7768   47.7445   54.0754 C   0  0  0  0  0  0  0  0  0  0  0  0
   67.6410   46.8996   54.4075 C   0  0  0  0  0  0  0  0  0  0  0  0
   67.9017   45.5323   53.7417 C   0  0  0  0  0  0  0  0  0  0  0  0
   68.1549   45.6229   52.2832 C   0  0  0  0  0  0  0  0  0  0  0  0
   68.5180   46.9700   51.7632 C   0  0  0  0  0  0  0  0  0  0  0  0
  8  9  1  0
  9 10  1  0
 10 11  2  0
 10 12  1  0
 12 13  1  0
 12 19  1  0
 13 14  1  0
 14 15  1  0
 15 16  1  0
 15 18  1  0
 16 17  2  0
 16  1  1  0
  1  2  2  0
  1  6  1  0
  2  3  1  0
  3 20  1  0
  3  4  2  0
 20 21  1  0
 21 22  2  0
 21 27  1  0
 22 23  1  0
 23 24  1  0
 24 25  2  0
 24 26  1  0
 26 27  2  0
 26 31  1  0
 27 28  1  0
 28 29  1  0
 29 30  1  0
 30 31  1  0
  4  5  1  0
  5  6  2  0
  6  7  1  0
 18 19  1  0
M  END
>  <minimizedAffinity>  (510) 
-8.74194

$$$$
cs_full_output_folder/data/smiles/8538.pdb
     RDKit          3D

 31 35  0  0  0  0  0  0  0  0999 V2000
   71.5779   47.0758   59.0475 C   0  0  0  0  0  0  0  0  0  0  0  0
   70.5771   47.7344   58.3183 C   0  0  0  0  0  0  0  0  0  0  0  0
   69.7580   47.1101   57.4260 C   0  0  0  0  0  0  0  0  0  0  0  0
   69.9386   45.7306   57.2394 C   0  0  0  0  0  0  0  0  0  0  0  0
   70.9075   45.0421   57.9332 C   0  0  0  0  0  0  0  0  0  0  0  0
   71.7071   45.7252   58.8227 C   0  0  0  0  0  0  0  0  0  0  0  0
   72.6636   45.0222   59.5017 F   0  0  0  0  0  0  0  0  0  0  0  0
   72.1686   47.6068   61.2013 O   0  0  0  0  0  0  0  0  0  0  0  0
   72.4261   47.7996   59.9791 C   0  0  0  0  0  0  0  0  0  0  0  0
   73.4817   48.6727   59.6341 N   0  0  0  0  0  0  0  0  0  0  0  0
   73.8000   48.9037   58.2437 C   0  0  0  0  0  0  0  0  0  0  0  0
   74.8078   47.8685   57.7302 C   0  0  0  0  0  0  0  0  0  0  0  0
   76.1450   48.2586   58.3834 C   0  0  0  0  0  0  0  0  0  0  0  0
   75.9633   48.1041   59.7711 N   0  0  2  0  0  0  0  0  0  0  0  0
   75.6789   49.2646   60.5211 C   0  0  0  0  0  0  0  0  0  0  0  0
   74.1832   49.2935   60.7664 C   0  0  0  0  0  0  0  0  0  0  0  0
   76.5257   46.9897   60.4005 C   0  0  0  0  0  0  0  0  0  0  0  0
   76.8505   46.8995   61.8271 C   0  0  0  0  0  0  0  0  0  0  0  0
   75.6987   46.0597   61.2735 C   0  0  0  0  0  0  0  0  0  0  0  0
   68.6804   47.7751   56.6139 C   0  0  0  0  0  0  0  0  0  0  0  0
   69.2140   47.9928   55.2483 C   0  0  0  0  0  0  0  0  0  0  0  0
   70.1564   48.9776   55.0638 N   0  0  0  0  0  0  0  0  0  0  0  0
   70.6477   49.2837   53.8938 N   0  0  0  0  0  0  0  0  0  0  0  0
   70.2886   48.6756   52.7632 C   0  0  0  0  0  0  0  0  0  0  0  0
   70.7654   48.9786   51.6552 O   0  0  0  0  0  0  0  0  0  0  0  0
   69.3403   47.6644   52.8529 C   0  0  0  0  0  0  0  0  0  0  0  0
   68.9633   47.0117   51.7128 C   0  0  0  0  0  0  0  0  0  0  0  0
   68.0365   45.9989   51.8118 C   0  0  0  0  0  0  0  0  0  0  0  0
   67.5182   45.6730   53.0469 C   0  0  0  0  0  0  0  0  0  0  0  0
   67.8972   46.3298   54.1989 C   0  0  0  0  0  0  0  0  0  0  0  0
   68.8244   47.3480   54.1143 C   0  0  0  0  0  0  0  0  0  0  0  0
  8  9  2  0
  9  1  1  0
  9 10  1  0
  1  2  2  0
  1  6  1  0
  2  3  1  0
  3 20  1  0
  3  4  2  0
 20 21  1  0
 21 22  2  0
 21 31  1  0
 22 23  1  0
 23 24  1  0
 24 25  2  0
 24 26  1  0
 26 27  1  0
 26 31  2  0
 27 28  2  0
 28 29  1  0
 29 30  2  0
 30 31  1  0
  4  5  1  0
  5  6  2  0
  6  7  1  0
 10 11  1  0
 10 16  1  0
 11 12  1  0
 12 13  1  0
 13 14  1  0
 14 17  1  1
 14 15  1  0
 17 18  1  0
 17 19  1  0
 18 19  1  0
 15 16  1  0
M  CHG  1  14   1
M  END
>  <minimizedAffinity>  (511) 
-8.73915

$$$$
cs_full_output_folder/data/smiles/395.pdb
     RDKit          3D

 28 30  0  0  0  0  0  0  0  0999 V2000
   68.2204   45.8086   53.9136 C   0  0  0  0  0  0  0  0  0  0  0  0
   67.6191   45.3022   52.7940 C   0  0  0  0  0  0  0  0  0  0  0  0
   67.7365   45.9891   51.6058 C   0  0  0  0  0  0  0  0  0  0  0  0
   68.4300   47.1742   51.4545 C   0  0  0  0  0  0  0  0  0  0  0  0
   69.0327   47.6776   52.5859 C   0  0  0  0  0  0  0  0  0  0  0  0
   68.9220   47.0001   53.7797 C   0  0  0  0  0  0  0  0  0  0  0  0
   68.4358   45.8598   56.2365 O   0  0  0  0  0  0  0  0  0  0  0  0
   68.1666   45.1756   55.2177 C   0  0  0  0  0  0  0  0  0  0  0  0
   67.8289   43.8173   55.4504 N   0  0  0  0  0  0  0  0  0  0  0  0
   67.7772   43.2143   56.6891 N   0  0  0  0  0  0  0  0  0  0  0  0
   67.7783   41.8208   56.9281 C   0  0  0  0  0  0  0  0  0  0  0  0
   67.8303   41.0618   55.9419 O   0  0  0  0  0  0  0  0  0  0  0  0
   67.7218   41.2415   58.2690 C   0  0  0  0  0  0  0  0  0  0  0  0
   66.5449   41.0323   58.9584 C   0  0  0  0  0  0  0  0  0  0  0  0
   66.5307   40.4813   60.2258 C   0  0  0  0  0  0  0  0  0  0  0  0
   67.6944   40.1135   60.8658 C   0  0  0  0  0  0  0  0  0  0  0  0
   68.8746   40.3190   60.1853 C   0  0  0  0  0  0  0  0  0  0  0  0
   68.8895   40.8752   58.9056 C   0  0  0  0  0  0  0  0  0  0  0  0
   70.3984   41.1287   58.0562 Cl  0  0  0  0  0  0  0  0  0  0  0  0
   69.9362   49.1719   52.5045 S   0  0  0  0  0  0  0  0  0  0  0  0
   71.4185   48.9363   52.7332 O   0  0  0  0  0  0  0  0  0  0  0  0
   69.8100   49.8099   51.1428 O   0  0  0  0  0  0  0  0  0  0  0  0
   69.3994   50.3177   53.6578 N   0  0  0  0  0  0  0  0  0  0  0  0
   70.0996   51.5652   53.5431 C   0  0  0  0  0  0  0  0  0  0  0  0
   71.2131   51.7179   54.5344 C   0  0  0  0  0  0  0  0  0  0  0  0
   71.5388   50.4966   55.1423 O   0  0  0  0  0  0  0  0  0  0  0  0
   70.4489   50.1002   55.8854 C   0  0  0  0  0  0  0  0  0  0  0  0
   69.3011   49.8075   54.9854 C   0  0  0  0  0  0  0  0  0  0  0  0
  7  8  2  0
  8  9  1  0
  8  1  1  0
  9 10  1  0
 10 11  1  0
 11 12  2  0
 11 13  1  0
 13 14  2  0
 13 18  1  0
 14 15  1  0
 15 16  2  0
 16 17  1  0
 17 18  2  0
 18 19  1  0
  1  2  2  0
  1  6  1  0
  2  3  1  0
  3  4  2  0
  4  5  1  0
  5 20  1  0
  5  6  2  0
 20 21  2  0
 20 22  2  0
 20 23  1  0
 23 24  1  0
 23 28  1  0
 24 25  1  0
 25 26  1  0
 26 27  1  0
 27 28  1  0
M  END
>  <minimizedAffinity>  (512) 
-8.73867

$$$$
cs_full_output_folder/data/smiles/7794.pdb
     RDKit          3D

 29 32  0  0  0  0  0  0  0  0999 V2000
   70.7094   46.5071   58.4315 C   0  0  0  0  0  0  0  0  0  0  0  0
   69.8469   47.0509   57.4914 C   0  0  0  0  0  0  0  0  0  0  0  0
   69.7596   48.3972   57.2874 C   0  0  0  0  0  0  0  0  0  0  0  0
   70.5565   49.2128   58.0462 C   0  0  0  0  0  0  0  0  0  0  0  0
   71.4351   48.7380   58.9969 C   0  0  0  0  0  0  0  0  0  0  0  0
   71.4919   47.3502   59.1715 C   0  0  0  0  0  0  0  0  0  0  0  0
   72.3729   46.9295   60.1284 F   0  0  0  0  0  0  0  0  0  0  0  0
   69.7280   44.2344   59.0404 N   0  0  0  0  0  0  0  0  0  0  0  0
   70.7643   45.0686   58.5967 C   0  0  0  0  0  0  0  0  0  0  0  0
   71.8631   44.4692   58.3154 O   0  0  0  0  0  0  0  0  0  0  0  0
   69.1827   43.1989   61.4116 N   0  0  0  0  0  0  0  0  0  0  0  0
   69.0915   42.2625   60.2861 C   0  0  2  0  0  0  0  0  0  0  0  0
   69.7070   40.9320   60.6641 C   0  0  0  0  0  0  0  0  0  0  0  0
   69.8051   40.0876   59.4212 C   0  0  0  0  0  0  0  0  0  0  0  0
   69.0664   40.7133   58.2587 C   0  0  0  0  0  0  0  0  0  0  0  0
   69.5659   42.0760   57.8982 C   0  0  0  0  0  0  0  0  0  0  0  0
   69.9588   42.8071   59.1449 C   0  0  1  0  0  0  0  0  0  0  0  0
   68.8247   48.9780   56.2896 C   0  0  0  0  0  0  0  0  0  0  0  0
   69.2928   48.9492   54.9070 C   0  0  0  0  0  0  0  0  0  0  0  0
   69.9847   49.9722   54.3381 N   0  0  0  0  0  0  0  0  0  0  0  0
   70.3689   49.9400   53.0752 N   0  0  0  0  0  0  0  0  0  0  0  0
   70.1145   48.9042   52.2436 C   0  0  0  0  0  0  0  0  0  0  0  0
   70.5048   48.9201   51.0333 O   0  0  0  0  0  0  0  0  0  0  0  0
   69.4180   47.8335   52.7514 C   0  0  0  0  0  0  0  0  0  0  0  0
   69.0210   47.8869   54.0901 C   0  0  0  0  0  0  0  0  0  0  0  0
   68.3450   46.7491   54.5568 N   0  0  0  0  0  0  0  0  0  0  0  0
   67.5318   45.9235   53.7319 C   0  0  0  0  0  0  0  0  0  0  0  0
   67.8403   45.9645   52.2770 C   0  0  0  0  0  0  0  0  0  0  0  0
   69.1015   46.6678   51.8996 C   0  0  0  0  0  0  0  0  0  0  0  0
 12 11  1  1
 12 13  1  0
 12 17  1  0
 13 14  1  0
 14 15  1  0
 15 16  1  0
 16 17  1  0
 17  8  1  6
  8  9  1  0
  9 10  2  0
  9  1  1  0
  1  2  2  0
  1  6  1  0
  2  3  1  0
  3 18  1  0
  3  4  2  0
 18 19  1  0
 19 20  2  0
 19 25  1  0
 20 21  1  0
 21 22  1  0
 22 23  2  0
 22 24  1  0
 24 25  2  0
 24 29  1  0
 25 26  1  0
 26 27  1  0
 27 28  1  0
 28 29  1  0
  4  5  1  0
  5  6  2  0
  6  7  1  0
M  CHG  1  11   1
M  END
>  <minimizedAffinity>  (513) 
-8.73695

$$$$
cs_full_output_folder/data/smiles/6589.pdb
     RDKit          3D

 29 31  0  0  0  0  0  0  0  0999 V2000
   68.7049   46.7156   53.8982 C   0  0  0  0  0  0  0  0  0  0  0  0
   69.5243   47.8077   54.2304 C   0  0  0  0  0  0  0  0  0  0  0  0
   70.0294   48.6680   53.3522 N   0  0  0  0  0  0  0  0  0  0  0  0
   69.7018   48.4337   52.0319 C   0  0  0  0  0  0  0  0  0  0  0  0
   70.1474   49.1994   51.1512 O   0  0  0  0  0  0  0  0  0  0  0  0
   68.9180   47.3940   51.6874 N   0  0  0  0  0  0  0  0  0  0  0  0
   68.4069   46.5223   52.5920 C   0  0  0  0  0  0  0  0  0  0  0  0
   67.6802   45.5690   52.2005 O   0  0  0  0  0  0  0  0  0  0  0  0
   67.9048   46.4402   56.0929 O   0  0  0  0  0  0  0  0  0  0  0  0
   68.2211   45.8795   55.0125 C   0  0  0  0  0  0  0  0  0  0  0  0
   68.0803   44.4910   54.9728 N   0  0  0  0  0  0  0  0  0  0  0  0
   67.6167   43.6682   56.0149 N   0  0  0  0  0  0  0  0  0  0  0  0
   68.6142   42.9311   56.7514 C   0  0  0  0  0  0  0  0  0  0  0  0
   68.4470   41.6190   57.0802 C   0  0  0  0  0  0  0  0  0  0  0  0
   69.4228   40.9338   57.7695 C   0  0  0  0  0  0  0  0  0  0  0  0
   70.5929   41.5614   58.1419 C   0  0  0  0  0  0  0  0  0  0  0  0
   70.8000   42.8656   57.8346 C   0  0  0  0  0  0  0  0  0  0  0  0
   69.7980   43.5310   57.1393 C   0  0  0  0  0  0  0  0  0  0  0  0
   70.8313   49.8122   53.6971 C   0  0  0  0  0  0  0  0  0  0  0  0
   70.1826   50.7623   54.6026 C   0  0  0  0  0  0  0  0  0  0  0  0
   69.1944   51.5787   54.0252 C   0  0  0  0  0  0  0  0  0  0  0  0
   68.4372   52.4394   54.8062 C   0  0  0  0  0  0  0  0  0  0  0  0
   68.6936   52.4601   56.1553 C   0  0  0  0  0  0  0  0  0  0  0  0
   69.6596   51.6685   56.7330 C   0  0  0  0  0  0  0  0  0  0  0  0
   70.4356   50.7889   55.9412 C   0  0  0  0  0  0  0  0  0  0  0  0
   71.5358   50.0402   56.5377 C   0  0  0  0  0  0  0  0  0  0  0  0
   72.7797   50.4503   55.9851 F   0  0  0  0  0  0  0  0  0  0  0  0
   71.4424   48.7361   56.7791 F   0  0  0  0  0  0  0  0  0  0  0  0
   71.6736   50.6047   57.8612 F   0  0  0  0  0  0  0  0  0  0  0  0
  9 10  2  0
 10 11  1  0
 10  1  1  0
 11 12  1  0
 12 13  1  0
 13 14  2  0
 13 18  1  0
 14 15  1  0
 15 16  2  0
 16 17  1  0
 17 18  2  0
  1  2  2  0
  1  7  1  0
  2  3  1  0
  3 19  1  0
  3  4  1  0
 19 20  1  0
 20 21  2  0
 20 25  1  0
 21 22  1  0
 22 23  2  0
 23 24  1  0
 24 25  2  0
 25 26  1  0
 26 27  1  0
 26 28  1  0
 26 29  1  0
  4  5  2  0
  4  6  1  0
  6  7  1  0
  7  8  2  0
M  END
>  <minimizedAffinity>  (514) 
-8.73672

$$$$
cs_full_output_folder/data/smiles/2097.pdb
     RDKit          3D

 28 31  0  0  0  0  0  0  0  0999 V2000
   71.6386   47.0548   59.0177 C   0  0  0  0  0  0  0  0  0  0  0  0
   70.6769   47.6890   58.2755 C   0  0  0  0  0  0  0  0  0  0  0  0
   69.8256   47.0548   57.3809 C   0  0  0  0  0  0  0  0  0  0  0  0
   69.9651   45.7012   57.2395 C   0  0  0  0  0  0  0  0  0  0  0  0
   70.9332   45.0028   57.9750 C   0  0  0  0  0  0  0  0  0  0  0  0
   71.7519   45.6884   58.8495 C   0  0  0  0  0  0  0  0  0  0  0  0
   72.6792   44.9595   59.5421 F   0  0  0  0  0  0  0  0  0  0  0  0
   72.1798   47.7929   61.1384 O   0  0  0  0  0  0  0  0  0  0  0  0
   72.5315   47.7134   59.9513 C   0  0  0  0  0  0  0  0  0  0  0  0
   73.7824   48.2693   59.5633 N   0  0  0  0  0  0  0  0  0  0  0  0
   74.2644   48.2201   58.1932 C   0  0  0  0  0  0  0  0  0  0  0  0
   75.7665   48.3120   58.1281 C   0  0  0  0  0  0  0  0  0  0  0  0
   76.4429   47.7936   59.2532 N   0  0  0  0  0  0  0  0  0  0  0  0
   76.9418   46.1468   59.1023 Cl  0  0  0  0  0  0  0  0  0  0  0  0
   75.9464   48.1409   60.5344 C   0  0  0  0  0  0  0  0  0  0  0  0
   74.6496   48.9183   60.5255 C   0  0  0  0  0  0  0  0  0  0  0  0
   68.7915   47.8331   56.6391 C   0  0  0  0  0  0  0  0  0  0  0  0
   69.2377   48.0879   55.2651 C   0  0  0  0  0  0  0  0  0  0  0  0
   70.1906   49.0593   55.1120 N   0  0  0  0  0  0  0  0  0  0  0  0
   70.7023   49.3453   53.9336 N   0  0  0  0  0  0  0  0  0  0  0  0
   70.3213   48.7025   52.8174 C   0  0  0  0  0  0  0  0  0  0  0  0
   70.8011   48.9609   51.6823 O   0  0  0  0  0  0  0  0  0  0  0  0
   69.3617   47.7140   52.9194 C   0  0  0  0  0  0  0  0  0  0  0  0
   68.9337   47.0316   51.7708 C   0  0  0  0  0  0  0  0  0  0  0  0
   67.9699   46.0523   51.8488 C   0  0  0  0  0  0  0  0  0  0  0  0
   67.4621   45.7888   53.0965 C   0  0  0  0  0  0  0  0  0  0  0  0
   67.8664   46.4449   54.2432 C   0  0  0  0  0  0  0  0  0  0  0  0
   68.8304   47.4213   54.1548 C   0  0  0  0  0  0  0  0  0  0  0  0
  8  9  2  0
  9  1  1  0
  9 10  1  0
  1  2  2  0
  1  6  1  0
  2  3  1  0
  3 17  1  0
  3  4  2  0
 17 18  1  0
 18 19  2  0
 18 28  1  0
 19 20  1  0
 20 21  1  0
 21 22  2  0
 21 23  1  0
 23 24  1  0
 23 28  2  0
 24 25  2  0
 25 26  1  0
 26 27  2  0
 27 28  1  0
  4  5  1  0
  5  6  2  0
  6  7  1  0
 10 11  1  0
 10 16  1  0
 11 12  1  0
 12 13  1  0
 13 14  1  0
 13 15  1  0
 15 16  1  0
M  END
>  <minimizedAffinity>  (515) 
-8.72718

$$$$
cs_full_output_folder/data/smiles/169.pdb
     RDKit          3D

 28 30  0  0  0  0  0  0  0  0999 V2000
   68.6678   46.4968   54.3862 C   0  0  0  0  0  0  0  0  0  0  0  0
   69.2977   47.7155   54.4430 C   0  0  0  0  0  0  0  0  0  0  0  0
   69.4686   48.5550   53.3774 C   0  0  0  0  0  0  0  0  0  0  0  0
   68.9529   48.1094   52.1567 C   0  0  0  0  0  0  0  0  0  0  0  0
   68.3111   46.8946   52.0410 C   0  0  0  0  0  0  0  0  0  0  0  0
   68.1701   46.0879   53.1666 C   0  0  0  0  0  0  0  0  0  0  0  0
   67.3460   44.5467   52.9805 Cl  0  0  0  0  0  0  0  0  0  0  0  0
   68.1766   44.2339   55.4061 N   0  0  0  0  0  0  0  0  0  0  0  0
   68.4948   45.6153   55.5374 C   0  0  0  0  0  0  0  0  0  0  0  0
   68.6223   46.0458   56.7196 O   0  0  0  0  0  0  0  0  0  0  0  0
   67.1486   41.7077   55.2510 O   0  0  0  0  0  0  0  0  0  0  0  0
   67.4710   42.0716   56.4103 C   0  0  0  0  0  0  0  0  0  0  0  0
   68.0108   43.3872   56.5197 N   0  0  0  0  0  0  0  0  0  0  0  0
   67.2947   41.1877   57.5459 C   0  0  0  0  0  0  0  0  0  0  0  0
   66.5414   41.4748   58.6410 C   0  0  0  0  0  0  0  0  0  0  0  0
   66.4632   40.5306   59.6499 C   0  0  0  0  0  0  0  0  0  0  0  0
   67.1246   39.3242   59.5663 C   0  0  0  0  0  0  0  0  0  0  0  0
   67.8605   39.0546   58.4886 N   0  0  0  0  0  0  0  0  0  0  0  0
   67.9388   39.9595   57.5144 C   0  0  0  0  0  0  0  0  0  0  0  0
   70.2653   50.1134   53.4599 S   0  0  0  0  0  0  0  0  0  0  0  0
   70.0122   50.9285   52.2302 O   0  0  0  0  0  0  0  0  0  0  0  0
   71.7449   49.8331   53.5346 O   0  0  0  0  0  0  0  0  0  0  0  0
   69.7120   50.8847   54.8851 N   0  0  0  0  0  0  0  0  0  0  0  0
   70.7189   50.9710   55.9089 C   0  0  0  0  0  0  0  0  0  0  0  0
   70.1482   51.3832   57.2218 C   0  0  0  0  0  0  0  0  0  0  0  0
   69.2245   52.5445   57.0289 C   0  0  0  0  0  0  0  0  0  0  0  0
   69.2835   53.1675   55.6667 C   0  0  0  0  0  0  0  0  0  0  0  0
   69.1249   52.1526   54.5556 C   0  0  0  0  0  0  0  0  0  0  0  0
 11 12  2  0
 12 13  1  0
 12 14  1  0
 13  8  1  0
  8  9  1  0
  9 10  2  0
  9  1  1  0
  1  2  2  0
  1  6  1  0
  2  3  1  0
  3 20  1  0
  3  4  2  0
 20 21  2  0
 20 22  2  0
 20 23  1  0
 23 24  1  0
 23 28  1  0
 24 25  1  0
 25 26  1  0
 26 27  1  0
 27 28  1  0
  4  5  1  0
  5  6  2  0
  6  7  1  0
 14 15  2  0
 14 19  1  0
 15 16  1  0
 16 17  2  0
 17 18  1  0
 18 19  2  0
M  END
>  <minimizedAffinity>  (516) 
-8.72182

$$$$
cs_full_output_folder/data/smiles/7795.pdb
     RDKit          3D

 30 34  0  0  0  0  0  0  0  0999 V2000
   71.4029   46.7544   58.8045 C   0  0  0  0  0  0  0  0  0  0  0  0
   70.5521   47.5969   58.0691 C   0  0  0  0  0  0  0  0  0  0  0  0
   69.6579   47.1066   57.1664 C   0  0  0  0  0  0  0  0  0  0  0  0
   69.5865   45.7179   56.9690 C   0  0  0  0  0  0  0  0  0  0  0  0
   70.4034   44.8633   57.6704 C   0  0  0  0  0  0  0  0  0  0  0  0
   71.2844   45.4019   58.5639 C   0  0  0  0  0  0  0  0  0  0  0  0
   72.0930   44.5536   59.2600 F   0  0  0  0  0  0  0  0  0  0  0  0
   74.8771   43.4693   60.1585 C   0  0  0  0  0  0  0  0  0  0  0  0
   75.7869   44.5603   60.2814 N   0  0  2  0  0  0  0  0  0  0  0  0
   75.3669   45.6200   61.1616 C   0  0  0  0  0  0  0  0  0  0  0  0
   75.7645   46.9140   60.5502 C   0  0  2  0  0  0  0  0  0  0  0  0
   74.6873   47.9550   60.4818 C   0  0  0  0  0  0  0  0  0  0  0  0
   73.7387   47.3613   59.5603 N   0  0  0  0  0  0  0  0  0  0  0  0
   72.3244   47.3527   59.7396 C   0  0  0  0  0  0  0  0  0  0  0  0
   71.8289   47.8922   60.7610 O   0  0  0  0  0  0  0  0  0  0  0  0
   74.5311   46.8296   58.4964 C   0  0  0  0  0  0  0  0  0  0  0  0
   75.9072   46.5700   59.0670 C   0  0  2  0  0  0  0  0  0  0  0  0
   76.2589   45.1188   59.0619 C   0  0  0  0  0  0  0  0  0  0  0  0
   68.7615   47.9788   56.3695 C   0  0  0  0  0  0  0  0  0  0  0  0
   69.2299   48.0715   54.9859 C   0  0  0  0  0  0  0  0  0  0  0  0
   70.1993   49.0186   54.7640 N   0  0  0  0  0  0  0  0  0  0  0  0
   70.6691   49.2359   53.5528 N   0  0  0  0  0  0  0  0  0  0  0  0
   70.2621   48.5792   52.4760 C   0  0  0  0  0  0  0  0  0  0  0  0
   70.7047   48.7775   51.3040 O   0  0  0  0  0  0  0  0  0  0  0  0
   69.2895   47.6172   52.6548 C   0  0  0  0  0  0  0  0  0  0  0  0
   68.8169   46.8738   51.5702 C   0  0  0  0  0  0  0  0  0  0  0  0
   67.8544   45.9120   51.7925 C   0  0  0  0  0  0  0  0  0  0  0  0
   67.3554   45.6738   53.0550 C   0  0  0  0  0  0  0  0  0  0  0  0
   67.8115   46.3983   54.1241 C   0  0  0  0  0  0  0  0  0  0  0  0
   68.7737   47.3630   53.9099 C   0  0  0  0  0  0  0  0  0  0  0  0
  9  8  1  6
  9 10  1  0
  9 18  1  0
 11 10  1  1
 11 12  1  0
 11 17  1  0
 12 13  1  0
 13 14  1  0
 13 16  1  0
 14 15  2  0
 14  1  1  0
  1  2  2  0
  1  6  1  0
  2  3  1  0
  3 19  1  0
  3  4  2  0
 19 20  1  0
 20 21  2  0
 20 30  1  0
 21 22  1  0
 22 23  1  0
 23 24  2  0
 23 25  1  0
 25 26  1  0
 25 30  2  0
 26 27  2  0
 27 28  1  0
 28 29  2  0
 29 30  1  0
  4  5  1  0
  5  6  2  0
  6  7  1  0
 17 16  1  6
 17 18  1  0
M  CHG  1   9   1
M  END
>  <minimizedAffinity>  (517) 
-8.71832

$$$$
cs_full_output_folder/data/smiles/6768.pdb
     RDKit          3D

 33 36  0  0  0  0  0  0  0  0999 V2000
   71.3449   46.7051   58.8810 C   0  0  0  0  0  0  0  0  0  0  0  0
   71.3952   45.3495   58.6058 C   0  0  0  0  0  0  0  0  0  0  0  0
   70.5679   44.7751   57.6660 C   0  0  0  0  0  0  0  0  0  0  0  0
   69.6474   45.5409   56.9565 C   0  0  0  0  0  0  0  0  0  0  0  0
   69.5738   46.8667   57.2023 C   0  0  0  0  0  0  0  0  0  0  0  0
   70.4270   47.4329   58.1647 C   0  0  0  0  0  0  0  0  0  0  0  0
   76.0679   45.4449   60.0678 C   0  0  0  0  0  0  0  0  0  0  0  0
   76.4208   45.2432   61.2613 O   0  0  0  0  0  0  0  0  0  0  0  0
   75.6760   46.7507   59.6590 N   0  0  0  0  0  0  0  0  0  0  0  0
   75.2607   47.0383   58.2857 C   0  0  0  0  0  0  0  0  0  0  0  0
   74.0556   47.9528   58.2816 C   0  0  0  0  0  0  0  0  0  0  0  0
   73.4739   47.8977   59.5950 N   0  0  0  0  0  0  0  0  0  0  0  0
   72.2146   47.3187   59.8759 C   0  0  0  0  0  0  0  0  0  0  0  0
   71.7576   47.3058   61.0707 O   0  0  0  0  0  0  0  0  0  0  0  0
   74.2531   48.4818   60.6585 C   0  0  0  0  0  0  0  0  0  0  0  0
   75.6598   47.8779   60.5764 C   0  0  0  0  0  0  0  0  0  0  0  0
   76.0790   44.3831   59.2145 O   0  0  0  0  0  0  0  0  0  0  0  0
   74.4225   43.2096   57.8801 C   0  0  0  0  0  0  0  0  0  0  0  0
   75.1489   43.3290   59.1998 C   0  0  0  0  0  0  0  0  0  0  0  0
   74.1337   43.4032   60.2989 C   0  0  0  0  0  0  0  0  0  0  0  0
   75.9469   42.0402   59.3696 C   0  0  0  0  0  0  0  0  0  0  0  0
   68.6579   47.8340   56.5258 C   0  0  0  0  0  0  0  0  0  0  0  0
   69.1653   48.0738   55.1579 C   0  0  0  0  0  0  0  0  0  0  0  0
   70.1370   49.0256   54.9893 N   0  0  0  0  0  0  0  0  0  0  0  0
   70.6838   49.2824   53.8364 N   0  0  0  0  0  0  0  0  0  0  0  0
   70.3095   48.6046   52.7247 C   0  0  0  0  0  0  0  0  0  0  0  0
   70.8804   48.9058   51.6487 O   0  0  0  0  0  0  0  0  0  0  0  0
   69.3428   47.6325   52.7893 C   0  0  0  0  0  0  0  0  0  0  0  0
   68.9423   46.9478   51.6744 C   0  0  0  0  0  0  0  0  0  0  0  0
   67.9580   45.9867   51.7662 C   0  0  0  0  0  0  0  0  0  0  0  0
   67.3751   45.7170   52.9876 C   0  0  0  0  0  0  0  0  0  0  0  0
   67.7883   46.4181   54.1188 C   0  0  0  0  0  0  0  0  0  0  0  0
   68.7757   47.3824   54.0403 C   0  0  0  0  0  0  0  0  0  0  0  0
 18 19  1  0
 19 20  1  0
 19 21  1  0
 19 17  1  0
 17  7  1  0
  7  8  2  0
  7  9  1  0
  9 10  1  0
  9 16  1  0
 10 11  1  0
 11 12  1  0
 12 13  1  0
 12 15  1  0
 13 14  2  0
 13  1  1  0
  1  2  2  0
  1  6  1  0
  2  3  1  0
  3  4  2  0
  4  5  1  0
  5 22  1  0
  5  6  2  0
 22 23  1  0
 23 24  2  0
 23 33  1  0
 24 25  1  0
 25 26  1  0
 26 27  2  0
 26 28  1  0
 28 29  1  0
 28 33  2  0
 29 30  2  0
 30 31  1  0
 31 32  2  0
 32 33  1  0
 15 16  1  0
M  END
>  <minimizedAffinity>  (518) 
-8.71821

$$$$
cs_full_output_folder/data/smiles/7086.pdb
     RDKit          3D

 29 32  0  0  0  0  0  0  0  0999 V2000
   70.8923   45.4810   58.0813 C   0  0  0  0  0  0  0  0  0  0  0  0
   69.9411   46.1293   57.3098 C   0  0  0  0  0  0  0  0  0  0  0  0
   69.9251   47.4951   57.1566 C   0  0  0  0  0  0  0  0  0  0  0  0
   70.8900   48.2476   57.7926 C   0  0  0  0  0  0  0  0  0  0  0  0
   71.8409   47.6308   58.5597 C   0  0  0  0  0  0  0  0  0  0  0  0
   71.8474   46.2394   58.7090 C   0  0  0  0  0  0  0  0  0  0  0  0
   72.8295   45.7271   59.4880 F   0  0  0  0  0  0  0  0  0  0  0  0
   68.9309   42.0122   59.5674 N   0  0  0  0  0  0  0  0  0  0  0  0
   70.1311   41.9930   60.2776 C   0  0  0  0  0  0  0  0  0  0  0  0
   71.0072   43.2257   60.0250 C   0  0  0  0  0  0  0  0  0  0  0  0
   70.9331   43.7093   58.2929 P   0  0  0  0  0  0  0  0  0  0  0  0
   72.2237   43.2321   57.6197 O   0  0  0  0  0  0  0  0  0  0  0  0
   69.5513   42.9317   57.4106 C   0  0  0  0  0  0  0  0  0  0  0  0
   68.9886   41.7625   58.1962 C   0  0  0  0  0  0  0  0  0  0  0  0
   66.6057   41.3823   59.7369 C   0  0  0  0  0  0  0  0  0  0  0  0
   67.7331   42.2516   60.2128 C   0  0  0  0  0  0  0  0  0  0  0  0
   67.8348   42.0278   61.7274 C   0  0  0  0  0  0  0  0  0  0  0  0
   68.9088   48.2014   56.3414 C   0  0  0  0  0  0  0  0  0  0  0  0
   69.3009   48.3409   54.9174 C   0  0  0  0  0  0  0  0  0  0  0  0
   70.1737   49.3142   54.5391 N   0  0  0  0  0  0  0  0  0  0  0  0
   70.5407   49.4432   53.2767 N   0  0  0  0  0  0  0  0  0  0  0  0
   70.1042   48.6559   52.2801 C   0  0  0  0  0  0  0  0  0  0  0  0
   70.5010   48.8367   51.0807 O   0  0  0  0  0  0  0  0  0  0  0  0
   69.2217   47.6552   52.5972 C   0  0  0  0  0  0  0  0  0  0  0  0
   68.7692   46.8527   51.5778 C   0  0  0  0  0  0  0  0  0  0  0  0
   67.8798   45.8584   51.9094 C   0  0  0  0  0  0  0  0  0  0  0  0
   67.4665   45.6863   53.2245 C   0  0  0  0  0  0  0  0  0  0  0  0
   67.9385   46.5080   54.2281 C   0  0  0  0  0  0  0  0  0  0  0  0
   68.8287   47.5090   53.9143 C   0  0  0  0  0  0  0  0  0  0  0  0
 15 16  1  0
 16 17  1  0
 16  8  1  0
  8  9  1  0
  8 14  1  0
  9 10  1  0
 10 11  1  0
 11 12  2  0
 11  1  1  0
 11 13  1  0
  1  2  2  0
  1  6  1  0
  2  3  1  0
  3 18  1  0
  3  4  2  0
 18 19  1  0
 19 20  2  0
 19 29  1  0
 20 21  1  0
 21 22  1  0
 22 23  2  0
 22 24  1  0
 24 25  1  0
 24 29  2  0
 25 26  2  0
 26 27  1  0
 27 28  2  0
 28 29  1  0
  4  5  1  0
  5  6  2  0
  6  7  1  0
 13 14  1  0
M  CHG  1   8   1
M  END
>  <minimizedAffinity>  (519) 
-8.71341

$$$$
cs_full_output_folder/data/smiles/2026.pdb
     RDKit          3D

 29 31  0  0  0  0  0  0  0  0999 V2000
   70.8379   43.5435   57.6684 C   0  0  0  0  0  0  0  0  0  0  0  0
   69.6697   43.7000   56.9273 C   0  0  0  0  0  0  0  0  0  0  0  0
   69.1384   44.9506   56.7121 C   0  0  0  0  0  0  0  0  0  0  0  0
   69.7210   46.0980   57.2091 C   0  0  0  0  0  0  0  0  0  0  0  0
   70.8776   45.9576   57.9450 C   0  0  0  0  0  0  0  0  0  0  0  0
   71.4152   44.6885   58.1621 C   0  0  0  0  0  0  0  0  0  0  0  0
   72.6149   42.0079   57.6440 O   0  0  0  0  0  0  0  0  0  0  0  0
   71.3713   42.2022   57.8756 C   0  0  0  0  0  0  0  0  0  0  0  0
   70.5471   41.1333   58.3215 N   0  0  0  0  0  0  0  0  0  0  0  0
   71.2015   39.8855   58.4792 N   0  0  0  0  0  0  0  0  0  0  0  0
   70.5437   38.6473   58.3914 C   0  0  0  0  0  0  0  0  0  0  0  0
   69.3017   38.6800   58.1582 O   0  0  0  0  0  0  0  0  0  0  0  0
   71.1857   37.3469   58.5482 C   0  0  0  0  0  0  0  0  0  0  0  0
   72.1923   36.9083   57.7142 C   0  0  0  0  0  0  0  0  0  0  0  0
   72.7856   35.6557   57.8937 C   0  0  0  0  0  0  0  0  0  0  0  0
   72.3904   34.8111   58.9085 C   0  0  0  0  0  0  0  0  0  0  0  0
   71.3833   35.2511   59.7416 C   0  0  0  0  0  0  0  0  0  0  0  0
   70.8025   36.4884   59.5592 C   0  0  0  0  0  0  0  0  0  0  0  0
   69.7802   36.9236   60.4129 O   0  0  0  0  0  0  0  0  0  0  0  0
   69.0130   47.6853   56.9146 S   0  0  0  0  0  0  0  0  0  0  0  0
   69.5620   48.6269   57.9228 O   0  0  0  0  0  0  0  0  0  0  0  0
   67.5183   47.6044   56.9727 O   0  0  0  0  0  0  0  0  0  0  0  0
   69.5317   48.1838   55.3236 N   0  0  0  0  0  0  0  0  0  0  0  0
   69.0428   47.5347   54.1720 C   0  0  0  0  0  0  0  0  0  0  0  0
   68.0454   46.5897   54.1914 C   0  0  0  0  0  0  0  0  0  0  0  0
   67.5974   45.9779   53.0254 C   0  0  0  0  0  0  0  0  0  0  0  0
   68.1586   46.3197   51.8162 C   0  0  0  0  0  0  0  0  0  0  0  0
   69.1651   47.2731   51.7839 C   0  0  0  0  0  0  0  0  0  0  0  0
   69.5905   47.8626   52.9559 C   0  0  0  0  0  0  0  0  0  0  0  0
  7  8  2  0
  8  9  1  0
  8  1  1  0
  9 10  1  0
 10 11  1  0
 11 12  2  0
 11 13  1  0
 13 14  2  0
 13 18  1  0
 14 15  1  0
 15 16  2  0
 16 17  1  0
 17 18  2  0
 18 19  1  0
  1  2  2  0
  1  6  1  0
  2  3  1  0
  3  4  2  0
  4 20  1  0
  4  5  1  0
 20 21  2  0
 20 22  2  0
 20 23  1  0
 23 24  1  0
 24 25  2  0
 24 29  1  0
 25 26  1  0
 26 27  2  0
 27 28  1  0
 28 29  2  0
  5  6  2  0
M  END
>  <minimizedAffinity>  (520) 
-8.71214

$$$$
cs_full_output_folder/data/smiles/2993.pdb
     RDKit          3D

 28 30  0  0  0  0  0  0  0  0999 V2000
   66.4785   41.3514   55.2917 C   0  0  0  0  0  0  0  0  0  0  0  0
   67.5854   41.5034   56.2687 C   0  0  0  0  0  0  0  0  0  0  0  0
   68.0669   42.7492   56.5849 C   0  0  0  0  0  0  0  0  0  0  0  0
   69.1166   42.9391   57.5068 C   0  0  0  0  0  0  0  0  0  0  0  0
   69.6464   41.8080   58.0863 C   0  0  0  0  0  0  0  0  0  0  0  0
   70.6408   41.9596   58.9946 F   0  0  0  0  0  0  0  0  0  0  0  0
   69.2059   40.5362   57.8078 C   0  0  0  0  0  0  0  0  0  0  0  0
   68.1606   40.4278   56.8813 C   0  0  0  0  0  0  0  0  0  0  0  0
   69.7164   39.3082   58.3801 C   0  0  0  0  0  0  0  0  0  0  0  0
   69.0820   38.5381   59.3054 C   0  0  0  0  0  0  0  0  0  0  0  0
   69.6197   37.3525   59.8353 C   0  0  0  0  0  0  0  0  0  0  0  0
   70.8509   36.9400   59.4012 C   0  0  0  0  0  0  0  0  0  0  0  0
   71.4903   37.7210   58.4638 C   0  0  0  0  0  0  0  0  0  0  0  0
   70.9429   38.8403   57.9881 N   0  0  0  0  0  0  0  0  0  0  0  0
   69.5551   44.2932   57.7463 C   0  0  0  0  0  0  0  0  0  0  0  0
   69.9182   44.6496   58.9294 O   0  0  0  0  0  0  0  0  0  0  0  0
   69.6025   45.2647   56.7252 N   0  0  0  0  0  0  0  0  0  0  0  0
   70.0518   46.5780   57.0474 N   0  0  0  0  0  0  0  0  0  0  0  0
   68.8942   47.6573   56.3304 S   0  0  0  0  0  0  0  0  0  0  0  0
   69.1914   49.0811   56.7208 O   0  0  0  0  0  0  0  0  0  0  0  0
   67.5034   47.3250   56.7916 O   0  0  0  0  0  0  0  0  0  0  0  0
   68.9540   47.4547   54.5890 C   0  0  0  0  0  0  0  0  0  0  0  0
   69.5912   48.3573   53.7848 C   0  0  0  0  0  0  0  0  0  0  0  0
   69.6362   48.1946   52.4117 C   0  0  0  0  0  0  0  0  0  0  0  0
   69.0332   47.1096   51.8412 C   0  0  0  0  0  0  0  0  0  0  0  0
   68.3860   46.1905   52.6410 C   0  0  0  0  0  0  0  0  0  0  0  0
   68.3453   46.3595   54.0129 C   0  0  0  0  0  0  0  0  0  0  0  0
   67.7067   45.4433   54.7557 F   0  0  0  0  0  0  0  0  0  0  0  0
  1  2  1  0
  2  3  2  0
  2  8  1  0
  3  4  1  0
  4 15  1  0
  4  5  2  0
 15 16  2  0
 15 17  1  0
 17 18  1  0
 18 19  1  0
 19 20  2  0
 19 21  2  0
 19 22  1  0
 22 23  2  0
 22 27  1  0
 23 24  1  0
 24 25  2  0
 25 26  1  0
 26 27  2  0
 27 28  1  0
  5  6  1  0
  5  7  1  0
  7  9  1  0
  7  8  2  0
  9 10  2  0
  9 14  1  0
 10 11  1  0
 11 12  2  0
 12 13  1  0
 13 14  2  0
M  END
>  <minimizedAffinity>  (521) 
-8.70929

$$$$
cs_full_output_folder/data/smiles/4867.pdb
     RDKit          3D

 22 24  0  0  0  0  0  0  0  0999 V2000
   70.4682   48.7570   50.9495 O   0  0  0  0  0  0  0  0  0  0  0  0
   70.2699   48.6926   52.1860 C   0  0  0  0  0  0  0  0  0  0  0  0
   70.8988   49.5551   52.9908 N   0  0  0  0  0  0  0  0  0  0  0  0
   70.7038   49.4978   54.2731 N   0  0  0  0  0  0  0  0  0  0  0  0
   69.8785   48.5924   54.8989 C   0  0  0  0  0  0  0  0  0  0  0  0
   69.2430   47.7255   54.0759 C   0  0  0  0  0  0  0  0  0  0  0  0
   68.3625   46.8147   54.5872 C   0  0  0  0  0  0  0  0  0  0  0  0
   67.6430   45.9165   53.8399 C   0  0  0  0  0  0  0  0  0  0  0  0
   67.8369   45.9507   52.4673 C   0  0  0  0  0  0  0  0  0  0  0  0
   68.7171   46.8603   51.9268 C   0  0  0  0  0  0  0  0  0  0  0  0
   69.4147   47.7431   52.7062 C   0  0  0  0  0  0  0  0  0  0  0  0
   69.8998   48.5994   56.3342 C   0  0  0  0  0  0  0  0  0  0  0  0
   68.7424   49.3549   56.8659 C   0  0  0  0  0  0  0  0  0  0  0  0
   67.7194   48.5698   57.4431 C   0  0  0  0  0  0  0  0  0  0  0  0
   66.5570   49.1057   57.9293 C   0  0  0  0  0  0  0  0  0  0  0  0
   66.3754   50.4622   57.8543 C   0  0  0  0  0  0  0  0  0  0  0  0
   67.3302   51.2542   57.3106 C   0  0  0  0  0  0  0  0  0  0  0  0
   68.5306   50.6988   56.8090 C   0  0  0  0  0  0  0  0  0  0  0  0
   69.4365   51.5105   56.3006 O   0  0  0  0  0  0  0  0  0  0  0  0
   69.9591   52.6107   55.8279 C   0  0  0  0  0  0  0  0  0  0  0  0
   71.4219   52.8680   55.7212 C   0  0  0  0  0  0  0  0  0  0  0  0
   72.4411   53.4692   57.4512 I   0  0  0  0  0  0  0  0  0  0  0  0
  1  2  2  0
  2  3  1  0
  2 11  1  0
  3  4  1  0
  4  5  2  0
  5 12  1  0
  5  6  1  0
 12 13  1  0
 13 14  2  0
 13 18  1  0
 14 15  1  0
 15 16  2  0
 16 17  1  0
 17 18  2  0
 18 19  1  0
 19 20  1  0
 20 21  1  0
 21 22  1  0
  6  7  1  0
  6 11  2  0
  7  8  2  0
  8  9  1  0
  9 10  2  0
 10 11  1  0
M  END
>  <minimizedAffinity>  (522) 
-8.70916

$$$$
cs_full_output_folder/data/smiles/8909.pdb
     RDKit          3D

 30 33  0  0  0  0  0  0  0  0999 V2000
   71.8802   50.8762   54.4524 C   0  0  0  0  0  0  0  0  0  0  0  0
   71.2879   49.7508   53.9335 N   0  0  0  0  0  0  0  0  0  0  0  0
   69.9961   49.5295   53.9916 N   0  0  0  0  0  0  0  0  0  0  0  0
   69.2240   50.4566   54.5910 C   0  0  0  0  0  0  0  0  0  0  0  0
   67.9775   50.2644   54.6592 O   0  0  0  0  0  0  0  0  0  0  0  0
   69.7421   51.6083   55.1345 C   0  0  0  0  0  0  0  0  0  0  0  0
   68.9510   52.5533   55.7460 C   0  0  0  0  0  0  0  0  0  0  0  0
   69.5033   53.6965   56.2804 C   0  0  0  0  0  0  0  0  0  0  0  0
   70.8539   53.9343   56.2223 C   0  0  0  0  0  0  0  0  0  0  0  0
   71.6521   52.9873   55.6078 C   0  0  0  0  0  0  0  0  0  0  0  0
   71.1049   51.8207   55.0615 C   0  0  0  0  0  0  0  0  0  0  0  0
   69.3796   48.3698   53.4575 C   0  0  0  0  0  0  0  0  0  0  0  0
   68.7624   47.4749   54.3023 C   0  0  0  0  0  0  0  0  0  0  0  0
   68.1448   46.3325   53.8624 C   0  0  0  0  0  0  0  0  0  0  0  0
   68.1278   46.0443   52.5260 C   0  0  0  0  0  0  0  0  0  0  0  0
   68.7347   46.9139   51.6433 C   0  0  0  0  0  0  0  0  0  0  0  0
   69.3620   48.0782   52.1118 C   0  0  0  0  0  0  0  0  0  0  0  0
   74.1892   50.1411   55.0916 N   0  0  0  0  0  0  0  0  0  0  0  0
   73.3184   51.0193   54.3316 C   0  0  0  0  0  0  0  0  0  0  0  0
   73.9293   51.8313   53.6319 O   0  0  0  0  0  0  0  0  0  0  0  0
   75.7532   49.2262   57.1102 O   0  0  0  0  0  0  0  0  0  0  0  0
   76.3494   49.7184   56.1171 C   0  0  0  0  0  0  0  0  0  0  0  0
   75.5773   50.2131   55.0324 N   0  0  0  0  0  0  0  0  0  0  0  0
   77.8076   49.7628   56.1219 C   0  0  0  0  0  0  0  0  0  0  0  0
   78.4705   50.9550   56.3246 C   0  0  0  0  0  0  0  0  0  0  0  0
   79.8394   51.0586   56.3404 C   0  0  0  0  0  0  0  0  0  0  0  0
   80.6215   49.9411   56.1489 C   0  0  0  0  0  0  0  0  0  0  0  0
   79.9848   48.7359   55.9436 C   0  0  0  0  0  0  0  0  0  0  0  0
   80.7579   47.6353   55.7555 F   0  0  0  0  0  0  0  0  0  0  0  0
   78.5925   48.6487   55.9306 C   0  0  0  0  0  0  0  0  0  0  0  0
 21 22  2  0
 22 23  1  0
 22 24  1  0
 23 18  1  0
 18 19  1  0
 19 20  2  0
 19  1  1  0
  1  2  2  0
  1 11  1  0
  2  3  1  0
  3 12  1  0
  3  4  1  0
 12 13  2  0
 12 17  1  0
 13 14  1  0
 14 15  2  0
 15 16  1  0
 16 17  2  0
  4  5  2  0
  4  6  1  0
  6  7  1  0
  6 11  2  0
  7  8  2  0
  8  9  1  0
  9 10  2  0
 10 11  1  0
 24 25  2  0
 24 30  1  0
 25 26  1  0
 26 27  2  0
 27 28  1  0
 28 29  1  0
 28 30  2  0
M  END
>  <minimizedAffinity>  (523) 
-8.70574

$$$$
cs_full_output_folder/data/smiles/2858.pdb
     RDKit          3D

 29 31  0  0  0  0  0  0  0  0999 V2000
   67.7957   45.6200   53.0874 C   0  0  0  0  0  0  0  0  0  0  0  0
   68.5560   46.8968   53.3132 C   0  0  0  0  0  0  0  0  0  0  0  0
   69.0215   47.6350   52.2458 C   0  0  0  0  0  0  0  0  0  0  0  0
   69.7198   48.8126   52.4057 C   0  0  0  0  0  0  0  0  0  0  0  0
   69.9569   49.2576   53.6979 C   0  0  0  0  0  0  0  0  0  0  0  0
   69.4853   48.5090   54.7575 C   0  0  0  0  0  0  0  0  0  0  0  0
   68.7860   47.3316   54.6043 C   0  0  0  0  0  0  0  0  0  0  0  0
   70.8391   50.7465   53.9179 S   0  0  0  0  0  0  0  0  0  0  0  0
   70.4613   51.6964   52.8273 O   0  0  0  0  0  0  0  0  0  0  0  0
   72.3138   50.4015   53.8787 O   0  0  0  0  0  0  0  0  0  0  0  0
   70.5206   51.4329   55.4619 N   0  0  0  0  0  0  0  0  0  0  0  0
   69.4649   52.3989   55.4614 C   0  0  0  0  0  0  0  0  0  0  0  0
   69.7194   53.5301   56.4429 C   0  0  0  0  0  0  0  0  0  0  0  0
   70.8478   54.2662   56.0812 O   0  0  0  0  0  0  0  0  0  0  0  0
   71.8990   53.4642   55.6803 C   0  0  0  0  0  0  0  0  0  0  0  0
   71.7102   52.0055   56.0310 C   0  0  0  0  0  0  0  0  0  0  0  0
   68.3256   46.6022   55.7813 C   0  0  0  0  0  0  0  0  0  0  0  0
   67.5786   47.1450   56.6475 O   0  0  0  0  0  0  0  0  0  0  0  0
   68.6893   45.2689   56.0034 N   0  0  0  0  0  0  0  0  0  0  0  0
   69.5089   44.8107   56.8567 C   0  0  0  0  0  0  0  0  0  0  0  0
   69.7309   43.4004   56.9105 N   0  0  0  0  0  0  0  0  0  0  0  0
   69.5453   42.7025   58.1302 C   0  0  0  0  0  0  0  0  0  0  0  0
   69.1845   43.3848   59.1326 O   0  0  0  0  0  0  0  0  0  0  0  0
   69.7463   41.2660   58.2771 C   0  0  0  0  0  0  0  0  0  0  0  0
   70.9766   40.6671   58.4105 C   0  0  0  0  0  0  0  0  0  0  0  0
   71.1043   39.2886   58.5446 C   0  0  0  0  0  0  0  0  0  0  0  0
   70.0069   38.4637   58.5497 C   0  0  0  0  0  0  0  0  0  0  0  0
   68.7682   39.0515   58.4168 C   0  0  0  0  0  0  0  0  0  0  0  0
   68.6494   40.4192   58.2838 C   0  0  0  0  0  0  0  0  0  0  0  0
  1  2  1  0
  2  3  2  0
  2  7  1  0
  3  4  1  0
  4  5  2  0
  5  8  1  0
  5  6  1  0
  8  9  2  0
  8 10  2  0
  8 11  1  0
 11 12  1  0
 11 16  1  0
 12 13  1  0
 13 14  1  0
 14 15  1  0
 15 16  1  0
  6  7  2  0
  7 17  1  0
 17 18  2  0
 17 19  1  0
 19 20  2  0
 20 21  1  0
 21 22  1  0
 22 23  2  0
 22 24  1  0
 24 25  2  0
 24 29  1  0
 25 26  1  0
 26 27  2  0
 27 28  1  0
 28 29  2  0
M  END
>  <minimizedAffinity>  (524) 
-8.70484

$$$$
cs_full_output_folder/data/smiles/1945.pdb
     RDKit          3D

 26 28  0  0  0  0  0  0  0  0999 V2000
   68.2411   40.7906   57.2194 C   0  0  0  0  0  0  0  0  0  0  0  0
   69.4993   41.4900   57.5707 C   0  0  0  0  0  0  0  0  0  0  0  0
   69.7582   42.8108   57.2748 C   0  0  0  0  0  0  0  0  0  0  0  0
   71.0213   43.0499   57.7724 C   0  0  0  0  0  0  0  0  0  0  0  0
   71.4623   41.8978   58.3312 N   0  0  0  0  0  0  0  0  0  0  0  0
   70.5487   40.9475   58.2147 N   0  0  0  0  0  0  0  0  0  0  0  0
   70.6205   39.5920   58.6700 C   0  0  0  0  0  0  0  0  0  0  0  0
   69.9237   39.1928   59.7906 C   0  0  0  0  0  0  0  0  0  0  0  0
   69.9837   37.8832   60.2426 C   0  0  0  0  0  0  0  0  0  0  0  0
   70.7402   36.9309   59.5927 C   0  0  0  0  0  0  0  0  0  0  0  0
   70.8067   35.1287   60.2378 Br  0  0  0  0  0  0  0  0  0  0  0  0
   71.4400   37.3226   58.4710 C   0  0  0  0  0  0  0  0  0  0  0  0
   71.3772   38.6382   58.0199 C   0  0  0  0  0  0  0  0  0  0  0  0
   68.8756   43.7626   56.5777 C   0  0  0  0  0  0  0  0  0  0  0  0
   67.7234   43.4552   56.2537 O   0  0  0  0  0  0  0  0  0  0  0  0
   69.3327   45.0284   56.2729 O   0  0  0  0  0  0  0  0  0  0  0  0
   68.4676   46.1077   55.9676 C   0  0  0  0  0  0  0  0  0  0  0  0
   68.5565   46.4298   54.5195 C   0  0  0  0  0  0  0  0  0  0  0  0
   67.8424   45.6798   53.5813 C   0  0  0  0  0  0  0  0  0  0  0  0
   67.9176   45.9701   52.2303 C   0  0  0  0  0  0  0  0  0  0  0  0
   68.6944   47.0059   51.7593 C   0  0  0  0  0  0  0  0  0  0  0  0
   69.4102   47.7603   52.6796 C   0  0  0  0  0  0  0  0  0  0  0  0
   69.3262   47.4584   54.0277 C   0  0  0  0  0  0  0  0  0  0  0  0
   70.2270   48.8492   52.1765 C   0  0  0  0  0  0  0  0  0  0  0  0
   69.7858   49.5781   51.0554 N   0  0  0  0  0  0  0  0  0  0  0  0
   71.3008   49.1255   52.7353 O   0  0  0  0  0  0  0  0  0  0  0  0
  1  2  1  0
  2  3  2  0
  2  6  1  0
  3 14  1  0
  3  4  1  0
 14 15  2  0
 14 16  1  0
 16 17  1  0
 17 18  1  0
 18 19  2  0
 18 23  1  0
 19 20  1  0
 20 21  2  0
 21 22  1  0
 22 24  1  0
 22 23  2  0
 24 25  1  0
 24 26  2  0
  4  5  2  0
  5  6  1  0
  6  7  1  0
  7  8  2  0
  7 13  1  0
  8  9  1  0
  9 10  2  0
 10 11  1  0
 10 12  1  0
 12 13  2  0
M  END
>  <minimizedAffinity>  (525) 
-8.70381

$$$$
cs_full_output_folder/data/smiles/4465.pdb
     RDKit          3D

 30 33  0  0  0  0  0  0  0  0999 V2000
   71.3614   46.5475   58.8746 C   0  0  0  0  0  0  0  0  0  0  0  0
   70.5185   47.3698   58.1693 C   0  0  0  0  0  0  0  0  0  0  0  0
   69.6314   46.8520   57.2017 C   0  0  0  0  0  0  0  0  0  0  0  0
   69.5815   45.5195   56.9365 C   0  0  0  0  0  0  0  0  0  0  0  0
   70.4408   44.6756   57.6546 C   0  0  0  0  0  0  0  0  0  0  0  0
   71.3068   45.1898   58.6005 C   0  0  0  0  0  0  0  0  0  0  0  0
   76.8419   47.5078   61.4411 C   0  0  0  0  0  0  0  0  0  0  0  0
   75.9225   47.2919   60.2568 C   0  0  2  0  0  0  0  0  0  0  0  0
   75.8262   45.9543   59.9257 F   0  0  0  0  0  0  0  0  0  0  0  0
   76.3882   48.0393   59.0354 C   0  0  0  0  0  0  0  0  0  0  0  0
   75.3229   48.1466   57.9925 C   0  0  0  0  0  0  0  0  0  0  0  0
   74.1164   47.2709   58.2427 C   0  0  0  0  0  0  0  0  0  0  0  0
   73.6336   47.3922   59.6133 N   0  0  0  0  0  0  0  0  0  0  0  0
   72.2899   47.0341   59.8824 C   0  0  0  0  0  0  0  0  0  0  0  0
   71.8415   47.1348   61.0692 O   0  0  0  0  0  0  0  0  0  0  0  0
   74.5477   47.8670   60.6083 C   0  0  0  0  0  0  0  0  0  0  0  0
   72.2102   44.2867   59.3460 C   0  0  0  0  0  0  0  0  0  0  0  0
   73.1340   43.7436   58.4731 F   0  0  0  0  0  0  0  0  0  0  0  0
   68.7658   47.8411   56.5212 C   0  0  0  0  0  0  0  0  0  0  0  0
   69.2369   48.1007   55.1306 C   0  0  0  0  0  0  0  0  0  0  0  0
   70.2079   49.0442   54.9242 N   0  0  0  0  0  0  0  0  0  0  0  0
   70.7103   49.2769   53.7294 N   0  0  0  0  0  0  0  0  0  0  0  0
   70.3119   48.6129   52.6313 C   0  0  0  0  0  0  0  0  0  0  0  0
   70.8515   48.9054   51.5342 O   0  0  0  0  0  0  0  0  0  0  0  0
   69.3363   47.6441   52.7428 C   0  0  0  0  0  0  0  0  0  0  0  0
   68.9077   46.9697   51.6253 C   0  0  0  0  0  0  0  0  0  0  0  0
   67.9226   46.0159   51.7272 C   0  0  0  0  0  0  0  0  0  0  0  0
   67.4035   45.7858   52.9893 C   0  0  0  0  0  0  0  0  0  0  0  0
   67.8400   46.4725   54.1209 C   0  0  0  0  0  0  0  0  0  0  0  0
   68.8183   47.4142   54.0177 C   0  0  0  0  0  0  0  0  0  0  0  0
  8  7  1  1
  8  9  1  0
  8 10  1  0
  8 16  1  0
 10 11  1  0
 11 12  1  0
 12 13  1  0
 13 14  1  0
 13 16  1  0
 14 15  2  0
 14  1  1  0
  1  2  2  0
  1  6  1  0
  2  3  1  0
  3 19  1  0
  3  4  2  0
 19 20  1  0
 20 21  2  0
 20 30  1  0
 21 22  1  0
 22 23  1  0
 23 24  2  0
 23 25  1  0
 25 26  1  0
 25 30  2  0
 26 27  2  0
 27 28  1  0
 28 29  2  0
 29 30  1  0
  4  5  1  0
  5  6  2  0
  6 17  1  0
 17 18  1  0
M  END
>  <minimizedAffinity>  (526) 
-8.70186

$$$$
cs_full_output_folder/data/smiles/641.pdb
     RDKit          3D

 30 32  0  0  0  0  0  0  0  0999 V2000
   67.7706   45.8017   52.6971 C   0  0  0  0  0  0  0  0  0  0  0  0
   68.6306   46.9797   53.0689 C   0  0  0  0  0  0  0  0  0  0  0  0
   69.1021   47.8538   52.1213 C   0  0  0  0  0  0  0  0  0  0  0  0
   69.8972   48.9333   52.4671 C   0  0  0  0  0  0  0  0  0  0  0  0
   70.2504   49.1757   53.7782 C   0  0  0  0  0  0  0  0  0  0  0  0
   69.7722   48.2913   54.7185 C   0  0  0  0  0  0  0  0  0  0  0  0
   68.9800   47.2154   54.3839 C   0  0  0  0  0  0  0  0  0  0  0  0
   71.2614   50.5568   54.1850 S   0  0  0  0  0  0  0  0  0  0  0  0
   70.8390   51.6864   53.3125 O   0  0  0  0  0  0  0  0  0  0  0  0
   72.7188   50.2488   53.9955 O   0  0  0  0  0  0  0  0  0  0  0  0
   71.0122   51.0027   55.8354 N   0  0  0  0  0  0  0  0  0  0  0  0
   69.7161   50.8772   56.4436 C   0  0  0  0  0  0  0  0  0  0  0  0
   68.6490   51.6375   56.0338 C   0  0  0  0  0  0  0  0  0  0  0  0
   67.4084   51.5092   56.6332 C   0  0  0  0  0  0  0  0  0  0  0  0
   67.3017   50.5906   57.6476 C   0  0  0  0  0  0  0  0  0  0  0  0
   68.3695   49.8082   58.0793 C   0  0  0  0  0  0  0  0  0  0  0  0
   69.5818   49.9639   57.4619 C   0  0  0  0  0  0  0  0  0  0  0  0
   68.4888   46.3025   55.4124 C   0  0  0  0  0  0  0  0  0  0  0  0
   67.7099   46.7230   56.3224 O   0  0  0  0  0  0  0  0  0  0  0  0
   68.8441   44.9281   55.4534 N   0  0  0  0  0  0  0  0  0  0  0  0
   68.3217   44.1209   56.4796 N   0  0  0  0  0  0  0  0  0  0  0  0
   69.0678   43.1195   57.1317 C   0  0  0  0  0  0  0  0  0  0  0  0
   70.2679   43.0061   56.7062 O   0  0  0  0  0  0  0  0  0  0  0  0
   68.6198   42.2430   58.1935 C   0  0  0  0  0  0  0  0  0  0  0  0
   68.1591   40.9736   57.8249 C   0  0  0  0  0  0  0  0  0  0  0  0
   67.7079   40.0562   58.7409 C   0  0  0  0  0  0  0  0  0  0  0  0
   67.6825   40.3355   60.0718 C   0  0  0  0  0  0  0  0  0  0  0  0
   68.1363   41.5908   60.4644 C   0  0  0  0  0  0  0  0  0  0  0  0
   68.5910   42.5108   59.5214 C   0  0  0  0  0  0  0  0  0  0  0  0
   69.0131   43.7109   59.9996 O   0  0  0  0  0  0  0  0  0  0  0  0
  1  2  1  0
  2  3  2  0
  2  7  1  0
  3  4  1  0
  4  5  2  0
  5  8  1  0
  5  6  1  0
  8  9  2  0
  8 10  2  0
  8 11  1  0
 11 12  1  0
 12 13  2  0
 12 17  1  0
 13 14  1  0
 14 15  2  0
 15 16  1  0
 16 17  2  0
  6  7  2  0
  7 18  1  0
 18 19  2  0
 18 20  1  0
 20 21  1  0
 21 22  1  0
 22 23  2  0
 22 24  1  0
 24 25  2  0
 24 29  1  0
 25 26  1  0
 26 27  2  0
 27 28  1  0
 28 29  2  0
 29 30  1  0
M  END
>  <minimizedAffinity>  (527) 
-8.69651

$$$$
cs_full_output_folder/data/smiles/814.pdb
     RDKit          3D

 29 30  0  0  0  0  0  0  0  0999 V2000
   70.9897   44.5508   59.1748 C   0  0  0  0  0  0  0  0  0  0  0  0
   72.2617   45.5075   59.6406 S   0  0  0  0  0  0  0  0  0  0  0  0
   71.0756   42.2018   58.2349 C   0  0  0  0  0  0  0  0  0  0  0  0
   70.7957   42.6061   57.0835 O   0  0  0  0  0  0  0  0  0  0  0  0
   71.1697   43.1641   59.2550 N   0  0  0  0  0  0  0  0  0  0  0  0
   71.8240   38.0043   58.8047 C   0  0  0  0  0  0  0  0  0  0  0  0
   70.5842   38.4508   58.4071 C   0  0  0  0  0  0  0  0  0  0  0  0
   70.3085   39.8111   58.2133 C   0  0  0  0  0  0  0  0  0  0  0  0
   71.2815   40.7655   58.4155 C   0  0  0  0  0  0  0  0  0  0  0  0
   72.5262   40.3001   58.8156 C   0  0  0  0  0  0  0  0  0  0  0  0
   72.7957   38.9612   59.0060 C   0  0  0  0  0  0  0  0  0  0  0  0
   72.1132   36.5536   59.0100 C   0  0  0  0  0  0  0  0  0  0  0  0
   73.3823   36.4763   59.8412 C   0  0  0  0  0  0  0  0  0  0  0  0
   71.0231   35.8642   59.7740 C   0  0  0  0  0  0  0  0  0  0  0  0
   73.8887   35.6398   57.5697 C   0  0  0  0  0  0  0  0  0  0  0  0
   72.4158   35.8833   57.6871 C   0  0  0  0  0  0  0  0  0  0  0  0
   69.8380   45.2441   58.7376 N   0  0  0  0  0  0  0  0  0  0  0  0
   69.8466   46.1968   57.7376 N   0  0  0  0  0  0  0  0  0  0  0  0
   69.1771   45.9656   56.5208 C   0  0  0  0  0  0  0  0  0  0  0  0
   68.5568   44.8576   56.3447 O   0  0  0  0  0  0  0  0  0  0  0  0
   69.1460   46.9248   55.4257 C   0  0  0  0  0  0  0  0  0  0  0  0
   69.4337   48.2629   55.6439 C   0  0  0  0  0  0  0  0  0  0  0  0
   69.4228   49.2189   54.6556 C   0  0  0  0  0  0  0  0  0  0  0  0
   69.1097   48.8423   53.3642 C   0  0  0  0  0  0  0  0  0  0  0  0
   68.8178   47.5199   53.1084 C   0  0  0  0  0  0  0  0  0  0  0  0
   68.8391   46.5778   54.1372 C   0  0  0  0  0  0  0  0  0  0  0  0
   68.4985   47.1534   51.7729 N   0  0  2  0  0  0  0  0  0  0  0  0
   67.7346   45.9263   51.7152 C   0  0  0  0  0  0  0  0  0  0  0  0
   69.6423   47.0500   51.0918 O   0  0  0  0  0  0  0  0  0  0  0  0
 15 16  1  0
 16 12  1  0
 12 13  1  0
 12 14  1  0
 12  6  1  0
  6  7  2  0
  6 11  1  0
  7  8  1  0
  8  9  2  0
  9  3  1  0
  9 10  1  0
  3  4  2  0
  3  5  1  0
  5  1  1  0
  1  2  2  0
  1 17  1  0
 17 18  1  0
 18 19  1  0
 19 20  2  0
 19 21  1  0
 21 22  2  0
 21 26  1  0
 22 23  1  0
 23 24  2  0
 24 25  1  0
 25 27  1  0
 25 26  2  0
 27 28  1  1
 27 29  1  0
 10 11  2  0
M  CHG  2  27   1  29  -1
M  END
>  <minimizedAffinity>  (528) 
-8.69349

$$$$
cs_full_output_folder/data/smiles/109.pdb
     RDKit          3D

 32 35  0  0  0  0  0  0  0  0999 V2000
   70.5558   44.0872   58.7929 C   0  0  0  0  0  0  0  0  0  0  0  0
   69.7552   43.2257   58.1876 C   0  0  0  0  0  0  0  0  0  0  0  0
   68.9185   43.5041   57.0771 N   0  0  0  0  0  0  0  0  0  0  0  0
   68.2049   42.3419   56.6873 C   0  0  0  0  0  0  0  0  0  0  0  0
   67.3700   42.2031   55.7463 O   0  0  0  0  0  0  0  0  0  0  0  0
   68.5826   41.2201   57.5827 C   0  0  0  0  0  0  0  0  0  0  0  0
   68.1492   39.9778   57.4959 C   0  0  0  0  0  0  0  0  0  0  0  0
   69.5486   41.8113   58.5014 C   0  0  0  0  0  0  0  0  0  0  0  0
   70.1337   41.2195   59.4312 O   0  0  0  0  0  0  0  0  0  0  0  0
   68.5911   38.9679   58.4393 C   0  0  0  0  0  0  0  0  0  0  0  0
   67.6632   38.5659   59.4169 C   0  0  0  0  0  0  0  0  0  0  0  0
   68.0440   37.6457   60.3604 C   0  0  0  0  0  0  0  0  0  0  0  0
   69.3049   37.0968   60.3878 C   0  0  0  0  0  0  0  0  0  0  0  0
   70.2338   37.4903   59.4194 C   0  0  0  0  0  0  0  0  0  0  0  0
   69.8444   38.4113   58.4806 C   0  0  0  0  0  0  0  0  0  0  0  0
   71.5437   36.9025   59.4425 C   0  0  0  0  0  0  0  0  0  0  0  0
   72.3005   37.1998   60.4106 O   0  0  0  0  0  0  0  0  0  0  0  0
   72.0836   35.9853   58.4420 C   0  0  0  0  0  0  0  0  0  0  0  0
   72.5386   36.4582   57.2405 C   0  0  0  0  0  0  0  0  0  0  0  0
   73.0462   35.5909   56.2941 C   0  0  0  0  0  0  0  0  0  0  0  0
   73.0940   34.2435   56.5667 C   0  0  0  0  0  0  0  0  0  0  0  0
   72.6431   33.7370   57.7698 C   0  0  0  0  0  0  0  0  0  0  0  0
   72.1408   34.6255   58.6974 C   0  0  0  0  0  0  0  0  0  0  0  0
   71.8223   46.2458   58.4400 C   0  0  0  0  0  0  0  0  0  0  0  0
   71.4539   47.5060   58.0261 N   0  0  0  0  0  0  0  0  0  0  0  0
   70.1373   47.4811   57.7655 C   0  0  0  0  0  0  0  0  0  0  0  0
   69.6717   46.2446   58.0036 N   0  0  0  0  0  0  0  0  0  0  0  0
   70.7105   45.4625   58.4258 C   0  0  0  0  0  0  0  0  0  0  0  0
   73.4664   45.6716   60.2455 C   0  0  0  0  0  0  0  0  0  0  0  0
   73.1924   45.8949   58.7862 C   0  0  0  0  0  0  0  0  0  0  0  0
   73.6951   44.6816   58.0226 C   0  0  0  0  0  0  0  0  0  0  0  0
   74.1131   47.0594   58.3785 C   0  0  0  0  0  0  0  0  0  0  0  0
 29 30  1  0
 30 31  1  0
 30 32  1  0
 30 24  1  0
 24 25  1  0
 24 28  2  0
 25 26  1  0
 26 27  2  0
 27 28  1  0
 28  1  1  0
  1  2  2  0
  2  3  1  0
  2  8  1  0
  3  4  1  0
  4  5  2  0
  4  6  1  0
  6  7  2  0
  6  8  1  0
  7 10  1  0
 10 11  2  0
 10 15  1  0
 11 12  1  0
 12 13  2  0
 13 14  1  0
 14 16  1  0
 14 15  2  0
 16 17  2  0
 16 18  1  0
 18 19  2  0
 18 23  1  0
 19 20  1  0
 20 21  2  0
 21 22  1  0
 22 23  2  0
  8  9  2  0
M  CHG  1  27   1
M  END
>  <minimizedAffinity>  (529) 
-8.69218

$$$$
cs_full_output_folder/data/smiles/1652.pdb
     RDKit          3D

 30 32  0  0  0  0  0  0  0  0999 V2000
   70.4648   47.5550   57.6265 C   0  0  0  0  0  0  0  0  0  0  0  0
   71.0409   48.1496   58.7395 C   0  0  0  0  0  0  0  0  0  0  0  0
   71.5702   49.4167   58.6566 C   0  0  0  0  0  0  0  0  0  0  0  0
   71.5333   50.1148   57.4506 C   0  0  0  0  0  0  0  0  0  0  0  0
   70.9725   49.5573   56.3353 C   0  0  0  0  0  0  0  0  0  0  0  0
   70.4468   48.2680   56.4657 C   0  0  0  0  0  0  0  0  0  0  0  0
   69.1408   45.7246   56.8773 O   0  0  0  0  0  0  0  0  0  0  0  0
   69.9161   46.2156   57.7668 C   0  0  0  0  0  0  0  0  0  0  0  0
   70.1847   45.3647   58.8681 N   0  0  0  0  0  0  0  0  0  0  0  0
   69.6664   44.0785   59.0129 N   0  0  0  0  0  0  0  0  0  0  0  0
   70.1653   42.9597   58.2845 C   0  0  0  0  0  0  0  0  0  0  0  0
   71.1129   43.1454   57.4795 O   0  0  0  0  0  0  0  0  0  0  0  0
   69.6441   41.6050   58.4158 C   0  0  0  0  0  0  0  0  0  0  0  0
   70.1247   40.6852   59.3227 C   0  0  0  0  0  0  0  0  0  0  0  0
   69.6004   39.4083   59.4135 C   0  0  0  0  0  0  0  0  0  0  0  0
   68.5688   38.9987   58.5944 C   0  0  0  0  0  0  0  0  0  0  0  0
   68.0837   39.9151   57.6855 C   0  0  0  0  0  0  0  0  0  0  0  0
   68.6082   41.1951   57.5939 C   0  0  0  0  0  0  0  0  0  0  0  0
   67.9775   42.3485   56.4281 Cl  0  0  0  0  0  0  0  0  0  0  0  0
   70.8706   50.3629   54.7770 S   0  0  0  0  0  0  0  0  0  0  0  0
   72.0514   49.9426   53.9845 O   0  0  0  0  0  0  0  0  0  0  0  0
   70.9821   51.8432   55.0066 O   0  0  0  0  0  0  0  0  0  0  0  0
   69.4301   49.9312   53.9729 N   0  0  0  0  0  0  0  0  0  0  0  0
   69.1131   48.6382   53.4797 C   0  0  0  0  0  0  0  0  0  0  0  0
   68.3339   47.7380   54.1846 C   0  0  0  0  0  0  0  0  0  0  0  0
   68.0175   46.4735   53.6979 C   0  0  0  0  0  0  0  0  0  0  0  0
   68.4987   46.0890   52.4549 C   0  0  0  0  0  0  0  0  0  0  0  0
   69.2793   46.9657   51.7248 C   0  0  0  0  0  0  0  0  0  0  0  0
   69.5710   48.2104   52.2406 C   0  0  0  0  0  0  0  0  0  0  0  0
   70.3349   49.0650   51.5241 F   0  0  0  0  0  0  0  0  0  0  0  0
  7  8  2  0
  8  9  1  0
  8  1  1  0
  9 10  1  0
 10 11  1  0
 11 12  2  0
 11 13  1  0
 13 14  2  0
 13 18  1  0
 14 15  1  0
 15 16  2  0
 16 17  1  0
 17 18  2  0
 18 19  1  0
  1  2  2  0
  1  6  1  0
  2  3  1  0
  3  4  2  0
  4  5  1  0
  5 20  1  0
  5  6  2  0
 20 21  2  0
 20 22  2  0
 20 23  1  0
 23 24  1  0
 24 25  2  0
 24 29  1  0
 25 26  1  0
 26 27  2  0
 27 28  1  0
 28 29  2  0
 29 30  1  0
M  END
>  <minimizedAffinity>  (530) 
-8.68849

$$$$
cs_full_output_folder/data/smiles/8747.pdb
     RDKit          3D

 30 33  0  0  0  0  0  0  0  0999 V2000
   72.3504   47.9932   58.5610 C   0  0  0  0  0  0  0  0  0  0  0  0
   71.3305   48.5682   57.8172 C   0  0  0  0  0  0  0  0  0  0  0  0
   71.5377   49.4730   56.8087 C   0  0  0  0  0  0  0  0  0  0  0  0
   72.8348   49.8325   56.5149 C   0  0  0  0  0  0  0  0  0  0  0  0
   73.9019   49.2850   57.2334 C   0  0  0  0  0  0  0  0  0  0  0  0
   73.6364   48.3785   58.2386 C   0  0  0  0  0  0  0  0  0  0  0  0
   74.6690   47.8455   58.9366 F   0  0  0  0  0  0  0  0  0  0  0  0
   70.8875   43.8873   58.5271 C   0  0  0  0  0  0  0  0  0  0  0  0
   71.3628   43.4939   59.9079 C   0  0  0  0  0  0  0  0  0  0  0  0
   72.1066   44.6729   60.4933 C   0  0  0  0  0  0  0  0  0  0  0  0
   72.3537   45.6483   59.4753 N   0  0  0  0  0  0  0  0  0  0  0  0
   72.0818   47.0354   59.6256 C   0  0  0  0  0  0  0  0  0  0  0  0
   71.5966   47.4073   60.7225 O   0  0  0  0  0  0  0  0  0  0  0  0
   72.9138   45.1956   58.2183 C   0  0  0  0  0  0  0  0  0  0  0  0
   72.1444   44.0195   57.6717 C   0  0  0  0  0  0  0  0  0  0  0  0
   68.7965   43.3045   57.6009 O   0  0  0  0  0  0  0  0  0  0  0  0
   69.9489   42.9290   57.9468 C   0  0  0  0  0  0  0  0  0  0  0  0
   70.2351   41.5866   57.7374 O   0  0  0  0  0  0  0  0  0  0  0  0
   70.4285   50.0784   56.0223 C   0  0  0  0  0  0  0  0  0  0  0  0
   70.3100   49.3261   54.7333 C   0  0  0  0  0  0  0  0  0  0  0  0
   71.0862   49.6270   53.6809 N   0  0  0  0  0  0  0  0  0  0  0  0
   71.0440   49.0173   52.5198 N   0  0  0  0  0  0  0  0  0  0  0  0
   70.1886   48.0202   52.3160 C   0  0  0  0  0  0  0  0  0  0  0  0
   70.1537   47.4400   51.2010 O   0  0  0  0  0  0  0  0  0  0  0  0
   69.3447   47.6483   53.3702 C   0  0  0  0  0  0  0  0  0  0  0  0
   69.4151   48.3071   54.5717 C   0  0  0  0  0  0  0  0  0  0  0  0
   68.5297   47.9123   55.6779 C   0  0  0  0  0  0  0  0  0  0  0  0
   68.5387   46.3994   55.7240 C   0  0  0  0  0  0  0  0  0  0  0  0
   68.1715   45.7488   54.4379 C   0  0  0  0  0  0  0  0  0  0  0  0
   68.3771   46.5550   53.2038 C   0  0  0  0  0  0  0  0  0  0  0  0
 16 17  2  0
 17 18  1  0
 17  8  1  0
  8  9  1  0
  8 15  1  0
  9 10  1  0
 10 11  1  0
 11 12  1  0
 11 14  1  0
 12 13  2  0
 12  1  1  0
  1  2  2  0
  1  6  1  0
  2  3  1  0
  3 19  1  0
  3  4  2  0
 19 20  1  0
 20 21  2  0
 20 26  1  0
 21 22  1  0
 22 23  1  0
 23 24  2  0
 23 25  1  0
 25 26  2  0
 25 30  1  0
 26 27  1  0
 27 28  1  0
 28 29  1  0
 29 30  1  0
  4  5  1  0
  5  6  2  0
  6  7  1  0
 14 15  1  0
M  END
>  <minimizedAffinity>  (531) 
-8.68731

$$$$
cs_full_output_folder/data/smiles/9220.pdb
     RDKit          3D

 32 36  0  0  0  0  0  0  0  0999 V2000
   71.3047   46.8052   58.8475 C   0  0  0  0  0  0  0  0  0  0  0  0
   70.7097   47.7870   58.0880 C   0  0  0  0  0  0  0  0  0  0  0  0
   69.8532   47.4992   57.0216 C   0  0  0  0  0  0  0  0  0  0  0  0
   69.6125   46.1982   56.7408 C   0  0  0  0  0  0  0  0  0  0  0  0
   70.1990   45.1854   57.4899 C   0  0  0  0  0  0  0  0  0  0  0  0
   71.0421   45.4768   58.5392 C   0  0  0  0  0  0  0  0  0  0  0  0
   71.6261   44.5121   59.2841 F   0  0  0  0  0  0  0  0  0  0  0  0
   75.7580   45.8133   59.6092 C   0  0  0  0  0  0  0  0  0  0  0  0
   75.5547   46.7446   58.4635 C   0  0  0  0  0  0  0  0  0  0  0  0
   74.1219   47.2119   58.3374 C   0  0  0  0  0  0  0  0  0  0  0  0
   73.5795   47.3437   59.6705 N   0  0  0  0  0  0  0  0  0  0  0  0
   72.2043   47.1529   59.9627 C   0  0  0  0  0  0  0  0  0  0  0  0
   71.7663   47.2730   61.1188 O   0  0  0  0  0  0  0  0  0  0  0  0
   74.5203   47.6901   60.7207 C   0  0  0  0  0  0  0  0  0  0  0  0
   75.4924   46.5465   60.8971 C   0  0  0  0  0  0  0  0  0  0  0  0
   74.1131   44.3205   60.3239 O   0  0  0  0  0  0  0  0  0  0  0  0
   74.9574   44.5665   59.4817 C   0  0  0  0  0  0  0  0  0  0  0  0
   75.1382   43.6080   58.3795 C   0  0  0  0  0  0  0  0  0  0  0  0
   74.4435   42.3018   58.3568 C   0  0  0  0  0  0  0  0  0  0  0  0
   73.8986   43.3979   57.5109 C   0  0  0  0  0  0  0  0  0  0  0  0
   69.2885   48.6822   56.3292 C   0  0  0  0  0  0  0  0  0  0  0  0
   69.6176   48.5872   54.8848 C   0  0  0  0  0  0  0  0  0  0  0  0
   70.7282   49.2313   54.3963 N   0  0  0  0  0  0  0  0  0  0  0  0
   71.1029   49.1548   53.1350 N   0  0  0  0  0  0  0  0  0  0  0  0
   70.3931   48.4203   52.2406 C   0  0  0  0  0  0  0  0  0  0  0  0
   70.7698   48.3606   51.0362 O   0  0  0  0  0  0  0  0  0  0  0  0
   69.2714   47.7467   52.6425 C   0  0  0  0  0  0  0  0  0  0  0  0
   68.9043   47.8524   53.9914 C   0  0  0  0  0  0  0  0  0  0  0  0
   67.6591   47.1411   54.3691 C   0  0  0  0  0  0  0  0  0  0  0  0
   67.6939   45.7007   53.8781 C   0  0  0  0  0  0  0  0  0  0  0  0
   68.1339   45.5918   52.4591 C   0  0  0  0  0  0  0  0  0  0  0  0
   68.4221   46.9064   51.7728 C   0  0  0  0  0  0  0  0  0  0  0  0
 16 17  2  0
 17 18  1  0
 17  8  1  0
 18 19  1  0
 18 20  1  0
 19 20  1  0
  8  9  1  0
  8 15  1  0
  9 10  1  0
 10 11  1  0
 11 12  1  0
 11 14  1  0
 12 13  2  0
 12  1  1  0
  1  2  2  0
  1  6  1  0
  2  3  1  0
  3 21  1  0
  3  4  2  0
 21 22  1  0
 22 23  2  0
 22 28  1  0
 23 24  1  0
 24 25  1  0
 25 26  2  0
 25 27  1  0
 27 28  2  0
 27 32  1  0
 28 29  1  0
 29 30  1  0
 30 31  1  0
 31 32  1  0
  4  5  1  0
  5  6  2  0
  6  7  1  0
 14 15  1  0
M  END
>  <minimizedAffinity>  (532) 
-8.68648

$$$$
cs_full_output_folder/data/smiles/77.pdb
     RDKit          3D

 30 32  0  0  0  0  0  0  0  0999 V2000
   70.5247   39.3498   58.7078 C   0  0  0  0  0  0  0  0  0  0  0  0
   69.2988   38.7649   58.4728 C   0  0  0  0  0  0  0  0  0  0  0  0
   68.2580   39.4848   57.9120 C   0  0  0  0  0  0  0  0  0  0  0  0
   68.4605   40.8253   57.5812 C   0  0  0  0  0  0  0  0  0  0  0  0
   69.6658   41.4433   57.7991 C   0  0  0  0  0  0  0  0  0  0  0  0
   70.6808   40.6730   58.3669 C   0  0  0  0  0  0  0  0  0  0  0  0
   71.8410   38.4205   59.4236 S   0  0  0  0  0  0  0  0  0  0  0  0
   71.7803   38.6257   60.9104 O   0  0  0  0  0  0  0  0  0  0  0  0
   73.1133   39.0865   58.9680 O   0  0  0  0  0  0  0  0  0  0  0  0
   71.7764   36.7791   59.0043 N   0  0  0  0  0  0  0  0  0  0  0  0
   73.0123   35.4227   54.3999 C   0  0  0  0  0  0  0  0  0  0  0  0
   73.3141   35.5634   55.8454 C   0  0  0  0  0  0  0  0  0  0  0  0
   74.5445   35.1395   56.2965 C   0  0  0  0  0  0  0  0  0  0  0  0
   74.8358   35.2629   57.6263 C   0  0  0  0  0  0  0  0  0  0  0  0
   73.9133   35.8041   58.5050 C   0  0  0  0  0  0  0  0  0  0  0  0
   72.6800   36.2337   58.0802 C   0  0  0  0  0  0  0  0  0  0  0  0
   72.4073   36.0973   56.7257 C   0  0  0  0  0  0  0  0  0  0  0  0
   69.9085   42.8529   57.4605 C   0  0  0  0  0  0  0  0  0  0  0  0
   71.0729   43.3098   57.5826 O   0  0  0  0  0  0  0  0  0  0  0  0
   68.9049   43.7336   57.0038 N   0  0  0  0  0  0  0  0  0  0  0  0
   69.1868   45.0910   56.6884 N   0  0  0  0  0  0  0  0  0  0  0  0
   68.6101   45.7415   55.5831 C   0  0  0  0  0  0  0  0  0  0  0  0
   67.8193   45.0089   54.8969 O   0  0  0  0  0  0  0  0  0  0  0  0
   68.8116   47.1080   55.1549 C   0  0  0  0  0  0  0  0  0  0  0  0
   68.9901   47.3256   53.7935 C   0  0  0  0  0  0  0  0  0  0  0  0
   69.1904   48.5583   53.2427 C   0  0  0  0  0  0  0  0  0  0  0  0
   69.2188   49.6528   54.0802 C   0  0  0  0  0  0  0  0  0  0  0  0
   69.0466   49.4755   55.4234 C   0  0  0  0  0  0  0  0  0  0  0  0
   68.8422   48.2037   55.9722 C   0  0  0  0  0  0  0  0  0  0  0  0
   68.6724   48.0579   57.3331 O   0  0  0  0  0  0  0  0  0  0  0  0
 11 12  1  0
 12 13  2  0
 12 17  1  0
 13 14  1  0
 14 15  2  0
 15 16  1  0
 16 10  1  0
 16 17  2  0
 10  7  1  0
  7  8  2  0
  7  9  2  0
  7  1  1  0
  1  2  2  0
  1  6  1  0
  2  3  1  0
  3  4  2  0
  4  5  1  0
  5 18  1  0
  5  6  2  0
 18 19  2  0
 18 20  1  0
 20 21  1  0
 21 22  1  0
 22 23  2  0
 22 24  1  0
 24 25  2  0
 24 29  1  0
 25 26  1  0
 26 27  2  0
 27 28  1  0
 28 29  2  0
 29 30  1  0
M  END
>  <minimizedAffinity>  (533) 
-8.68443

$$$$
cs_full_output_folder/data/smiles/4204.pdb
     RDKit          3D

 29 31  0  0  0  0  0  0  0  0999 V2000
   68.9013   47.0787   54.5088 C   0  0  0  0  0  0  0  0  0  0  0  0
   68.6774   47.0559   53.1524 C   0  0  0  0  0  0  0  0  0  0  0  0
   69.1470   48.0467   52.3079 C   0  0  0  0  0  0  0  0  0  0  0  0
   69.8709   49.0921   52.8894 C   0  0  0  0  0  0  0  0  0  0  0  0
   70.1142   49.1488   54.2434 C   0  0  0  0  0  0  0  0  0  0  0  0
   69.6180   48.1281   55.0275 C   0  0  0  0  0  0  0  0  0  0  0  0
   68.1719   44.7106   55.0321 N   0  0  0  0  0  0  0  0  0  0  0  0
   68.4155   46.0486   55.4028 C   0  0  0  0  0  0  0  0  0  0  0  0
   68.1897   46.3510   56.5997 O   0  0  0  0  0  0  0  0  0  0  0  0
   68.5196   42.9271   56.7136 C   0  0  0  0  0  0  0  0  0  0  0  0
   69.7776   43.1245   56.6318 O   0  0  0  0  0  0  0  0  0  0  0  0
   67.7016   43.7252   55.9084 N   0  0  0  0  0  0  0  0  0  0  0  0
   66.1070   41.8453   60.8227 C   0  0  0  0  0  0  0  0  0  0  0  0
   66.8657   41.4187   59.6166 C   0  0  0  0  0  0  0  0  0  0  0  0
   67.0619   40.0587   59.4456 C   0  0  0  0  0  0  0  0  0  0  0  0
   67.7559   39.6253   58.3469 C   0  0  0  0  0  0  0  0  0  0  0  0
   68.2490   40.5614   57.4257 C   0  0  0  0  0  0  0  0  0  0  0  0
   68.0380   41.9043   57.6252 C   0  0  0  0  0  0  0  0  0  0  0  0
   67.3530   42.2912   58.7126 N   0  0  0  0  0  0  0  0  0  0  0  0
   71.0134   50.4380   54.9945 S   0  0  0  0  0  0  0  0  0  0  0  0
   72.1366   49.7936   55.7679 O   0  0  0  0  0  0  0  0  0  0  0  0
   71.7104   51.1959   53.8652 O   0  0  0  0  0  0  0  0  0  0  0  0
   70.1153   51.5417   55.8666 N   0  0  0  0  0  0  0  0  0  0  0  0
   68.7540   51.6055   55.4644 C   0  0  0  0  0  0  0  0  0  0  0  0
   67.7775   51.3491   56.5858 C   0  0  0  0  0  0  0  0  0  0  0  0
   68.2841   50.3071   57.5564 C   0  0  0  0  0  0  0  0  0  0  0  0
   69.6417   50.5880   58.1033 C   0  0  0  0  0  0  0  0  0  0  0  0
   70.2817   51.6676   57.2570 C   0  0  1  0  0  0  0  0  0  0  0  0
   71.7018   51.9105   57.7087 C   0  0  0  0  0  0  0  0  0  0  0  0
 13 14  1  0
 14 15  2  0
 14 19  1  0
 15 16  1  0
 16 17  2  0
 17 18  1  0
 18 10  1  0
 18 19  2  0
 10 11  2  0
 10 12  1  0
 12  7  1  0
  7  8  1  0
  8  9  2  0
  8  1  1  0
  1  2  2  0
  1  6  1  0
  2  3  1  0
  3  4  2  0
  4  5  1  0
  5 20  1  0
  5  6  2  0
 20 21  2  0
 20 22  2  0
 20 23  1  0
 23 24  1  0
 23 28  1  0
 24 25  1  0
 25 26  1  0
 26 27  1  0
 27 28  1  0
 28 29  1  6
M  END
>  <minimizedAffinity>  (534) 
-8.68142

$$$$
cs_full_output_folder/data/smiles/134.pdb
     RDKit          3D

 25 26  0  0  0  0  0  0  0  0999 V2000
   70.0941   49.0875   52.4299 S   0  0  0  0  0  0  0  0  0  0  0  0
   71.4740   49.0702   53.0192 O   0  0  0  0  0  0  0  0  0  0  0  0
   70.2181   48.9455   50.9320 O   0  0  0  0  0  0  0  0  0  0  0  0
   69.2571   47.6800   53.0888 C   0  0  0  0  0  0  0  0  0  0  0  0
   68.5976   46.7995   52.2615 C   0  0  0  0  0  0  0  0  0  0  0  0
   68.5584   46.9786   50.9146 F   0  0  0  0  0  0  0  0  0  0  0  0
   67.9403   45.6881   52.7666 C   0  0  0  0  0  0  0  0  0  0  0  0
   67.2901   44.8186   51.9590 F   0  0  0  0  0  0  0  0  0  0  0  0
   67.9433   45.4572   54.1263 C   0  0  0  0  0  0  0  0  0  0  0  0
   67.3138   44.3864   54.6535 F   0  0  0  0  0  0  0  0  0  0  0  0
   68.6007   46.3343   54.9647 C   0  0  0  0  0  0  0  0  0  0  0  0
   68.5929   46.0914   56.2895 F   0  0  0  0  0  0  0  0  0  0  0  0
   69.2432   47.4242   54.4423 C   0  0  0  0  0  0  0  0  0  0  0  0
   69.8925   48.2868   55.2846 F   0  0  0  0  0  0  0  0  0  0  0  0
   69.3215   50.5481   52.8514 N   0  0  0  0  0  0  0  0  0  0  0  0
   70.4947   52.6942   56.2630 C   0  0  0  0  0  0  0  0  0  0  0  0
   71.3149   52.6311   55.1540 C   0  0  0  0  0  0  0  0  0  0  0  0
   70.9458   51.9333   54.0342 C   0  0  0  0  0  0  0  0  0  0  0  0
   69.7105   51.2666   54.0057 C   0  0  0  0  0  0  0  0  0  0  0  0
   68.9195   51.3546   55.1356 C   0  0  0  0  0  0  0  0  0  0  0  0
   69.2727   52.0549   56.2779 C   0  0  0  0  0  0  0  0  0  0  0  0
   72.1799   53.7026   57.7593 C   0  0  0  0  0  0  0  0  0  0  0  0
   70.8668   53.3996   57.3954 O   0  0  0  0  0  0  0  0  0  0  0  0
   68.4266   52.1118   57.4019 N   0  0  0  0  0  0  0  0  0  0  0  0
   66.9639   50.9435   57.5330 Br  0  0  0  0  0  0  0  0  0  0  0  0
 22 23  1  0
 23 16  1  0
 16 17  2  0
 16 21  1  0
 17 18  1  0
 18 19  2  0
 19 15  1  0
 19 20  1  0
 15  1  1  0
  1  2  2  0
  1  3  2  0
  1  4  1  0
  4  5  2  0
  4 13  1  0
  5  6  1  0
  5  7  1  0
  7  8  1  0
  7  9  2  0
  9 10  1  0
  9 11  1  0
 11 12  1  0
 11 13  2  0
 13 14  1  0
 20 21  2  0
 21 24  1  0
 24 25  1  0
M  END
>  <minimizedAffinity>  (535) 
-8.67961

$$$$
cs_full_output_folder/data/smiles/8500.pdb
     RDKit          3D

 31 34  0  0  0  0  0  0  0  0999 V2000
   70.7717   45.8937   58.3745 C   0  0  0  0  0  0  0  0  0  0  0  0
   71.8880   46.5664   58.8847 C   0  0  0  0  0  0  0  0  0  0  0  0
   72.0630   47.8799   58.5538 C   0  0  0  0  0  0  0  0  0  0  0  0
   71.1653   48.5400   57.7356 C   0  0  0  0  0  0  0  0  0  0  0  0
   70.0683   47.9112   57.2240 C   0  0  0  0  0  0  0  0  0  0  0  0
   69.9030   46.5750   57.5691 C   0  0  0  0  0  0  0  0  0  0  0  0
   73.8157   42.8480   60.9650 C   0  0  0  0  0  0  0  0  0  0  0  0
   74.5473   43.8472   61.2437 O   0  0  0  0  0  0  0  0  0  0  0  0
   73.4689   42.6147   59.6124 N   0  0  0  0  0  0  0  0  0  0  0  0
   73.9294   43.4784   58.5544 C   0  0  0  0  0  0  0  0  0  0  0  0
   72.7493   43.7958   57.6392 C   0  0  0  0  0  0  0  0  0  0  0  0
   71.5423   43.4717   58.3708 N   0  0  0  0  0  0  0  0  0  0  0  0
   70.5865   44.4816   58.7275 C   0  0  0  0  0  0  0  0  0  0  0  0
   69.5608   44.1338   59.3628 O   0  0  0  0  0  0  0  0  0  0  0  0
   71.3311   42.0830   58.7306 C   0  0  0  0  0  0  0  0  0  0  0  0
   72.6277   41.4927   59.2806 C   0  0  0  0  0  0  0  0  0  0  0  0
   73.3768   41.9898   62.0774 C   0  0  0  0  0  0  0  0  0  0  0  0
   71.2097   43.1846   62.4841 C   0  0  0  0  0  0  0  0  0  0  0  0
   72.5568   42.7829   63.0686 C   0  0  0  0  0  0  0  0  0  0  0  0
   69.1127   48.6201   56.3659 C   0  0  0  0  0  0  0  0  0  0  0  0
   69.4468   48.6282   54.9267 C   0  0  0  0  0  0  0  0  0  0  0  0
   70.3268   49.5510   54.4362 N   0  0  0  0  0  0  0  0  0  0  0  0
   70.6858   49.5557   53.1740 N   0  0  0  0  0  0  0  0  0  0  0  0
   70.2247   48.6701   52.2791 C   0  0  0  0  0  0  0  0  0  0  0  0
   70.5870   48.6972   51.0758 O   0  0  0  0  0  0  0  0  0  0  0  0
   69.3234   47.6954   52.6897 C   0  0  0  0  0  0  0  0  0  0  0  0
   68.8265   46.7814   51.7688 C   0  0  0  0  0  0  0  0  0  0  0  0
   67.9216   45.8284   52.1690 C   0  0  0  0  0  0  0  0  0  0  0  0
   67.5537   45.8382   53.4938 C   0  0  0  0  0  0  0  0  0  0  0  0
   68.0412   46.7397   54.4129 C   0  0  0  0  0  0  0  0  0  0  0  0
   68.9586   47.7094   54.0285 C   0  0  0  0  0  0  0  0  0  0  0  0
 18 19  1  0
 19 17  1  0
 17  7  1  0
  7  8  2  0
  7  9  1  0
  9 10  1  0
  9 16  1  0
 10 11  1  0
 11 12  1  0
 12 13  1  0
 12 15  1  0
 13 14  2  0
 13  1  1  0
  1  2  2  0
  1  6  1  0
  2  3  1  0
  3  4  2  0
  4  5  1  0
  5 20  1  0
  5  6  2  0
 20 21  1  0
 21 22  2  0
 21 31  1  0
 22 23  1  0
 23 24  1  0
 24 25  2  0
 24 26  1  0
 26 27  1  0
 26 31  2  0
 27 28  2  0
 28 29  1  0
 29 30  2  0
 30 31  1  0
 15 16  1  0
M  END
>  <minimizedAffinity>  (536) 
-8.67186

$$$$
cs_full_output_folder/data/smiles/621.pdb
     RDKit          3D

 28 30  0  0  0  0  0  0  0  0999 V2000
   68.8594   46.7286   54.5453 C   0  0  0  0  0  0  0  0  0  0  0  0
   69.5024   47.9331   54.7062 C   0  0  0  0  0  0  0  0  0  0  0  0
   69.6468   48.8277   53.6482 C   0  0  0  0  0  0  0  0  0  0  0  0
   69.1464   48.5341   52.3946 C   0  0  0  0  0  0  0  0  0  0  0  0
   68.4999   47.3280   52.2292 C   0  0  0  0  0  0  0  0  0  0  0  0
   68.3625   46.4484   53.2873 C   0  0  0  0  0  0  0  0  0  0  0  0
   67.5331   44.9093   53.0552 Cl  0  0  0  0  0  0  0  0  0  0  0  0
   68.2302   44.4298   55.4087 N   0  0  0  0  0  0  0  0  0  0  0  0
   68.6835   45.7629   55.6131 C   0  0  0  0  0  0  0  0  0  0  0  0
   68.9375   46.0845   56.8098 O   0  0  0  0  0  0  0  0  0  0  0  0
   67.1252   41.8961   55.2495 O   0  0  0  0  0  0  0  0  0  0  0  0
   67.5128   42.2578   56.3875 C   0  0  0  0  0  0  0  0  0  0  0  0
   68.0826   43.5513   56.4915 N   0  0  0  0  0  0  0  0  0  0  0  0
   67.3545   41.3387   57.5051 C   0  0  0  0  0  0  0  0  0  0  0  0
   68.0008   40.1212   57.4940 C   0  0  0  0  0  0  0  0  0  0  0  0
   67.8922   39.2022   58.5254 C   0  0  0  0  0  0  0  0  0  0  0  0
   67.1219   39.4796   59.6122 C   0  0  0  0  0  0  0  0  0  0  0  0
   66.4652   40.6866   59.6490 C   0  0  0  0  0  0  0  0  0  0  0  0
   66.5767   41.6105   58.6100 C   0  0  0  0  0  0  0  0  0  0  0  0
   70.4838   50.3539   53.9211 S   0  0  0  0  0  0  0  0  0  0  0  0
   71.9423   50.0911   53.9244 O   0  0  0  0  0  0  0  0  0  0  0  0
   70.1950   51.2348   52.7154 O   0  0  0  0  0  0  0  0  0  0  0  0
   70.0025   51.1456   55.3031 N   0  0  0  0  0  0  0  0  0  0  0  0
   70.8260   51.1390   56.4271 C   0  0  0  0  0  0  0  0  0  0  0  0
   70.0098   50.8127   57.6658 C   0  0  0  0  0  0  0  0  0  0  0  0
   68.9600   51.7376   57.6944 O   0  0  0  0  0  0  0  0  0  0  0  0
   68.0642   51.5347   56.6606 C   0  0  0  0  0  0  0  0  0  0  0  0
   68.7743   51.7955   55.3385 C   0  0  0  0  0  0  0  0  0  0  0  0
 11 12  2  0
 12 13  1  0
 12 14  1  0
 13  8  1  0
  8  9  1  0
  9 10  2  0
  9  1  1  0
  1  2  2  0
  1  6  1  0
  2  3  1  0
  3 20  1  0
  3  4  2  0
 20 21  2  0
 20 22  2  0
 20 23  1  0
 23 24  1  0
 23 28  1  0
 24 25  1  0
 25 26  1  0
 26 27  1  0
 27 28  1  0
  4  5  1  0
  5  6  2  0
  6  7  1  0
 14 15  2  0
 14 19  1  0
 15 16  1  0
 16 17  2  0
 17 18  1  0
 18 19  2  0
M  END
>  <minimizedAffinity>  (537) 
-8.66609

$$$$
cs_full_output_folder/data/smiles/689.pdb
     RDKit          3D

 32 36  0  0  0  0  0  0  0  0999 V2000
   71.3793   46.9756   58.8262 C   0  0  0  0  0  0  0  0  0  0  0  0
   70.3791   47.4825   58.0227 C   0  0  0  0  0  0  0  0  0  0  0  0
   69.6011   46.7335   57.1738 C   0  0  0  0  0  0  0  0  0  0  0  0
   69.8824   45.3519   57.1587 C   0  0  0  0  0  0  0  0  0  0  0  0
   70.8691   44.8169   57.9446 C   0  0  0  0  0  0  0  0  0  0  0  0
   71.6206   45.6207   58.7797 C   0  0  0  0  0  0  0  0  0  0  0  0
   72.5905   45.0721   59.5460 F   0  0  0  0  0  0  0  0  0  0  0  0
   71.9709   47.7371   60.9376 O   0  0  0  0  0  0  0  0  0  0  0  0
   72.1756   47.8554   59.7098 C   0  0  0  0  0  0  0  0  0  0  0  0
   73.1151   48.7767   59.2117 N   0  0  0  0  0  0  0  0  0  0  0  0
   73.8739   49.5801   60.1420 C   0  0  0  0  0  0  0  0  0  0  0  0
   74.5021   50.7490   59.4394 C   0  0  0  0  0  0  0  0  0  0  0  0
   73.5139   51.6677   58.8083 C   0  0  0  0  0  0  0  0  0  0  0  0
   73.0342   51.1832   57.5003 N   0  0  0  0  0  0  0  0  0  0  0  0
   73.3600   51.9481   56.3929 C   0  0  0  0  0  0  0  0  0  0  0  0
   74.0871   53.0098   56.7266 O   0  0  0  0  0  0  0  0  0  0  0  0
   72.2776   49.9857   57.3593 C   0  0  0  0  0  0  0  0  0  0  0  0
   73.2083   48.8344   57.7718 C   0  0  0  0  0  0  0  0  0  0  0  0
   73.0938   51.8592   54.9808 C   0  0  0  0  0  0  0  0  0  0  0  0
   73.1489   52.9280   53.9797 C   0  0  0  0  0  0  0  0  0  0  0  0
   71.8142   52.3700   54.3650 C   0  0  0  0  0  0  0  0  0  0  0  0
   68.5498   47.2624   56.2705 C   0  0  0  0  0  0  0  0  0  0  0  0
   69.0037   47.7008   54.9503 C   0  0  0  0  0  0  0  0  0  0  0  0
   69.8513   48.7474   54.8048 N   0  0  0  0  0  0  0  0  0  0  0  0
   70.3172   49.1554   53.6372 N   0  0  0  0  0  0  0  0  0  0  0  0
   69.9602   48.5322   52.5061 C   0  0  0  0  0  0  0  0  0  0  0  0
   70.4134   48.9307   51.4049 O   0  0  0  0  0  0  0  0  0  0  0  0
   69.0977   47.4556   52.5685 C   0  0  0  0  0  0  0  0  0  0  0  0
   68.6163   47.0388   53.7992 C   0  0  0  0  0  0  0  0  0  0  0  0
   67.7265   45.9212   53.5236 C   0  0  0  0  0  0  0  0  0  0  0  0
   67.6455   45.6437   52.2433 C   0  0  0  0  0  0  0  0  0  0  0  0
   68.5190   46.5974   51.5240 C   0  0  0  0  0  0  0  0  0  0  0  0
  8  9  2  0
  9  1  1  0
  9 10  1  0
  1  2  2  0
  1  6  1  0
  2  3  1  0
  3 22  1  0
  3  4  2  0
 22 23  1  0
 23 24  2  0
 23 29  1  0
 24 25  1  0
 25 26  1  0
 26 27  2  0
 26 28  1  0
 28 29  2  0
 28 32  1  0
 29 30  1  0
 30 31  2  0
 31 32  1  0
  4  5  1  0
  5  6  2  0
  6  7  1  0
 10 11  1  0
 10 18  1  0
 11 12  1  0
 12 13  1  0
 13 14  1  0
 14 15  1  0
 14 17  1  0
 15 16  2  0
 15 19  1  0
 19 20  1  0
 19 21  1  0
 20 21  1  0
 17 18  1  0
M  END
>  <minimizedAffinity>  (538) 
-8.66310

$$$$
cs_full_output_folder/data/smiles/676.pdb
     RDKit          3D

 32 35  0  0  0  0  0  0  0  0999 V2000
   71.2595   46.6044   58.9139 C   0  0  0  0  0  0  0  0  0  0  0  0
   70.3688   47.4344   58.2177 C   0  0  0  0  0  0  0  0  0  0  0  0
   69.5480   46.9773   57.2292 C   0  0  0  0  0  0  0  0  0  0  0  0
   69.5757   45.6245   56.8765 C   0  0  0  0  0  0  0  0  0  0  0  0
   70.4495   44.8124   57.5595 C   0  0  0  0  0  0  0  0  0  0  0  0
   71.2773   45.2738   58.5558 C   0  0  0  0  0  0  0  0  0  0  0  0
   72.1434   44.4507   59.2299 F   0  0  0  0  0  0  0  0  0  0  0  0
   77.1599   48.4575   59.9611 C   0  0  0  0  0  0  0  0  0  0  0  0
   77.4033   48.3047   61.1877 O   0  0  0  0  0  0  0  0  0  0  0  0
   75.9081   48.9893   59.5463 N   0  0  0  0  0  0  0  0  0  0  0  0
   75.6298   49.1622   58.1600 C   0  0  0  0  0  0  0  0  0  0  0  0
   74.7376   48.1138   57.5645 C   0  0  0  0  0  0  0  0  0  0  0  0
   73.4164   47.9509   58.1853 C   0  0  0  0  0  0  0  0  0  0  0  0
   73.3069   47.8202   59.5834 N   0  0  0  0  0  0  0  0  0  0  0  0
   72.1419   47.1100   59.9653 C   0  0  0  0  0  0  0  0  0  0  0  0
   71.8497   46.9026   61.1903 O   0  0  0  0  0  0  0  0  0  0  0  0
   74.0330   48.1931   60.7634 C   0  0  0  0  0  0  0  0  0  0  0  0
   74.9766   49.3260   60.6150 C   0  0  0  0  0  0  0  0  0  0  0  0
   79.4844   48.8097   59.2684 C   0  0  0  0  0  0  0  0  0  0  0  0
   78.1733   48.0830   58.9625 C   0  0  0  0  0  0  0  0  0  0  0  0
   68.6182   47.9024   56.5259 C   0  0  0  0  0  0  0  0  0  0  0  0
   69.1109   48.1182   55.1846 C   0  0  0  0  0  0  0  0  0  0  0  0
   70.0892   49.0686   55.0477 N   0  0  0  0  0  0  0  0  0  0  0  0
   70.6740   49.3129   53.8941 N   0  0  0  0  0  0  0  0  0  0  0  0
   70.3541   48.6515   52.7696 C   0  0  0  0  0  0  0  0  0  0  0  0
   70.9126   48.8798   51.6532 O   0  0  0  0  0  0  0  0  0  0  0  0
   69.3696   47.6688   52.8062 C   0  0  0  0  0  0  0  0  0  0  0  0
   68.9984   46.9800   51.6750 C   0  0  0  0  0  0  0  0  0  0  0  0
   68.0024   46.0337   51.7681 C   0  0  0  0  0  0  0  0  0  0  0  0
   67.3891   45.7845   52.9862 C   0  0  0  0  0  0  0  0  0  0  0  0
   67.7788   46.4882   54.1136 C   0  0  0  0  0  0  0  0  0  0  0  0
   68.7745   47.4382   54.0427 C   0  0  0  0  0  0  0  0  0  0  0  0
 19 20  1  0
 20  8  1  0
  8  9  2  0
  8 10  1  0
 10 11  1  0
 10 18  1  0
 11 12  1  0
 12 13  1  0
 13 14  1  0
 14 15  1  0
 14 17  1  0
 15 16  2  0
 15  1  1  0
  1  2  2  0
  1  6  1  0
  2  3  1  0
  3 21  1  0
  3  4  2  0
 21 22  1  0
 22 23  2  0
 22 32  1  0
 23 24  1  0
 24 25  1  0
 25 26  2  0
 25 27  1  0
 27 28  1  0
 27 32  2  0
 28 29  2  0
 29 30  1  0
 30 31  2  0
 31 32  1  0
  4  5  1  0
  5  6  2  0
  6  7  1  0
 17 18  1  0
M  END
>  <minimizedAffinity>  (539) 
-8.66263

$$$$
cs_full_output_folder/data/smiles/4552.pdb
     RDKit          3D

 29 31  0  0  0  0  0  0  0  0999 V2000
   70.8821   43.5363   57.6776 C   0  0  0  0  0  0  0  0  0  0  0  0
   71.4681   44.6705   58.1812 C   0  0  0  0  0  0  0  0  0  0  0  0
   70.9205   45.9394   57.9665 C   0  0  0  0  0  0  0  0  0  0  0  0
   69.7632   46.0926   57.2342 C   0  0  0  0  0  0  0  0  0  0  0  0
   69.1818   44.9487   56.7316 C   0  0  0  0  0  0  0  0  0  0  0  0
   69.7229   43.6988   56.9450 C   0  0  0  0  0  0  0  0  0  0  0  0
   72.6855   42.0046   57.7258 O   0  0  0  0  0  0  0  0  0  0  0  0
   71.4412   42.1988   57.8922 C   0  0  0  0  0  0  0  0  0  0  0  0
   70.6898   41.0703   58.2794 N   0  0  0  0  0  0  0  0  0  0  0  0
   71.2761   39.8004   58.4737 N   0  0  0  0  0  0  0  0  0  0  0  0
   70.5761   38.5893   58.3996 C   0  0  0  0  0  0  0  0  0  0  0  0
   69.3449   38.6478   58.1413 O   0  0  0  0  0  0  0  0  0  0  0  0
   71.1782   37.2713   58.6003 C   0  0  0  0  0  0  0  0  0  0  0  0
   72.1681   36.7767   57.7795 C   0  0  0  0  0  0  0  0  0  0  0  0
   72.7201   35.5300   57.9900 C   0  0  0  0  0  0  0  0  0  0  0  0
   72.3108   34.7189   59.0281 C   0  0  0  0  0  0  0  0  0  0  0  0
   71.3221   35.2018   59.8558 C   0  0  0  0  0  0  0  0  0  0  0  0
   70.7753   36.4494   59.6380 C   0  0  0  0  0  0  0  0  0  0  0  0
   69.7679   36.9587   60.4698 O   0  0  0  0  0  0  0  0  0  0  0  0
   69.0588   47.6792   56.9520 S   0  0  0  0  0  0  0  0  0  0  0  0
   67.5606   47.6405   57.0616 O   0  0  0  0  0  0  0  0  0  0  0  0
   69.5339   48.6442   58.0256 O   0  0  0  0  0  0  0  0  0  0  0  0
   69.4424   48.2579   55.3790 N   0  0  0  0  0  0  0  0  0  0  0  0
   69.0038   47.5700   54.1882 C   0  0  0  0  0  0  0  0  0  0  0  0
   69.5792   47.8745   52.9797 C   0  0  0  0  0  0  0  0  0  0  0  0
   69.1620   47.2179   51.8458 C   0  0  0  0  0  0  0  0  0  0  0  0
   68.1886   46.2670   51.8736 C   0  0  0  0  0  0  0  0  0  0  0  0
   67.6118   45.9635   53.0890 C   0  0  0  0  0  0  0  0  0  0  0  0
   68.0225   46.6140   54.2326 C   0  0  0  0  0  0  0  0  0  0  0  0
  7  8  2  0
  8  9  1  0
  8  1  1  0
  9 10  1  0
 10 11  1  0
 11 12  2  0
 11 13  1  0
 13 14  2  0
 13 18  1  0
 14 15  1  0
 15 16  2  0
 16 17  1  0
 17 18  2  0
 18 19  1  0
  1  2  2  0
  1  6  1  0
  2  3  1  0
  3  4  2  0
  4 20  1  0
  4  5  1  0
 20 21  2  0
 20 22  2  0
 20 23  1  0
 23 24  1  0
 24 25  2  0
 24 29  1  0
 25 26  1  0
 26 27  2  0
 27 28  1  0
 28 29  2  0
  5  6  2  0
M  END
>  <minimizedAffinity>  (540) 
-8.65866

$$$$
cs_full_output_folder/data/smiles/1518.pdb
     RDKit          3D

 22 24  0  0  0  0  0  0  0  0999 V2000
   70.5505   48.8037   51.1537 O   0  0  0  0  0  0  0  0  0  0  0  0
   70.1426   48.7200   52.3481 C   0  0  0  0  0  0  0  0  0  0  0  0
   70.5193   49.5659   53.3155 N   0  0  0  0  0  0  0  0  0  0  0  0
   70.0929   49.4715   54.5560 N   0  0  0  0  0  0  0  0  0  0  0  0
   69.2235   48.4863   54.9347 C   0  0  0  0  0  0  0  0  0  0  0  0
   68.8139   47.6009   53.9665 C   0  0  0  0  0  0  0  0  0  0  0  0
   67.9072   46.5928   54.2600 C   0  0  0  0  0  0  0  0  0  0  0  0
   67.5014   45.7437   53.2677 C   0  0  0  0  0  0  0  0  0  0  0  0
   67.9482   45.8336   51.9620 C   0  0  0  0  0  0  0  0  0  0  0  0
   68.8452   46.8277   51.6476 C   0  0  0  0  0  0  0  0  0  0  0  0
   69.2555   47.6877   52.6533 C   0  0  0  0  0  0  0  0  0  0  0  0
   68.8311   48.3474   56.3551 C   0  0  0  0  0  0  0  0  0  0  0  0
   69.7840   47.6610   57.2107 C   0  0  0  0  0  0  0  0  0  0  0  0
   70.5602   48.4848   58.0692 C   0  0  0  0  0  0  0  0  0  0  0  0
   71.4839   47.9150   58.9118 C   0  0  0  0  0  0  0  0  0  0  0  0
   71.6578   46.5513   58.9223 C   0  0  0  0  0  0  0  0  0  0  0  0
   70.9059   45.7059   58.0836 C   0  0  0  0  0  0  0  0  0  0  0  0
   69.9909   46.3180   57.2574 C   0  0  0  0  0  0  0  0  0  0  0  0
   71.1019   44.3674   58.1176 O   0  0  0  0  0  0  0  0  0  0  0  0
   70.3417   43.4366   58.8115 C   0  0  1  0  0  0  0  0  0  0  0  0
   69.4375   44.1431   59.6443 O   0  0  0  0  0  0  0  0  0  0  0  0
   69.0561   42.3401   57.4636 I   0  0  0  0  0  0  0  0  0  0  0  0
  1  2  2  0
  2  3  1  0
  2 11  1  0
  3  4  1  0
  4  5  2  0
  5 12  1  0
  5  6  1  0
 12 13  1  0
 13 14  2  0
 13 18  1  0
 14 15  1  0
 15 16  2  0
 16 17  1  0
 17 19  1  0
 17 18  2  0
 19 20  1  0
 20 21  1  1
 20 22  1  0
  6  7  1  0
  6 11  2  0
  7  8  2  0
  8  9  1  0
  9 10  2  0
 10 11  1  0
M  END
>  <minimizedAffinity>  (541) 
-8.64372

$$$$
cs_full_output_folder/data/smiles/1748.pdb
     RDKit          3D

 29 32  0  0  0  0  0  0  0  0999 V2000
   70.1711   51.1762   56.7871 N   0  0  0  0  0  0  0  0  0  0  0  0
   71.0354   50.4606   55.8317 C   0  0  0  0  0  0  0  0  0  0  0  0
   71.2001   51.1935   54.5235 C   0  0  0  0  0  0  0  0  0  0  0  0
   69.8505   51.3969   53.7953 C   0  0  0  0  0  0  0  0  0  0  0  0
   69.0203   52.1492   54.8041 C   0  0  0  0  0  0  0  0  0  0  0  0
   68.8766   51.4123   56.0583 C   0  0  0  0  0  0  0  0  0  0  0  0
   69.6801   49.9937   58.0068 S   0  0  0  0  0  0  0  0  0  0  0  0
   69.3555   50.8860   59.2075 O   0  0  0  0  0  0  0  0  0  0  0  0
   68.2909   49.4810   57.4995 O   0  0  0  0  0  0  0  0  0  0  0  0
   71.3438   46.4238   58.7624 C   0  0  0  0  0  0  0  0  0  0  0  0
   72.3872   46.6374   59.5387 C   0  0  0  0  0  0  0  0  0  0  0  0
   72.6335   48.0496   59.7493 C   0  0  0  0  0  0  0  0  0  0  0  0
   71.9126   48.9667   59.2400 C   0  0  0  0  0  0  0  0  0  0  0  0
   70.7090   48.7958   58.3500 C   0  0  0  0  0  0  0  0  0  0  0  0
   70.5635   47.3186   58.2046 C   0  0  0  0  0  0  0  0  0  0  0  0
   70.7702   43.9882   57.8182 N   0  0  0  0  0  0  0  0  0  0  0  0
   71.0114   45.0426   58.2325 C   0  0  0  0  0  0  0  0  0  0  0  0
   69.4523   50.0817   53.4225 N   0  0  0  0  0  0  0  0  0  0  0  0
   70.0231   48.9940   52.9341 C   0  0  0  0  0  0  0  0  0  0  0  0
   71.1894   48.7119   52.5540 O   0  0  0  0  0  0  0  0  0  0  0  0
   69.1364   47.7212   52.7969 C   0  0  0  0  0  0  0  0  0  0  0  0
   68.7013   47.1874   51.6615 C   0  0  0  0  0  0  0  0  0  0  0  0
   67.9055   46.0406   51.5224 C   0  0  0  0  0  0  0  0  0  0  0  0
   67.5655   45.4289   52.8539 C   0  0  0  0  0  0  0  0  0  0  0  0
   68.0098   45.9845   53.8727 C   0  0  0  0  0  0  0  0  0  0  0  0
   67.8223   45.5719   55.2734 N   0  0  0  0  0  0  0  0  0  0  0  0
   68.4603   46.4006   56.0098 N   0  0  0  0  0  0  0  0  0  0  0  0
   69.0783   47.3668   55.2475 C   0  0  0  0  0  0  0  0  0  0  0  0
   68.8007   47.1180   54.0430 C   0  0  0  0  0  0  0  0  0  0  0  0
 16 17  3  0
 17 10  1  0
 10 11  2  0
 10 15  1  0
 11 12  1  0
 12 13  2  0
 13 14  1  0
 14  7  1  0
 14 15  2  0
  7  8  2  0
  7  9  2  0
  7  1  1  0
  1  2  1  0
  1  6  1  0
  2  3  1  0
  3  4  1  0
  4 18  1  0
  4  5  1  0
 18 19  1  0
 19 20  2  0
 19 21  1  0
 21 22  2  0
 21 29  1  0
 22 23  1  0
 23 24  2  0
 24 25  1  0
 25 26  1  0
 25 29  2  0
 26 27  1  0
 27 28  2  0
 28 29  1  0
  5  6  1  0
M  END
>  <minimizedAffinity>  (542) 
-8.64043

$$$$
cs_full_output_folder/data/smiles/3298.pdb
     RDKit          3D

 32 36  0  0  0  0  0  0  0  0999 V2000
   71.9968   47.6915   58.8839 C   0  0  0  0  0  0  0  0  0  0  0  0
   70.9086   47.8162   58.0539 C   0  0  0  0  0  0  0  0  0  0  0  0
   70.8653   48.7554   57.0159 C   0  0  0  0  0  0  0  0  0  0  0  0
   71.9481   49.5652   56.8360 C   0  0  0  0  0  0  0  0  0  0  0  0
   73.0822   49.4738   57.6594 C   0  0  0  0  0  0  0  0  0  0  0  0
   73.0680   48.5305   58.6641 C   0  0  0  0  0  0  0  0  0  0  0  0
   74.1547   48.4006   59.4985 F   0  0  0  0  0  0  0  0  0  0  0  0
   71.8159   47.0945   61.1413 O   0  0  0  0  0  0  0  0  0  0  0  0
   72.0317   46.7053   59.9719 C   0  0  0  0  0  0  0  0  0  0  0  0
   72.3017   45.3358   59.7335 N   0  0  0  0  0  0  0  0  0  0  0  0
   72.5169   45.0883   58.3391 C   0  0  0  0  0  0  0  0  0  0  0  0
   73.6136   44.1345   58.0088 C   0  0  0  0  0  0  0  0  0  0  0  0
   74.9607   44.5597   58.5380 C   0  0  0  0  0  0  0  0  0  0  0  0
   74.8513   45.4674   59.6528 N   0  0  0  0  0  0  0  0  0  0  0  0
   74.6537   44.8097   60.8640 N   0  0  0  0  0  0  0  0  0  0  0  0
   73.5240   44.8263   61.7716 C   0  0  0  0  0  0  0  0  0  0  0  0
   72.2838   44.5649   60.9467 C   0  0  0  0  0  0  0  0  0  0  0  0
   75.7014   43.9889   61.3072 C   0  0  0  0  0  0  0  0  0  0  0  0
   75.9962   42.7870   61.8900 C   0  0  0  0  0  0  0  0  0  0  0  0
   77.0317   43.4878   61.6147 C   0  0  0  0  0  0  0  0  0  0  0  0
   69.6136   48.7908   56.2281 C   0  0  0  0  0  0  0  0  0  0  0  0
   69.8697   48.6245   54.7764 C   0  0  0  0  0  0  0  0  0  0  0  0
   70.8078   49.4544   54.2246 N   0  0  0  0  0  0  0  0  0  0  0  0
   71.0288   49.3689   52.9370 N   0  0  0  0  0  0  0  0  0  0  0  0
   70.3708   48.5013   52.1534 C   0  0  0  0  0  0  0  0  0  0  0  0
   70.5939   48.4291   50.9088 O   0  0  0  0  0  0  0  0  0  0  0  0
   69.4250   47.6531   52.6699 C   0  0  0  0  0  0  0  0  0  0  0  0
   68.7476   46.7548   51.9062 C   0  0  0  0  0  0  0  0  0  0  0  0
   67.8060   45.8963   52.4379 C   0  0  0  0  0  0  0  0  0  0  0  0
   67.5466   45.9599   53.8036 C   0  0  0  0  0  0  0  0  0  0  0  0
   68.2186   46.8620   54.6003 C   0  0  0  0  0  0  0  0  0  0  0  0
   69.1621   47.7149   54.0336 C   0  0  0  0  0  0  0  0  0  0  0  0
  8  9  2  0
  9  1  1  0
  9 10  1  0
  1  2  2  0
  1  6  1  0
  2  3  1  0
  3 21  1  0
  3  4  2  0
 21 22  1  0
 22 23  2  0
 22 32  1  0
 23 24  1  0
 24 25  1  0
 25 26  2  0
 25 27  1  0
 27 28  1  0
 27 32  2  0
 28 29  2  0
 29 30  1  0
 30 31  2  0
 31 32  1  0
  4  5  1  0
  5  6  2  0
  6  7  1  0
 10 11  1  0
 10 17  1  0
 11 12  1  0
 12 13  1  0
 13 14  1  0
 14 15  1  0
 15 18  1  0
 15 16  1  0
 18 19  2  0
 18 20  1  0
 19 20  2  0
 16 17  1  0
M  END
>  <minimizedAffinity>  (543) 
-8.62949

$$$$
cs_full_output_folder/data/smiles/3989.pdb
     RDKit          3D

 28 30  0  0  0  0  0  0  0  0999 V2000
   69.0418   46.7475   55.0081 C   0  0  0  0  0  0  0  0  0  0  0  0
   68.5942   46.4424   53.7138 C   0  0  0  0  0  0  0  0  0  0  0  0
   68.7196   47.3295   52.6832 C   0  0  0  0  0  0  0  0  0  0  0  0
   69.3085   48.5803   52.9090 C   0  0  0  0  0  0  0  0  0  0  0  0
   69.3877   49.7280   51.5807 Cl  0  0  0  0  0  0  0  0  0  0  0  0
   69.7665   48.9310   54.1552 C   0  0  0  0  0  0  0  0  0  0  0  0
   69.6070   47.9741   55.1713 C   0  0  0  0  0  0  0  0  0  0  0  0
   68.3874   44.4709   55.7939 N   0  0  0  0  0  0  0  0  0  0  0  0
   68.8748   45.7542   56.0579 C   0  0  0  0  0  0  0  0  0  0  0  0
   69.1778   46.0588   57.2437 O   0  0  0  0  0  0  0  0  0  0  0  0
   67.2593   42.0109   55.3945 O   0  0  0  0  0  0  0  0  0  0  0  0
   67.6350   42.2371   56.5646 C   0  0  0  0  0  0  0  0  0  0  0  0
   68.2241   43.4971   56.8212 N   0  0  0  0  0  0  0  0  0  0  0  0
   67.4443   41.2062   57.5767 C   0  0  0  0  0  0  0  0  0  0  0  0
   68.0617   39.9723   57.5417 C   0  0  0  0  0  0  0  0  0  0  0  0
   67.8455   39.0271   58.5301 C   0  0  0  0  0  0  0  0  0  0  0  0
   66.9996   39.2933   59.5856 C   0  0  0  0  0  0  0  0  0  0  0  0
   66.4020   40.4980   59.6122 N   0  0  0  0  0  0  0  0  0  0  0  0
   66.6070   41.4232   58.6562 C   0  0  0  0  0  0  0  0  0  0  0  0
   70.5816   50.4081   54.5571 S   0  0  0  0  0  0  0  0  0  0  0  0
   72.0395   50.0897   54.9487 O   0  0  0  0  0  0  0  0  0  0  0  0
   70.6950   51.2399   53.2815 O   0  0  0  0  0  0  0  0  0  0  0  0
   69.9221   51.3573   55.7604 N   0  0  0  0  0  0  0  0  0  0  0  0
   70.4669   51.4290   57.0452 C   0  0  0  0  0  0  0  0  0  0  0  0
   69.8444   50.4570   58.0309 C   0  0  0  0  0  0  0  0  0  0  0  0
   68.3514   50.3239   57.7538 C   0  0  0  0  0  0  0  0  0  0  0  0
   67.8845   51.5628   57.0152 C   0  0  0  0  0  0  0  0  0  0  0  0
   68.5195   51.6092   55.6567 C   0  0  0  0  0  0  0  0  0  0  0  0
 11 12  2  0
 12 13  1  0
 12 14  1  0
 13  8  1  0
  8  9  1  0
  9 10  2  0
  9  1  1  0
  1  2  2  0
  1  7  1  0
  2  3  1  0
  3  4  2  0
  4  5  1  0
  4  6  1  0
  6 20  1  0
  6  7  2  0
 20 21  2  0
 20 22  2  0
 20 23  1  0
 23 24  1  0
 23 28  1  0
 24 25  1  0
 25 26  1  0
 26 27  1  0
 27 28  1  0
 14 15  2  0
 14 19  1  0
 15 16  1  0
 16 17  2  0
 17 18  1  0
 18 19  2  0
M  END
>  <minimizedAffinity>  (544) 
-8.62490

$$$$
cs_full_output_folder/data/smiles/7130.pdb
     RDKit          3D

 32 35  0  0  0  0  0  0  0  0999 V2000
   70.4879   44.0259   58.7997 C   0  0  0  0  0  0  0  0  0  0  0  0
   69.6778   43.1799   58.1802 C   0  0  0  0  0  0  0  0  0  0  0  0
   68.8439   43.4820   57.0999 N   0  0  0  0  0  0  0  0  0  0  0  0
   68.1799   42.2782   56.7406 C   0  0  0  0  0  0  0  0  0  0  0  0
   67.3521   42.1643   55.8122 O   0  0  0  0  0  0  0  0  0  0  0  0
   68.5806   41.1655   57.5955 C   0  0  0  0  0  0  0  0  0  0  0  0
   68.2190   39.8960   57.5554 C   0  0  0  0  0  0  0  0  0  0  0  0
   69.5446   41.7398   58.5236 C   0  0  0  0  0  0  0  0  0  0  0  0
   70.1589   41.1439   59.4452 O   0  0  0  0  0  0  0  0  0  0  0  0
   68.6957   38.8747   58.4880 C   0  0  0  0  0  0  0  0  0  0  0  0
   67.8329   38.4605   59.4815 C   0  0  0  0  0  0  0  0  0  0  0  0
   68.2574   37.5375   60.4162 C   0  0  0  0  0  0  0  0  0  0  0  0
   69.5222   37.0024   60.4018 C   0  0  0  0  0  0  0  0  0  0  0  0
   70.3712   37.4259   59.4037 C   0  0  0  0  0  0  0  0  0  0  0  0
   69.9569   38.3574   58.4522 C   0  0  0  0  0  0  0  0  0  0  0  0
   71.7415   36.9198   59.3574 C   0  0  0  0  0  0  0  0  0  0  0  0
   72.6048   37.3269   60.2106 O   0  0  0  0  0  0  0  0  0  0  0  0
   72.1909   35.9460   58.3628 C   0  0  0  0  0  0  0  0  0  0  0  0
   72.6255   36.3707   57.1095 C   0  0  0  0  0  0  0  0  0  0  0  0
   73.0810   35.4784   56.1630 C   0  0  0  0  0  0  0  0  0  0  0  0
   73.0951   34.1402   56.4937 C   0  0  0  0  0  0  0  0  0  0  0  0
   72.6652   33.6853   57.7437 C   0  0  0  0  0  0  0  0  0  0  0  0
   72.2159   34.6064   58.6681 C   0  0  0  0  0  0  0  0  0  0  0  0
   71.8938   46.0484   58.3990 C   0  0  0  0  0  0  0  0  0  0  0  0
   71.7203   47.3345   58.0505 N   0  0  0  0  0  0  0  0  0  0  0  0
   70.3959   47.5470   57.8674 C   0  0  0  0  0  0  0  0  0  0  0  0
   69.7720   46.3690   58.1107 N   0  0  0  0  0  0  0  0  0  0  0  0
   70.6347   45.4319   58.4376 C   0  0  0  0  0  0  0  0  0  0  0  0
   73.4125   44.1255   57.8789 C   0  0  0  0  0  0  0  0  0  0  0  0
   73.1982   45.3766   58.6913 C   0  0  0  0  0  0  0  0  0  0  0  0
   74.3357   46.3806   58.4217 C   0  0  0  0  0  0  0  0  0  0  0  0
   73.2832   45.0170   60.1517 C   0  0  0  0  0  0  0  0  0  0  0  0
 29 30  1  0
 30 31  1  0
 30 32  1  0
 30 24  1  0
 24 25  1  0
 24 28  2  0
 25 26  1  0
 26 27  2  0
 27 28  1  0
 28  1  1  0
  1  2  2  0
  2  3  1  0
  2  8  1  0
  3  4  1  0
  4  5  2  0
  4  6  1  0
  6  7  2  0
  6  8  1  0
  7 10  1  0
 10 11  2  0
 10 15  1  0
 11 12  1  0
 12 13  2  0
 13 14  1  0
 14 16  1  0
 14 15  2  0
 16 17  2  0
 16 18  1  0
 18 19  2  0
 18 23  1  0
 19 20  1  0
 20 21  2  0
 21 22  1  0
 22 23  2  0
  8  9  2  0
M  CHG  1  27   1
M  END
>  <minimizedAffinity>  (545) 
-8.62316

$$$$
cs_full_output_folder/data/smiles/6703.pdb
     RDKit          3D

 22 24  0  0  0  0  0  0  0  0999 V2000
   68.9957   48.6986   56.2528 C   0  0  0  0  0  0  0  0  0  0  0  0
   69.4181   48.6208   54.8180 C   0  0  0  0  0  0  0  0  0  0  0  0
   70.3072   49.5355   54.3360 N   0  0  0  0  0  0  0  0  0  0  0  0
   70.6578   49.5398   53.0671 N   0  0  0  0  0  0  0  0  0  0  0  0
   70.1783   48.6652   52.1720 C   0  0  0  0  0  0  0  0  0  0  0  0
   70.5317   48.6968   50.9676 O   0  0  0  0  0  0  0  0  0  0  0  0
   69.2641   47.6919   52.5768 C   0  0  0  0  0  0  0  0  0  0  0  0
   68.7717   46.7680   51.6798 C   0  0  0  0  0  0  0  0  0  0  0  0
   67.8854   45.7979   52.0991 C   0  0  0  0  0  0  0  0  0  0  0  0
   67.5208   45.7889   53.4235 C   0  0  0  0  0  0  0  0  0  0  0  0
   68.0237   46.7255   54.3145 C   0  0  0  0  0  0  0  0  0  0  0  0
   68.9126   47.7123   53.9221 C   0  0  0  0  0  0  0  0  0  0  0  0
   70.7898   46.0287   58.2717 C   0  0  0  0  0  0  0  0  0  0  0  0
   69.8864   46.7159   57.4914 C   0  0  0  0  0  0  0  0  0  0  0  0
   70.0544   48.0389   57.0876 C   0  0  0  0  0  0  0  0  0  0  0  0
   71.1885   48.6813   57.5005 C   0  0  0  0  0  0  0  0  0  0  0  0
   72.1403   48.0239   58.2980 C   0  0  0  0  0  0  0  0  0  0  0  0
   71.9288   46.7192   58.6685 C   0  0  0  0  0  0  0  0  0  0  0  0
   72.8734   46.1237   59.4373 F   0  0  0  0  0  0  0  0  0  0  0  0
   69.6340   44.3741   59.4341 O   0  0  0  0  0  0  0  0  0  0  0  0
   70.5707   44.6512   58.6706 C   0  0  0  0  0  0  0  0  0  0  0  0
   71.8337   43.1594   57.9559 I   0  0  0  0  0  0  0  0  0  0  0  0
 20 21  2  0
 21 22  1  0
 21 13  1  0
 13 14  2  0
 13 18  1  0
 14 15  1  0
 15  1  1  0
 15 16  2  0
  1  2  1  0
  2  3  2  0
  2 12  1  0
  3  4  1  0
  4  5  1  0
  5  6  2  0
  5  7  1  0
  7  8  1  0
  7 12  2  0
  8  9  2  0
  9 10  1  0
 10 11  2  0
 11 12  1  0
 16 17  1  0
 17 18  2  0
 18 19  1  0
M  END
>  <minimizedAffinity>  (546) 
-8.61643

$$$$
cs_full_output_folder/data/smiles/5592.pdb
     RDKit          3D

 30 34  0  0  0  0  0  0  0  0999 V2000
   71.6970   43.8091   59.0644 C   0  0  0  0  0  0  0  0  0  0  0  0
   70.6910   44.0366   58.1490 C   0  0  0  0  0  0  0  0  0  0  0  0
   70.5583   45.3858   57.9023 C   0  0  0  0  0  0  0  0  0  0  0  0
   69.7166   46.1535   57.0886 C   0  0  0  0  0  0  0  0  0  0  0  0
   69.7857   47.5175   57.0246 C   0  0  0  0  0  0  0  0  0  0  0  0
   70.7714   48.1144   57.8405 C   0  0  0  0  0  0  0  0  0  0  0  0
   71.5961   47.3609   58.6399 C   0  0  0  0  0  0  0  0  0  0  0  0
   71.5113   45.9890   58.6902 C   0  0  0  0  0  0  0  0  0  0  0  0
   72.1779   45.0248   59.3753 N   0  0  0  0  0  0  0  0  0  0  0  0
   71.9450   41.8482   64.8560 C   0  0  0  0  0  0  0  0  0  0  0  0
   71.9459   42.0296   63.4089 N   0  0  0  0  0  0  0  0  0  0  0  0
   70.6186   42.4568   63.0112 C   0  0  0  0  0  0  0  0  0  0  0  0
   70.5888   42.7457   61.5220 C   0  0  0  0  0  0  0  0  0  0  0  0
   71.5910   42.0055   60.7975 N   0  0  0  0  0  0  0  0  0  0  0  0
   72.1433   42.5024   59.5989 C   0  0  0  0  0  0  0  0  0  0  0  0
   73.0151   41.8659   58.9588 O   0  0  0  0  0  0  0  0  0  0  0  0
   72.0335   40.7387   61.3131 C   0  0  0  0  0  0  0  0  0  0  0  0
   72.1556   40.7271   62.8136 C   0  0  0  0  0  0  0  0  0  0  0  0
   68.9206   48.4108   56.2167 C   0  0  0  0  0  0  0  0  0  0  0  0
   69.2810   48.4757   54.7839 C   0  0  0  0  0  0  0  0  0  0  0  0
   70.1616   49.4105   54.3793 N   0  0  0  0  0  0  0  0  0  0  0  0
   70.6037   49.5090   53.1393 N   0  0  0  0  0  0  0  0  0  0  0  0
   70.1590   48.6418   52.2302 C   0  0  0  0  0  0  0  0  0  0  0  0
   70.5995   48.7575   51.0464 O   0  0  0  0  0  0  0  0  0  0  0  0
   69.2514   47.6526   52.5654 C   0  0  0  0  0  0  0  0  0  0  0  0
   68.8034   46.8011   51.5793 C   0  0  0  0  0  0  0  0  0  0  0  0
   67.8750   45.8411   51.9273 C   0  0  0  0  0  0  0  0  0  0  0  0
   67.4061   45.7420   53.2458 C   0  0  0  0  0  0  0  0  0  0  0  0
   67.8771   46.6092   54.2035 C   0  0  0  0  0  0  0  0  0  0  0  0
   68.8059   47.5710   53.8683 C   0  0  0  0  0  0  0  0  0  0  0  0
 10 11  1  0
 11 12  1  0
 11 18  1  0
 12 13  1  0
 13 14  1  0
 14 15  1  0
 14 17  1  0
 15 16  2  0
 15  1  1  0
  1  2  2  0
  1  9  1  0
  2  3  1  0
  3  4  2  0
  3  8  1  0
  4  5  1  0
  5 19  1  0
  5  6  2  0
 19 20  1  0
 20 21  2  0
 20 30  1  0
 21 22  1  0
 22 23  1  0
 23 24  2  0
 23 25  1  0
 25 26  1  0
 25 30  2  0
 26 27  2  0
 27 28  1  0
 28 29  2  0
 29 30  1  0
  6  7  1  0
  7  8  2  0
  8  9  1  0
 17 18  1  0
M  CHG  1  11   1
M  END
>  <minimizedAffinity>  (547) 
-8.61445

$$$$
cs_full_output_folder/data/smiles/6398.pdb
     RDKit          3D

 31 35  0  0  0  0  0  0  0  0999 V2000
   70.7919   49.4038   58.1179 C   0  0  0  0  0  0  0  0  0  0  0  0
   70.8365   48.9429   56.8194 C   0  0  0  0  0  0  0  0  0  0  0  0
   69.9530   49.3048   55.8397 C   0  0  0  0  0  0  0  0  0  0  0  0
   68.9460   50.2007   56.2053 C   0  0  0  0  0  0  0  0  0  0  0  0
   68.8671   50.6845   57.4945 C   0  0  0  0  0  0  0  0  0  0  0  0
   69.7858   50.2896   58.4493 C   0  0  0  0  0  0  0  0  0  0  0  0
   69.7151   50.7648   59.7334 F   0  0  0  0  0  0  0  0  0  0  0  0
   69.9771   48.8622   54.4517 C   0  0  0  0  0  0  0  0  0  0  0  0
   70.7961   49.4943   53.5551 N   0  0  0  0  0  0  0  0  0  0  0  0
   70.8428   49.1127   52.3002 N   0  0  0  0  0  0  0  0  0  0  0  0
   70.1133   48.0990   51.8103 C   0  0  0  0  0  0  0  0  0  0  0  0
   70.2081   47.7848   50.5846 O   0  0  0  0  0  0  0  0  0  0  0  0
   69.2555   47.3952   52.6357 C   0  0  0  0  0  0  0  0  0  0  0  0
   68.5056   46.3405   52.1583 C   0  0  0  0  0  0  0  0  0  0  0  0
   67.6756   45.6504   53.0113 C   0  0  0  0  0  0  0  0  0  0  0  0
   67.6309   46.0534   54.3276 C   0  0  0  0  0  0  0  0  0  0  0  0
   68.3837   47.1155   54.8172 C   0  0  0  0  0  0  0  0  0  0  0  0
   69.2201   47.8169   53.9675 C   0  0  0  0  0  0  0  0  0  0  0  0
   71.5597   47.8863   59.7062 O   0  0  0  0  0  0  0  0  0  0  0  0
   71.7760   48.9680   59.1032 C   0  0  0  0  0  0  0  0  0  0  0  0
   72.9442   49.6865   59.4107 N   0  0  0  0  0  0  0  0  0  0  0  0
   73.2958   50.9500   58.7746 C   0  0  0  0  0  0  0  0  0  0  0  0
   74.4571   50.5699   57.8362 C   0  0  0  0  0  0  0  0  0  0  0  0
   75.4239   49.7701   58.5245 N   0  0  0  0  0  0  0  0  0  0  0  0
   76.5539   49.2759   57.8498 C   0  0  0  0  0  0  0  0  0  0  0  0
   77.4183   48.5885   58.5541 O   0  0  0  0  0  0  0  0  0  0  0  0
   75.2846   49.4383   59.9400 C   0  0  0  0  0  0  0  0  0  0  0  0
   73.8900   49.2127   60.3953 C   0  0  0  0  0  0  0  0  0  0  0  0
   76.9416   49.4065   56.4453 C   0  0  0  0  0  0  0  0  0  0  0  0
   78.2203   49.1638   55.8240 C   0  0  0  0  0  0  0  0  0  0  0  0
   77.9049   50.5985   56.1981 C   0  0  0  0  0  0  0  0  0  0  0  0
 19 20  2  0
 20  1  1  0
 20 21  1  0
  1  2  2  0
  1  6  1  0
  2  3  1  0
  3  8  1  0
  3  4  2  0
  8  9  2  0
  8 18  1  0
  9 10  1  0
 10 11  1  0
 11 12  2  0
 11 13  1  0
 13 14  1  0
 13 18  2  0
 14 15  2  0
 15 16  1  0
 16 17  2  0
 17 18  1  0
  4  5  1  0
  5  6  2  0
  6  7  1  0
 21 22  1  0
 21 28  1  0
 22 23  1  0
 23 24  1  0
 24 25  1  0
 24 27  1  0
 25 26  2  0
 25 29  1  0
 29 30  1  0
 29 31  1  0
 30 31  1  0
 27 28  1  0
M  END
>  <minimizedAffinity>  (548) 
-8.60770

$$$$
cs_full_output_folder/data/smiles/4748.pdb
     RDKit          3D

 29 31  0  0  0  0  0  0  0  0999 V2000
   70.2139   40.2935   58.6267 C   0  0  0  0  0  0  0  0  0  0  0  0
   69.3879   39.1906   58.5996 C   0  0  0  0  0  0  0  0  0  0  0  0
   68.1854   39.2385   57.9246 C   0  0  0  0  0  0  0  0  0  0  0  0
   67.8035   40.4066   57.2687 C   0  0  0  0  0  0  0  0  0  0  0  0
   68.6142   41.5187   57.2835 C   0  0  0  0  0  0  0  0  0  0  0  0
   69.8039   41.4413   57.9629 C   0  0  0  0  0  0  0  0  0  0  0  0
   71.7655   40.2637   59.4818 S   0  0  0  0  0  0  0  0  0  0  0  0
   72.6189   39.2644   58.7218 O   0  0  0  0  0  0  0  0  0  0  0  0
   71.5641   39.8491   60.8886 O   0  0  0  0  0  0  0  0  0  0  0  0
   71.2700   42.9446   61.0487 C   0  0  0  0  0  0  0  0  0  0  0  0
   72.6402   42.5359   60.5085 C   0  0  2  0  0  0  0  0  0  0  0  0
   73.5314   43.7275   60.3263 C   0  0  0  0  0  0  0  0  0  0  0  0
   73.3903   44.2409   58.9237 C   0  0  0  0  0  0  0  0  0  0  0  0
   73.9542   43.2091   57.9626 C   0  0  0  0  0  0  0  0  0  0  0  0
   73.5429   41.8107   58.3766 C   0  0  0  0  0  0  0  0  0  0  0  0
   72.4683   41.8032   59.3093 N   0  0  0  0  0  0  0  0  0  0  0  0
   68.1691   42.7226   56.5765 C   0  0  0  0  0  0  0  0  0  0  0  0
   67.0858   42.7266   55.9190 O   0  0  0  0  0  0  0  0  0  0  0  0
   68.8906   43.9376   56.5717 N   0  0  0  0  0  0  0  0  0  0  0  0
   68.4620   45.0859   55.8941 N   0  0  0  0  0  0  0  0  0  0  0  0
   68.9354   46.3779   56.1315 C   0  0  0  0  0  0  0  0  0  0  0  0
   69.8120   46.5616   57.0109 O   0  0  0  0  0  0  0  0  0  0  0  0
   68.4101   47.5041   55.3556 C   0  0  0  0  0  0  0  0  0  0  0  0
   68.8234   47.5308   53.9545 C   0  0  0  0  0  0  0  0  0  0  0  0
   69.7756   48.4308   53.5387 C   0  0  0  0  0  0  0  0  0  0  0  0
   70.1636   48.4505   52.2166 C   0  0  0  0  0  0  0  0  0  0  0  0
   69.6254   47.5956   51.3024 N   0  0  0  0  0  0  0  0  0  0  0  0
   68.7046   46.7161   51.6800 C   0  0  0  0  0  0  0  0  0  0  0  0
   68.2916   46.6740   53.0168 C   0  0  0  0  0  0  0  0  0  0  0  0
 11 10  1  6
 11 12  1  0
 11 16  1  0
 12 13  1  0
 13 14  1  0
 14 15  1  0
 15 16  1  0
 16  7  1  0
  7  8  2  0
  7  9  2  0
  7  1  1  0
  1  2  2  0
  1  6  1  0
  2  3  1  0
  3  4  2  0
  4  5  1  0
  5 17  1  0
  5  6  2  0
 17 18  2  0
 17 19  1  0
 19 20  1  0
 20 21  1  0
 21 22  2  0
 21 23  1  0
 23 24  1  0
 24 25  2  0
 24 29  1  0
 25 26  1  0
 26 27  2  0
 27 28  1  0
 28 29  2  0
M  END
>  <minimizedAffinity>  (549) 
-8.60553

$$$$
cs_full_output_folder/data/smiles/7197.pdb
     RDKit          3D

 28 31  0  0  0  0  0  0  0  0999 V2000
   71.6310   47.3859   58.4866 C   0  0  0  0  0  0  0  0  0  0  0  0
   70.7058   48.1032   57.7554 C   0  0  0  0  0  0  0  0  0  0  0  0
   69.6948   47.4889   57.0085 C   0  0  0  0  0  0  0  0  0  0  0  0
   69.6505   46.1254   57.0294 C   0  0  0  0  0  0  0  0  0  0  0  0
   70.5859   45.4159   57.7689 C   0  0  0  0  0  0  0  0  0  0  0  0
   71.5782   46.0069   58.5002 C   0  0  0  0  0  0  0  0  0  0  0  0
   72.4754   45.2827   59.2039 F   0  0  0  0  0  0  0  0  0  0  0  0
   74.5018   49.4149   57.4602 N   0  0  0  0  0  0  0  0  0  0  0  0
   75.3114   48.9339   58.5604 C   0  0  0  0  0  0  0  0  0  0  0  0
   74.5316   47.7493   59.1584 C   0  0  0  0  0  0  0  0  0  0  0  0
   72.8545   48.3260   59.3771 P   0  0  0  0  0  0  0  0  0  0  0  0
   72.5267   48.1605   60.8667 O   0  0  0  0  0  0  0  0  0  0  0  0
   72.6689   50.0746   58.9443 C   0  0  0  0  0  0  0  0  0  0  0  0
   73.5976   50.4845   57.8342 C   0  0  0  0  0  0  0  0  0  0  0  0
   74.5200   50.6757   55.3916 C   0  0  0  0  0  0  0  0  0  0  0  0
   75.3020   49.7671   56.3074 C   0  0  0  0  0  0  0  0  0  0  0  0
   68.7552   48.3829   56.2821 C   0  0  0  0  0  0  0  0  0  0  0  0
   69.2029   48.4709   54.8705 C   0  0  0  0  0  0  0  0  0  0  0  0
   70.1205   49.4150   54.4929 N   0  0  0  0  0  0  0  0  0  0  0  0
   70.5888   49.5089   53.2657 N   0  0  0  0  0  0  0  0  0  0  0  0
   70.1914   48.6755   52.2913 C   0  0  0  0  0  0  0  0  0  0  0  0
   70.6298   48.7583   51.1188 O   0  0  0  0  0  0  0  0  0  0  0  0
   69.2604   47.6833   52.5741 C   0  0  0  0  0  0  0  0  0  0  0  0
   68.8431   46.8449   51.5896 C   0  0  0  0  0  0  0  0  0  0  0  0
   67.8979   45.8620   51.8709 C   0  0  0  0  0  0  0  0  0  0  0  0
   67.4186   45.7819   53.1599 C   0  0  0  0  0  0  0  0  0  0  0  0
   67.8637   46.6468   54.1349 C   0  0  0  0  0  0  0  0  0  0  0  0
   68.7922   47.6226   53.8915 C   0  0  0  0  0  0  0  0  0  0  0  0
 15 16  1  0
 16  8  1  0
  8  9  1  0
  8 14  1  0
  9 10  1  0
 10 11  1  0
 11 12  2  0
 11  1  1  0
 11 13  1  0
  1  2  2  0
  1  6  1  0
  2  3  1  0
  3 17  1  0
  3  4  2  0
 17 18  1  0
 18 19  2  0
 18 28  1  0
 19 20  1  0
 20 21  1  0
 21 22  2  0
 21 23  1  0
 23 24  1  0
 23 28  2  0
 24 25  2  0
 25 26  1  0
 26 27  2  0
 27 28  1  0
  4  5  1  0
  5  6  2  0
  6  7  1  0
 13 14  1  0
M  CHG  1   8   1
M  END
>  <minimizedAffinity>  (550) 
-8.60233

$$$$
cs_full_output_folder/data/smiles/7142.pdb
     RDKit          3D

 32 36  0  0  0  0  0  0  0  0999 V2000
   72.0286   48.2171   59.0018 C   0  0  0  0  0  0  0  0  0  0  0  0
   70.7674   48.2948   58.4012 C   0  0  0  0  0  0  0  0  0  0  0  0
   70.5267   49.1266   57.3402 C   0  0  0  0  0  0  0  0  0  0  0  0
   71.5419   49.9363   56.8149 C   0  0  0  0  0  0  0  0  0  0  0  0
   72.7820   49.8640   57.4006 C   0  0  0  0  0  0  0  0  0  0  0  0
   73.0137   49.0208   58.4701 C   0  0  0  0  0  0  0  0  0  0  0  0
   74.2493   48.9456   59.0554 F   0  0  0  0  0  0  0  0  0  0  0  0
   72.4111   47.8492   61.2544 O   0  0  0  0  0  0  0  0  0  0  0  0
   72.2429   47.3162   60.1215 C   0  0  0  0  0  0  0  0  0  0  0  0
   72.2537   45.9144   59.9037 N   0  0  0  0  0  0  0  0  0  0  0  0
   72.0516   45.4390   58.5618 C   0  0  0  0  0  0  0  0  0  0  0  0
   72.5450   44.0278   58.3326 C   0  0  0  0  0  0  0  0  0  0  0  0
   72.0183   43.1842   59.4403 C   0  0  0  0  0  0  0  0  0  0  0  0
   72.5082   41.7550   59.2303 C   0  0  0  0  0  0  0  0  0  0  0  0
   71.5012   40.9221   58.4674 C   0  0  0  0  0  0  0  0  0  0  0  0
   70.7870   41.7308   57.5054 N   0  0  0  0  0  0  0  0  0  0  0  0
   69.8979   42.6172   58.2345 C   0  0  0  0  0  0  0  0  0  0  0  0
   70.5203   43.1293   59.4963 C   0  0  0  0  0  0  0  0  0  0  0  0
   72.5340   43.6208   60.7885 C   0  0  0  0  0  0  0  0  0  0  0  0
   72.4661   45.0743   61.0538 C   0  0  0  0  0  0  0  0  0  0  0  0
   69.1817   49.2089   56.6678 C   0  0  0  0  0  0  0  0  0  0  0  0
   68.8832   48.0504   55.8240 C   0  0  0  0  0  0  0  0  0  0  0  0
   68.3120   46.9608   56.4348 N   0  0  0  0  0  0  0  0  0  0  0  0
   67.9642   45.8899   55.7501 N   0  0  0  0  0  0  0  0  0  0  0  0
   68.1283   45.7629   54.4317 C   0  0  0  0  0  0  0  0  0  0  0  0
   67.7704   44.7015   53.8231 O   0  0  0  0  0  0  0  0  0  0  0  0
   68.6967   46.8143   53.7524 C   0  0  0  0  0  0  0  0  0  0  0  0
   68.9052   46.7372   52.3891 C   0  0  0  0  0  0  0  0  0  0  0  0
   69.4950   47.8120   51.7364 C   0  0  0  0  0  0  0  0  0  0  0  0
   69.8635   48.9295   52.4380 C   0  0  0  0  0  0  0  0  0  0  0  0
   69.6346   48.9625   53.8058 C   0  0  0  0  0  0  0  0  0  0  0  0
   69.0587   47.9313   54.4776 C   0  0  0  0  0  0  0  0  0  0  0  0
  8  9  2  0
  9  1  1  0
  9 10  1  0
  1  2  2  0
  1  6  1  0
  2  3  1  0
  3 21  1  0
  3  4  2  0
 21 22  1  0
 22 23  2  0
 22 32  1  0
 23 24  1  0
 24 25  1  0
 25 26  2  0
 25 27  1  0
 27 28  1  0
 27 32  2  0
 28 29  2  0
 29 30  1  0
 30 31  2  0
 31 32  1  0
  4  5  1  0
  5  6  2  0
  6  7  1  0
 10 11  1  0
 10 20  1  0
 11 12  1  0
 12 13  1  0
 13 14  1  0
 13 18  1  0
 13 19  1  0
 14 15  1  0
 15 16  1  0
 16 17  1  0
 17 18  1  0
 19 20  1  0
M  CHG  1  16   1
M  END
>  <minimizedAffinity>  (551) 
-8.60147

$$$$
cs_full_output_folder/data/smiles/6469.pdb
     RDKit          3D

 32 36  0  0  0  0  0  0  0  0999 V2000
   73.8296   51.0144   55.1963 C   0  0  0  0  0  0  0  0  0  0  0  0
   72.4811   50.6624   55.0908 C   0  0  0  0  0  0  0  0  0  0  0  0
   71.4988   51.5217   54.6706 C   0  0  0  0  0  0  0  0  0  0  0  0
   71.8577   52.8282   54.3293 C   0  0  0  0  0  0  0  0  0  0  0  0
   73.1716   53.1871   54.4275 C   0  0  0  0  0  0  0  0  0  0  0  0
   74.1516   52.3182   54.8495 C   0  0  0  0  0  0  0  0  0  0  0  0
   75.4566   52.6652   54.9502 F   0  0  0  0  0  0  0  0  0  0  0  0
   75.5327   49.4846   54.7373 O   0  0  0  0  0  0  0  0  0  0  0  0
   74.8503   50.0701   55.6425 C   0  0  0  0  0  0  0  0  0  0  0  0
   75.1230   49.7752   56.9795 N   0  0  0  0  0  0  0  0  0  0  0  0
   76.1294   48.8517   57.4655 C   0  0  0  0  0  0  0  0  0  0  0  0
   75.9035   48.7241   58.9575 C   0  0  0  0  0  0  0  0  0  0  0  0
   74.4351   49.0965   59.0470 C   0  0  1  0  0  0  0  0  0  0  0  0
   74.4764   50.3069   58.1508 C   0  0  0  0  0  0  0  0  0  0  0  0
   73.6349   48.0485   58.6096 N   0  0  0  0  0  0  0  0  0  0  0  0
   73.8754   46.7551   59.0841 C   0  0  0  0  0  0  0  0  0  0  0  0
   72.9879   45.6849   58.4985 C   0  0  0  0  0  0  0  0  0  0  0  0
   71.5463   46.0493   58.4277 C   0  0  0  0  0  0  0  0  0  0  0  0
   71.3544   47.4604   58.9070 C   0  0  0  0  0  0  0  0  0  0  0  0
   72.3421   48.3232   58.1032 C   0  0  0  0  0  0  0  0  0  0  0  0
   70.0511   51.1523   54.5374 C   0  0  0  0  0  0  0  0  0  0  0  0
   69.8135   50.0180   53.6285 C   0  0  0  0  0  0  0  0  0  0  0  0
   70.1035   50.1321   52.2996 N   0  0  0  0  0  0  0  0  0  0  0  0
   69.9604   49.1505   51.4384 N   0  0  0  0  0  0  0  0  0  0  0  0
   69.5124   47.9425   51.8017 C   0  0  0  0  0  0  0  0  0  0  0  0
   69.3691   46.9884   50.9965 O   0  0  0  0  0  0  0  0  0  0  0  0
   69.1975   47.7546   53.1388 C   0  0  0  0  0  0  0  0  0  0  0  0
   68.7176   46.5188   53.5400 C   0  0  0  0  0  0  0  0  0  0  0  0
   68.3852   46.3175   54.8544 C   0  0  0  0  0  0  0  0  0  0  0  0
   68.5351   47.3505   55.7544 C   0  0  0  0  0  0  0  0  0  0  0  0
   69.0098   48.5879   55.3792 C   0  0  0  0  0  0  0  0  0  0  0  0
   69.3488   48.7998   54.0573 C   0  0  0  0  0  0  0  0  0  0  0  0
  8  9  2  0
  9  1  1  0
  9 10  1  0
  1  2  2  0
  1  6  1  0
  2  3  1  0
  3 21  1  0
  3  4  2  0
 21 22  1  0
 22 23  2  0
 22 32  1  0
 23 24  1  0
 24 25  1  0
 25 26  2  0
 25 27  1  0
 27 28  1  0
 27 32  2  0
 28 29  2  0
 29 30  1  0
 30 31  2  0
 31 32  1  0
  4  5  1  0
  5  6  2  0
  6  7  1  0
 10 11  1  0
 10 14  1  0
 11 12  1  0
 12 13  1  0
 13 15  1  6
 13 14  1  0
 15 16  1  0
 15 20  1  0
 16 17  1  0
 17 18  1  0
 18 19  1  0
 19 20  1  0
M  CHG  1  15   1
M  END
>  <minimizedAffinity>  (552) 
-8.59371

$$$$
cs_full_output_folder/data/smiles/4100.pdb
     RDKit          3D

 28 29  0  0  0  0  0  0  0  0999 V2000
   71.9652   44.0166   59.7767 C   0  0  0  0  0  0  0  0  0  0  0  0
   73.5569   44.6240   59.7922 S   0  0  0  0  0  0  0  0  0  0  0  0
   71.7435   41.8445   58.5600 C   0  0  0  0  0  0  0  0  0  0  0  0
   71.6128   42.3850   57.4338 O   0  0  0  0  0  0  0  0  0  0  0  0
   71.9122   42.6304   59.7112 N   0  0  0  0  0  0  0  0  0  0  0  0
   71.5203   37.5523   58.7227 C   0  0  0  0  0  0  0  0  0  0  0  0
   70.3964   38.3191   58.5215 C   0  0  0  0  0  0  0  0  0  0  0  0
   70.5009   39.7051   58.4738 C   0  0  0  0  0  0  0  0  0  0  0  0
   71.7132   40.3630   58.6227 C   0  0  0  0  0  0  0  0  0  0  0  0
   72.8205   39.5966   58.8216 C   0  0  0  0  0  0  0  0  0  0  0  0
   72.7255   38.1962   58.8711 C   0  0  0  0  0  0  0  0  0  0  0  0
   71.5333   35.5836   60.1937 C   0  0  0  0  0  0  0  0  0  0  0  0
   71.4485   36.0627   58.7794 C   0  0  0  0  0  0  0  0  0  0  0  0
   72.5560   35.4646   57.9306 C   0  0  0  0  0  0  0  0  0  0  0  0
   71.0045   44.9697   59.7973 N   0  0  0  0  0  0  0  0  0  0  0  0
   69.9061   45.2297   59.0085 N   0  0  0  0  0  0  0  0  0  0  0  0
   70.0358   45.9606   57.7810 C   0  0  0  0  0  0  0  0  0  0  0  0
   71.1586   46.3672   57.4227 O   0  0  0  0  0  0  0  0  0  0  0  0
   68.9242   46.2437   56.9469 N   0  0  0  0  0  0  0  0  0  0  0  0
   68.9918   46.9616   55.7234 C   0  0  0  0  0  0  0  0  0  0  0  0
   69.5544   48.2165   55.6174 C   0  0  0  0  0  0  0  0  0  0  0  0
   69.6004   48.8827   54.4081 C   0  0  0  0  0  0  0  0  0  0  0  0
   69.0895   48.3256   53.2535 C   0  0  0  0  0  0  0  0  0  0  0  0
   68.5262   47.0716   53.3519 C   0  0  0  0  0  0  0  0  0  0  0  0
   68.4820   46.4094   54.5616 C   0  0  0  0  0  0  0  0  0  0  0  0
   67.9831   46.4582   52.1726 N   0  0  0  0  0  0  0  0  0  0  0  0
   67.1275   45.5804   52.2578 O   0  0  0  0  0  0  0  0  0  0  0  0
   68.4031   46.8347   50.9269 O   0  0  0  0  0  0  0  0  0  0  0  0
 12 13  1  0
 13 14  1  0
 13  6  1  0
  6  7  2  0
  6 11  1  0
  7  8  1  0
  8  9  2  0
  9  3  1  0
  9 10  1  0
  3  4  2  0
  3  5  1  0
  5  1  1  0
  1  2  2  0
  1 15  1  0
 15 16  1  0
 16 17  1  0
 17 18  2  0
 17 19  1  0
 19 20  1  0
 20 21  2  0
 20 25  1  0
 21 22  1  0
 22 23  2  0
 23 24  1  0
 24 26  1  0
 24 25  2  0
 26 27  2  0
 26 28  1  0
 10 11  2  0
M  CHG  2  26   1  28  -1
M  END
>  <minimizedAffinity>  (553) 
-8.58901

$$$$
cs_full_output_folder/data/smiles/5057.pdb
     RDKit          3D

 29 31  0  0  0  0  0  0  0  0999 V2000
   68.6103   46.2118   54.7897 C   0  0  0  0  0  0  0  0  0  0  0  0
   69.1227   47.1899   55.6528 C   0  0  0  0  0  0  0  0  0  0  0  0
   69.5320   48.4200   55.1888 C   0  0  0  0  0  0  0  0  0  0  0  0
   69.4637   48.7606   53.8539 C   0  0  0  0  0  0  0  0  0  0  0  0
   68.9622   47.8071   52.9941 C   0  0  0  0  0  0  0  0  0  0  0  0
   68.5446   46.5550   53.4621 C   0  0  0  0  0  0  0  0  0  0  0  0
   67.3556   44.2340   54.6545 O   0  0  0  0  0  0  0  0  0  0  0  0
   68.1868   44.9209   55.3111 C   0  0  0  0  0  0  0  0  0  0  0  0
   68.6665   44.3934   56.5293 N   0  0  0  0  0  0  0  0  0  0  0  0
   68.2451   43.1383   57.0205 N   0  0  0  0  0  0  0  0  0  0  0  0
   69.1833   42.2020   57.4999 C   0  0  0  0  0  0  0  0  0  0  0  0
   70.4129   42.5923   57.4478 O   0  0  0  0  0  0  0  0  0  0  0  0
   68.8965   40.8793   58.0321 C   0  0  0  0  0  0  0  0  0  0  0  0
   69.2851   40.6102   59.3552 C   0  0  0  0  0  0  0  0  0  0  0  0
   69.0825   39.4220   59.9813 C   0  0  0  0  0  0  0  0  0  0  0  0
   68.4575   38.4085   59.2851 C   0  0  0  0  0  0  0  0  0  0  0  0
   68.0620   38.6376   57.9852 C   0  0  0  0  0  0  0  0  0  0  0  0
   68.2772   39.8690   57.3505 C   0  0  0  0  0  0  0  0  0  0  0  0
   67.8581   40.0359   56.0452 O   0  0  0  0  0  0  0  0  0  0  0  0
   69.9907   50.3314   53.2789 S   0  0  0  0  0  0  0  0  0  0  0  0
   69.8433   50.4171   51.7759 O   0  0  0  0  0  0  0  0  0  0  0  0
   71.4465   50.5137   53.5780 O   0  0  0  0  0  0  0  0  0  0  0  0
   69.1266   51.6123   54.0476 N   0  0  0  0  0  0  0  0  0  0  0  0
   68.9647   51.6875   55.4470 C   0  0  0  0  0  0  0  0  0  0  0  0
   67.8199   51.4674   56.0162 C   0  0  0  0  0  0  0  0  0  0  0  0
   67.7121   51.2443   57.2932 C   0  0  0  0  0  0  0  0  0  0  0  0
   68.9061   51.0234   58.0921 C   0  0  0  0  0  0  0  0  0  0  0  0
   70.0862   51.3925   57.6229 C   0  0  0  0  0  0  0  0  0  0  0  0
   70.1347   52.0253   56.2788 C   0  0  0  0  0  0  0  0  0  0  0  0
  7  8  2  0
  8  9  1  0
  8  1  1  0
  9 10  1  0
 10 11  1  0
 11 12  2  0
 11 13  1  0
 13 14  2  0
 13 18  1  0
 14 15  1  0
 15 16  2  0
 16 17  1  0
 17 18  2  0
 18 19  1  0
  1  2  2  0
  1  6  1  0
  2  3  1  0
  3  4  2  0
  4 20  1  0
  4  5  1  0
 20 21  2  0
 20 22  2  0
 20 23  1  0
 23 24  1  0
 24 25  2  0
 24 29  1  0
 25 26  2  0
 26 27  1  0
 27 28  2  0
 28 29  1  0
  5  6  2  0
M  END
>  <minimizedAffinity>  (554) 
-8.58898

$$$$
cs_full_output_folder/data/smiles/1308.pdb
     RDKit          3D

 22 24  0  0  0  0  0  0  0  0999 V2000
   69.0605   48.7086   56.2012 C   0  0  0  0  0  0  0  0  0  0  0  0
   69.4302   48.5865   54.7682 C   0  0  0  0  0  0  0  0  0  0  0  0
   70.3323   49.4895   54.2704 N   0  0  0  0  0  0  0  0  0  0  0  0
   70.7087   49.5461   53.0236 N   0  0  0  0  0  0  0  0  0  0  0  0
   70.2012   48.6717   52.1156 C   0  0  0  0  0  0  0  0  0  0  0  0
   70.5485   48.7086   50.9108 O   0  0  0  0  0  0  0  0  0  0  0  0
   69.2894   47.7311   52.5369 C   0  0  0  0  0  0  0  0  0  0  0  0
   68.7496   46.8003   51.6461 C   0  0  0  0  0  0  0  0  0  0  0  0
   67.8528   45.8607   52.0919 C   0  0  0  0  0  0  0  0  0  0  0  0
   67.4934   45.8529   53.4435 C   0  0  0  0  0  0  0  0  0  0  0  0
   68.0153   46.7636   54.3344 C   0  0  0  0  0  0  0  0  0  0  0  0
   68.9031   47.6942   53.8841 C   0  0  0  0  0  0  0  0  0  0  0  0
   70.3773   45.7598   58.1085 C   0  0  0  0  0  0  0  0  0  0  0  0
   71.5130   46.3083   58.6714 C   0  0  0  0  0  0  0  0  0  0  0  0
   71.8670   47.6206   58.4566 C   0  0  0  0  0  0  0  0  0  0  0  0
   71.0912   48.4695   57.6528 C   0  0  0  0  0  0  0  0  0  0  0  0
   69.9689   47.9264   57.0962 C   0  0  0  0  0  0  0  0  0  0  0  0
   69.6171   46.5895   57.3226 C   0  0  0  0  0  0  0  0  0  0  0  0
   69.9910   44.4445   58.3048 O   0  0  0  0  0  0  0  0  0  0  0  0
   69.1014   42.4923   57.3763 C   0  0  0  0  0  0  0  0  0  0  0  0
   70.1991   43.4142   57.4512 N   0  0  0  0  0  0  0  0  0  0  0  0
   71.9016   42.3574   58.0271 I   0  0  0  0  0  0  0  0  0  0  0  0
 20 21  1  0
 21 22  1  0
 21 19  1  0
 19 13  1  0
 13 14  2  0
 13 18  1  0
 14 15  1  0
 15 16  2  0
 16 17  1  0
 17  1  1  0
 17 18  2  0
  1  2  1  0
  2  3  2  0
  2 12  1  0
  3  4  1  0
  4  5  1  0
  5  6  2  0
  5  7  1  0
  7  8  1  0
  7 12  2  0
  8  9  2  0
  9 10  1  0
 10 11  2  0
 11 12  1  0
M  END
>  <minimizedAffinity>  (555) 
-8.58507

$$$$
cs_full_output_folder/data/smiles/2379.pdb
     RDKit          3D

 27 28  0  0  0  0  0  0  0  0999 V2000
   69.2282   46.6902   56.6030 S   0  0  0  0  0  0  0  0  0  0  0  0
   69.2525   45.2737   57.1429 O   0  0  0  0  0  0  0  0  0  0  0  0
   70.6738   47.1698   56.7703 O   0  0  0  0  0  0  0  0  0  0  0  0
   68.8861   46.6956   54.8980 C   0  0  0  0  0  0  0  0  0  0  0  0
   69.3060   47.7382   54.0976 C   0  0  0  0  0  0  0  0  0  0  0  0
   70.0311   48.7706   54.6203 F   0  0  0  0  0  0  0  0  0  0  0  0
   68.9988   47.7479   52.7645 C   0  0  0  0  0  0  0  0  0  0  0  0
   69.3901   48.7538   51.9328 F   0  0  0  0  0  0  0  0  0  0  0  0
   68.2665   46.7228   52.1973 C   0  0  0  0  0  0  0  0  0  0  0  0
   67.9488   46.7122   50.8692 F   0  0  0  0  0  0  0  0  0  0  0  0
   67.8233   45.6523   52.9662 C   0  0  0  0  0  0  0  0  0  0  0  0
   67.1150   44.6654   52.4039 F   0  0  0  0  0  0  0  0  0  0  0  0
   68.1451   45.6666   54.3019 C   0  0  0  0  0  0  0  0  0  0  0  0
   67.7390   44.6429   55.1150 F   0  0  0  0  0  0  0  0  0  0  0  0
   68.2379   47.6942   57.5534 N   0  0  0  0  0  0  0  0  0  0  0  0
   69.6554   51.1105   57.2011 C   0  0  0  0  0  0  0  0  0  0  0  0
   69.5315   49.7494   57.3221 C   0  0  0  0  0  0  0  0  0  0  0  0
   68.2871   49.1045   57.4603 C   0  0  0  0  0  0  0  0  0  0  0  0
   67.1312   49.8478   57.4785 C   0  0  0  0  0  0  0  0  0  0  0  0
   67.2549   51.2163   57.3570 C   0  0  0  0  0  0  0  0  0  0  0  0
   68.4799   51.8438   57.2205 C   0  0  0  0  0  0  0  0  0  0  0  0
   68.5785   53.1941   57.1017 F   0  0  0  0  0  0  0  0  0  0  0  0
   73.3676   52.9366   54.3451 C   0  0  0  0  0  0  0  0  0  0  0  0
   72.7962   52.6384   55.6673 N   0  0  0  0  0  0  0  0  0  0  0  0
   71.5349   52.0337   55.8180 C   0  0  0  0  0  0  0  0  0  0  0  0
   70.8602   51.7323   54.7817 O   0  0  0  0  0  0  0  0  0  0  0  0
   70.9327   51.7231   57.0636 N   0  0  0  0  0  0  0  0  0  0  0  0
 23 24  1  0
 24 25  1  0
 25 26  2  0
 25 27  1  0
 27 16  1  0
 16 17  2  0
 16 21  1  0
 17 18  1  0
 18 15  1  0
 18 19  2  0
 15  1  1  0
  1  2  2  0
  1  3  2  0
  1  4  1  0
  4  5  2  0
  4 13  1  0
  5  6  1  0
  5  7  1  0
  7  8  1  0
  7  9  2  0
  9 10  1  0
  9 11  1  0
 11 12  1  0
 11 13  2  0
 13 14  1  0
 19 20  1  0
 20 21  2  0
 21 22  1  0
M  END
>  <minimizedAffinity>  (556) 
-8.58402

$$$$
cs_full_output_folder/data/smiles/3719.pdb
     RDKit          3D

 23 25  0  0  0  0  0  0  0  0999 V2000
   70.6136   48.7238   51.0063 O   0  0  0  0  0  0  0  0  0  0  0  0
   70.1825   48.6854   52.2196 C   0  0  0  0  0  0  0  0  0  0  0  0
   70.5797   49.5869   53.1202 N   0  0  0  0  0  0  0  0  0  0  0  0
   70.1635   49.5775   54.3593 N   0  0  0  0  0  0  0  0  0  0  0  0
   69.2757   48.6385   54.8590 C   0  0  0  0  0  0  0  0  0  0  0  0
   68.8582   47.7160   53.9518 C   0  0  0  0  0  0  0  0  0  0  0  0
   67.9500   46.7430   54.2558 C   0  0  0  0  0  0  0  0  0  0  0  0
   67.4657   46.6938   55.5407 O   0  0  0  0  0  0  0  0  0  0  0  0
   67.4813   45.7987   53.3330 C   0  0  0  0  0  0  0  0  0  0  0  0
   67.9512   45.8417   52.0374 C   0  0  0  0  0  0  0  0  0  0  0  0
   68.8644   46.8093   51.6857 C   0  0  0  0  0  0  0  0  0  0  0  0
   69.2987   47.7154   52.6160 C   0  0  0  0  0  0  0  0  0  0  0  0
   68.9488   48.6121   56.2686 C   0  0  0  0  0  0  0  0  0  0  0  0
   69.9694   47.9308   57.1295 C   0  0  0  0  0  0  0  0  0  0  0  0
   70.9992   48.7278   57.6881 C   0  0  0  0  0  0  0  0  0  0  0  0
   71.9702   48.2242   58.5075 C   0  0  0  0  0  0  0  0  0  0  0  0
   71.9823   46.8821   58.8285 C   0  0  0  0  0  0  0  0  0  0  0  0
   71.0095   46.0655   58.3164 C   0  0  0  0  0  0  0  0  0  0  0  0
   70.0233   46.6256   57.4731 C   0  0  0  0  0  0  0  0  0  0  0  0
   70.9507   44.7469   58.5815 O   0  0  0  0  0  0  0  0  0  0  0  0
   70.3773   43.6678   57.9900 C   0  0  0  0  0  0  0  0  0  0  0  0
   71.2341   42.4483   57.7821 C   0  0  0  0  0  0  0  0  0  0  0  0
   73.3118   42.8853   57.8247 I   0  0  0  0  0  0  0  0  0  0  0  0
  1  2  2  0
  2  3  1  0
  2 12  1  0
  3  4  1  0
  4  5  2  0
  5 13  1  0
  5  6  1  0
 13 14  1  0
 14 15  2  0
 14 19  1  0
 15 16  1  0
 16 17  2  0
 17 18  1  0
 18 20  1  0
 18 19  2  0
 20 21  1  0
 21 22  1  0
 22 23  1  0
  6  7  1  0
  6 12  2  0
  7  8  1  0
  7  9  2  0
  9 10  1  0
 10 11  2  0
 11 12  1  0
M  END
>  <minimizedAffinity>  (557) 
-8.58340

$$$$
cs_full_output_folder/data/smiles/259.pdb
     RDKit          3D

 22 24  0  0  0  0  0  0  0  0999 V2000
   68.9960   48.6175   56.2169 C   0  0  0  0  0  0  0  0  0  0  0  0
   69.4034   48.5288   54.7927 C   0  0  0  0  0  0  0  0  0  0  0  0
   70.3290   49.4428   54.3442 N   0  0  0  0  0  0  0  0  0  0  0  0
   70.7030   49.5005   53.0842 N   0  0  0  0  0  0  0  0  0  0  0  0
   70.1953   48.6594   52.1605 C   0  0  0  0  0  0  0  0  0  0  0  0
   70.5495   48.7081   50.9677 O   0  0  0  0  0  0  0  0  0  0  0  0
   69.2719   47.7272   52.5538 C   0  0  0  0  0  0  0  0  0  0  0  0
   68.7608   46.8341   51.6053 C   0  0  0  0  0  0  0  0  0  0  0  0
   67.8457   45.8644   51.9929 C   0  0  0  0  0  0  0  0  0  0  0  0
   67.4790   45.8256   53.3098 C   0  0  0  0  0  0  0  0  0  0  0  0
   67.9812   46.7137   54.2599 C   0  0  0  0  0  0  0  0  0  0  0  0
   68.8886   47.6725   53.8641 C   0  0  0  0  0  0  0  0  0  0  0  0
   70.2568   45.5621   58.0559 C   0  0  0  0  0  0  0  0  0  0  0  0
   71.4025   46.1184   58.6467 C   0  0  0  0  0  0  0  0  0  0  0  0
   71.7219   47.4182   58.4260 C   0  0  0  0  0  0  0  0  0  0  0  0
   70.9655   48.2340   57.6366 C   0  0  0  0  0  0  0  0  0  0  0  0
   69.8275   47.7339   57.0301 C   0  0  0  0  0  0  0  0  0  0  0  0
   69.5078   46.4263   57.2539 C   0  0  0  0  0  0  0  0  0  0  0  0
   69.9571   44.2479   58.2953 O   0  0  0  0  0  0  0  0  0  0  0  0
   71.2418   42.2759   57.9622 C   0  0  0  0  0  0  0  0  0  0  0  0
   70.1537   43.2134   57.4101 C   0  0  1  0  0  0  0  0  0  0  0  0
   68.3783   41.9879   57.2505 I   0  0  0  0  0  0  0  0  0  0  0  0
 21 20  1  1
 21 22  1  0
 21 19  1  0
 19 13  1  0
 13 14  2  0
 13 18  1  0
 14 15  1  0
 15 16  2  0
 16 17  1  0
 17  1  1  0
 17 18  2  0
  1  2  1  0
  2  3  2  0
  2 12  1  0
  3  4  1  0
  4  5  1  0
  5  6  2  0
  5  7  1  0
  7  8  1  0
  7 12  2  0
  8  9  2  0
  9 10  1  0
 10 11  2  0
 11 12  1  0
M  END
>  <minimizedAffinity>  (558) 
-8.58247

$$$$
cs_full_output_folder/data/smiles/145.pdb
     RDKit          3D

 28 30  0  0  0  0  0  0  0  0999 V2000
   67.6413   45.1004   53.2424 C   0  0  0  0  0  0  0  0  0  0  0  0
   68.3684   46.3725   53.4644 C   0  0  0  0  0  0  0  0  0  0  0  0
   68.5150   47.2218   52.3825 C   0  0  0  0  0  0  0  0  0  0  0  0
   69.1672   48.4171   52.4861 C   0  0  0  0  0  0  0  0  0  0  0  0
   69.7110   48.8195   53.7038 C   0  0  0  0  0  0  0  0  0  0  0  0
   69.5579   47.9689   54.7672 C   0  0  0  0  0  0  0  0  0  0  0  0
   68.9010   46.7586   54.6726 C   0  0  0  0  0  0  0  0  0  0  0  0
   70.5578   50.3456   53.8049 S   0  0  0  0  0  0  0  0  0  0  0  0
   72.0349   50.0409   53.7087 O   0  0  0  0  0  0  0  0  0  0  0  0
   70.1302   51.1894   52.6383 O   0  0  0  0  0  0  0  0  0  0  0  0
   70.1393   51.1085   55.2532 N   0  0  0  0  0  0  0  0  0  0  0  0
   69.1901   52.1509   55.1318 C   0  0  0  0  0  0  0  0  0  0  0  0
   69.1625   53.1116   56.2889 C   0  0  0  0  0  0  0  0  0  0  0  0
   70.3955   53.5926   56.6695 O   0  0  0  0  0  0  0  0  0  0  0  0
   71.4627   52.8265   56.2308 C   0  0  0  0  0  0  0  0  0  0  0  0
   71.1625   51.3588   56.1909 C   0  0  0  0  0  0  0  0  0  0  0  0
   68.7665   45.8381   55.8314 C   0  0  0  0  0  0  0  0  0  0  0  0
   68.9905   46.2012   57.0043 O   0  0  0  0  0  0  0  0  0  0  0  0
   68.3702   44.4869   55.6280 N   0  0  0  0  0  0  0  0  0  0  0  0
   68.2265   43.5793   56.6717 N   0  0  0  0  0  0  0  0  0  0  0  0
   67.6154   42.3097   56.4839 C   0  0  0  0  0  0  0  0  0  0  0  0
   67.2167   42.0554   55.3065 O   0  0  0  0  0  0  0  0  0  0  0  0
   67.4287   41.3256   57.5424 C   0  0  0  0  0  0  0  0  0  0  0  0
   66.6423   41.5698   58.6355 C   0  0  0  0  0  0  0  0  0  0  0  0
   66.4564   40.6463   59.6256 C   0  0  0  0  0  0  0  0  0  0  0  0
   67.0968   39.4161   59.5023 C   0  0  0  0  0  0  0  0  0  0  0  0
   67.8735   39.1777   58.4140 C   0  0  0  0  0  0  0  0  0  0  0  0
   68.0569   40.1041   57.4285 C   0  0  0  0  0  0  0  0  0  0  0  0
  1  2  1  0
  2  3  2  0
  2  7  1  0
  3  4  1  0
  4  5  2  0
  5  8  1  0
  5  6  1  0
  8  9  2  0
  8 10  2  0
  8 11  1  0
 11 12  1  0
 11 16  1  0
 12 13  1  0
 13 14  1  0
 14 15  1  0
 15 16  1  0
  6  7  2  0
  7 17  1  0
 17 18  2  0
 17 19  1  0
 19 20  1  0
 20 21  1  0
 21 22  2  0
 21 23  1  0
 23 24  2  0
 23 28  1  0
 24 25  1  0
 25 26  2  0
 26 27  1  0
 27 28  2  0
M  END
>  <minimizedAffinity>  (559) 
-8.57572

$$$$
cs_full_output_folder/data/smiles/521.pdb
     RDKit          3D

 27 28  0  0  0  0  0  0  0  0999 V2000
   69.7277   50.0861   57.4637 C   0  0  0  0  0  0  0  0  0  0  0  0
   69.2389   50.5924   56.8506 C   0  0  0  0  0  0  0  0  0  0  0  0
   67.9642   51.6066   56.6980 C   0  0  0  0  0  0  0  0  0  0  0  0
   68.2645   51.6034   55.2678 C   0  0  0  0  0  0  0  0  0  0  0  0
   69.3914   50.7520   54.9108 C   0  0  0  0  0  0  0  0  0  0  0  0
   70.1587   50.0182   55.6564 C   0  0  0  0  0  0  0  0  0  0  0  0
   70.8260   47.6659   58.1253 C   0  0  0  0  0  0  0  0  0  0  0  0
   70.3278   48.7864   57.8272 C   0  0  0  0  0  0  0  0  0  0  0  0
   71.8183   45.3332   58.7156 C   0  0  0  0  0  0  0  0  0  0  0  0
   71.3520   46.4495   58.4267 C   0  0  0  0  0  0  0  0  0  0  0  0
   72.5231   43.1599   58.0306 C   0  0  0  0  0  0  0  0  0  0  0  0
   72.3363   44.0406   59.0635 C   0  0  0  0  0  0  0  0  0  0  0  0
   74.2328   41.5452   58.4735 O   0  0  0  0  0  0  0  0  0  0  0  0
   73.0397   41.8288   58.3364 C   0  0  0  0  0  0  0  0  0  0  0  0
   72.0558   40.8026   58.4928 N   0  0  0  0  0  0  0  0  0  0  0  0
   72.2980   39.5215   58.7856 O   0  0  0  0  0  0  0  0  0  0  0  0
   71.0461   38.5520   58.1259 Cl  0  0  0  0  0  0  0  0  0  0  0  0
   69.3612   50.6166   53.4244 N   0  0  0  0  0  0  0  0  0  0  0  0
   69.9979   49.2875   52.6045 S   0  0  0  0  0  0  0  0  0  0  0  0
   69.8909   49.5157   51.0755 O   0  0  0  0  0  0  0  0  0  0  0  0
   71.4395   49.0619   52.8497 O   0  0  0  0  0  0  0  0  0  0  0  0
   69.1211   47.8331   52.9760 C   0  0  0  0  0  0  0  0  0  0  0  0
   68.7941   47.3320   54.2104 C   0  0  0  0  0  0  0  0  0  0  0  0
   68.0702   46.1529   54.2468 C   0  0  0  0  0  0  0  0  0  0  0  0
   67.6812   45.4914   53.0986 C   0  0  0  0  0  0  0  0  0  0  0  0
   68.0071   45.9781   51.8700 C   0  0  0  0  0  0  0  0  0  0  0  0
   68.7182   47.1345   51.7855 C   0  0  0  0  0  0  0  0  0  0  0  0
 13 14  2  0
 14 11  1  0
 14 15  1  0
 11 12  2  0
 12  9  1  0
  9 10  3  0
 10  7  1  0
  7  8  3  0
  8  1  1  0
  1  2  2  0
  1  6  1  0
  2  3  1  0
  3  4  2  0
  4  5  1  0
  5 18  1  0
  5  6  2  0
 18 19  1  0
 19 20  2  0
 19 21  2  0
 19 22  1  0
 22 23  2  0
 22 27  1  0
 23 24  1  0
 24 25  2  0
 25 26  1  0
 26 27  2  0
 15 16  1  0
 16 17  1  0
M  END
>  <minimizedAffinity>  (560) 
-8.57518

$$$$
cs_full_output_folder/data/smiles/7530.pdb
     RDKit          3D

 31 35  0  0  0  0  0  0  0  0999 V2000
   71.4265   45.7926   58.9062 C   0  0  0  0  0  0  0  0  0  0  0  0
   70.2972   46.3328   58.3357 C   0  0  0  0  0  0  0  0  0  0  0  0
   70.2867   47.5674   57.6727 C   0  0  0  0  0  0  0  0  0  0  0  0
   71.4563   48.2363   57.6058 C   0  0  0  0  0  0  0  0  0  0  0  0
   72.6052   47.6946   58.1839 C   0  0  0  0  0  0  0  0  0  0  0  0
   72.6023   46.4817   58.8318 C   0  0  0  0  0  0  0  0  0  0  0  0
   73.7681   46.0114   59.3742 F   0  0  0  0  0  0  0  0  0  0  0  0
   71.2576   44.4960   60.8365 O   0  0  0  0  0  0  0  0  0  0  0  0
   71.4125   44.5049   59.5914 C   0  0  0  0  0  0  0  0  0  0  0  0
   71.5651   43.2737   58.9189 N   0  0  0  0  0  0  0  0  0  0  0  0
   71.7623   42.7744   57.5720 C   0  0  0  0  0  0  0  0  0  0  0  0
   70.8985   41.5673   58.0130 C   0  0  0  0  0  0  0  0  0  0  0  0
   71.5855   41.8598   59.3299 C   0  0  0  0  0  0  0  0  0  0  0  0
   69.5348   41.9510   57.9772 N   0  0  0  0  0  0  0  0  0  0  0  0
   68.5961   41.0811   57.3843 C   0  0  1  0  0  0  0  0  0  0  0  0
   67.9755   40.1387   58.3593 C   0  0  0  0  0  0  0  0  0  0  0  0
   66.9544   40.9888   59.0741 C   0  0  0  0  0  0  0  0  0  0  0  0
   66.9003   42.2500   58.3795 N   0  0  0  0  0  0  0  0  0  0  0  0
   67.3699   41.9447   57.0170 C   0  0  0  0  0  0  0  0  0  0  0  0
   68.9790   47.9816   57.0944 C   0  0  0  0  0  0  0  0  0  0  0  0
   68.7531   47.2473   55.8761 C   0  0  0  0  0  0  0  0  0  0  0  0
   68.1357   46.0297   55.9932 N   0  0  0  0  0  0  0  0  0  0  0  0
   67.8402   45.3059   54.9349 N   0  0  0  0  0  0  0  0  0  0  0  0
   68.1173   45.7002   53.6814 C   0  0  0  0  0  0  0  0  0  0  0  0
   67.8468   45.0346   52.6657 O   0  0  0  0  0  0  0  0  0  0  0  0
   68.7413   46.9177   53.4887 C   0  0  0  0  0  0  0  0  0  0  0  0
   69.0653   47.3718   52.2272 C   0  0  0  0  0  0  0  0  0  0  0  0
   69.7007   48.5856   52.0971 C   0  0  0  0  0  0  0  0  0  0  0  0
   70.0093   49.3360   53.2085 C   0  0  0  0  0  0  0  0  0  0  0  0
   69.6935   48.8994   54.4734 C   0  0  0  0  0  0  0  0  0  0  0  0
   69.0556   47.6884   54.6264 C   0  0  0  0  0  0  0  0  0  0  0  0
  8  9  2  0
  9  1  1  0
  9 10  1  0
  1  2  2  0
  1  6  1  0
  2  3  1  0
  3 20  1  0
  3  4  2  0
 20 21  1  0
 21 22  2  0
 21 31  1  0
 22 23  1  0
 23 24  1  0
 24 25  2  0
 24 26  1  0
 26 27  1  0
 26 31  2  0
 27 28  2  0
 28 29  1  0
 29 30  2  0
 30 31  1  0
  4  5  1  0
  5  6  2  0
  6  7  1  0
 10 11  1  0
 10 13  1  0
 11 12  1  0
 12 14  1  0
 12 13  1  0
 15 14  1  1
 15 16  1  0
 15 19  1  0
 16 17  1  0
 17 18  1  0
 18 19  1  0
M  CHG  2  14   1  18   1
M  END
>  <minimizedAffinity>  (561) 
-8.57481

$$$$
cs_full_output_folder/data/smiles/6684.pdb
     RDKit          3D

 31 33  0  0  0  0  0  0  0  0999 V2000
   72.2815   50.8419   55.1697 C   0  0  0  0  0  0  0  0  0  0  0  0
   72.8067   50.7582   54.0275 O   0  0  0  0  0  0  0  0  0  0  0  0
   73.2092   50.8271   56.2611 N   0  0  0  0  0  0  0  0  0  0  0  0
   74.5913   50.7272   56.0659 N   0  0  0  0  0  0  0  0  0  0  0  0
   75.2985   49.4683   56.2795 C   0  0  0  0  0  0  0  0  0  0  0  0
   74.5306   48.5729   56.6367 O   0  0  0  0  0  0  0  0  0  0  0  0
   76.7328   49.4299   56.0600 C   0  0  0  0  0  0  0  0  0  0  0  0
   77.2176   49.2310   54.7981 N   0  0  0  0  0  0  0  0  0  0  0  0
   78.5032   49.1865   54.5383 N   0  0  0  0  0  0  0  0  0  0  0  0
   79.4427   49.3307   55.4835 C   0  0  0  0  0  0  0  0  0  0  0  0
   80.6815   49.2773   55.1693 O   0  0  0  0  0  0  0  0  0  0  0  0
   79.0361   49.5347   56.7779 C   0  0  0  0  0  0  0  0  0  0  0  0
   79.9934   49.6835   57.7473 C   0  0  0  0  0  0  0  0  0  0  0  0
   79.5838   49.8876   59.0432 C   0  0  0  0  0  0  0  0  0  0  0  0
   78.2399   49.9356   59.3253 C   0  0  0  0  0  0  0  0  0  0  0  0
   77.2665   49.7890   58.3640 C   0  0  0  0  0  0  0  0  0  0  0  0
   77.6613   49.5817   57.0528 C   0  0  0  0  0  0  0  0  0  0  0  0
   70.8265   50.9457   55.3291 C   0  0  1  0  0  0  0  0  0  0  0  0
   70.6310   53.3757   55.9000 C   0  0  0  0  0  0  0  0  0  0  0  0
   70.2860   52.2933   54.9324 C   0  0  0  0  0  0  0  0  0  0  0  0
   68.7976   52.2868   54.7184 C   0  0  0  0  0  0  0  0  0  0  0  0
   70.1494   49.9427   54.5309 N   0  0  0  0  0  0  0  0  0  0  0  0
   69.7555   48.6885   54.9906 C   0  0  0  0  0  0  0  0  0  0  0  0
   69.9963   48.3885   56.1854 O   0  0  0  0  0  0  0  0  0  0  0  0
   69.0817   47.7495   54.1129 C   0  0  0  0  0  0  0  0  0  0  0  0
   69.2995   47.8250   52.7318 C   0  0  0  0  0  0  0  0  0  0  0  0
   68.6952   46.9690   51.8445 C   0  0  0  0  0  0  0  0  0  0  0  0
   67.8433   45.9948   52.2863 C   0  0  0  0  0  0  0  0  0  0  0  0
   67.2519   45.1544   51.3981 F   0  0  0  0  0  0  0  0  0  0  0  0
   67.6020   45.8864   53.6379 C   0  0  0  0  0  0  0  0  0  0  0  0
   68.2235   46.7620   54.5215 C   0  0  0  0  0  0  0  0  0  0  0  0
 19 20  1  0
 20 21  1  0
 20 18  1  0
 18 22  1  6
 18  1  1  0
 22 23  1  0
 23 24  2  0
 23 25  1  0
 25 26  2  0
 25 31  1  0
 26 27  1  0
 27 28  2  0
 28 29  1  0
 28 30  1  0
 30 31  2  0
  1  2  2  0
  1  3  1  0
  3  4  1  0
  4  5  1  0
  5  6  2  0
  5  7  1  0
  7  8  2  0
  7 17  1  0
  8  9  1  0
  9 10  1  0
 10 11  2  0
 10 12  1  0
 12 13  1  0
 12 17  2  0
 13 14  2  0
 14 15  1  0
 15 16  2  0
 16 17  1  0
M  END
>  <minimizedAffinity>  (562) 
-8.57445

$$$$
cs_full_output_folder/data/smiles/380.pdb
     RDKit          3D

 27 28  0  0  0  0  0  0  0  0999 V2000
   70.0195   49.2218   52.6544 S   0  0  0  0  0  0  0  0  0  0  0  0
   71.4949   49.1537   52.9245 O   0  0  0  0  0  0  0  0  0  0  0  0
   69.8293   49.2719   51.1492 O   0  0  0  0  0  0  0  0  0  0  0  0
   69.2419   47.7925   53.2381 C   0  0  0  0  0  0  0  0  0  0  0  0
   68.5801   46.9741   52.3587 C   0  0  0  0  0  0  0  0  0  0  0  0
   68.5010   47.2296   51.0271 F   0  0  0  0  0  0  0  0  0  0  0  0
   67.9765   45.8460   52.8739 C   0  0  0  0  0  0  0  0  0  0  0  0
   67.3199   45.0324   52.0076 F   0  0  0  0  0  0  0  0  0  0  0  0
   68.0304   45.5498   54.2012 C   0  0  0  0  0  0  0  0  0  0  0  0
   67.4294   44.4336   54.6952 F   0  0  0  0  0  0  0  0  0  0  0  0
   68.6899   46.3624   55.0890 C   0  0  0  0  0  0  0  0  0  0  0  0
   68.7593   46.0937   56.4106 F   0  0  0  0  0  0  0  0  0  0  0  0
   69.2977   47.4942   54.5819 C   0  0  0  0  0  0  0  0  0  0  0  0
   69.9527   48.2965   55.4780 F   0  0  0  0  0  0  0  0  0  0  0  0
   69.3118   50.7103   53.3048 C   0  0  0  0  0  0  0  0  0  0  0  0
   71.3568   52.1190   56.7444 C   0  0  0  0  0  0  0  0  0  0  0  0
   69.9779   51.9942   56.7410 C   0  0  0  0  0  0  0  0  0  0  0  0
   69.2996   51.5386   55.6344 C   0  0  0  0  0  0  0  0  0  0  0  0
   70.0040   51.2001   54.5062 C   0  0  0  0  0  0  0  0  0  0  0  0
   71.3757   51.3279   54.5184 C   0  0  0  0  0  0  0  0  0  0  0  0
   72.0767   51.7822   55.6170 C   0  0  0  0  0  0  0  0  0  0  0  0
   73.4929   51.8885   55.5606 N   0  0  0  0  0  0  0  0  0  0  0  0
   74.3774   50.7984   55.7040 C   0  0  0  0  0  0  0  0  0  0  0  0
   75.7811   50.8967   55.6485 N   0  0  0  0  0  0  0  0  0  0  0  0
   73.8449   49.6559   55.8942 O   0  0  0  0  0  0  0  0  0  0  0  0
   72.4503   53.9210   57.9719 C   0  0  0  0  0  0  0  0  0  0  0  0
   72.0007   52.5835   57.8897 O   0  0  0  0  0  0  0  0  0  0  0  0
 26 27  1  0
 27 16  1  0
 16 17  2  0
 16 21  1  0
 17 18  1  0
 18 19  2  0
 19 15  1  0
 19 20  1  0
 15  1  1  0
  1  2  2  0
  1  3  2  0
  1  4  1  0
  4  5  2  0
  4 13  1  0
  5  6  1  0
  5  7  1  0
  7  8  1  0
  7  9  2  0
  9 10  1  0
  9 11  1  0
 11 12  1  0
 11 13  2  0
 13 14  1  0
 20 21  2  0
 21 22  1  0
 22 23  1  0
 23 24  1  0
 23 25  2  0
M  END
>  <minimizedAffinity>  (563) 
-8.56849

$$$$
cs_full_output_folder/data/smiles/2206.pdb
     RDKit          3D

 30 33  0  0  0  0  0  0  0  0999 V2000
   73.1676   48.7414   58.4306 C   0  0  0  0  0  0  0  0  0  0  0  0
   73.9398   49.4468   57.5316 C   0  0  0  0  0  0  0  0  0  0  0  0
   73.3717   50.0978   56.4574 C   0  0  0  0  0  0  0  0  0  0  0  0
   72.0158   50.0823   56.2222 C   0  0  0  0  0  0  0  0  0  0  0  0
   71.2291   49.3713   57.1264 C   0  0  0  0  0  0  0  0  0  0  0  0
   71.7915   48.7229   58.1954 C   0  0  0  0  0  0  0  0  0  0  0  0
   74.2036   48.7166   60.7221 C   0  0  0  0  0  0  0  0  0  0  0  0
   74.0746   49.9683   60.7380 O   0  0  0  0  0  0  0  0  0  0  0  0
   73.7409   48.0678   59.5419 N   0  0  0  0  0  0  0  0  0  0  0  0
   77.1537   48.4386   65.6384 C   0  0  0  0  0  0  0  0  0  0  0  0
   75.8741   47.7674   65.2996 C   0  0  0  0  0  0  0  0  0  0  0  0
   74.9601   47.7377   66.1557 O   0  0  0  0  0  0  0  0  0  0  0  0
   75.7061   47.1735   64.0208 N   0  0  0  0  0  0  0  0  0  0  0  0
   74.4237   46.5180   63.7200 C   0  0  0  0  0  0  0  0  0  0  0  0
   74.1105   46.7501   62.2440 C   0  0  0  0  0  0  0  0  0  0  0  0
   74.7929   48.0454   61.8700 C   0  0  0  0  0  0  0  0  0  0  0  0
   76.2635   47.7334   61.6994 C   0  0  0  0  0  0  0  0  0  0  0  0
   76.7683   47.2107   63.0309 C   0  0  0  0  0  0  0  0  0  0  0  0
   69.7639   49.3568   56.8926 C   0  0  0  0  0  0  0  0  0  0  0  0
   69.3063   48.0772   56.2796 C   0  0  0  0  0  0  0  0  0  0  0  0
   69.0876   46.9915   57.0903 N   0  0  0  0  0  0  0  0  0  0  0  0
   68.6585   45.8361   56.6236 N   0  0  0  0  0  0  0  0  0  0  0  0
   68.3995   45.6243   55.3241 C   0  0  0  0  0  0  0  0  0  0  0  0
   67.9834   44.4947   54.8936 O   0  0  0  0  0  0  0  0  0  0  0  0
   68.5971   46.6712   54.4486 C   0  0  0  0  0  0  0  0  0  0  0  0
   69.0498   47.8858   54.9442 C   0  0  0  0  0  0  0  0  0  0  0  0
   69.2680   48.9688   53.9810 C   0  0  0  0  0  0  0  0  0  0  0  0
   69.8418   48.4947   52.6614 C   0  0  0  0  0  0  0  0  0  0  0  0
   69.2324   47.2691   52.1042 C   0  0  0  0  0  0  0  0  0  0  0  0
   68.3235   46.5364   53.0162 C   0  0  0  0  0  0  0  0  0  0  0  0
 10 11  1  0
 11 12  2  0
 11 13  1  0
 13 14  1  0
 13 18  1  0
 14 15  1  0
 15 16  1  0
 16  7  1  0
 16 17  1  0
  7  8  2  0
  7  9  1  0
  9  1  1  0
  1  2  2  0
  1  6  1  0
  2  3  1  0
  3  4  2  0
  4  5  1  0
  5 19  1  0
  5  6  2  0
 19 20  1  0
 20 21  2  0
 20 26  1  0
 21 22  1  0
 22 23  1  0
 23 24  2  0
 23 25  1  0
 25 26  2  0
 25 30  1  0
 26 27  1  0
 27 28  1  0
 28 29  1  0
 29 30  1  0
 17 18  1  0
M  END
>  <minimizedAffinity>  (564) 
-8.56704

$$$$
cs_full_output_folder/data/smiles/9012.pdb
     RDKit          3D

 24 26  0  0  0  0  0  0  0  0999 V2000
   70.5717   46.0962   58.1029 C   0  0  0  0  0  0  0  0  0  0  0  0
   69.6531   46.8282   57.3797 C   0  0  0  0  0  0  0  0  0  0  0  0
   69.8594   48.1164   56.9924 C   0  0  0  0  0  0  0  0  0  0  0  0
   71.0747   48.7125   57.3602 C   0  0  0  0  0  0  0  0  0  0  0  0
   72.0132   48.0143   58.0818 C   0  0  0  0  0  0  0  0  0  0  0  0
   71.7550   46.7022   58.4509 C   0  0  0  0  0  0  0  0  0  0  0  0
   73.1568   45.5746   59.5615 I   0  0  0  0  0  0  0  0  0  0  0  0
   70.3006   44.6921   58.4741 C   0  0  0  0  0  0  0  0  0  0  0  0
   69.7899   44.3781   59.5518 O   0  0  0  0  0  0  0  0  0  0  0  0
   70.6399   43.7043   57.5680 O   0  0  0  0  0  0  0  0  0  0  0  0
   68.6333   42.5276   56.8412 C   0  0  0  0  0  0  0  0  0  0  0  0
   69.9769   42.4547   57.5072 C   0  0  0  0  0  0  0  0  0  0  0  0
   68.8981   48.9440   56.1785 C   0  0  0  0  0  0  0  0  0  0  0  0
   69.2754   48.8487   54.7315 C   0  0  0  0  0  0  0  0  0  0  0  0
   70.1424   49.7759   54.2251 N   0  0  0  0  0  0  0  0  0  0  0  0
   70.5775   49.7172   52.9852 N   0  0  0  0  0  0  0  0  0  0  0  0
   70.1906   48.7366   52.1430 C   0  0  0  0  0  0  0  0  0  0  0  0
   70.5988   48.6638   50.9521 O   0  0  0  0  0  0  0  0  0  0  0  0
   69.3147   47.7851   52.6225 C   0  0  0  0  0  0  0  0  0  0  0  0
   68.8652   46.7597   51.8072 C   0  0  0  0  0  0  0  0  0  0  0  0
   67.9794   45.8138   52.2680 C   0  0  0  0  0  0  0  0  0  0  0  0
   67.5085   45.8559   53.5597 C   0  0  0  0  0  0  0  0  0  0  0  0
   67.9469   46.8689   54.3818 C   0  0  0  0  0  0  0  0  0  0  0  0
   68.8325   47.8195   53.9369 C   0  0  0  0  0  0  0  0  0  0  0  0
 11 12  1  0
 12 10  1  0
 10  8  1  0
  8  9  2  0
  8  1  1  0
  1  2  2  0
  1  6  1  0
  2  3  1  0
  3 13  1  0
  3  4  2  0
 13 14  1  0
 14 15  2  0
 14 24  1  0
 15 16  1  0
 16 17  1  0
 17 18  2  0
 17 19  1  0
 19 20  1  0
 19 24  2  0
 20 21  2  0
 21 22  1  0
 22 23  2  0
 23 24  1  0
  4  5  1  0
  5  6  2  0
  6  7  1  0
M  END
>  <minimizedAffinity>  (565) 
-8.56006

$$$$
cs_full_output_folder/data/smiles/3100.pdb
     RDKit          3D

 30 33  0  0  0  0  0  0  0  0999 V2000
   69.5545   41.7478   58.7050 C   0  0  0  0  0  0  0  0  0  0  0  0
   68.3422   41.3725   58.1916 C   0  0  0  0  0  0  0  0  0  0  0  0
   68.1123   40.0337   57.8476 C   0  0  0  0  0  0  0  0  0  0  0  0
   69.1059   39.0906   58.0250 C   0  0  0  0  0  0  0  0  0  0  0  0
   70.3185   39.4717   58.5396 C   0  0  0  0  0  0  0  0  0  0  0  0
   70.5220   40.7868   58.8700 C   0  0  0  0  0  0  0  0  0  0  0  0
   71.8081   40.8721   59.3537 C   0  0  0  0  0  0  0  0  0  0  0  0
   72.3063   39.6339   59.2943 N   0  0  0  0  0  0  0  0  0  0  0  0
   71.4268   38.7758   58.8076 N   0  0  0  0  0  0  0  0  0  0  0  0
   71.6535   37.3708   58.6160 C   0  0  0  0  0  0  0  0  0  0  0  0
   71.1873   36.3863   59.4312 C   0  0  0  0  0  0  0  0  0  0  0  0
   71.4408   35.0500   59.1900 C   0  0  0  0  0  0  0  0  0  0  0  0
   72.1904   34.6856   58.0926 C   0  0  0  0  0  0  0  0  0  0  0  0
   72.4481   33.3595   57.8439 F   0  0  0  0  0  0  0  0  0  0  0  0
   72.6615   35.6758   57.2703 C   0  0  0  0  0  0  0  0  0  0  0  0
   72.4001   37.0018   57.5240 C   0  0  0  0  0  0  0  0  0  0  0  0
   70.7708   43.9090   58.3769 N   0  0  0  0  0  0  0  0  0  0  0  0
   69.8100   43.1244   59.0657 C   0  0  0  0  0  0  0  0  0  0  0  0
   69.1684   43.6640   60.0197 O   0  0  0  0  0  0  0  0  0  0  0  0
   71.1015   45.2767   58.6444 C   0  0  0  0  0  0  0  0  0  0  0  0
   68.8653   46.3288   55.7628 C   0  0  0  0  0  0  0  0  0  0  0  0
   68.7024   47.6723   56.0171 C   0  0  0  0  0  0  0  0  0  0  0  0
   69.3131   48.2528   57.1131 C   0  0  0  0  0  0  0  0  0  0  0  0
   70.1048   47.4959   57.9864 C   0  0  0  0  0  0  0  0  0  0  0  0
   70.2776   46.1545   57.7493 C   0  0  0  0  0  0  0  0  0  0  0  0
   69.6446   45.6074   56.6310 C   0  0  0  0  0  0  0  0  0  0  0  0
   67.5509   45.7606   52.1547 C   0  0  0  0  0  0  0  0  0  0  0  0
   68.2172   46.3492   53.3117 N   0  0  0  0  0  0  0  0  0  0  0  0
   68.2077   45.7569   54.6020 C   0  0  0  0  0  0  0  0  0  0  0  0
   67.5815   44.6720   54.7006 O   0  0  0  0  0  0  0  0  0  0  0  0
 27 28  1  0
 28 29  1  0
 29 30  2  0
 29 21  1  0
 21 22  2  0
 21 26  1  0
 22 23  1  0
 23 24  2  0
 24 25  1  0
 25 20  1  0
 25 26  2  0
 20 17  1  0
 17 18  1  0
 18 19  2  0
 18  1  1  0
  1  2  2  0
  1  6  1  0
  2  3  1  0
  3  4  2  0
  4  5  1  0
  5  6  2  0
  5  9  1  0
  6  7  1  0
  7  8  2  0
  8  9  1  0
  9 10  1  0
 10 11  2  0
 10 16  1  0
 11 12  1  0
 12 13  2  0
 13 14  1  0
 13 15  1  0
 15 16  2  0
M  END
>  <minimizedAffinity>  (566) 
-8.55740

$$$$
cs_full_output_folder/data/smiles/5994.pdb
     RDKit          3D

 33 37  0  0  0  0  0  0  0  0999 V2000
   69.9213   46.8724   57.5550 C   0  0  0  0  0  0  0  0  0  0  0  0
   70.1175   45.4986   57.3932 C   0  0  0  0  0  0  0  0  0  0  0  0
   71.1058   44.8406   58.1085 C   0  0  0  0  0  0  0  0  0  0  0  0
   71.9039   45.5422   58.9881 C   0  0  0  0  0  0  0  0  0  0  0  0
   72.8761   44.8846   59.6888 F   0  0  0  0  0  0  0  0  0  0  0  0
   71.7244   46.8943   59.1608 C   0  0  0  0  0  0  0  0  0  0  0  0
   70.7250   47.5304   58.4295 C   0  0  0  0  0  0  0  0  0  0  0  0
   72.5346   47.6827   60.0717 C   0  0  0  0  0  0  0  0  0  0  0  0
   72.2218   47.6759   61.2829 O   0  0  0  0  0  0  0  0  0  0  0  0
   73.6505   48.4485   59.6520 N   0  0  0  0  0  0  0  0  0  0  0  0
   74.0778   48.5088   58.2632 C   0  0  0  0  0  0  0  0  0  0  0  0
   75.4104   47.7568   58.2045 C   0  0  0  0  0  0  0  0  0  0  0  0
   76.1659   48.1367   59.3768 N   0  0  0  0  0  0  0  0  0  0  0  0
   77.2247   47.3188   59.8462 C   0  0  0  0  0  0  0  0  0  0  0  0
   77.9100   47.6043   60.8611 O   0  0  0  0  0  0  0  0  0  0  0  0
   75.8572   49.3544   60.0910 C   0  0  0  0  0  0  0  0  0  0  0  0
   74.4251   49.2167   60.6069 C   0  0  0  0  0  0  0  0  0  0  0  0
   77.5810   46.0541   59.1413 C   0  0  0  0  0  0  0  0  0  0  0  0
   76.9617   44.8171   59.7839 C   0  0  0  0  0  0  0  0  0  0  0  0
   78.4460   45.0437   59.7891 C   0  0  0  0  0  0  0  0  0  0  0  0
   68.8571   47.5095   56.8040 C   0  0  0  0  0  0  0  0  0  0  0  0
   71.0006   50.9793   54.1604 C   0  0  0  0  0  0  0  0  0  0  0  0
   70.2429   49.7146   54.2108 N   0  0  0  0  0  0  0  0  0  0  0  0
   69.9082   49.1643   55.3404 N   0  0  0  0  0  0  0  0  0  0  0  0
   69.2081   47.9952   55.4577 C   0  0  0  0  0  0  0  0  0  0  0  0
   68.8549   47.3932   54.2838 C   0  0  0  0  0  0  0  0  0  0  0  0
   68.1618   46.2066   54.3034 C   0  0  0  0  0  0  0  0  0  0  0  0
   67.7978   45.5672   53.1411 C   0  0  0  0  0  0  0  0  0  0  0  0
   68.1435   46.1412   51.9388 C   0  0  0  0  0  0  0  0  0  0  0  0
   68.8372   47.3245   51.8752 C   0  0  0  0  0  0  0  0  0  0  0  0
   69.1970   47.9572   53.0439 C   0  0  0  0  0  0  0  0  0  0  0  0
   69.8988   49.1302   53.0551 C   0  0  0  0  0  0  0  0  0  0  0  0
   70.2096   49.6430   51.9422 O   0  0  0  0  0  0  0  0  0  0  0  0
 22 23  1  0
 23 24  1  0
 23 32  1  0
 24 25  2  0
 25 21  1  0
 25 26  1  0
 21  1  1  0
  1  2  2  0
  1  7  1  0
  2  3  1  0
  3  4  2  0
  4  5  1  0
  4  6  1  0
  6  8  1  0
  6  7  2  0
  8  9  2  0
  8 10  1  0
 10 11  1  0
 10 17  1  0
 11 12  1  0
 12 13  1  0
 13 14  1  0
 13 16  1  0
 14 15  2  0
 14 18  1  0
 18 19  1  0
 18 20  1  0
 19 20  1  0
 16 17  1  0
 26 27  1  0
 26 31  2  0
 27 28  2  0
 28 29  1  0
 29 30  2  0
 30 31  1  0
 31 32  1  0
 32 33  2  0
M  END
>  <minimizedAffinity>  (567) 
-8.55092

$$$$
cs_full_output_folder/data/smiles/4975.pdb
     RDKit          3D

 29 31  0  0  0  0  0  0  0  0999 V2000
   68.6704   46.5092   54.1871 C   0  0  0  0  0  0  0  0  0  0  0  0
   68.4389   46.1250   52.8822 C   0  0  0  0  0  0  0  0  0  0  0  0
   68.8040   46.9151   51.8064 C   0  0  0  0  0  0  0  0  0  0  0  0
   69.4197   48.1278   52.0279 C   0  0  0  0  0  0  0  0  0  0  0  0
   69.6671   48.5456   53.3163 C   0  0  0  0  0  0  0  0  0  0  0  0
   69.2855   47.7245   54.3595 C   0  0  0  0  0  0  0  0  0  0  0  0
   67.9731   44.2599   55.1267 N   0  0  0  0  0  0  0  0  0  0  0  0
   68.2624   45.6342   55.2799 C   0  0  0  0  0  0  0  0  0  0  0  0
   68.1447   46.0859   56.4601 O   0  0  0  0  0  0  0  0  0  0  0  0
   68.4889   42.8460   57.0854 C   0  0  0  0  0  0  0  0  0  0  0  0
   69.7245   43.1406   56.8422 O   0  0  0  0  0  0  0  0  0  0  0  0
   67.5806   43.4329   56.2012 N   0  0  0  0  0  0  0  0  0  0  0  0
   68.2000   39.9118   56.8564 C   0  0  0  0  0  0  0  0  0  0  0  0
   68.0820   40.6399   58.1370 C   0  0  0  0  0  0  0  0  0  0  0  0
   67.8069   39.8993   59.3118 C   0  0  0  0  0  0  0  0  0  0  0  0
   67.7344   40.5299   60.5280 C   0  0  0  0  0  0  0  0  0  0  0  0
   67.9331   41.8885   60.5881 C   0  0  0  0  0  0  0  0  0  0  0  0
   68.1882   42.5558   59.4692 N   0  0  0  0  0  0  0  0  0  0  0  0
   68.2725   41.9799   58.2169 C   0  0  0  0  0  0  0  0  0  0  0  0
   70.4312   50.0734   53.6158 S   0  0  0  0  0  0  0  0  0  0  0  0
   70.1288   51.0492   52.4759 O   0  0  0  0  0  0  0  0  0  0  0  0
   71.9343   49.7987   53.5622 O   0  0  0  0  0  0  0  0  0  0  0  0
   70.0168   50.8438   55.0484 N   0  0  0  0  0  0  0  0  0  0  0  0
   68.7702   51.5147   54.9844 C   0  0  0  0  0  0  0  0  0  0  0  0
   68.1036   51.7186   56.3081 C   0  0  0  0  0  0  0  0  0  0  0  0
   69.1336   51.7965   57.3968 C   0  0  0  0  0  0  0  0  0  0  0  0
   70.4371   52.3483   56.9218 C   0  0  0  0  0  0  0  0  0  0  0  0
   71.0089   51.5506   55.7567 C   0  0  2  0  0  0  0  0  0  0  0  0
   71.8430   52.5048   54.9578 C   0  0  0  0  0  0  0  0  0  0  0  0
 13 14  1  0
 14 15  2  0
 14 19  1  0
 15 16  1  0
 16 17  2  0
 17 18  1  0
 18 19  2  0
 19 10  1  0
 10 11  2  0
 10 12  1  0
 12  7  1  0
  7  8  1  0
  8  9  2  0
  8  1  1  0
  1  2  2  0
  1  6  1  0
  2  3  1  0
  3  4  2  0
  4  5  1  0
  5 20  1  0
  5  6  2  0
 20 21  2  0
 20 22  2  0
 20 23  1  0
 23 24  1  0
 23 28  1  0
 24 25  1  0
 25 26  1  0
 26 27  1  0
 27 28  1  0
 28 29  1  6
M  END
>  <minimizedAffinity>  (568) 
-8.55086

$$$$
cs_full_output_folder/data/smiles/2690.pdb
     RDKit          3D

 30 34  0  0  0  0  0  0  0  0999 V2000
   71.0782   46.3030   58.3579 C   0  0  0  0  0  0  0  0  0  0  0  0
   70.3939   46.8808   57.2610 C   0  0  0  0  0  0  0  0  0  0  0  0
   70.1850   48.2450   57.1983 C   0  0  0  0  0  0  0  0  0  0  0  0
   70.6673   49.0608   58.1960 C   0  0  0  0  0  0  0  0  0  0  0  0
   71.3609   48.5478   59.3004 C   0  0  0  0  0  0  0  0  0  0  0  0
   71.5302   47.1823   59.3253 C   0  0  0  0  0  0  0  0  0  0  0  0
   72.2208   46.7228   60.4377 F   0  0  0  0  0  0  0  0  0  0  0  0
   67.8070   42.2636   63.0821 C   0  0  0  0  0  0  0  0  0  0  0  0
   69.0918   42.5039   62.3874 C   0  0  0  0  0  0  0  0  0  0  0  0
   70.1195   43.0366   63.0798 N   0  0  0  0  0  0  0  0  0  0  0  0
   71.3027   43.3382   62.4437 C   0  0  0  0  0  0  0  0  0  0  0  0
   71.4182   43.0993   61.1263 C   0  0  0  0  0  0  0  0  0  0  0  0
   70.3460   42.5347   60.4031 C   0  0  0  0  0  0  0  0  0  0  0  0
   69.2391   42.2626   61.0592 N   0  0  0  0  0  0  0  0  0  0  0  0
   70.8369   42.4417   58.9650 C   0  0  0  0  0  0  0  0  0  0  0  0
   71.4646   43.8044   59.0701 N   0  0  0  0  0  0  0  0  0  0  0  0
   70.9618   44.9225   58.6067 C   0  0  0  0  0  0  0  0  0  0  0  0
   69.6419   44.5756   58.1035 O   0  0  0  0  0  0  0  0  0  0  0  0
   72.4693   43.4311   60.0626 C   0  0  0  0  0  0  0  0  0  0  0  0
   69.0917   48.8188   56.3087 C   0  0  0  0  0  0  0  0  0  0  0  0
   69.6429   48.6918   54.9214 C   0  0  0  0  0  0  0  0  0  0  0  0
   70.6304   49.3467   54.4467 N   0  0  0  0  0  0  0  0  0  0  0  0
   71.1554   49.2412   53.1651 N   0  0  0  0  0  0  0  0  0  0  0  0
   70.3262   48.6979   52.0966 C   0  0  0  0  0  0  0  0  0  0  0  0
   69.3618   47.7397   52.6448 C   0  0  0  0  0  0  0  0  0  0  0  0
   68.8348   46.7235   51.8251 C   0  0  0  0  0  0  0  0  0  0  0  0
   67.9274   45.8187   52.3068 C   0  0  0  0  0  0  0  0  0  0  0  0
   67.5082   45.8907   53.6253 C   0  0  0  0  0  0  0  0  0  0  0  0
   68.0371   46.8928   54.4124 C   0  0  0  0  0  0  0  0  0  0  0  0
   68.9473   47.8088   53.9582 C   0  0  0  0  0  0  0  0  0  0  0  0
  8  9  1  0
  9 10  2  0
  9 14  1  0
 10 11  1  0
 11 12  2  0
 12 13  1  0
 12 19  1  0
 13 14  2  0
 13 15  1  0
 15 16  1  0
 16 17  1  0
 16 19  1  0
 17 18  2  0
 17  1  1  0
  1  2  2  0
  1  6  1  0
  2  3  1  0
  3 20  1  0
  3  4  2  0
 20 21  1  0
 21 22  2  0
 21 30  1  0
 22 23  1  0
 23 24  1  0
 24 25  1  0
 25 26  2  0
 25 30  1  0
 26 27  1  0
 27 28  2  0
 28 29  1  0
 29 30  2  0
  4  5  1  0
  5  6  2  0
  6  7  1  0
M  END
>  <minimizedAffinity>  (569) 
-8.54673

$$$$
cs_full_output_folder/data/smiles/5953.pdb
     RDKit          3D

 28 29  0  0  0  0  0  0  0  0999 V2000
   71.1413   46.2264   58.5132 C   0  0  0  0  0  0  0  0  0  0  0  0
   72.2108   47.1624   59.3715 S   0  0  0  0  0  0  0  0  0  0  0  0
   72.1636   43.9402   58.1428 C   0  0  0  0  0  0  0  0  0  0  0  0
   73.1330   44.4127   57.5050 O   0  0  0  0  0  0  0  0  0  0  0  0
   71.1920   44.8207   58.6427 N   0  0  0  0  0  0  0  0  0  0  0  0
   71.8883   39.6879   58.8635 C   0  0  0  0  0  0  0  0  0  0  0  0
   70.8198   40.4103   58.3746 C   0  0  0  0  0  0  0  0  0  0  0  0
   70.8878   41.7729   58.1336 C   0  0  0  0  0  0  0  0  0  0  0  0
   72.0375   42.4940   58.3703 C   0  0  0  0  0  0  0  0  0  0  0  0
   73.1197   41.7699   58.8647 C   0  0  0  0  0  0  0  0  0  0  0  0
   73.0336   40.4090   59.0991 C   0  0  0  0  0  0  0  0  0  0  0  0
   70.1163   37.6750   59.4895 C   0  0  0  0  0  0  0  0  0  0  0  0
   71.7243   37.9695   59.1230 S   0  0  0  0  0  0  0  0  0  0  0  0
   72.6830   37.4622   60.3779 C   0  0  0  0  0  0  0  0  0  0  0  0
   72.1632   37.1804   57.6843 C   0  0  0  0  0  0  0  0  0  0  0  0
   70.1981   46.9216   57.6765 C   0  0  0  0  0  0  0  0  0  0  0  0
   69.2980   46.2539   57.0204 N   0  0  0  0  0  0  0  0  0  0  0  0
   68.3590   46.8630   56.1964 C   0  0  0  0  0  0  0  0  0  0  0  0
   67.3413   47.4022   56.6857 O   0  0  0  0  0  0  0  0  0  0  0  0
   68.5396   46.8833   54.7511 C   0  0  0  0  0  0  0  0  0  0  0  0
   67.8874   45.9578   53.9494 C   0  0  0  0  0  0  0  0  0  0  0  0
   68.0576   45.9691   52.5693 C   0  0  0  0  0  0  0  0  0  0  0  0
   68.8665   46.8814   51.9267 C   0  0  0  0  0  0  0  0  0  0  0  0
   69.5229   47.8151   52.7348 C   0  0  0  0  0  0  0  0  0  0  0  0
   69.3448   47.7889   54.0945 C   0  0  0  0  0  0  0  0  0  0  0  0
   70.3549   48.7627   52.0936 N   0  0  0  0  0  0  0  0  0  0  0  0
   71.4761   48.9912   52.5731 O   0  0  0  0  0  0  0  0  0  0  0  0
   69.9613   49.4316   50.9720 O   0  0  0  0  0  0  0  0  0  0  0  0
 12 13  1  0
 13 14  1  0
 13 15  1  0
 13  6  1  0
  6  7  2  0
  6 11  1  0
  7  8  1  0
  8  9  2  0
  9  3  1  0
  9 10  1  0
  3  4  2  0
  3  5  1  0
  5  1  1  0
  1  2  2  0
  1 16  1  0
 16 17  2  0
 17 18  1  0
 18 19  2  0
 18 20  1  0
 20 21  2  0
 20 25  1  0
 21 22  1  0
 22 23  2  0
 23 24  1  0
 24 26  1  0
 24 25  2  0
 26 27  2  0
 26 28  1  0
 10 11  2  0
M  CHG  2  26   1  28  -1
M  END
>  <minimizedAffinity>  (570) 
-8.54354

$$$$
cs_full_output_folder/data/smiles/9007.pdb
     RDKit          3D

 31 34  0  0  0  0  0  0  0  0999 V2000
   68.3784   39.2050   58.2303 C   0  0  0  0  0  0  0  0  0  0  0  0
   67.3313   38.6202   58.8421 N   0  0  0  0  0  0  0  0  0  0  0  0
   67.4314   37.7157   59.7801 N   0  0  0  0  0  0  0  0  0  0  0  0
   68.6321   37.3008   60.2073 C   0  0  0  0  0  0  0  0  0  0  0  0
   68.7262   36.4230   61.1183 O   0  0  0  0  0  0  0  0  0  0  0  0
   69.7674   37.8387   59.6449 C   0  0  0  0  0  0  0  0  0  0  0  0
   71.0165   37.4129   60.0825 C   0  0  0  0  0  0  0  0  0  0  0  0
   72.1245   37.9714   59.4971 C   0  0  0  0  0  0  0  0  0  0  0  0
   72.0221   38.9173   58.5165 C   0  0  0  0  0  0  0  0  0  0  0  0
   70.7561   39.3288   58.0930 C   0  0  0  0  0  0  0  0  0  0  0  0
   69.6186   38.8070   58.6392 C   0  0  0  0  0  0  0  0  0  0  0  0
   66.2552   37.1341   60.3884 C   0  0  0  0  0  0  0  0  0  0  0  0
   65.5492   36.1273   59.7649 C   0  0  0  0  0  0  0  0  0  0  0  0
   64.4260   35.5769   60.3543 C   0  0  0  0  0  0  0  0  0  0  0  0
   63.9654   36.0065   61.5807 C   0  0  0  0  0  0  0  0  0  0  0  0
   64.6681   37.0139   62.2074 C   0  0  0  0  0  0  0  0  0  0  0  0
   65.7919   37.5621   61.6155 C   0  0  0  0  0  0  0  0  0  0  0  0
   68.1976   41.6071   57.5637 N   0  0  0  0  0  0  0  0  0  0  0  0
   68.1454   40.1942   57.2031 C   0  0  0  0  0  0  0  0  0  0  0  0
   67.8955   40.0162   55.9968 O   0  0  0  0  0  0  0  0  0  0  0  0
   69.5427   43.9737   57.4979 O   0  0  0  0  0  0  0  0  0  0  0  0
   68.6982   43.8080   56.5800 C   0  0  0  0  0  0  0  0  0  0  0  0
   67.9729   42.5897   56.5742 N   0  0  0  0  0  0  0  0  0  0  0  0
   68.4877   44.8321   55.5790 C   0  0  0  0  0  0  0  0  0  0  0  0
   68.8955   46.1413   55.8756 C   0  0  0  0  0  0  0  0  0  0  0  0
   68.7332   47.1718   54.9821 C   0  0  0  0  0  0  0  0  0  0  0  0
   69.1315   48.4442   55.2768 F   0  0  0  0  0  0  0  0  0  0  0  0
   68.1527   46.9300   53.7511 C   0  0  0  0  0  0  0  0  0  0  0  0
   67.7356   45.6632   53.4120 C   0  0  0  0  0  0  0  0  0  0  0  0
   67.1583   45.3716   52.2091 F   0  0  0  0  0  0  0  0  0  0  0  0
   67.9195   44.6441   54.3499 C   0  0  0  0  0  0  0  0  0  0  0  0
 21 22  2  0
 22 23  1  0
 22 24  1  0
 23 18  1  0
 18 19  1  0
 19 20  2  0
 19  1  1  0
  1  2  2  0
  1 11  1  0
  2  3  1  0
  3 12  1  0
  3  4  1  0
 12 13  2  0
 12 17  1  0
 13 14  1  0
 14 15  2  0
 15 16  1  0
 16 17  2  0
  4  5  2  0
  4  6  1  0
  6  7  1  0
  6 11  2  0
  7  8  2  0
  8  9  1  0
  9 10  2  0
 10 11  1  0
 24 25  2  0
 24 31  1  0
 25 26  1  0
 26 27  1  0
 26 28  2  0
 28 29  1  0
 29 30  1  0
 29 31  2  0
M  END
>  <minimizedAffinity>  (571) 
-8.53835

$$$$
cs_full_output_folder/data/smiles/370.pdb
     RDKit          3D

 28 30  0  0  0  0  0  0  0  0999 V2000
   68.5553   46.3667   54.1133 C   0  0  0  0  0  0  0  0  0  0  0  0
   68.2204   45.9763   52.8368 C   0  0  0  0  0  0  0  0  0  0  0  0
   68.5455   46.8143   51.7656 C   0  0  0  0  0  0  0  0  0  0  0  0
   69.1903   48.0115   51.9809 C   0  0  0  0  0  0  0  0  0  0  0  0
   69.5355   48.4204   53.2710 C   0  0  0  0  0  0  0  0  0  0  0  0
   69.2063   47.5802   54.3142 C   0  0  0  0  0  0  0  0  0  0  0  0
   67.8390   44.1898   55.1846 N   0  0  0  0  0  0  0  0  0  0  0  0
   68.2442   45.5421   55.2547 C   0  0  0  0  0  0  0  0  0  0  0  0
   68.3244   46.0214   56.4363 O   0  0  0  0  0  0  0  0  0  0  0  0
   69.5453   42.2989   56.3480 O   0  0  0  0  0  0  0  0  0  0  0  0
   68.4278   42.4964   56.9019 C   0  0  0  0  0  0  0  0  0  0  0  0
   67.5504   43.4421   56.3383 N   0  0  0  0  0  0  0  0  0  0  0  0
   68.1226   41.7426   58.0734 N   0  0  0  0  0  0  0  0  0  0  0  0
   69.0249   40.7883   58.6312 C   0  0  0  0  0  0  0  0  0  0  0  0
   68.9710   39.4607   58.2613 C   0  0  0  0  0  0  0  0  0  0  0  0
   69.8349   38.5048   58.7852 C   0  0  0  0  0  0  0  0  0  0  0  0
   70.7882   38.8732   59.7096 C   0  0  0  0  0  0  0  0  0  0  0  0
   70.8584   40.2002   60.0928 C   0  0  0  0  0  0  0  0  0  0  0  0
   69.9859   41.1392   59.5577 C   0  0  0  0  0  0  0  0  0  0  0  0
   70.3572   49.9431   53.5318 S   0  0  0  0  0  0  0  0  0  0  0  0
   70.0721   50.8961   52.3990 O   0  0  0  0  0  0  0  0  0  0  0  0
   71.8469   49.6398   53.4598 O   0  0  0  0  0  0  0  0  0  0  0  0
   69.9282   50.5885   55.0475 N   0  0  0  0  0  0  0  0  0  0  0  0
   71.0696   51.1332   55.6961 C   0  0  0  0  0  0  0  0  0  0  0  0
   71.1045   52.6504   55.4767 C   0  0  0  0  0  0  0  0  0  0  0  0
   69.9936   53.1976   56.3665 C   0  0  0  0  0  0  0  0  0  0  0  0
   68.7281   52.4876   56.0505 C   0  0  0  0  0  0  0  0  0  0  0  0
   68.8014   51.4778   54.9697 C   0  0  0  0  0  0  0  0  0  0  0  0
 10 11  2  0
 11 12  1  0
 11 13  1  0
 12  7  1  0
  7  8  1  0
  8  9  2  0
  8  1  1  0
  1  2  2  0
  1  6  1  0
  2  3  1  0
  3  4  2  0
  4  5  1  0
  5 20  1  0
  5  6  2  0
 20 21  2  0
 20 22  2  0
 20 23  1  0
 23 24  1  0
 23 28  1  0
 24 25  1  0
 25 26  1  0
 26 27  1  0
 27 28  1  0
 13 14  1  0
 14 15  2  0
 14 19  1  0
 15 16  1  0
 16 17  2  0
 17 18  1  0
 18 19  2  0
M  END
>  <minimizedAffinity>  (572) 
-8.53645

$$$$
cs_full_output_folder/data/smiles/255.pdb
     RDKit          3D

 28 29  0  0  0  0  0  0  0  0999 V2000
   70.1907   44.0391   58.3215 C   0  0  0  0  0  0  0  0  0  0  0  0
   71.7935   43.8466   58.1324 S   0  0  0  0  0  0  0  0  0  0  0  0
   68.8483   41.9505   58.1652 C   0  0  0  0  0  0  0  0  0  0  0  0
   69.0220   42.0151   56.8945 O   0  0  0  0  0  0  0  0  0  0  0  0
   69.4414   42.9832   58.9264 N   0  0  0  0  0  0  0  0  0  0  0  0
   66.5943   38.7150   59.6979 C   0  0  0  0  0  0  0  0  0  0  0  0
   66.2686   40.0098   60.0228 C   0  0  0  0  0  0  0  0  0  0  0  0
   67.0027   41.0650   59.5244 C   0  0  0  0  0  0  0  0  0  0  0  0
   68.0760   40.8462   58.6906 C   0  0  0  0  0  0  0  0  0  0  0  0
   68.4017   39.5608   58.3651 C   0  0  0  0  0  0  0  0  0  0  0  0
   67.6559   38.4906   58.8728 C   0  0  0  0  0  0  0  0  0  0  0  0
   66.7793   36.7060   61.0381 C   0  0  0  0  0  0  0  0  0  0  0  0
   65.8396   37.5420   60.2050 C   0  0  0  0  0  0  0  0  0  0  0  0
   64.7327   38.0381   61.1042 C   0  0  0  0  0  0  0  0  0  0  0  0
   65.3045   36.6867   59.0823 C   0  0  0  0  0  0  0  0  0  0  0  0
   69.5974   45.2417   57.8803 N   0  0  0  0  0  0  0  0  0  0  0  0
   69.6679   45.5383   56.5008 N   0  0  0  0  0  0  0  0  0  0  0  0
   68.7641   46.4196   55.8681 C   0  0  0  0  0  0  0  0  0  0  0  0
   67.8760   46.9395   56.6003 O   0  0  0  0  0  0  0  0  0  0  0  0
   68.7773   46.7697   54.4598 C   0  0  0  0  0  0  0  0  0  0  0  0
   68.1607   45.9809   53.5130 C   0  0  0  0  0  0  0  0  0  0  0  0
   68.1789   46.3257   52.1648 C   0  0  0  0  0  0  0  0  0  0  0  0
   68.8122   47.4653   51.7286 C   0  0  0  0  0  0  0  0  0  0  0  0
   69.4359   48.2645   52.6749 C   0  0  0  0  0  0  0  0  0  0  0  0
   69.4070   47.9056   54.0034 C   0  0  0  0  0  0  0  0  0  0  0  0
   70.0878   49.4399   52.2098 N   0  0  1  0  0  0  0  0  0  0  0  0
   69.7448   49.6120   50.9273 O   0  0  0  0  0  0  0  0  0  0  0  0
   69.8142   50.8115   53.2051 Cl  0  0  0  0  0  0  0  0  0  0  0  0
 12 13  1  0
 13 14  1  0
 13 15  1  0
 13  6  1  0
  6  7  2  0
  6 11  1  0
  7  8  1  0
  8  9  2  0
  9  3  1  0
  9 10  1  0
  3  4  2  0
  3  5  1  0
  5  1  1  0
  1  2  2  0
  1 16  1  0
 16 17  1  0
 17 18  1  0
 18 19  2  0
 18 20  1  0
 20 21  2  0
 20 25  1  0
 21 22  1  0
 22 23  2  0
 23 24  1  0
 24 26  1  0
 24 25  2  0
 26 27  1  6
 26 28  1  0
 10 11  2  0
M  CHG  2  26   1  27  -1
M  END
>  <minimizedAffinity>  (573) 
-8.53606

$$$$
cs_full_output_folder/data/smiles/6224.pdb
     RDKit          3D

 32 36  0  0  0  0  0  0  0  0999 V2000
   72.9039   45.6632   59.6844 C   0  0  0  0  0  0  0  0  0  0  0  0
   71.8837   46.3071   58.8437 C   0  0  0  0  0  0  0  0  0  0  0  0
   72.0825   47.6173   58.4611 C   0  0  0  0  0  0  0  0  0  0  0  0
   71.1766   48.3196   57.6677 C   0  0  0  0  0  0  0  0  0  0  0  0
   70.0455   47.6845   57.2503 C   0  0  0  0  0  0  0  0  0  0  0  0
   69.8514   46.3598   57.6394 C   0  0  0  0  0  0  0  0  0  0  0  0
   70.7333   45.6617   58.4179 C   0  0  0  0  0  0  0  0  0  0  0  0
   70.4893   44.2774   58.8065 C   0  0  0  0  0  0  0  0  0  0  0  0
   69.6764   44.1118   59.7534 O   0  0  0  0  0  0  0  0  0  0  0  0
   71.1078   43.1601   58.1814 N   0  0  0  0  0  0  0  0  0  0  0  0
   70.7900   41.8259   58.6472 C   0  0  0  0  0  0  0  0  0  0  0  0
   72.0257   40.9373   58.4023 C   0  0  0  0  0  0  0  0  0  0  0  0
   73.2244   41.6938   58.5977 N   0  0  0  0  0  0  0  0  0  0  0  0
   74.2074   41.5958   59.5769 C   0  0  0  0  0  0  0  0  0  0  0  0
   75.1849   42.4594   59.4607 O   0  0  0  0  0  0  0  0  0  0  0  0
   73.3978   42.7548   57.5569 C   0  0  0  0  0  0  0  0  0  0  0  0
   72.0488   43.2535   57.0901 C   0  0  0  0  0  0  0  0  0  0  0  0
   74.3515   40.7059   60.7146 C   0  0  0  0  0  0  0  0  0  0  0  0
   75.6078   40.2179   61.2972 C   0  0  0  0  0  0  0  0  0  0  0  0
   74.8831   39.2880   60.4317 C   0  0  0  0  0  0  0  0  0  0  0  0
   69.0412   48.3821   56.4212 C   0  0  0  0  0  0  0  0  0  0  0  0
   69.4271   48.4166   54.9898 C   0  0  0  0  0  0  0  0  0  0  0  0
   70.3632   49.3040   54.5685 N   0  0  0  0  0  0  0  0  0  0  0  0
   70.8100   49.3940   53.3433 N   0  0  0  0  0  0  0  0  0  0  0  0
   70.3250   48.5534   52.3878 C   0  0  0  0  0  0  0  0  0  0  0  0
   70.7534   48.6379   51.2121 O   0  0  0  0  0  0  0  0  0  0  0  0
   69.3663   47.6200   52.7358 C   0  0  0  0  0  0  0  0  0  0  0  0
   68.8383   46.7505   51.7773 C   0  0  0  0  0  0  0  0  0  0  0  0
   67.8822   45.8277   52.0827 C   0  0  0  0  0  0  0  0  0  0  0  0
   67.4401   45.7724   53.3910 C   0  0  0  0  0  0  0  0  0  0  0  0
   67.9501   46.6239   54.3537 C   0  0  0  0  0  0  0  0  0  0  0  0
   68.9234   47.5660   54.0548 C   0  0  0  0  0  0  0  0  0  0  0  0
  1  2  1  0
  2  3  2  0
  2  7  1  0
  3  4  1  0
  4  5  2  0
  5 21  1  0
  5  6  1  0
 21 22  1  0
 22 23  2  0
 22 32  1  0
 23 24  1  0
 24 25  1  0
 25 26  2  0
 25 27  1  0
 27 28  1  0
 27 32  2  0
 28 29  2  0
 29 30  1  0
 30 31  2  0
 31 32  1  0
  6  7  2  0
  7  8  1  0
  8  9  2  0
  8 10  1  0
 10 11  1  0
 10 17  1  0
 11 12  1  0
 12 13  1  0
 13 14  1  0
 13 16  1  0
 14 15  2  0
 14 18  1  0
 18 19  1  0
 18 20  1  0
 19 20  1  0
 16 17  1  0
M  END
>  <minimizedAffinity>  (574) 
-8.53142

$$$$
cs_full_output_folder/data/smiles/5899.pdb
     RDKit          3D

 32 36  0  0  0  0  0  0  0  0999 V2000
   70.0635   46.3294   57.3880 C   0  0  0  0  0  0  0  0  0  0  0  0
   70.0566   44.9904   57.4572 C   0  0  0  0  0  0  0  0  0  0  0  0
   70.9552   44.3438   58.3023 C   0  0  0  0  0  0  0  0  0  0  0  0
   71.8551   45.0736   59.0699 C   0  0  0  0  0  0  0  0  0  0  0  0
   72.7068   44.4221   59.8856 F   0  0  0  0  0  0  0  0  0  0  0  0
   71.9000   46.4756   59.0256 C   0  0  0  0  0  0  0  0  0  0  0  0
   71.0019   47.0397   58.1739 C   0  0  0  0  0  0  0  0  0  0  0  0
   72.6758   47.2635   60.0006 C   0  0  0  0  0  0  0  0  0  0  0  0
   71.9538   47.8108   60.9036 O   0  0  0  0  0  0  0  0  0  0  0  0
   74.0459   47.4815   60.0393 N   0  0  0  0  0  0  0  0  0  0  0  0
   75.1217   46.8927   59.3071 C   0  0  0  0  0  0  0  0  0  0  0  0
   75.3925   47.9263   58.1882 C   0  0  0  0  0  0  0  0  0  0  0  0
   76.1180   48.9661   58.8867 N   0  0  0  0  0  0  0  0  0  0  0  0
   77.2033   49.6201   58.2985 C   0  0  0  0  0  0  0  0  0  0  0  0
   77.7165   50.5877   59.0281 O   0  0  0  0  0  0  0  0  0  0  0  0
   75.7355   49.3010   60.2395 C   0  0  0  0  0  0  0  0  0  0  0  0
   74.5293   48.6557   60.8345 C   0  0  0  0  0  0  0  0  0  0  0  0
   77.8839   49.4402   57.0267 C   0  0  0  0  0  0  0  0  0  0  0  0
   78.6989   50.3426   56.2392 C   0  0  0  0  0  0  0  0  0  0  0  0
   77.2586   50.2488   55.8700 C   0  0  0  0  0  0  0  0  0  0  0  0
   69.0334   47.2358   56.8009 C   0  0  0  0  0  0  0  0  0  0  0  0
   67.5339   45.3842   51.6466 C   0  0  0  0  0  0  0  0  0  0  0  0
   67.8848   45.8786   52.8295 C   0  0  0  0  0  0  0  0  0  0  0  0
   67.4606   45.2499   54.0572 N   0  0  0  0  0  0  0  0  0  0  0  0
   67.8716   45.7606   55.2680 N   0  0  0  0  0  0  0  0  0  0  0  0
   68.6304   46.7908   55.4451 C   0  0  0  0  0  0  0  0  0  0  0  0
   69.0997   47.4859   54.2386 C   0  0  0  0  0  0  0  0  0  0  0  0
   69.8330   48.6541   54.4329 C   0  0  0  0  0  0  0  0  0  0  0  0
   70.1913   49.3729   53.3007 C   0  0  0  0  0  0  0  0  0  0  0  0
   69.8659   48.9839   52.0514 C   0  0  0  0  0  0  0  0  0  0  0  0
   69.1319   47.8089   51.8526 C   0  0  0  0  0  0  0  0  0  0  0  0
   68.7503   47.0627   52.9810 C   0  0  0  0  0  0  0  0  0  0  0  0
 22 23  2  0
 23 24  1  0
 23 32  1  0
 24 25  1  0
 25 26  2  0
 26 21  1  0
 26 27  1  0
 21  1  1  0
  1  2  2  0
  1  7  1  0
  2  3  1  0
  3  4  2  0
  4  5  1  0
  4  6  1  0
  6  8  1  0
  6  7  2  0
  8  9  2  0
  8 10  1  0
 10 11  1  0
 10 17  1  0
 11 12  1  0
 12 13  1  0
 13 14  1  0
 13 16  1  0
 14 15  2  0
 14 18  1  0
 18 19  1  0
 18 20  1  0
 19 20  1  0
 16 17  1  0
 27 28  1  0
 27 32  2  0
 28 29  2  0
 29 30  1  0
 30 31  2  0
 31 32  1  0
M  END
>  <minimizedAffinity>  (575) 
-8.52454

$$$$
cs_full_output_folder/data/smiles/384.pdb
     RDKit          3D

 28 30  0  0  0  0  0  0  0  0999 V2000
   68.6873   46.4773   54.3017 C   0  0  0  0  0  0  0  0  0  0  0  0
   68.4100   46.2287   52.9733 C   0  0  0  0  0  0  0  0  0  0  0  0
   68.7359   47.1078   51.9622 C   0  0  0  0  0  0  0  0  0  0  0  0
   69.3640   48.2946   52.2468 C   0  0  0  0  0  0  0  0  0  0  0  0
   69.7851   49.4215   50.9708 Cl  0  0  0  0  0  0  0  0  0  0  0  0
   69.6532   48.5675   53.5688 C   0  0  0  0  0  0  0  0  0  0  0  0
   69.3210   47.6758   54.5792 C   0  0  0  0  0  0  0  0  0  0  0  0
   67.8102   44.2095   55.0695 N   0  0  0  0  0  0  0  0  0  0  0  0
   68.3158   45.5064   55.3220 C   0  0  0  0  0  0  0  0  0  0  0  0
   68.4484   45.8333   56.5278 O   0  0  0  0  0  0  0  0  0  0  0  0
   69.6130   42.7201   56.4815 O   0  0  0  0  0  0  0  0  0  0  0  0
   68.4013   42.5263   56.7891 C   0  0  0  0  0  0  0  0  0  0  0  0
   67.4588   43.2924   56.0648 N   0  0  0  0  0  0  0  0  0  0  0  0
   68.0554   41.5673   57.8268 C   0  0  0  0  0  0  0  0  0  0  0  0
   67.6488   41.9279   59.0819 C   0  0  0  0  0  0  0  0  0  0  0  0
   67.3244   40.9737   60.0537 C   0  0  0  0  0  0  0  0  0  0  0  0
   67.4081   39.6297   59.7656 C   0  0  0  0  0  0  0  0  0  0  0  0
   67.8150   39.2586   58.5092 C   0  0  0  0  0  0  0  0  0  0  0  0
   68.1359   40.2216   57.5464 C   0  0  0  0  0  0  0  0  0  0  0  0
   70.4558   50.0734   53.9039 S   0  0  0  0  0  0  0  0  0  0  0  0
   69.9622   51.0684   52.8713 O   0  0  0  0  0  0  0  0  0  0  0  0
   71.9366   49.8384   53.6525 O   0  0  0  0  0  0  0  0  0  0  0  0
   70.2683   50.6418   55.4861 N   0  0  0  0  0  0  0  0  0  0  0  0
   69.0174   51.2019   55.8285 C   0  0  0  0  0  0  0  0  0  0  0  0
   68.9531   52.6830   55.9750 C   0  0  0  0  0  0  0  0  0  0  0  0
   70.2302   53.3631   56.3264 C   0  0  0  0  0  0  0  0  0  0  0  0
   71.4330   52.7327   55.6538 C   0  0  0  0  0  0  0  0  0  0  0  0
   71.4189   51.2798   56.0374 C   0  0  0  0  0  0  0  0  0  0  0  0
 11 12  2  0
 12 13  1  0
 12 14  1  0
 13  8  1  0
  8  9  1  0
  9 10  2  0
  9  1  1  0
  1  2  2  0
  1  7  1  0
  2  3  1  0
  3  4  2  0
  4  5  1  0
  4  6  1  0
  6 20  1  0
  6  7  2  0
 20 21  2  0
 20 22  2  0
 20 23  1  0
 23 24  1  0
 23 28  1  0
 24 25  1  0
 25 26  1  0
 26 27  1  0
 27 28  1  0
 14 15  2  0
 14 19  1  0
 15 16  1  0
 16 17  2  0
 17 18  1  0
 18 19  2  0
M  END
>  <minimizedAffinity>  (576) 
-8.51830

$$$$
cs_full_output_folder/data/smiles/87.pdb
     RDKit          3D

 31 33  0  0  0  0  0  0  0  0999 V2000
   70.0304   43.4249   59.4428 C   0  0  0  0  0  0  0  0  0  0  0  0
   68.9201   43.8498   59.8297 O   0  0  0  0  0  0  0  0  0  0  0  0
   70.8945   42.8381   60.4068 N   0  0  0  0  0  0  0  0  0  0  0  0
   70.5357   42.7164   61.8106 C   0  0  1  0  0  0  0  0  0  0  0  0
   70.0431   41.3513   62.0579 C   0  0  0  0  0  0  0  0  0  0  0  0
   69.7191   40.6579   61.0349 O   0  0  0  0  0  0  0  0  0  0  0  0
   69.8524   40.6334   63.2747 N   0  0  0  0  0  0  0  0  0  0  0  0
   68.8259   39.5915   63.2755 C   0  0  0  0  0  0  0  0  0  0  0  0
   70.5381   40.8103   64.4827 N   0  0  0  0  0  0  0  0  0  0  0  0
   71.4982   41.6410   64.7630 C   0  0  0  0  0  0  0  0  0  0  0  0
   72.1280   42.6281   63.8758 C   0  0  0  0  0  0  0  0  0  0  0  0
   73.2890   43.1196   64.4558 C   0  0  0  0  0  0  0  0  0  0  0  0
   74.0656   44.0591   63.8237 C   0  0  0  0  0  0  0  0  0  0  0  0
   73.6589   44.5084   62.5857 C   0  0  0  0  0  0  0  0  0  0  0  0
   72.4891   44.0099   62.0078 C   0  0  0  0  0  0  0  0  0  0  0  0
   71.7150   43.0724   62.6383 C   0  0  0  0  0  0  0  0  0  0  0  0
   71.8642   43.1295   57.8126 C   0  0  0  0  0  0  0  0  0  0  0  0
   70.4193   43.5422   57.9947 C   0  0  2  0  0  0  0  0  0  0  0  0
   70.2188   44.8952   57.5256 N   0  0  0  0  0  0  0  0  0  0  0  0
   69.1633   45.1702   56.6141 C   0  0  0  0  0  0  0  0  0  0  0  0
   68.4422   44.2063   56.2539 O   0  0  0  0  0  0  0  0  0  0  0  0
   68.8831   46.5039   56.0866 C   0  0  2  0  0  0  0  0  0  0  0  0
   67.7550   47.0930   56.6516 O   0  0  0  0  0  0  0  0  0  0  0  0
   68.7010   46.5705   54.6229 C   0  0  0  0  0  0  0  0  0  0  0  0
   69.3521   47.6081   53.9537 C   0  0  0  0  0  0  0  0  0  0  0  0
   69.2536   47.7693   52.5961 C   0  0  0  0  0  0  0  0  0  0  0  0
   69.8837   48.7741   51.9471 F   0  0  0  0  0  0  0  0  0  0  0  0
   68.4985   46.9032   51.8311 C   0  0  0  0  0  0  0  0  0  0  0  0
   67.8602   45.8837   52.5005 C   0  0  0  0  0  0  0  0  0  0  0  0
   67.1035   45.0067   51.7698 F   0  0  0  0  0  0  0  0  0  0  0  0
   67.9617   45.7242   53.8640 C   0  0  0  0  0  0  0  0  0  0  0  0
 18 17  1  1
 18 19  1  0
 18  1  1  0
 19 20  1  0
 20 21  2  0
 20 22  1  0
 22 23  1  1
 22 24  1  0
 24 25  2  0
 24 31  1  0
 25 26  1  0
 26 27  1  0
 26 28  2  0
 28 29  1  0
 29 30  1  0
 29 31  2  0
  1  2  2  0
  1  3  1  0
  4  3  1  6
  4  5  1  0
  4 16  1  0
  5  6  2  0
  5  7  1  0
  7  8  1  0
  7  9  1  0
  9 10  2  0
 10 11  1  0
 11 12  1  0
 11 16  2  0
 12 13  2  0
 13 14  1  0
 14 15  2  0
 15 16  1  0
M  END
>  <minimizedAffinity>  (577) 
-8.51513

$$$$
cs_full_output_folder/data/smiles/1829.pdb
     RDKit          3D

 26 28  0  0  0  0  0  0  0  0999 V2000
   70.8037   42.3417   59.2206 C   0  0  0  0  0  0  0  0  0  0  0  0
   69.8697   41.8673   58.1991 C   0  0  0  0  0  0  0  0  0  0  0  0
   69.2390   42.6414   57.2564 C   0  0  0  0  0  0  0  0  0  0  0  0
   68.4633   41.7847   56.5147 C   0  0  0  0  0  0  0  0  0  0  0  0
   68.6513   40.5563   57.0278 N   0  0  0  0  0  0  0  0  0  0  0  0
   69.4938   40.5708   58.0457 N   0  0  0  0  0  0  0  0  0  0  0  0
   69.9295   39.4716   58.8290 C   0  0  0  0  0  0  0  0  0  0  0  0
   71.1741   39.0906   58.7899 C   0  0  0  0  0  0  0  0  0  0  0  0
   71.5310   37.9015   59.1314 C   0  0  0  0  0  0  0  0  0  0  0  0
   70.6861   37.0171   59.5763 C   0  0  0  0  0  0  0  0  0  0  0  0
   71.1322   35.1641   59.5417 Br  0  0  0  0  0  0  0  0  0  0  0  0
   69.3979   37.4844   60.0978 C   0  0  0  0  0  0  0  0  0  0  0  0
   69.0469   38.7083   59.7095 C   0  0  0  0  0  0  0  0  0  0  0  0
   69.3371   44.0733   57.0405 C   0  0  0  0  0  0  0  0  0  0  0  0
   70.2474   44.7511   57.6249 O   0  0  0  0  0  0  0  0  0  0  0  0
   68.4612   44.7950   56.1960 N   0  0  0  0  0  0  0  0  0  0  0  0
   68.4643   46.1864   55.9148 C   0  0  0  0  0  0  0  0  0  0  0  0
   68.5392   46.4785   54.4668 C   0  0  0  0  0  0  0  0  0  0  0  0
   67.8320   45.6675   53.5758 C   0  0  0  0  0  0  0  0  0  0  0  0
   67.9084   45.9395   52.2298 C   0  0  0  0  0  0  0  0  0  0  0  0
   68.6619   46.9869   51.7446 C   0  0  0  0  0  0  0  0  0  0  0  0
   69.3661   47.7952   52.6132 C   0  0  0  0  0  0  0  0  0  0  0  0
   69.2818   47.5125   53.9817 C   0  0  0  0  0  0  0  0  0  0  0  0
   70.1674   48.9046   52.1491 C   0  0  0  0  0  0  0  0  0  0  0  0
   69.7645   49.6433   51.0182 N   0  0  0  0  0  0  0  0  0  0  0  0
   71.2143   49.2058   52.7507 O   0  0  0  0  0  0  0  0  0  0  0  0
  1  2  1  0
  2  3  2  0
  2  6  1  0
  3 14  1  0
  3  4  1  0
 14 15  2  0
 14 16  1  0
 16 17  1  0
 17 18  1  0
 18 19  2  0
 18 23  1  0
 19 20  1  0
 20 21  2  0
 21 22  1  0
 22 24  1  0
 22 23  2  0
 24 25  1  0
 24 26  2  0
  4  5  2  0
  5  6  1  0
  6  7  1  0
  7  8  2  0
  7 13  1  0
  8  9  2  0
  9 10  2  0
 10 11  1  0
 10 12  1  0
 12 13  2  0
M  END
>  <minimizedAffinity>  (578) 
-8.50770

$$$$
