cs_R4_output_folder/data/smiles/0.pdb


 21 22  0  0  0  0  0  0  0  0999 V2000
   68.3020   46.3721   56.2878 N   0  0  0  0  0  0  0  0  0  0  0  0
   69.1902   47.6157   52.8989 C   0  0  0  0  0  0  0  0  0  0  0  0
   69.1011   47.4886   54.2761 C   0  0  0  0  0  0  0  0  0  0  0  0
   68.3662   46.4631   54.8754 C   0  0  0  0  0  0  0  0  0  0  0  0
   67.7184   45.5610   54.0623 C   0  0  0  0  0  0  0  0  0  0  0  0
   67.7746   45.6416   52.6912 C   0  0  0  0  0  0  0  0  0  0  0  0
   68.5232   46.6870   52.1332 C   0  0  0  0  0  0  0  0  0  0  0  0
   68.6161   46.8183   50.7872 F   0  0  0  0  0  0  0  0  0  0  0  0
   71.1841   49.1019   52.9173 N   0  0  0  0  0  0  0  0  0  0  0  0
   69.9665   48.7009   52.3169 C   0  0  0  0  0  0  0  0  0  0  0  0
   69.5473   49.2682   51.2870 O   0  0  0  0  0  0  0  0  0  0  0  0
   69.3516   47.2600   57.2985 S   0  0  0  0  0  0  0  0  0  0  0  0
   69.3365   46.7469   58.7128 O   0  0  0  0  0  0  0  0  0  0  0  0
   70.7713   47.1321   56.8170 O   0  0  0  0  0  0  0  0  0  0  0  0
   68.9297   48.9490   57.3496 C   0  0  0  0  0  0  0  0  0  0  0  0
   69.9087   49.9111   57.2703 C   0  0  0  0  0  0  0  0  0  0  0  0
   69.5669   51.2551   57.3119 C   0  0  0  0  0  0  0  0  0  0  0  0
   68.2355   51.6224   57.4337 C   0  0  0  0  0  0  0  0  0  0  0  0
   67.2700   50.6390   57.5116 C   0  0  0  0  0  0  0  0  0  0  0  0
   65.9407   50.9644   57.6322 F   0  0  0  0  0  0  0  0  0  0  0  0
   67.6060   49.3001   57.4702 C   0  0  0  0  0  0  0  0  0  0  0  0
  9 10  1  0  0  0
 10 11  2  0  0  0
 10  2  1  0  0  0
  2  3  2  0  0  0
  2  7  1  0  0  0
  3  4  1  0  0  0
  4  1  1  0  0  0
  4  5  2  0  0  0
  1 12  1  0  0  0
 12 13  2  0  0  0
 12 14  2  0  0  0
 12 15  1  0  0  0
 15 16  2  0  0  0
 15 21  1  0  0  0
 16 17  1  0  0  0
 17 18  2  0  0  0
 18 19  1  0  0  0
 19 20  1  0  0  0
 19 21  2  0  0  0
  5  6  1  0  0  0
  6  7  2  0  0  0
  7  8  1  0  0  0
M  END
> <minimizedAffinity>
-8.66253

$$$$
cs_R4_output_folder/data/smiles/1.pdb


 22 24  0  0  0  0  0  0  0  0999 V2000
   69.3558   47.6731   56.7297 C   0  0  0  0  0  0  0  0  0  0  0  0
   68.8532   46.9857   55.5265 C   0  0  0  0  0  0  0  0  0  0  0  0
   68.0585   45.8923   55.7068 N   0  0  0  0  0  0  0  0  0  0  0  0
   67.5277   45.2330   54.7044 N   0  0  0  0  0  0  0  0  0  0  0  0
   67.7426   45.6069   53.4361 C   0  0  0  0  0  0  0  0  0  0  0  0
   67.1961   44.9213   52.5172 O   0  0  0  0  0  0  0  0  0  0  0  0
   68.5329   46.6985   53.1471 C   0  0  0  0  0  0  0  0  0  0  0  0
   68.7656   47.0779   51.8497 C   0  0  0  0  0  0  0  0  0  0  0  0
   69.5689   48.1644   51.5790 C   0  0  0  0  0  0  0  0  0  0  0  0
   70.1214   48.8450   52.6500 C   0  0  0  0  0  0  0  0  0  0  0  0
   69.8805   48.4539   53.9554 C   0  0  0  0  0  0  0  0  0  0  0  0
   69.0775   47.3701   54.2389 C   0  0  0  0  0  0  0  0  0  0  0  0
   68.0781   51.2738   56.9812 C   0  0  0  0  0  0  0  0  0  0  0  0
   66.8590   51.0461   57.6300 C   0  0  0  0  0  0  0  0  0  0  0  0
   66.4879   49.7552   57.9551 C   0  0  0  0  0  0  0  0  0  0  0  0
   67.3034   48.6922   57.6477 C   0  0  0  0  0  0  0  0  0  0  0  0
   68.5315   48.8731   57.0000 C   0  0  0  0  0  0  0  0  0  0  0  0
   68.8551   50.1676   56.6986 C   0  0  0  0  0  0  0  0  0  0  0  0
   68.4712   52.5502   56.6455 O   0  0  0  0  0  0  0  0  0  0  0  0
   69.4521   52.8885   55.6943 C   0  0  0  0  0  0  0  0  0  0  0  0
   71.2250   53.1678   57.2216 O   0  0  0  0  0  0  0  0  0  0  0  0
   70.5534   53.6513   56.3299 C   0  0  0  0  0  0  0  0  0  0  0  0
 21 22  2  0  0  0
 22 20  1  0  0  0
 20 19  1  0  0  0
 19 13  1  0  0  0
 13 14  2  0  0  0
 13 18  1  0  0  0
 14 15  1  0  0  0
 15 16  2  0  0  0
 16 17  1  0  0  0
 17  1  1  0  0  0
 17 18  2  0  0  0
  1  2  1  0  0  0
  2  3  2  0  0  0
  2 12  1  0  0  0
  3  4  1  0  0  0
  4  5  1  0  0  0
  5  6  2  0  0  0
  5  7  1  0  0  0
  7  8  1  0  0  0
  7 12  2  0  0  0
  8  9  2  0  0  0
  9 10  1  0  0  0
 10 11  2  0  0  0
 11 12  1  0  0  0
M  END
> <minimizedAffinity>
-8.58933

$$$$
cs_R4_output_folder/data/smiles/2.pdb


 19 21  0  0  0  0  0  0  0  0999 V2000
   71.5232   49.7662   53.4227 O   0  0  0  0  0  0  0  0  0  0  0  0
   70.9064   49.8878   54.5164 C   0  0  0  0  0  0  0  0  0  0  0  0
   69.7920   49.0677   54.7699 N   0  0  0  0  0  0  0  0  0  0  0  0
   68.9629   49.0515   55.9644 C   0  0  0  0  0  0  0  0  0  0  0  0
   68.4960   47.6045   56.0356 C   0  0  0  0  0  0  0  0  0  0  0  0
   68.4937   47.1845   54.5986 C   0  0  0  0  0  0  0  0  0  0  0  0
   67.8641   46.1213   53.9994 C   0  0  0  0  0  0  0  0  0  0  0  0
   68.0092   45.9451   52.6365 C   0  0  0  0  0  0  0  0  0  0  0  0
   67.3833   44.8842   52.0251 F   0  0  0  0  0  0  0  0  0  0  0  0
   68.7748   46.8249   51.9059 C   0  0  0  0  0  0  0  0  0  0  0  0
   69.3917   47.8774   52.5326 C   0  0  0  0  0  0  0  0  0  0  0  0
   69.2702   48.0855   53.8890 C   0  0  0  0  0  0  0  0  0  0  0  0
   71.3449   50.8753   55.5215 C   0  0  0  0  0  0  0  0  0  0  0  0
   72.2407   50.5483   56.5130 C   0  0  0  0  0  0  0  0  0  0  0  0
   72.6102   51.5196   57.4231 C   0  0  0  0  0  0  0  0  0  0  0  0
   72.1062   52.8120   57.3677 C   0  0  0  0  0  0  0  0  0  0  0  0
   72.5095   53.7619   58.3122 O   0  0  0  0  0  0  0  0  0  0  0  0
   71.2050   53.1463   56.3735 C   0  0  0  0  0  0  0  0  0  0  0  0
   70.8450   52.1652   55.4707 C   0  0  0  0  0  0  0  0  0  0  0  0
  1  2  2  0  0  0
  2 13  1  0  0  0
  2  3  1  0  0  0
 13 14  2  0  0  0
 13 19  1  0  0  0
 14 15  1  0  0  0
 15 16  2  0  0  0
 16 17  1  0  0  0
 16 18  1  0  0  0
 18 19  2  0  0  0
  3  4  1  0  0  0
  3 12  1  0  0  0
  4  5  1  0  0  0
  5  6  1  0  0  0
  6  7  1  0  0  0
  6 12  2  0  0  0
  7  8  2  0  0  0
  8  9  1  0  0  0
  8 10  1  0  0  0
 10 11  2  0  0  0
 11 12  1  0  0  0
M  END
> <minimizedAffinity>
-6.58819

$$$$
cs_R4_output_folder/data/smiles/3.pdb


 24 26  0  0  0  0  0  0  0  0999 V2000
   70.8446   45.9274   58.3320 C   0  0  0  0  0  0  0  0  0  0  0  0
   71.8261   46.7250   58.8763 C   0  0  0  0  0  0  0  0  0  0  0  0
   71.8953   48.0831   58.5747 C   0  0  0  0  0  0  0  0  0  0  0  0
   70.9591   48.6218   57.7182 C   0  0  0  0  0  0  0  0  0  0  0  0
   69.9425   47.8370   57.1451 C   0  0  0  0  0  0  0  0  0  0  0  0
   69.9361   46.5323   57.4789 C   0  0  0  0  0  0  0  0  0  0  0  0
   70.7406   44.1895   58.7184 S   0  0  0  0  0  0  0  0  0  0  0  0
   69.1699   42.1649   57.5499 C   0  0  0  0  0  0  0  0  0  0  0  0
   70.2039   41.4570   57.5808 O   0  0  0  0  0  0  0  0  0  0  0  0
   69.2627   43.4901   58.0546 N   0  0  0  0  0  0  0  0  0  0  0  0
   67.3894   42.5314   55.9453 C   0  0  0  0  0  0  0  0  0  0  0  0
   67.9263   41.5893   56.9965 C   0  0  0  0  0  0  0  0  0  0  0  0
   69.0103   48.5419   56.2345 C   0  0  0  0  0  0  0  0  0  0  0  0
   69.3529   48.4751   54.8205 C   0  0  0  0  0  0  0  0  0  0  0  0
   70.2364   49.4012   54.3365 N   0  0  0  0  0  0  0  0  0  0  0  0
   70.5948   49.4677   53.0745 N   0  0  0  0  0  0  0  0  0  0  0  0
   70.1204   48.6265   52.1456 C   0  0  0  0  0  0  0  0  0  0  0  0
   70.5048   48.7451   50.9487 O   0  0  0  0  0  0  0  0  0  0  0  0
   69.2259   47.6590   52.5330 C   0  0  0  0  0  0  0  0  0  0  0  0
   68.7146   46.7611   51.6208 C   0  0  0  0  0  0  0  0  0  0  0  0
   67.8187   45.7834   52.0448 C   0  0  0  0  0  0  0  0  0  0  0  0
   67.4746   45.7550   53.3880 C   0  0  0  0  0  0  0  0  0  0  0  0
   67.9856   46.6509   54.2971 C   0  0  0  0  0  0  0  0  0  0  0  0
   68.8607   47.6078   53.8798 C   0  0  0  0  0  0  0  0  0  0  0  0
 11 12  1  0  0  0
 12  8  1  0  0  0
  8  9  2  0  0  0
  8 10  1  0  0  0
 10  7  1  0  0  0
  7  1  1  0  0  0
  1  2  2  0  0  0
  1  6  1  0  0  0
  2  3  1  0  0  0
  3  4  2  0  0  0
  4  5  1  0  0  0
  5 13  1  0  0  0
  5  6  2  0  0  0
 13 14  1  0  0  0
 14 15  2  0  0  0
 14 24  1  0  0  0
 15 16  1  0  0  0
 16 17  1  0  0  0
 17 18  2  0  0  0
 17 19  1  0  0  0
 19 20  1  0  0  0
 19 24  2  0  0  0
 20 21  2  0  0  0
 21 22  1  0  0  0
 22 23  2  0  0  0
 23 24  1  0  0  0
M  END
> <minimizedAffinity>
-9.03650

$$$$
cs_R4_output_folder/data/smiles/4.pdb


 27 28  0  0  0  0  0  0  0  0999 V2000
   67.8307   48.5392   57.1117 C   0  0  0  0  0  0  0  0  0  0  0  0
   69.1254   47.7629   56.6010 S   0  0  0  0  0  0  0  0  0  0  0  0
   70.2143   48.7582   56.8591 O   0  0  0  0  0  0  0  0  0  0  0  0
   68.8980   47.4224   54.8999 C   0  0  0  0  0  0  0  0  0  0  0  0
   68.2965   46.2491   54.4902 C   0  0  0  0  0  0  0  0  0  0  0  0
   67.8595   45.3303   55.3660 F   0  0  0  0  0  0  0  0  0  0  0  0
   68.1354   46.0072   53.1575 C   0  0  0  0  0  0  0  0  0  0  0  0
   67.5506   44.8662   52.6868 F   0  0  0  0  0  0  0  0  0  0  0  0
   68.5554   46.8990   52.2035 C   0  0  0  0  0  0  0  0  0  0  0  0
   68.3794   46.6298   50.8722 F   0  0  0  0  0  0  0  0  0  0  0  0
   69.1578   48.0754   52.5923 C   0  0  0  0  0  0  0  0  0  0  0  0
   69.5748   48.9632   51.6318 F   0  0  0  0  0  0  0  0  0  0  0  0
   69.3139   48.3091   53.9277 C   0  0  0  0  0  0  0  0  0  0  0  0
   69.9128   49.4773   54.3173 F   0  0  0  0  0  0  0  0  0  0  0  0
   69.3408   46.2968   57.5039 N   0  0  0  0  0  0  0  0  0  0  0  0
   70.6392   45.9247   57.9893 C   0  0  0  0  0  0  0  0  0  0  0  0
   71.0395   44.6098   57.8657 C   0  0  0  0  0  0  0  0  0  0  0  0
   72.2722   44.1481   58.3094 C   0  0  0  0  0  0  0  0  0  0  0  0
   73.1629   45.0126   58.9062 C   0  0  0  0  0  0  0  0  0  0  0  0
   72.7433   46.3446   59.0253 C   0  0  0  0  0  0  0  0  0  0  0  0
   71.5179   46.7964   58.5816 C   0  0  0  0  0  0  0  0  0  0  0  0
   73.7143   47.2096   59.6358 N   0  0  0  0  0  0  0  0  0  0  0  0
   73.4935   47.8468   60.8952 C   0  0  0  0  0  0  0  0  0  0  0  0
   74.4602   48.6875   61.4980 N   0  0  0  0  0  0  0  0  0  0  0  0
   72.4178   47.6779   61.5240 O   0  0  0  0  0  0  0  0  0  0  0  0
   74.4070   44.6270   59.3762 O   0  0  0  0  0  0  0  0  0  0  0  0
   74.6448   43.3995   60.0135 C   0  0  0  0  0  0  0  0  0  0  0  0
  1  2  2  0  0  0
  2  3  2  0  0  0
  2 15  1  0  0  0
  2  4  1  0  0  0
 15 16  1  0  0  0
 16 17  2  0  0  0
 16 21  1  0  0  0
 17 18  1  0  0  0
 18 19  2  0  0  0
 19 26  1  0  0  0
 19 20  1  0  0  0
 26 27  1  0  0  0
 20 22  1  0  0  0
 20 21  2  0  0  0
 22 23  1  0  0  0
 23 24  1  0  0  0
 23 25  2  0  0  0
  4  5  2  0  0  0
  4 13  1  0  0  0
  5  6  1  0  0  0
  5  7  1  0  0  0
  7  8  1  0  0  0
  7  9  2  0  0  0
  9 10  1  0  0  0
  9 11  1  0  0  0
 11 12  1  0  0  0
 11 13  2  0  0  0
 13 14  1  0  0  0
M  END
> <minimizedAffinity>
-7.78310

$$$$
cs_R4_output_folder/data/smiles/5.pdb


 26 28  0  0  0  0  0  0  0  0999 V2000
   71.8204   41.7305   58.6032 C   0  0  0  0  0  0  0  0  0  0  0  0
   72.6638   42.6119   57.9603 C   0  0  0  0  0  0  0  0  0  0  0  0
   72.4202   43.9685   57.9133 C   0  0  0  0  0  0  0  0  0  0  0  0
   71.3066   44.5125   58.5162 C   0  0  0  0  0  0  0  0  0  0  0  0
   70.4531   43.6452   59.1630 C   0  0  0  0  0  0  0  0  0  0  0  0
   70.7059   42.2903   59.2043 C   0  0  0  0  0  0  0  0  0  0  0  0
   73.1470   39.8888   59.1558 O   0  0  0  0  0  0  0  0  0  0  0  0
   72.0611   40.2909   58.6645 C   0  0  0  0  0  0  0  0  0  0  0  0
   71.1613   39.3074   58.2124 N   0  0  0  0  0  0  0  0  0  0  0  0
   71.4239   37.9061   58.2859 C   0  0  0  0  0  0  0  0  0  0  0  0
   70.8977   37.1362   59.3040 C   0  0  0  0  0  0  0  0  0  0  0  0
   71.1355   35.7745   59.4015 C   0  0  0  0  0  0  0  0  0  0  0  0
   71.9225   35.1595   58.4560 C   0  0  0  0  0  0  0  0  0  0  0  0
   72.1908   33.8188   58.5034 F   0  0  0  0  0  0  0  0  0  0  0  0
   72.4394   35.9467   57.4473 C   0  0  0  0  0  0  0  0  0  0  0  0
   72.1885   37.2726   57.3808 N   0  0  0  0  0  0  0  0  0  0  0  0
   70.9773   46.2379   58.4681 S   0  0  0  0  0  0  0  0  0  0  0  0
   72.0310   46.8752   57.6298 O   0  0  0  0  0  0  0  0  0  0  0  0
   71.1501   46.7534   59.8722 O   0  0  0  0  0  0  0  0  0  0  0  0
   69.3816   46.5476   57.8996 N   0  0  0  0  0  0  0  0  0  0  0  0
   69.1499   46.8119   56.5256 C   0  0  0  0  0  0  0  0  0  0  0  0
   68.6576   45.8348   55.6729 C   0  0  0  0  0  0  0  0  0  0  0  0
   68.4308   46.0727   54.3508 C   0  0  0  0  0  0  0  0  0  0  0  0
   68.6924   47.3177   53.8253 C   0  0  0  0  0  0  0  0  0  0  0  0
   69.1824   48.2948   54.6665 C   0  0  0  0  0  0  0  0  0  0  0  0
   69.4128   48.0577   56.0035 C   0  0  0  0  0  0  0  0  0  0  0  0
  7  8  2  0  0  0
  8  9  1  0  0  0
  8  1  1  0  0  0
  9 10  1  0  0  0
 10 11  2  0  0  0
 10 16  1  0  0  0
 11 12  1  0  0  0
 12 13  2  0  0  0
 13 14  1  0  0  0
 13 15  1  0  0  0
 15 16  2  0  0  0
  1  2  2  0  0  0
  1  6  1  0  0  0
  2  3  1  0  0  0
  3  4  2  0  0  0
  4 17  1  0  0  0
  4  5  1  0  0  0
 17 18  2  0  0  0
 17 19  2  0  0  0
 17 20  1  0  0  0
 20 21  1  0  0  0
 21 22  2  0  0  0
 21 26  1  0  0  0
 22 23  1  0  0  0
 23 24  2  0  0  0
 24 25  1  0  0  0
 25 26  2  0  0  0
  5  6  2  0  0  0
M  END
> <minimizedAffinity>
-7.82543

$$$$
cs_R4_output_folder/data/smiles/6.pdb


 25 27  0  0  0  0  0  0  0  0999 V2000
   68.3851   47.6964   56.6798 C   0  0  0  0  0  0  0  0  0  0  0  0
   68.8800   46.7630   57.4153 O   0  0  0  0  0  0  0  0  0  0  0  0
   68.0532   46.3958   53.1565 C   0  0  0  0  0  0  0  0  0  0  0  0
   67.9066   46.5663   54.5524 C   0  0  0  0  0  0  0  0  0  0  0  0
   68.5482   47.5477   55.2571 C   0  0  0  0  0  0  0  0  0  0  0  0
   69.3697   48.3949   54.5499 C   0  0  0  0  0  0  0  0  0  0  0  0
   69.5381   48.2597   53.1891 C   0  0  0  0  0  0  0  0  0  0  0  0
   68.9065   47.2928   52.4888 C   0  0  0  0  0  0  0  0  0  0  0  0
   69.0804   47.1623   51.1072 O   0  0  0  0  0  0  0  0  0  0  0  0
   70.4060   49.1831   52.5149 N   0  0  0  0  0  0  0  0  0  0  0  0
   70.0395   49.9192   51.5839 O   0  0  0  0  0  0  0  0  0  0  0  0
   71.7163   49.2399   52.9320 O   0  0  0  0  0  0  0  0  0  0  0  0
   66.9786   44.5300   51.7333 C   0  0  0  0  0  0  0  0  0  0  0  0
   67.4536   45.4673   52.4709 O   0  0  0  0  0  0  0  0  0  0  0  0
   67.7202   48.7868   57.3984 C   0  0  0  0  0  0  0  0  0  0  0  0
   68.4588   50.0857   57.1809 C   0  0  0  0  0  0  0  0  0  0  0  0
   67.8951   51.0811   56.4024 C   0  0  0  0  0  0  0  0  0  0  0  0
   68.5702   52.2837   56.2146 C   0  0  0  0  0  0  0  0  0  0  0  0
   69.8033   52.4830   56.8065 C   0  0  0  0  0  0  0  0  0  0  0  0
   70.4532   53.6687   56.6108 C   0  0  0  0  0  0  0  0  0  0  0  0
   71.6956   53.8846   57.1958 C   0  0  0  0  0  0  0  0  0  0  0  0
   72.3101   52.9231   57.9858 C   0  0  0  0  0  0  0  0  0  0  0  0
   71.6257   51.7369   58.1653 C   0  0  0  0  0  0  0  0  0  0  0  0
   70.4020   51.4945   57.6016 C   0  0  0  0  0  0  0  0  0  0  0  0
   69.6833   50.3305   57.7473 C   0  0  0  0  0  0  0  0  0  0  0  0
 13 14  1  0  0  0
 14  3  1  0  0  0
  3  4  2  0  0  0
  3  8  1  0  0  0
  4  5  1  0  0  0
  5  1  1  0  0  0
  5  6  2  0  0  0
  1  2  2  0  0  0
  1 15  1  0  0  0
 15 16  1  0  0  0
 16 17  2  0  0  0
 16 25  1  0  0  0
 17 18  1  0  0  0
 18 19  2  0  0  0
 19 20  1  0  0  0
 19 24  1  0  0  0
 20 21  2  0  0  0
 21 22  1  0  0  0
 22 23  2  0  0  0
 23 24  1  0  0  0
 24 25  2  0  0  0
  6  7  1  0  0  0
  7 10  1  0  0  0
  7  8  2  0  0  0
 10 11  2  0  0  0
 10 12  1  0  0  0
  8  9  1  0  0  0
M  CHG 1  10   1
M  CHG 1  12  -1
M  END
> <minimizedAffinity>
-8.31902

$$$$
cs_R4_output_folder/data/smiles/7.pdb


 24 27  0  0  0  0  0  0  0  0999 V2000
   69.1376   47.5975   52.7488 C   0  0  0  0  0  0  0  0  0  0  0  0
   68.4400   46.8458   51.7802 C   0  0  0  0  0  0  0  0  0  0  0  0
   67.6785   45.7823   52.1565 C   0  0  0  0  0  0  0  0  0  0  0  0
   67.5397   45.3764   53.4664 C   0  0  0  0  0  0  0  0  0  0  0  0
   68.2070   46.0893   54.4227 C   0  0  0  0  0  0  0  0  0  0  0  0
   69.0020   47.1954   54.0626 C   0  0  0  0  0  0  0  0  0  0  0  0
   70.4072   48.7688   51.0997 O   0  0  0  0  0  0  0  0  0  0  0  0
   70.0174   48.6491   52.2891 C   0  0  0  0  0  0  0  0  0  0  0  0
   70.5268   49.6700   53.1948 C   0  0  0  0  0  0  0  0  0  0  0  0
   71.8188   49.7804   53.6353 N   0  0  0  0  0  0  0  0  0  0  0  0
   71.9310   50.7666   54.4953 N   0  0  0  0  0  0  0  0  0  0  0  0
   70.7486   51.3642   54.6814 C   0  0  0  0  0  0  0  0  0  0  0  0
   70.3787   52.4165   55.4959 C   0  0  0  0  0  0  0  0  0  0  0  0
   69.0522   52.7959   55.4925 C   0  0  0  0  0  0  0  0  0  0  0  0
   68.1368   52.1153   54.6807 C   0  0  0  0  0  0  0  0  0  0  0  0
   68.5434   51.0780   53.8871 C   0  0  0  0  0  0  0  0  0  0  0  0
   69.8489   50.6773   53.8632 C   0  0  0  0  0  0  0  0  0  0  0  0
   69.6555   47.9353   55.0788 N   0  0  0  0  0  0  0  0  0  0  0  0
   69.2728   47.6839   56.4583 C   0  0  0  0  0  0  0  0  0  0  0  0
   69.0197   48.9433   57.1960 C   0  0  0  0  0  0  0  0  0  0  0  0
   67.8241   49.6122   57.3269 C   0  0  0  0  0  0  0  0  0  0  0  0
   68.0492   50.7073   58.0775 N   0  0  0  0  0  0  0  0  0  0  0  0
   69.3365   50.7551   58.4229 N   0  0  0  0  0  0  0  0  0  0  0  0
   69.9595   49.6689   57.8869 C   0  0  0  0  0  0  0  0  0  0  0  0
  7  8  2  0  0  0
  8  1  1  0  0  0
  8  9  1  0  0  0
  1  2  2  0  0  0
  1  6  1  0  0  0
  2  3  1  0  0  0
  3  4  2  0  0  0
  4  5  1  0  0  0
  5  6  2  0  0  0
  6 18  1  0  0  0
 18 19  1  0  0  0
 19 20  1  0  0  0
 20 21  1  0  0  0
 20 24  2  0  0  0
 21 22  2  0  0  0
 22 23  1  0  0  0
 23 24  1  0  0  0
  9 10  2  0  0  0
  9 17  1  0  0  0
 10 11  1  0  0  0
 11 12  1  0  0  0
 12 13  1  0  0  0
 12 17  2  0  0  0
 13 14  2  0  0  0
 14 15  1  0  0  0
 15 16  2  0  0  0
 16 17  1  0  0  0
M  END
> <minimizedAffinity>
-8.57855

$$$$
cs_R4_output_folder/data/smiles/8.pdb


 27 29  0  0  0  0  0  0  0  0999 V2000
   70.7058   37.5578   59.7857 C   0  0  0  0  0  0  0  0  0  0  0  0
   71.3955   38.1471   58.7485 C   0  0  0  0  0  0  0  0  0  0  0  0
   72.0864   37.3126   57.8648 C   0  0  0  0  0  0  0  0  0  0  0  0
   72.1224   35.9505   57.9641 C   0  0  0  0  0  0  0  0  0  0  0  0
   72.8352   35.1575   57.0445 O   0  0  0  0  0  0  0  0  0  0  0  0
   71.4358   35.3644   59.0002 C   0  0  0  0  0  0  0  0  0  0  0  0
   71.4621   33.9836   59.1183 O   0  0  0  0  0  0  0  0  0  0  0  0
   70.7365   36.1828   59.8969 C   0  0  0  0  0  0  0  0  0  0  0  0
   70.0829   35.4717   60.8954 O   0  0  0  0  0  0  0  0  0  0  0  0
   71.4912   39.6044   58.5516 C   0  0  0  0  0  0  0  0  0  0  0  0
   70.4223   40.3513   58.1294 C   0  0  0  0  0  0  0  0  0  0  0  0
   70.5112   41.7182   57.9389 C   0  0  0  0  0  0  0  0  0  0  0  0
   71.7022   42.3665   58.1774 C   0  0  0  0  0  0  0  0  0  0  0  0
   72.7815   41.6233   58.6025 C   0  0  0  0  0  0  0  0  0  0  0  0
   72.6736   40.2589   58.7867 C   0  0  0  0  0  0  0  0  0  0  0  0
   68.5691   38.7290   60.5028 N   0  0  0  0  0  0  0  0  0  0  0  0
   69.9239   38.3694   60.6758 C   0  0  0  0  0  0  0  0  0  0  0  0
   70.4657   38.8295   61.7407 O   0  0  0  0  0  0  0  0  0  0  0  0
   67.5086   41.7624   62.4073 C   0  0  0  0  0  0  0  0  0  0  0  0
   66.8116   41.2007   63.4524 C   0  0  0  0  0  0  0  0  0  0  0  0
   66.6833   39.8366   63.5442 C   0  0  0  0  0  0  0  0  0  0  0  0
   67.2612   39.0240   62.5738 C   0  0  0  0  0  0  0  0  0  0  0  0
   67.9650   39.5595   61.5172 C   0  0  0  0  0  0  0  0  0  0  0  0
   68.0661   40.9296   61.4679 C   0  0  0  0  0  0  0  0  0  0  0  0
   68.2599   43.8991   63.1599 O   0  0  0  0  0  0  0  0  0  0  0  0
   67.6396   43.2275   62.3202 C   0  0  0  0  0  0  0  0  0  0  0  0
   67.0425   43.8758   61.2534 O   0  0  0  0  0  0  0  0  0  0  0  0
 25 26  2  0  0  0
 26 27  1  0  0  0
 26 19  1  0  0  0
 19 20  2  0  0  0
 19 24  1  0  0  0
 20 21  1  0  0  0
 21 22  2  0  0  0
 22 23  1  0  0  0
 23 16  1  0  0  0
 23 24  2  0  0  0
 16 17  1  0  0  0
 17 18  2  0  0  0
 17  1  1  0  0  0
  1  2  1  0  0  0
  1  8  2  0  0  0
  2 10  1  0  0  0
  2  3  2  0  0  0
 10 11  2  0  0  0
 10 15  1  0  0  0
 11 12  1  0  0  0
 12 13  2  0  0  0
 13 14  1  0  0  0
 14 15  2  0  0  0
  3  4  1  0  0  0
  4  5  1  0  0  0
  4  6  2  0  0  0
  6  7  1  0  0  0
  6  8  1  0  0  0
  8  9  1  0  0  0
M  END
> <minimizedAffinity>
-6.85954

$$$$
cs_R4_output_folder/data/smiles/9.pdb


 32 36  0  0  0  0  0  0  0  0999 V2000
   71.4923   47.2141   58.8323 C   0  0  0  0  0  0  0  0  0  0  0  0
   70.6439   47.9461   58.0337 C   0  0  0  0  0  0  0  0  0  0  0  0
   69.7861   47.4020   57.1185 C   0  0  0  0  0  0  0  0  0  0  0  0
   69.7860   46.0047   57.0037 C   0  0  0  0  0  0  0  0  0  0  0  0
   70.6169   45.2352   57.7819 C   0  0  0  0  0  0  0  0  0  0  0  0
   71.4623   45.8387   58.6893 C   0  0  0  0  0  0  0  0  0  0  0  0
   72.2903   45.0817   59.4667 F   0  0  0  0  0  0  0  0  0  0  0  0
   71.9816   47.9397   60.9712 O   0  0  0  0  0  0  0  0  0  0  0  0
   72.3998   47.8477   59.7945 C   0  0  0  0  0  0  0  0  0  0  0  0
   73.6758   48.3432   59.4727 N   0  0  0  0  0  0  0  0  0  0  0  0
   74.4404   48.9397   60.5540 C   0  0  0  0  0  0  0  0  0  0  0  0
   75.4908   47.9662   61.0555 C   0  0  0  0  0  0  0  0  0  0  0  0
   76.7607   48.0679   60.2274 C   0  0  0  0  0  0  0  0  0  0  0  0
   76.4420   48.3063   58.8267 N   0  0  0  0  0  0  0  0  0  0  0  0
   77.1399   49.3866   58.2429 C   0  0  0  0  0  0  0  0  0  0  0  0
   77.9637   50.0342   58.9682 O   0  0  0  0  0  0  0  0  0  0  0  0
   75.5063   47.5376   58.0563 C   0  0  0  0  0  0  0  0  0  0  0  0
   74.1574   48.2440   58.1116 C   0  0  0  0  0  0  0  0  0  0  0  0
   76.9513   49.7968   56.8264 C   0  0  0  0  0  0  0  0  0  0  0  0
   77.9224   49.3016   55.7891 C   0  0  0  0  0  0  0  0  0  0  0  0
   77.9174   50.7447   56.2048 C   0  0  0  0  0  0  0  0  0  0  0  0
   68.8555   48.1978   56.2528 C   0  0  0  0  0  0  0  0  0  0  0  0
   69.2812   48.3190   54.8634 C   0  0  0  0  0  0  0  0  0  0  0  0
   70.1671   49.2772   54.5048 N   0  0  0  0  0  0  0  0  0  0  0  0
   70.6070   49.4352   53.2756 N   0  0  0  0  0  0  0  0  0  0  0  0
   70.1788   48.6268   52.2985 C   0  0  0  0  0  0  0  0  0  0  0  0
   70.5676   48.7349   51.1073 O   0  0  0  0  0  0  0  0  0  0  0  0
   69.2659   47.6094   52.5710 C   0  0  0  0  0  0  0  0  0  0  0  0
   68.8205   47.4630   53.8623 C   0  0  0  0  0  0  0  0  0  0  0  0
   67.8771   46.3541   53.9076 C   0  0  0  0  0  0  0  0  0  0  0  0
   67.7614   45.8522   52.6917 C   0  0  0  0  0  0  0  0  0  0  0  0
   68.6135   46.5819   51.7403 C   0  0  0  0  0  0  0  0  0  0  0  0
  8  9  2  0  0  0
  9  1  1  0  0  0
  9 10  1  0  0  0
  1  2  2  0  0  0
  1  6  1  0  0  0
  2  3  1  0  0  0
  3 22  1  0  0  0
  3  4  2  0  0  0
 22 23  1  0  0  0
 23 24  2  0  0  0
 23 29  1  0  0  0
 24 25  1  0  0  0
 25 26  1  0  0  0
 26 27  2  0  0  0
 26 28  1  0  0  0
 28 29  2  0  0  0
 28 32  1  0  0  0
 29 30  1  0  0  0
 30 31  2  0  0  0
 31 32  1  0  0  0
  4  5  1  0  0  0
  5  6  2  0  0  0
  6  7  1  0  0  0
 10 11  1  0  0  0
 10 18  1  0  0  0
 11 12  1  0  0  0
 12 13  1  0  0  0
 13 14  1  0  0  0
 14 15  1  0  0  0
 14 17  1  0  0  0
 15 16  2  0  0  0
 15 19  1  0  0  0
 19 20  1  0  0  0
 19 21  1  0  0  0
 20 21  1  0  0  0
 17 18  1  0  0  0
M  END
> <minimizedAffinity>
-9.46811

$$$$
cs_R4_output_folder/data/smiles/10.pdb


 20 21  0  0  0  0  0  0  0  0999 V2000
   70.0845   50.4690   52.6865 O   0  0  0  0  0  0  0  0  0  0  0  0
   70.3341   49.5705   53.5134 C   0  0  0  0  0  0  0  0  0  0  0  0
   71.3095   49.8097   54.4849 N   0  0  0  0  0  0  0  0  0  0  0  0
   72.0949   50.9536   54.6942 C   0  0  0  0  0  0  0  0  0  0  0  0
   73.4497   51.0081   54.4933 C   0  0  0  0  0  0  0  0  0  0  0  0
   74.1838   52.1876   54.7207 C   0  0  0  0  0  0  0  0  0  0  0  0
   73.5593   53.3288   55.1561 C   0  0  0  0  0  0  0  0  0  0  0  0
   72.1978   53.2855   55.3622 C   0  0  0  0  0  0  0  0  0  0  0  0
   71.5888   54.4553   55.8032 O   0  0  0  0  0  0  0  0  0  0  0  0
   71.5004   52.1261   55.1334 C   0  0  0  0  0  0  0  0  0  0  0  0
   69.5566   48.3142   53.3818 C   0  0  0  0  0  0  0  0  0  0  0  0
   69.1027   47.9407   52.1304 C   0  0  0  0  0  0  0  0  0  0  0  0
   68.3783   46.7820   51.9683 C   0  0  0  0  0  0  0  0  0  0  0  0
   67.9271   46.4106   50.7276 F   0  0  0  0  0  0  0  0  0  0  0  0
   68.1083   45.9942   53.0655 C   0  0  0  0  0  0  0  0  0  0  0  0
   68.5618   46.3655   54.3218 C   0  0  0  0  0  0  0  0  0  0  0  0
   69.2771   47.5202   54.4468 C   0  0  0  0  0  0  0  0  0  0  0  0
   68.2842   45.5504   55.4644 N   0  0  0  0  0  0  0  0  0  0  0  0
   68.5232   45.9548   56.6053 O   0  0  0  0  0  0  0  0  0  0  0  0
   67.7485   44.3145   55.2672 O   0  0  0  0  0  0  0  0  0  0  0  0
  1  2  2  0  0  0
  2  3  1  0  0  0
  2 11  1  0  0  0
  3  4  1  0  0  0
  4  5  2  0  0  0
  4 10  1  0  0  0
  5  6  1  0  0  0
  6  7  2  0  0  0
  7  8  1  0  0  0
  8  9  1  0  0  0
  8 10  2  0  0  0
 11 12  2  0  0  0
 11 17  1  0  0  0
 12 13  1  0  0  0
 13 14  1  0  0  0
 13 15  2  0  0  0
 15 16  1  0  0  0
 16 18  1  0  0  0
 16 17  2  0  0  0
 18 19  2  0  0  0
 18 20  1  0  0  0
M  CHG 1  18   1
M  CHG 1  20  -1
M  END
> <minimizedAffinity>
-7.25029

$$$$
cs_R4_output_folder/data/smiles/11.pdb


 26 28  0  0  0  0  0  0  0  0999 V2000
   68.1395   40.1713   58.0328 C   0  0  0  0  0  0  0  0  0  0  0  0
   67.5721   40.5875   56.8480 C   0  0  0  0  0  0  0  0  0  0  0  0
   67.8461   41.8624   56.3453 C   0  0  0  0  0  0  0  0  0  0  0  0
   68.6726   42.7588   56.9775 C   0  0  0  0  0  0  0  0  0  0  0  0
   69.2402   42.3218   58.1782 C   0  0  0  0  0  0  0  0  0  0  0  0
   68.9700   41.0668   58.6717 C   0  0  0  0  0  0  0  0  0  0  0  0
   68.9679   44.0943   56.4656 C   0  0  0  0  0  0  0  0  0  0  0  0
   69.9527   44.7480   56.9510 O   0  0  0  0  0  0  0  0  0  0  0  0
   68.2384   44.7290   55.4582 N   0  0  0  0  0  0  0  0  0  0  0  0
   68.4874   46.0066   54.9389 C   0  0  0  0  0  0  0  0  0  0  0  0
   68.7211   47.0976   55.7410 C   0  0  0  0  0  0  0  0  0  0  0  0
   68.9663   48.3577   55.2054 C   0  0  0  0  0  0  0  0  0  0  0  0
   68.9816   48.5513   53.8430 C   0  0  0  0  0  0  0  0  0  0  0  0
   68.7490   47.4651   53.0306 C   0  0  0  0  0  0  0  0  0  0  0  0
   68.5057   46.2151   53.5810 C   0  0  0  0  0  0  0  0  0  0  0  0
   69.2300   49.8310   53.2655 N   0  0  0  0  0  0  0  0  0  0  0  0
   68.7413   50.8771   53.7203 O   0  0  0  0  0  0  0  0  0  0  0  0
   70.0370   49.9169   52.1669 O   0  0  0  0  0  0  0  0  0  0  0  0
   67.8767   38.8201   58.6087 C   0  0  0  0  0  0  0  0  0  0  0  0
   65.1779   36.4920   61.5931 C   0  0  0  0  0  0  0  0  0  0  0  0
   65.4215   37.9111   61.6558 N   0  0  0  0  0  0  0  0  0  0  0  0
   66.7523   38.2503   62.0850 C   0  0  0  0  0  0  0  0  0  0  0  0
   67.6711   38.0777   60.8958 C   0  0  0  0  0  0  0  0  0  0  0  0
   67.2896   38.9702   59.8799 N   0  0  0  0  0  0  0  0  0  0  0  0
   66.0400   39.5969   59.9709 C   0  0  0  0  0  0  0  0  0  0  0  0
   65.0074   38.6085   60.4721 C   0  0  0  0  0  0  0  0  0  0  0  0
 20 21  1  0  0  0
 21 22  1  0  0  0
 21 26  1  0  0  0
 22 23  1  0  0  0
 23 24  1  0  0  0
 24 19  1  0  0  0
 24 25  1  0  0  0
 19  1  1  0  0  0
  1  2  2  0  0  0
  1  6  1  0  0  0
  2  3  1  0  0  0
  3  4  2  0  0  0
  4  7  1  0  0  0
  4  5  1  0  0  0
  7  8  2  0  0  0
  7  9  1  0  0  0
  9 10  1  0  0  0
 10 11  2  0  0  0
 10 15  1  0  0  0
 11 12  1  0  0  0
 12 13  2  0  0  0
 13 16  1  0  0  0
 13 14  1  0  0  0
 16 17  2  0  0  0
 16 18  1  0  0  0
 14 15  2  0  0  0
  5  6  2  0  0  0
 25 26  1  0  0  0
M  CHG 1  16   1
M  CHG 1  18  -1
M  CHG 1  21   1
M  CHG 1  24   1
M  END
> <minimizedAffinity>
-6.49056

$$$$
cs_R4_output_folder/data/smiles/12.pdb


 23 25  0  0  0  0  0  0  0  0999 V2000
   71.6572   41.0344   58.8751 C   0  0  0  0  0  0  0  0  0  0  0  0
   70.3529   40.9880   58.1778 C   0  0  0  0  0  0  0  0  0  0  0  0
   69.6645   39.7943   58.1188 C   0  0  0  0  0  0  0  0  0  0  0  0
   68.4406   39.8483   57.4394 C   0  0  0  0  0  0  0  0  0  0  0  0
   67.7929   38.7632   57.3733 O   0  0  0  0  0  0  0  0  0  0  0  0
   68.0016   40.9625   56.9057 O   0  0  0  0  0  0  0  0  0  0  0  0
   68.6557   42.1021   56.9602 C   0  0  0  0  0  0  0  0  0  0  0  0
   68.1361   43.2549   56.3732 C   0  0  0  0  0  0  0  0  0  0  0  0
   68.7767   44.4752   56.3993 C   0  0  0  0  0  0  0  0  0  0  0  0
   70.0130   44.4995   57.0647 C   0  0  0  0  0  0  0  0  0  0  0  0
   70.5274   43.3586   57.6465 C   0  0  0  0  0  0  0  0  0  0  0  0
   69.8702   42.1489   57.6085 C   0  0  0  0  0  0  0  0  0  0  0  0
   70.1548   38.5317   58.7204 C   0  0  0  0  0  0  0  0  0  0  0  0
   69.4456   38.2209   59.9939 C   0  0  0  0  0  0  0  0  0  0  0  0
   69.0606   36.9210   60.3654 N   0  0  0  0  0  0  0  0  0  0  0  0
   69.1898   39.1845   60.7608 O   0  0  0  0  0  0  0  0  0  0  0  0
   68.2596   45.6635   55.8259 N   0  0  0  0  0  0  0  0  0  0  0  0
   68.2915   46.0086   54.4554 C   0  0  0  0  0  0  0  0  0  0  0  0
   67.6476   45.2919   53.4667 C   0  0  0  0  0  0  0  0  0  0  0  0
   67.7159   45.6526   52.1149 C   0  0  0  0  0  0  0  0  0  0  0  0
   68.4322   46.7422   51.7238 C   0  0  0  0  0  0  0  0  0  0  0  0
   69.0866   47.4808   52.6911 C   0  0  0  0  0  0  0  0  0  0  0  0
   69.0182   47.1260   54.0187 C   0  0  0  0  0  0  0  0  0  0  0  0
  1  2  1  0  0  0
  2  3  2  0  0  0
  2 12  1  0  0  0
  3 13  1  0  0  0
  3  4  1  0  0  0
 13 14  1  0  0  0
 14 15  1  0  0  0
 14 16  2  0  0  0
  4  5  2  0  0  0
  4  6  1  0  0  0
  6  7  1  0  0  0
  7  8  1  0  0  0
  7 12  2  0  0  0
  8  9  2  0  0  0
  9 17  1  0  0  0
  9 10  1  0  0  0
 17 18  1  0  0  0
 18 19  2  0  0  0
 18 23  1  0  0  0
 19 20  1  0  0  0
 20 21  2  0  0  0
 21 22  1  0  0  0
 22 23  2  0  0  0
 10 11  2  0  0  0
 11 12  1  0  0  0
M  END
> <minimizedAffinity>
-7.34000

$$$$
cs_R4_output_folder/data/smiles/13.pdb


 22 24  0  0  0  0  0  0  0  0999 V2000
   68.1270   48.5901   56.9611 C   0  0  0  0  0  0  0  0  0  0  0  0
   67.1867   47.8679   57.6013 N   0  0  0  0  0  0  0  0  0  0  0  0
   66.3531   48.7086   58.2133 N   0  0  0  0  0  0  0  0  0  0  0  0
   66.7585   49.9786   57.9642 C   0  0  0  0  0  0  0  0  0  0  0  0
   67.8864   49.9444   57.1688 C   0  0  0  0  0  0  0  0  0  0  0  0
   68.6560   51.0694   56.6586 C   0  0  0  0  0  0  0  0  0  0  0  0
   68.2867   51.6671   55.4752 C   0  0  0  0  0  0  0  0  0  0  0  0
   68.9615   52.7327   54.9270 C   0  0  0  0  0  0  0  0  0  0  0  0
   70.0584   53.2226   55.5984 C   0  0  0  0  0  0  0  0  0  0  0  0
   70.4466   52.6425   56.7825 C   0  0  0  0  0  0  0  0  0  0  0  0
   69.7571   51.5700   57.3214 C   0  0  0  0  0  0  0  0  0  0  0  0
   70.2947   50.8636   58.8374 Cl  0  0  0  0  0  0  0  0  0  0  0  0
   69.2003   48.1553   56.1920 O   0  0  0  0  0  0  0  0  0  0  0  0
   68.6197   46.8119   50.8033 O   0  0  0  0  0  0  0  0  0  0  0  0
   68.7807   47.1658   52.1355 C   0  0  0  0  0  0  0  0  0  0  0  0
   68.1146   46.4547   53.1114 C   0  0  0  0  0  0  0  0  0  0  0  0
   68.2575   46.7858   54.4433 C   0  0  0  0  0  0  0  0  0  0  0  0
   69.0723   47.8406   54.8465 C   0  0  0  0  0  0  0  0  0  0  0  0
   69.7272   48.5347   53.8476 C   0  0  0  0  0  0  0  0  0  0  0  0
   70.5518   49.5950   54.2071 O   0  0  0  0  0  0  0  0  0  0  0  0
   69.5938   48.2138   52.5099 C   0  0  0  0  0  0  0  0  0  0  0  0
   70.2480   48.9057   51.5002 O   0  0  0  0  0  0  0  0  0  0  0  0
 14 15  1  0  0  0
 15 16  2  0  0  0
 15 21  1  0  0  0
 16 17  1  0  0  0
 17 18  2  0  0  0
 18 13  1  0  0  0
 18 19  1  0  0  0
 13  1  1  0  0  0
  1  2  2  0  0  0
  1  5  1  0  0  0
  2  3  1  0  0  0
  3  4  1  0  0  0
  4  5  2  0  0  0
  5  6  1  0  0  0
  6  7  2  0  0  0
  6 11  1  0  0  0
  7  8  1  0  0  0
  8  9  2  0  0  0
  9 10  1  0  0  0
 10 11  2  0  0  0
 11 12  1  0  0  0
 19 20  1  0  0  0
 19 21  2  0  0  0
 21 22  1  0  0  0
M  END
> <minimizedAffinity>
-8.56552

$$$$
cs_R4_output_folder/data/smiles/14.pdb


 24 25  0  0  0  0  0  0  0  0999 V2000
   72.5468   45.7421   58.6145 O   0  0  0  0  0  0  0  0  0  0  0  0
   71.4768   46.1537   58.7912 C   0  0  0  0  0  0  0  0  0  0  0  0
   71.2813   47.0822   60.2542 N   0  0  0  0  0  0  0  0  0  0  0  0
   72.6880   46.8489   60.8089 C   0  0  0  0  0  0  0  0  0  0  0  0
   73.4042   45.9902   60.6210 O   0  0  0  0  0  0  0  0  0  0  0  0
   73.0367   47.9983   61.6717 N   0  0  0  0  0  0  0  0  0  0  0  0
   70.2663   46.0395   58.0221 C   0  0  0  0  0  0  0  0  0  0  0  0
   70.0632   46.9067   56.9391 O   0  0  0  0  0  0  0  0  0  0  0  0
   68.8504   47.1609   56.3363 C   0  0  0  0  0  0  0  0  0  0  0  0
   67.8638   47.4383   57.0536 O   0  0  0  0  0  0  0  0  0  0  0  0
   68.7358   47.1140   54.8753 C   0  0  0  0  0  0  0  0  0  0  0  0
   69.1934   48.0897   54.0751 C   0  0  0  0  0  0  0  0  0  0  0  0
   69.1905   48.0146   52.6725 C   0  0  0  0  0  0  0  0  0  0  0  0
   68.6757   46.8124   52.0927 C   0  0  0  0  0  0  0  0  0  0  0  0
   68.2172   45.8349   52.9122 C   0  0  0  0  0  0  0  0  0  0  0  0
   68.2323   45.9586   54.2967 C   0  0  0  0  0  0  0  0  0  0  0  0
   67.7617   44.9825   55.1256 O   0  0  0  0  0  0  0  0  0  0  0  0
   74.3719   48.2050   62.1280 C   0  0  0  0  0  0  0  0  0  0  0  0
   75.0046   48.9781   60.9625 C   0  0  0  0  0  0  0  0  0  0  0  0
   76.1560   48.4891   60.3917 C   0  0  0  0  0  0  0  0  0  0  0  0
   76.8604   49.2531   59.4358 C   0  0  0  0  0  0  0  0  0  0  0  0
   76.3770   50.4983   59.0809 C   0  0  0  0  0  0  0  0  0  0  0  0
   75.2250   50.9724   59.6531 C   0  0  0  0  0  0  0  0  0  0  0  0
   74.5156   50.2019   60.6141 C   0  0  0  0  0  0  0  0  0  0  0  0
  1  2  2  0  0  0
  2  7  1  0  0  0
  2  3  1  0  0  0
  7  8  1  0  0  0
  8  9  1  0  0  0
  9 10  2  0  0  0
  9 11  1  0  0  0
 11 12  2  0  0  0
 11 16  1  0  0  0
 12 13  1  0  0  0
 13 14  2  0  0  0
 14 15  1  0  0  0
 15 16  2  0  0  0
 16 17  1  0  0  0
  3  4  1  0  0  0
  4  5  2  0  0  0
  4  6  1  0  0  0
  6 18  1  0  0  0
 18 19  1  0  0  0
 19 20  2  0  0  0
 19 24  1  0  0  0
 20 21  1  0  0  0
 21 22  2  0  0  0
 22 23  1  0  0  0
 23 24  2  0  0  0
M  END
> <minimizedAffinity>
-7.54786

$$$$
cs_R4_output_folder/data/smiles/15.pdb


 24 26  0  0  0  0  0  0  0  0999 V2000
   73.3439   34.7753   53.9946 S   0  0  0  0  0  0  0  0  0  0  0  0
   72.7465   33.3993   53.8758 O   0  0  0  0  0  0  0  0  0  0  0  0
   72.3211   35.8321   53.7103 O   0  0  0  0  0  0  0  0  0  0  0  0
   76.6346   35.1887   50.8290 C   0  0  0  0  0  0  0  0  0  0  0  0
   75.5105   34.4238   50.5898 C   0  0  0  0  0  0  0  0  0  0  0  0
   74.5015   34.2870   51.5414 C   0  0  0  0  0  0  0  0  0  0  0  0
   74.5977   34.9200   52.7629 C   0  0  0  0  0  0  0  0  0  0  0  0
   75.7340   35.6838   52.9823 C   0  0  0  0  0  0  0  0  0  0  0  0
   76.7279   35.8137   52.0356 C   0  0  0  0  0  0  0  0  0  0  0  0
   77.2560   34.5662   48.4999 C   0  0  0  0  0  0  0  0  0  0  0  0
   77.6449   35.2676   49.7562 C   0  0  0  0  0  0  0  0  0  0  0  0
   78.8203   34.6944   50.2548 F   0  0  0  0  0  0  0  0  0  0  0  0
   77.9538   36.5798   49.4547 F   0  0  0  0  0  0  0  0  0  0  0  0
   74.0372   34.9700   55.5594 N   0  0  0  0  0  0  0  0  0  0  0  0
   73.2082   35.1511   56.6918 C   0  0  0  0  0  0  0  0  0  0  0  0
   72.8902   34.1018   57.4990 C   0  0  0  0  0  0  0  0  0  0  0  0
   72.0989   34.2108   58.6083 C   0  0  0  0  0  0  0  0  0  0  0  0
   71.5883   35.4717   58.9296 C   0  0  0  0  0  0  0  0  0  0  0  0
   71.8900   36.5540   58.1349 C   0  0  0  0  0  0  0  0  0  0  0  0
   72.6925   36.4034   57.0238 C   0  0  0  0  0  0  0  0  0  0  0  0
   71.2381   37.7572   58.6925 C   0  0  0  0  0  0  0  0  0  0  0  0
   70.9568   38.8129   58.0886 O   0  0  0  0  0  0  0  0  0  0  0  0
   71.0049   37.4047   60.1206 C   0  0  0  0  0  0  0  0  0  0  0  0
   70.7131   35.9473   60.0263 C   0  0  0  0  0  0  0  0  0  0  0  0
 10 11  1  0  0  0
 11 12  1  0  0  0
 11 13  1  0  0  0
 11  4  1  0  0  0
  4  5  2  0  0  0
  4  9  1  0  0  0
  5  6  1  0  0  0
  6  7  2  0  0  0
  7  1  1  0  0  0
  7  8  1  0  0  0
  1  2  2  0  0  0
  1  3  2  0  0  0
  1 14  1  0  0  0
 14 15  1  0  0  0
 15 16  2  0  0  0
 15 20  1  0  0  0
 16 17  1  0  0  0
 17 18  2  0  0  0
 18 19  1  0  0  0
 18 24  1  0  0  0
 19 20  2  0  0  0
 19 21  1  0  0  0
 21 22  2  0  0  0
 21 23  1  0  0  0
 23 24  1  0  0  0
  8  9  2  0  0  0
M  END
> <minimizedAffinity>
-7.91386

$$$$
cs_R4_output_folder/data/smiles/16.pdb


 31 34  0  0  0  0  0  0  0  0999 V2000
   71.3946   46.7421   58.9054 C   0  0  0  0  0  0  0  0  0  0  0  0
   70.7062   47.6238   58.1089 C   0  0  0  0  0  0  0  0  0  0  0  0
   69.8137   47.2191   57.1120 C   0  0  0  0  0  0  0  0  0  0  0  0
   69.6294   45.8751   56.9355 C   0  0  0  0  0  0  0  0  0  0  0  0
   70.3308   44.9755   57.7474 C   0  0  0  0  0  0  0  0  0  0  0  0
   71.2062   45.3884   58.7239 C   0  0  0  0  0  0  0  0  0  0  0  0
   71.8508   44.4676   59.4727 F   0  0  0  0  0  0  0  0  0  0  0  0
   71.9844   46.9624   61.1402 O   0  0  0  0  0  0  0  0  0  0  0  0
   72.3315   47.1489   59.9492 C   0  0  0  0  0  0  0  0  0  0  0  0
   73.5855   47.7312   59.6719 N   0  0  0  0  0  0  0  0  0  0  0  0
   74.3698   48.0629   60.8286 C   0  0  0  0  0  0  0  0  0  0  0  0
   74.0874   49.5156   61.1546 C   0  0  0  0  0  0  0  0  0  0  0  0
   74.6103   50.4488   60.0872 C   0  0  0  0  0  0  0  0  0  0  0  0
   73.8166   50.2945   58.8445 N   0  0  0  0  0  0  0  0  0  0  0  0
   74.4056   49.3338   57.9901 C   0  0  0  0  0  0  0  0  0  0  0  0
   73.9001   47.9106   58.2912 C   0  0  0  0  0  0  0  0  0  0  0  0
   73.5735   51.5978   58.3609 C   0  0  0  0  0  0  0  0  0  0  0  0
   72.2045   52.0040   58.0043 C   0  0  0  0  0  0  0  0  0  0  0  0
   71.2439   51.1444   58.4743 O   0  0  0  0  0  0  0  0  0  0  0  0
   69.1426   48.2475   56.2905 C   0  0  0  0  0  0  0  0  0  0  0  0
   69.5106   48.2720   54.8820 C   0  0  0  0  0  0  0  0  0  0  0  0
   70.4840   49.1515   54.5078 N   0  0  0  0  0  0  0  0  0  0  0  0
   70.8829   49.3025   53.2762 N   0  0  0  0  0  0  0  0  0  0  0  0
   70.3244   48.5700   52.3133 C   0  0  0  0  0  0  0  0  0  0  0  0
   70.7158   48.7205   51.1132 O   0  0  0  0  0  0  0  0  0  0  0  0
   69.3377   47.6558   52.5817 C   0  0  0  0  0  0  0  0  0  0  0  0
   68.7645   46.8869   51.5857 C   0  0  0  0  0  0  0  0  0  0  0  0
   67.7864   45.9711   51.8775 C   0  0  0  0  0  0  0  0  0  0  0  0
   67.3763   45.8195   53.1786 C   0  0  0  0  0  0  0  0  0  0  0  0
   67.9497   46.5876   54.1744 C   0  0  0  0  0  0  0  0  0  0  0  0
   68.9324   47.5140   53.8981 C   0  0  0  0  0  0  0  0  0  0  0  0
  8  9  2  0  0  0
  9  1  1  0  0  0
  9 10  1  0  0  0
  1  2  2  0  0  0
  1  6  1  0  0  0
  2  3  1  0  0  0
  3 20  1  0  0  0
  3  4  2  0  0  0
 20 21  1  0  0  0
 21 22  2  0  0  0
 21 31  1  0  0  0
 22 23  1  0  0  0
 23 24  1  0  0  0
 24 25  2  0  0  0
 24 26  1  0  0  0
 26 27  1  0  0  0
 26 31  2  0  0  0
 27 28  2  0  0  0
 28 29  1  0  0  0
 29 30  2  0  0  0
 30 31  1  0  0  0
  4  5  1  0  0  0
  5  6  2  0  0  0
  6  7  1  0  0  0
 10 11  1  0  0  0
 10 16  1  0  0  0
 11 12  1  0  0  0
 12 13  1  0  0  0
 13 14  1  0  0  0
 14 17  1  0  0  0
 14 15  1  0  0  0
 17 18  1  0  0  0
 18 19  1  0  0  0
 15 16  1  0  0  0
M  CHG 1  14   1
M  END
> <minimizedAffinity>
-9.42433

$$$$
cs_R4_output_folder/data/smiles/17.pdb


 19 21  0  0  0  0  0  0  0  0999 V2000
   70.4541   48.8612   50.9318 O   0  0  0  0  0  0  0  0  0  0  0  0
   70.1390   48.6575   52.1359 C   0  0  0  0  0  0  0  0  0  0  0  0
   70.6772   49.4256   53.1007 N   0  0  0  0  0  0  0  0  0  0  0  0
   70.3251   49.1874   54.3768 C   0  0  0  0  0  0  0  0  0  0  0  0
   69.4500   48.2033   54.7217 N   0  0  0  0  0  0  0  0  0  0  0  0
   68.8887   47.4117   53.7890 C   0  0  0  0  0  0  0  0  0  0  0  0
   68.0200   46.4290   54.0896 N   0  0  0  0  0  0  0  0  0  0  0  0
   67.4561   45.6340   53.1575 C   0  0  0  0  0  0  0  0  0  0  0  0
   67.7809   45.8327   51.8240 C   0  0  0  0  0  0  0  0  0  0  0  0
   68.6741   46.8423   51.5128 C   0  0  0  0  0  0  0  0  0  0  0  0
   69.2495   47.6554   52.4710 C   0  0  0  0  0  0  0  0  0  0  0  0
   70.9409   50.0599   55.4284 C   0  0  0  0  0  0  0  0  0  0  0  0
   70.5279   49.6161   56.8113 C   0  0  0  0  0  0  0  0  0  0  0  0
   69.1308   49.9415   57.1235 C   0  0  0  0  0  0  0  0  0  0  0  0
   68.2627   48.9809   57.5796 C   0  0  0  0  0  0  0  0  0  0  0  0
   66.9473   49.2254   57.8885 C   0  0  0  0  0  0  0  0  0  0  0  0
   66.4862   50.5153   57.7253 C   0  0  0  0  0  0  0  0  0  0  0  0
   67.3516   51.4991   57.2655 C   0  0  0  0  0  0  0  0  0  0  0  0
   68.6659   51.2267   56.9625 C   0  0  0  0  0  0  0  0  0  0  0  0
  1  2  2  0  0  0
  2  3  1  0  0  0
  2 11  1  0  0  0
  3  4  1  0  0  0
  4 12  1  0  0  0
  4  5  2  0  0  0
 12 13  1  0  0  0
 13 14  1  0  0  0
 14 15  2  0  0  0
 14 19  1  0  0  0
 15 16  1  0  0  0
 16 17  2  0  0  0
 17 18  1  0  0  0
 18 19  2  0  0  0
  5  6  1  0  0  0
  6  7  1  0  0  0
  6 11  2  0  0  0
  7  8  2  0  0  0
  8  9  1  0  0  0
  9 10  2  0  0  0
 10 11  1  0  0  0
M  END
> <minimizedAffinity>
-7.95210

$$$$
cs_R4_output_folder/data/smiles/18.pdb


 20 22  0  0  0  0  0  0  0  0999 V2000
   69.9348   51.0933   54.3962 O   0  0  0  0  0  0  0  0  0  0  0  0
   70.6954   50.1521   53.9667 C   0  0  0  0  0  0  0  0  0  0  0  0
   72.0699   50.3435   54.2093 N   0  0  0  0  0  0  0  0  0  0  0  0
   70.0298   49.0653   53.3238 C   0  0  0  0  0  0  0  0  0  0  0  0
   70.0703   48.9852   51.9395 C   0  0  0  0  0  0  0  0  0  0  0  0
   69.5123   47.9098   51.2925 C   0  0  0  0  0  0  0  0  0  0  0  0
   68.9040   46.8972   51.9965 C   0  0  0  0  0  0  0  0  0  0  0  0
   68.8431   46.9438   53.3764 C   0  0  0  0  0  0  0  0  0  0  0  0
   68.2235   45.9102   54.0748 C   0  0  0  0  0  0  0  0  0  0  0  0
   68.1575   45.9500   55.4408 C   0  0  0  0  0  0  0  0  0  0  0  0
   68.7283   47.0553   56.1010 C   0  0  0  0  0  0  0  0  0  0  0  0
   69.3350   48.0616   55.4006 C   0  0  0  0  0  0  0  0  0  0  0  0
   69.4129   48.0375   54.0014 C   0  0  0  0  0  0  0  0  0  0  0  0
   72.5034   51.5195   54.9201 C   0  0  0  0  0  0  0  0  0  0  0  0
   72.5920   51.4497   56.3074 C   0  0  0  0  0  0  0  0  0  0  0  0
   72.9499   52.5548   57.0606 C   0  0  0  0  0  0  0  0  0  0  0  0
   73.2323   53.7757   56.4614 C   0  0  0  0  0  0  0  0  0  0  0  0
   73.1446   53.8424   55.0901 C   0  0  0  0  0  0  0  0  0  0  0  0
   73.4242   55.0603   54.4888 O   0  0  0  0  0  0  0  0  0  0  0  0
   72.7830   52.7210   54.3274 C   0  0  0  0  0  0  0  0  0  0  0  0
  1  2  2  0  0  0
  2  3  1  0  0  0
  2  4  1  0  0  0
  3 14  1  0  0  0
 14 15  2  0  0  0
 14 20  1  0  0  0
 15 16  1  0  0  0
 16 17  2  0  0  0
 17 18  1  0  0  0
 18 19  1  0  0  0
 18 20  2  0  0  0
  4  5  2  0  0  0
  4 13  1  0  0  0
  5  6  1  0  0  0
  6  7  2  0  0  0
  7  8  1  0  0  0
  8  9  1  0  0  0
  8 13  2  0  0  0
  9 10  2  0  0  0
 10 11  1  0  0  0
 11 12  2  0  0  0
 12 13  1  0  0  0
M  END
> <minimizedAffinity>
-6.59578

$$$$
cs_R4_output_folder/data/smiles/19.pdb


 27 30  0  0  0  0  0  0  0  0999 V2000
   70.2396   46.2449   57.9181 C   0  0  0  0  0  0  0  0  0  0  0  0
   70.3609   44.8747   57.8519 C   0  0  0  0  0  0  0  0  0  0  0  0
   71.5485   44.1736   57.9874 C   0  0  0  0  0  0  0  0  0  0  0  0
   72.6690   44.9305   58.2019 C   0  0  0  0  0  0  0  0  0  0  0  0
   72.6045   46.3191   58.2792 C   0  0  0  0  0  0  0  0  0  0  0  0
   71.4301   46.9584   58.1414 C   0  0  0  0  0  0  0  0  0  0  0  0
   73.7862   47.1836   58.5381 C   0  0  0  0  0  0  0  0  0  0  0  0
   74.5275   46.8057   59.7752 C   0  0  0  0  0  0  0  0  0  0  0  0
   75.1726   45.5270   59.9277 C   0  0  0  0  0  0  0  0  0  0  0  0
   74.8994   44.4001   59.0636 C   0  0  0  0  0  0  0  0  0  0  0  0
   75.7533   43.3814   58.8654 N   0  0  0  0  0  0  0  0  0  0  0  0
   75.2158   42.5382   58.0266 N   0  0  0  0  0  0  0  0  0  0  0  0
   73.9807   42.9747   57.6417 C   0  0  0  0  0  0  0  0  0  0  0  0
   73.2003   42.4194   56.8549 O   0  0  0  0  0  0  0  0  0  0  0  0
   73.8244   44.1251   58.3040 N   0  0  0  0  0  0  0  0  0  0  0  0
   69.0672   46.9348   57.7860 O   0  0  0  0  0  0  0  0  0  0  0  0
   68.4814   47.7700   56.9106 C   0  0  0  0  0  0  0  0  0  0  0  0
   69.4704   48.0072   53.2855 C   0  0  0  0  0  0  0  0  0  0  0  0
   69.3407   48.2576   54.6243 C   0  0  0  0  0  0  0  0  0  0  0  0
   68.5547   47.4636   55.4640 C   0  0  0  0  0  0  0  0  0  0  0  0
   67.9131   46.4088   54.8780 C   0  0  0  0  0  0  0  0  0  0  0  0
   68.0387   46.1421   53.5086 C   0  0  0  0  0  0  0  0  0  0  0  0
   68.8181   46.9413   52.7067 C   0  0  0  0  0  0  0  0  0  0  0  0
   68.9512   46.6948   51.3694 F   0  0  0  0  0  0  0  0  0  0  0  0
   69.7920   49.4674   51.2552 N   0  0  0  0  0  0  0  0  0  0  0  0
   70.2972   48.8426   52.4030 C   0  0  0  0  0  0  0  0  0  0  0  0
   71.5071   48.9917   52.7092 O   0  0  0  0  0  0  0  0  0  0  0  0
 25 26  1  0  0  0
 26 27  2  0  0  0
 26 18  1  0  0  0
 18 19  2  0  0  0
 18 23  1  0  0  0
 19 20  1  0  0  0
 20 17  1  0  0  0
 20 21  2  0  0  0
 17 16  1  0  0  0
 16  1  1  0  0  0
  1  2  2  0  0  0
  1  6  1  0  0  0
  2  3  1  0  0  0
  3  4  2  0  0  0
  4  5  1  0  0  0
  4 15  1  0  0  0
  5  6  2  0  0  0
  5  7  1  0  0  0
  7  8  1  0  0  0
  8  9  1  0  0  0
  9 10  1  0  0  0
 10 11  2  0  0  0
 10 15  1  0  0  0
 11 12  1  0  0  0
 12 13  1  0  0  0
 13 14  2  0  0  0
 13 15  1  0  0  0
 21 22  1  0  0  0
 22 23  2  0  0  0
 23 24  1  0  0  0
M  END
> <minimizedAffinity>
-8.49926

$$$$
cs_R4_output_folder/data/smiles/20.pdb


 19 21  0  0  0  0  0  0  0  0999 V2000
   70.1140   50.2351   52.2003 O   0  0  0  0  0  0  0  0  0  0  0  0
   70.0370   50.1493   53.4560 C   0  0  0  0  0  0  0  0  0  0  0  0
   69.4319   49.0071   54.0664 N   0  0  0  0  0  0  0  0  0  0  0  0
   69.2868   48.7831   55.4826 C   0  0  0  0  0  0  0  0  0  0  0  0
   68.6996   47.4312   55.6302 C   0  0  0  0  0  0  0  0  0  0  0  0
   68.4187   46.9263   54.2538 C   0  0  0  0  0  0  0  0  0  0  0  0
   67.8225   45.7302   53.8338 C   0  0  0  0  0  0  0  0  0  0  0  0
   67.6750   45.4960   52.4884 C   0  0  0  0  0  0  0  0  0  0  0  0
   67.1043   44.3544   52.0029 F   0  0  0  0  0  0  0  0  0  0  0  0
   68.1176   46.4435   51.5996 C   0  0  0  0  0  0  0  0  0  0  0  0
   68.7029   47.6187   52.0165 C   0  0  0  0  0  0  0  0  0  0  0  0
   68.8683   47.8876   53.3809 C   0  0  0  0  0  0  0  0  0  0  0  0
   70.5619   51.2134   54.3044 C   0  0  0  0  0  0  0  0  0  0  0  0
   69.7399   52.1238   54.8406 N   0  0  0  0  0  0  0  0  0  0  0  0
   70.1677   53.1258   55.6298 C   0  0  0  0  0  0  0  0  0  0  0  0
   71.5199   53.2122   55.8927 C   0  0  0  0  0  0  0  0  0  0  0  0
   72.3907   52.2715   55.3416 C   0  0  0  0  0  0  0  0  0  0  0  0
   71.9230   51.2674   54.5457 C   0  0  0  0  0  0  0  0  0  0  0  0
   72.7311   50.3088   53.9728 O   0  0  0  0  0  0  0  0  0  0  0  0
  1  2  2  0  0  0
  2 13  1  0  0  0
  2  3  1  0  0  0
 13 14  2  0  0  0
 13 18  1  0  0  0
 14 15  1  0  0  0
 15 16  2  0  0  0
 16 17  1  0  0  0
 17 18  2  0  0  0
 18 19  1  0  0  0
  3  4  1  0  0  0
  3 12  1  0  0  0
  4  5  1  0  0  0
  5  6  1  0  0  0
  6  7  1  0  0  0
  6 12  2  0  0  0
  7  8  2  0  0  0
  8  9  1  0  0  0
  8 10  1  0  0  0
 10 11  2  0  0  0
 11 12  1  0  0  0
M  END
> <minimizedAffinity>
-7.10217

$$$$
cs_R4_output_folder/data/smiles/21.pdb


 19 20  0  0  0  0  0  0  0  0999 V2000
   69.6651   49.5273   52.9083 C   0  0  0  0  0  0  0  0  0  0  0  0
   69.9148   49.6356   51.6497 O   0  0  0  0  0  0  0  0  0  0  0  0
   70.6109   54.0137   56.4620 C   0  0  0  0  0  0  0  0  0  0  0  0
   70.3569   52.8687   55.5327 C   0  0  0  0  0  0  0  0  0  0  0  0
   69.0900   52.5961   55.0561 C   0  0  0  0  0  0  0  0  0  0  0  0
   68.8415   51.5255   54.1882 C   0  0  0  0  0  0  0  0  0  0  0  0
   69.8402   50.6890   53.7639 C   0  0  0  0  0  0  0  0  0  0  0  0
   71.1233   50.9805   54.2588 C   0  0  0  0  0  0  0  0  0  0  0  0
   72.1420   50.1446   53.8404 O   0  0  0  0  0  0  0  0  0  0  0  0
   71.3656   52.0332   55.1123 C   0  0  0  0  0  0  0  0  0  0  0  0
   69.2297   48.2449   53.3634 C   0  0  0  0  0  0  0  0  0  0  0  0
   68.8435   47.2370   52.5324 C   0  0  0  0  0  0  0  0  0  0  0  0
   68.3778   46.0122   53.0012 C   0  0  0  0  0  0  0  0  0  0  0  0
   68.2922   45.7757   54.3492 C   0  0  0  0  0  0  0  0  0  0  0  0
   68.6831   46.7909   55.2160 C   0  0  0  0  0  0  0  0  0  0  0  0
   69.1410   47.9955   54.7229 C   0  0  0  0  0  0  0  0  0  0  0  0
   67.8239   44.5536   54.8981 N   0  0  0  0  0  0  0  0  0  0  0  0
   67.0920   43.7656   54.2996 O   0  0  0  0  0  0  0  0  0  0  0  0
   68.2073   44.2257   56.1766 O   0  0  0  0  0  0  0  0  0  0  0  0
  3  4  1  0  0  0
  4  5  2  0  0  0
  4 10  1  0  0  0
  5  6  1  0  0  0
  6  7  2  0  0  0
  7  1  1  0  0  0
  7  8  1  0  0  0
  1  2  2  0  0  0
  1 11  1  0  0  0
 11 12  2  0  0  0
 11 16  1  0  0  0
 12 13  1  0  0  0
 13 14  2  0  0  0
 14 17  1  0  0  0
 14 15  1  0  0  0
 17 18  2  0  0  0
 17 19  1  0  0  0
 15 16  2  0  0  0
  8  9  1  0  0  0
  8 10  2  0  0  0
M  CHG 1  17   1
M  CHG 1  19  -1
M  END
> <minimizedAffinity>
-7.26984

$$$$
cs_R4_output_folder/data/smiles/22.pdb


 26 29  0  0  0  0  0  0  0  0999 V2000
   71.1978   46.7642   59.5559 N   0  0  0  0  0  0  0  0  0  0  0  0
   71.8477   45.5054   59.2570 C   0  0  0  0  0  0  0  0  0  0  0  0
   70.8369   44.4917   58.7114 C   0  0  0  0  0  0  0  0  0  0  0  0
   70.2425   45.0347   57.3956 C   0  0  0  0  0  0  0  0  0  0  0  0
   69.6033   46.3407   57.7551 C   0  0  0  0  0  0  0  0  0  0  0  0
   70.6382   47.2956   58.3274 C   0  0  0  0  0  0  0  0  0  0  0  0
   72.1756   47.6812   60.0652 C   0  0  0  0  0  0  0  0  0  0  0  0
   74.6729   49.3604   56.9561 C   0  0  0  0  0  0  0  0  0  0  0  0
   73.4764   49.9452   57.3174 C   0  0  0  0  0  0  0  0  0  0  0  0
   72.6937   49.3993   58.3140 C   0  0  0  0  0  0  0  0  0  0  0  0
   73.0454   48.2512   59.0050 C   0  0  0  0  0  0  0  0  0  0  0  0
   74.2431   47.6741   58.6359 C   0  0  0  0  0  0  0  0  0  0  0  0
   75.0300   48.2163   57.6408 C   0  0  0  0  0  0  0  0  0  0  0  0
   77.4202   49.8799   56.1424 C   0  0  0  0  0  0  0  0  0  0  0  0
   75.6898   50.0283   55.6948 S   0  0  0  0  0  0  0  0  0  0  0  0
   75.4179   51.5012   55.5532 O   0  0  0  0  0  0  0  0  0  0  0  0
   75.4813   49.3130   54.4001 O   0  0  0  0  0  0  0  0  0  0  0  0
   68.6944   46.8961   56.8296 N   0  0  0  0  0  0  0  0  0  0  0  0
   68.7577   46.9506   55.4195 C   0  0  0  0  0  0  0  0  0  0  0  0
   68.1194   45.9825   54.6577 C   0  0  0  0  0  0  0  0  0  0  0  0
   68.1378   45.9797   53.2786 C   0  0  0  0  0  0  0  0  0  0  0  0
   68.8233   46.9882   52.5851 C   0  0  0  0  0  0  0  0  0  0  0  0
   69.4572   47.9489   53.2969 C   0  0  0  0  0  0  0  0  0  0  0  0
   69.4167   47.9170   54.7017 C   0  0  0  0  0  0  0  0  0  0  0  0
   69.9072   48.5934   52.0477 C   0  0  0  0  0  0  0  0  0  0  0  0
   69.2212   47.5551   51.3524 N   0  0  0  0  0  0  0  0  0  0  0  0
 14 15  1  0  0  0
 15 16  2  0  0  0
 15 17  2  0  0  0
 15  8  1  0  0  0
  8  9  2  0  0  0
  8 13  1  0  0  0
  9 10  1  0  0  0
 10 11  2  0  0  0
 11  7  1  0  0  0
 11 12  1  0  0  0
  1  7  1  0  0  0
  1  2  1  0  0  0
  1  6  1  0  0  0
  2  3  1  0  0  0
  3  4  1  0  0  0
  4  5  1  0  0  0
  5 18  1  0  0  0
  5  6  1  0  0  0
 18 19  1  0  0  0
 19 20  2  0  0  0
 19 24  1  0  0  0
 20 21  1  0  0  0
 21 22  2  0  0  0
 22 23  1  0  0  0
 22 26  1  0  0  0
 23 24  2  0  0  0
 23 25  1  0  0  0
 25 26  1  0  0  0
 12 13  2  0  0  0
M  CHG 1   1   1
M  END
> <minimizedAffinity>
-8.06085

$$$$
cs_R4_output_folder/data/smiles/23.pdb


 24 26  0  0  0  0  0  0  0  0999 V2000
   70.8049   49.1615   56.2684 N   0  0  0  0  0  0  0  0  0  0  0  0
   69.6676   49.5780   55.5542 C   0  0  0  0  0  0  0  0  0  0  0  0
   68.8588   50.3682   56.0186 O   0  0  0  0  0  0  0  0  0  0  0  0
   69.4738   49.0319   54.2136 C   0  0  0  0  0  0  0  0  0  0  0  0
   69.7982   49.7722   53.0940 C   0  0  0  0  0  0  0  0  0  0  0  0
   69.6125   49.2423   51.8312 C   0  0  0  0  0  0  0  0  0  0  0  0
   69.9074   49.9146   50.8058 O   0  0  0  0  0  0  0  0  0  0  0  0
   69.1187   48.0098   51.6172 N   0  0  0  0  0  0  0  0  0  0  0  0
   68.7949   47.2678   52.6886 C   0  0  0  0  0  0  0  0  0  0  0  0
   68.2847   45.9993   52.5158 C   0  0  0  0  0  0  0  0  0  0  0  0
   67.9593   45.2534   53.6337 C   0  0  0  0  0  0  0  0  0  0  0  0
   68.1324   45.7503   54.9142 C   0  0  0  0  0  0  0  0  0  0  0  0
   68.6387   47.0118   55.0885 C   0  0  0  0  0  0  0  0  0  0  0  0
   68.9674   47.7676   53.9815 C   0  0  0  0  0  0  0  0  0  0  0  0
   71.1073   49.6148   57.5783 C   0  0  0  0  0  0  0  0  0  0  0  0
   71.2897   46.1404   58.9966 C   0  0  0  0  0  0  0  0  0  0  0  0
   72.0801   46.3448   60.1232 C   0  0  0  0  0  0  0  0  0  0  0  0
   72.5479   47.6104   60.4056 C   0  0  0  0  0  0  0  0  0  0  0  0
   72.2308   48.6613   59.5717 C   0  0  0  0  0  0  0  0  0  0  0  0
   71.4503   48.4830   58.4497 C   0  0  0  0  0  0  0  0  0  0  0  0
   70.9925   47.2234   58.1820 C   0  0  0  0  0  0  0  0  0  0  0  0
   69.6940   44.2820   59.3371 N   0  0  0  0  0  0  0  0  0  0  0  0
   70.7772   44.8376   58.6358 C   0  0  0  0  0  0  0  0  0  0  0  0
   71.2973   44.2025   57.7000 O   0  0  0  0  0  0  0  0  0  0  0  0
 22 23  1  0  0  0
 23 24  2  0  0  0
 23 16  1  0  0  0
 16 17  2  0  0  0
 16 21  1  0  0  0
 17 18  1  0  0  0
 18 19  2  0  0  0
 19 20  1  0  0  0
 20 15  1  0  0  0
 20 21  2  0  0  0
 15  1  1  0  0  0
  1  2  1  0  0  0
  2  3  2  0  0  0
  2  4  1  0  0  0
  4  5  2  0  0  0
  4 14  1  0  0  0
  5  6  1  0  0  0
  6  7  2  0  0  0
  6  8  1  0  0  0
  8  9  1  0  0  0
  9 10  1  0  0  0
  9 14  2  0  0  0
 10 11  2  0  0  0
 11 12  1  0  0  0
 12 13  2  0  0  0
 13 14  1  0  0  0
M  END
> <minimizedAffinity>
-8.09499

$$$$
cs_R4_output_folder/data/smiles/24.pdb


 26 28  0  0  0  0  0  0  0  0999 V2000
   69.4740   42.4221   58.6324 C   0  0  0  0  0  0  0  0  0  0  0  0
   70.9189   42.7078   58.4707 C   0  0  0  0  0  0  0  0  0  0  0  0
   71.3096   43.9666   58.1311 C   0  0  0  0  0  0  0  0  0  0  0  0
   72.6882   44.1852   57.9785 C   0  0  0  0  0  0  0  0  0  0  0  0
   73.5671   43.1471   58.1730 C   0  0  0  0  0  0  0  0  0  0  0  0
   73.0855   41.8931   58.5193 C   0  0  0  0  0  0  0  0  0  0  0  0
   73.8903   40.9436   58.6981 O   0  0  0  0  0  0  0  0  0  0  0  0
   71.7708   41.6806   58.6658 N   0  0  0  0  0  0  0  0  0  0  0  0
   71.2672   40.4126   59.0465 C   0  0  0  0  0  0  0  0  0  0  0  0
   70.9905   39.3752   58.1801 C   0  0  0  0  0  0  0  0  0  0  0  0
   70.5015   38.1550   58.6418 C   0  0  0  0  0  0  0  0  0  0  0  0
   70.2775   37.9410   59.9913 C   0  0  0  0  0  0  0  0  0  0  0  0
   70.5455   38.9593   60.8782 C   0  0  0  0  0  0  0  0  0  0  0  0
   71.0231   40.1425   60.4004 C   0  0  0  0  0  0  0  0  0  0  0  0
   70.3724   45.0571   57.9382 C   0  0  0  0  0  0  0  0  0  0  0  0
   69.9431   45.7358   58.8931 O   0  0  0  0  0  0  0  0  0  0  0  0
   69.9195   45.3705   56.6318 N   0  0  0  0  0  0  0  0  0  0  0  0
   68.9819   46.4183   56.3425 C   0  0  0  0  0  0  0  0  0  0  0  0
   68.6969   46.4301   54.8886 C   0  0  0  0  0  0  0  0  0  0  0  0
   69.0673   47.5407   54.1292 C   0  0  0  0  0  0  0  0  0  0  0  0
   68.8089   47.6098   52.7834 C   0  0  0  0  0  0  0  0  0  0  0  0
   68.1805   46.5910   52.1447 C   0  0  0  0  0  0  0  0  0  0  0  0
   67.8930   46.6000   50.8001 F   0  0  0  0  0  0  0  0  0  0  0  0
   67.7899   45.4555   52.8632 C   0  0  0  0  0  0  0  0  0  0  0  0
   68.0594   45.4093   54.2149 C   0  0  0  0  0  0  0  0  0  0  0  0
   67.6755   44.3000   54.8965 F   0  0  0  0  0  0  0  0  0  0  0  0
  1  2  1  0  0  0
  2  3  2  0  0  0
  2  8  1  0  0  0
  3 15  1  0  0  0
  3  4  1  0  0  0
 15 16  2  0  0  0
 15 17  1  0  0  0
 17 18  1  0  0  0
 18 19  1  0  0  0
 19 20  2  0  0  0
 19 25  1  0  0  0
 20 21  1  0  0  0
 21 22  2  0  0  0
 22 23  1  0  0  0
 22 24  1  0  0  0
 24 25  2  0  0  0
 25 26  1  0  0  0
  4  5  2  0  0  0
  5  6  1  0  0  0
  6  7  2  0  0  0
  6  8  1  0  0  0
  8  9  1  0  0  0
  9 10  2  0  0  0
  9 14  1  0  0  0
 10 11  1  0  0  0
 11 12  2  0  0  0
 12 13  1  0  0  0
 13 14  2  0  0  0
M  END
> <minimizedAffinity>
-7.68331

$$$$
cs_R4_output_folder/data/smiles/25.pdb


 23 25  0  0  0  0  0  0  0  0999 V2000
   69.7954   48.3340   52.5523 C   0  0  0  0  0  0  0  0  0  0  0  0
   70.2257   47.9502   51.3138 N   0  0  0  0  0  0  0  0  0  0  0  0
   69.6019   46.8391   50.9650 N   0  0  0  0  0  0  0  0  0  0  0  0
   68.7559   46.4492   51.9244 C   0  0  0  0  0  0  0  0  0  0  0  0
   68.8760   47.4134   52.9541 C   0  0  0  0  0  0  0  0  0  0  0  0
   71.4443   49.6223   53.6696 O   0  0  0  0  0  0  0  0  0  0  0  0
   70.2626   49.5019   53.2833 C   0  0  0  0  0  0  0  0  0  0  0  0
   69.3782   50.5719   53.5908 N   0  0  0  0  0  0  0  0  0  0  0  0
   69.7060   51.7685   54.3007 C   0  0  0  0  0  0  0  0  0  0  0  0
   69.5949   51.5080   55.7564 C   0  0  0  0  0  0  0  0  0  0  0  0
   70.6247   51.6777   56.6239 C   0  0  0  0  0  0  0  0  0  0  0  0
   70.4384   51.3966   57.9723 C   0  0  0  0  0  0  0  0  0  0  0  0
   69.2212   50.9447   58.4649 C   0  0  0  0  0  0  0  0  0  0  0  0
   68.1896   50.7795   57.5657 C   0  0  0  0  0  0  0  0  0  0  0  0
   66.6376   50.2084   58.1654 Cl  0  0  0  0  0  0  0  0  0  0  0  0
   68.3659   51.0558   56.2291 C   0  0  0  0  0  0  0  0  0  0  0  0
   68.0745   47.3541   54.1916 C   0  0  0  0  0  0  0  0  0  0  0  0
   68.7958   46.8444   55.3738 C   0  0  0  0  0  0  0  0  0  0  0  0
   69.4210   47.7671   56.2249 C   0  0  0  0  0  0  0  0  0  0  0  0
   70.0841   47.3511   57.3528 C   0  0  0  0  0  0  0  0  0  0  0  0
   70.1694   46.0164   57.7062 C   0  0  0  0  0  0  0  0  0  0  0  0
   69.5571   45.1096   56.8732 C   0  0  0  0  0  0  0  0  0  0  0  0
   68.8778   45.5228   55.7190 C   0  0  0  0  0  0  0  0  0  0  0  0
  6  7  2  0  0  0
  7  8  1  0  0  0
  7  1  1  0  0  0
  8  9  1  0  0  0
  9 10  1  0  0  0
 10 11  2  0  0  0
 10 16  1  0  0  0
 11 12  1  0  0  0
 12 13  2  0  0  0
 13 14  1  0  0  0
 14 15  1  0  0  0
 14 16  2  0  0  0
  1  2  1  0  0  0
  1  5  2  0  0  0
  2  3  1  0  0  0
  3  4  2  0  0  0
  4  5  1  0  0  0
  5 17  1  0  0  0
 17 18  1  0  0  0
 18 19  2  0  0  0
 18 23  1  0  0  0
 19 20  1  0  0  0
 20 21  2  0  0  0
 21 22  1  0  0  0
 22 23  2  0  0  0
M  END
> <minimizedAffinity>
-8.17792

$$$$
cs_R4_output_folder/data/smiles/26.pdb


 23 26  0  0  0  0  0  0  0  0999 V2000
   69.2652   48.8766   56.7433 C   0  0  0  0  0  0  0  0  0  0  0  0
   68.8870   47.7561   55.8752 C   0  0  0  0  0  0  0  0  0  0  0  0
   68.4867   46.5754   56.4430 N   0  0  0  0  0  0  0  0  0  0  0  0
   68.0995   45.5366   55.7300 N   0  0  0  0  0  0  0  0  0  0  0  0
   68.0642   45.5476   54.3864 C   0  0  0  0  0  0  0  0  0  0  0  0
   67.6976   44.5655   53.6967 O   0  0  0  0  0  0  0  0  0  0  0  0
   68.4505   46.6906   53.7449 C   0  0  0  0  0  0  0  0  0  0  0  0
   68.8594   47.7841   54.4999 C   0  0  0  0  0  0  0  0  0  0  0  0
   69.3002   48.9771   53.7812 C   0  0  0  0  0  0  0  0  0  0  0  0
   70.1611   48.6094   52.5995 C   0  0  0  0  0  0  0  0  0  0  0  0
   69.7010   47.4617   51.7922 C   0  0  0  0  0  0  0  0  0  0  0  0
   68.4427   46.8147   52.2521 C   0  0  0  0  0  0  0  0  0  0  0  0
   72.2283   47.8282   58.9209 C   0  0  0  0  0  0  0  0  0  0  0  0
   70.9512   47.9324   58.3941 C   0  0  0  0  0  0  0  0  0  0  0  0
   70.6327   48.7456   57.3404 C   0  0  0  0  0  0  0  0  0  0  0  0
   71.6869   49.4964   56.7975 C   0  0  0  0  0  0  0  0  0  0  0  0
   72.9531   49.3960   57.3178 C   0  0  0  0  0  0  0  0  0  0  0  0
   73.1863   48.5748   58.3521 N   0  0  0  0  0  0  0  0  0  0  0  0
   73.0469   48.1140   62.1616 O   0  0  0  0  0  0  0  0  0  0  0  0
   73.0393   47.1937   61.3084 C   0  0  0  0  0  0  0  0  0  0  0  0
   73.6348   45.8130   61.2411 C   0  0  0  0  0  0  0  0  0  0  0  0
   72.3956   45.5598   60.3717 C   0  0  0  0  0  0  0  0  0  0  0  0
   72.5052   46.9595   60.0280 N   0  0  0  0  0  0  0  0  0  0  0  0
 19 20  2  0  0  0
 20 21  1  0  0  0
 20 23  1  0  0  0
 21 22  1  0  0  0
 22 23  1  0  0  0
 23 13  1  0  0  0
 13 14  2  0  0  0
 13 18  1  0  0  0
 14 15  1  0  0  0
 15  1  1  0  0  0
 15 16  2  0  0  0
  1  2  1  0  0  0
  2  3  2  0  0  0
  2  8  1  0  0  0
  3  4  1  0  0  0
  4  5  1  0  0  0
  5  6  2  0  0  0
  5  7  1  0  0  0
  7  8  2  0  0  0
  7 12  1  0  0  0
  8  9  1  0  0  0
  9 10  1  0  0  0
 10 11  1  0  0  0
 11 12  1  0  0  0
 16 17  1  0  0  0
 17 18  2  0  0  0
M  END
> <minimizedAffinity>
-7.79081

$$$$
cs_R4_output_folder/data/smiles/27.pdb


 28 30  0  0  0  0  0  0  0  0999 V2000
   69.7620   39.2623   59.5608 C   0  0  0  0  0  0  0  0  0  0  0  0
   68.6584   38.6426   59.0265 C   0  0  0  0  0  0  0  0  0  0  0  0
   67.9220   39.2111   58.0077 C   0  0  0  0  0  0  0  0  0  0  0  0
   68.2828   40.4475   57.4876 C   0  0  0  0  0  0  0  0  0  0  0  0
   69.3983   41.1089   58.0058 C   0  0  0  0  0  0  0  0  0  0  0  0
   70.0992   40.5132   59.0106 C   0  0  0  0  0  0  0  0  0  0  0  0
   70.6837   38.5566   60.8321 S   0  0  0  0  0  0  0  0  0  0  0  0
   71.6376   39.6093   61.3591 O   0  0  0  0  0  0  0  0  0  0  0  0
   69.7436   38.2519   61.9789 O   0  0  0  0  0  0  0  0  0  0  0  0
   72.6166   36.3029   56.9781 C   0  0  0  0  0  0  0  0  0  0  0  0
   71.8739   36.2221   58.2723 C   0  0  0  0  0  0  0  0  0  0  0  0
   71.9923   34.8455   58.9038 C   0  0  0  0  0  0  0  0  0  0  0  0
   71.1840   34.7610   60.1492 C   0  0  0  0  0  0  0  0  0  0  0  0
   71.2010   35.9611   61.0180 C   0  0  0  0  0  0  0  0  0  0  0  0
   71.5550   37.1845   60.4374 N   0  0  0  0  0  0  0  0  0  0  0  0
   72.3802   37.2094   59.2993 C   0  0  0  0  0  0  0  0  0  0  0  0
   69.7640   42.4144   57.4431 C   0  0  0  0  0  0  0  0  0  0  0  0
   70.9832   42.6514   57.2920 O   0  0  0  0  0  0  0  0  0  0  0  0
   68.8595   43.4141   57.0618 N   0  0  0  0  0  0  0  0  0  0  0  0
   69.0320   44.6591   56.5329 N   0  0  0  0  0  0  0  0  0  0  0  0
   68.4138   45.1705   55.3901 C   0  0  0  0  0  0  0  0  0  0  0  0
   67.6020   44.5515   54.6764 O   0  0  0  0  0  0  0  0  0  0  0  0
   68.6939   46.5531   54.9219 C   0  0  0  0  0  0  0  0  0  0  0  0
   68.8190   46.8802   53.5959 C   0  0  0  0  0  0  0  0  0  0  0  0
   69.0795   48.1736   53.1865 C   0  0  0  0  0  0  0  0  0  0  0  0
   69.2182   49.1730   54.1256 C   0  0  0  0  0  0  0  0  0  0  0  0
   69.0878   48.8199   55.4502 C   0  0  0  0  0  0  0  0  0  0  0  0
   68.8330   47.5465   55.8179 N   0  0  0  0  0  0  0  0  0  0  0  0
 11 10  1  0  0  0
 11 12  1  0  0  0
 11 16  1  0  0  0
 12 13  1  0  0  0
 13 14  1  0  0  0
 14 15  1  0  0  0
 15  7  1  0  0  0
 15 16  1  0  0  0
  7  8  2  0  0  0
  7  9  2  0  0  0
  7  1  1  0  0  0
  1  2  2  0  0  0
  1  6  1  0  0  0
  2  3  1  0  0  0
  3  4  2  0  0  0
  4  5  1  0  0  0
  5 17  1  0  0  0
  5  6  2  0  0  0
 17 18  2  0  0  0
 17 19  1  0  0  0
 19 20  1  0  0  0
 20 21  1  0  0  0
 21 22  2  0  0  0
 21 23  1  0  0  0
 23 24  2  0  0  0
 23 28  1  0  0  0
 24 25  1  0  0  0
 25 26  2  0  0  0
 26 27  1  0  0  0
 27 28  2  0  0  0
M  END
> <minimizedAffinity>
-7.38825

$$$$
cs_R4_output_folder/data/smiles/28.pdb


 20 21  0  0  0  0  0  0  0  0999 V2000
   68.5055   47.2169   55.1454 C   0  0  0  0  0  0  0  0  0  0  0  0
   67.7944   46.3177   54.4226 C   0  0  0  0  0  0  0  0  0  0  0  0
   67.8983   46.2018   53.0114 C   0  0  0  0  0  0  0  0  0  0  0  0
   67.1292   45.2546   52.3495 O   0  0  0  0  0  0  0  0  0  0  0  0
   68.7353   47.0024   52.3129 C   0  0  0  0  0  0  0  0  0  0  0  0
   68.8564   46.9096   50.9101 O   0  0  0  0  0  0  0  0  0  0  0  0
   69.4870   47.9344   53.0101 C   0  0  0  0  0  0  0  0  0  0  0  0
   69.3757   48.0353   54.3686 C   0  0  0  0  0  0  0  0  0  0  0  0
   70.3537   48.7461   52.2383 N   0  0  0  0  0  0  0  0  0  0  0  0
   71.5192   48.9201   52.6152 O   0  0  0  0  0  0  0  0  0  0  0  0
   69.9271   49.3397   51.0777 O   0  0  0  0  0  0  0  0  0  0  0  0
   67.2616   47.6776   57.0692 O   0  0  0  0  0  0  0  0  0  0  0  0
   68.4501   47.5051   56.5630 C   0  0  0  0  0  0  0  0  0  0  0  0
   69.5458   47.6090   57.4739 C   0  0  0  0  0  0  0  0  0  0  0  0
   70.2978   46.6257   58.0281 C   0  0  0  0  0  0  0  0  0  0  0  0
   71.3515   46.8975   58.9309 C   0  0  0  0  0  0  0  0  0  0  0  0
   71.6644   48.1605   59.2946 C   0  0  0  0  0  0  0  0  0  0  0  0
   72.6742   48.4492   60.1843 F   0  0  0  0  0  0  0  0  0  0  0  0
   70.9192   49.1785   58.7513 C   0  0  0  0  0  0  0  0  0  0  0  0
   69.8963   48.9147   57.8724 C   0  0  0  0  0  0  0  0  0  0  0  0
 12 13  2  0  0  0
 13 14  1  0  0  0
 13  1  1  0  0  0
 14 15  2  0  0  0
 14 20  1  0  0  0
 15 16  1  0  0  0
 16 17  2  0  0  0
 17 18  1  0  0  0
 17 19  1  0  0  0
 19 20  2  0  0  0
  1  2  2  0  0  0
  1  8  1  0  0  0
  2  3  1  0  0  0
  3  4  1  0  0  0
  3  5  2  0  0  0
  5  6  1  0  0  0
  5  7  1  0  0  0
  7  9  1  0  0  0
  7  8  2  0  0  0
  9 10  2  0  0  0
  9 11  1  0  0  0
M  CHG 1   9   1
M  CHG 1  11  -1
M  END
> <minimizedAffinity>
-8.60448

$$$$
cs_R4_output_folder/data/smiles/29.pdb


 19 20  0  0  0  0  0  0  0  0999 V2000
   70.3871   48.7392   57.2130 O   0  0  0  0  0  0  0  0  0  0  0  0
   70.4824   49.3889   58.4185 C   0  0  0  0  0  0  0  0  0  0  0  0
   71.1090   48.8668   59.3553 O   0  0  0  0  0  0  0  0  0  0  0  0
   69.8215   50.7083   58.5568 C   0  0  0  0  0  0  0  0  0  0  0  0
   69.5841   51.3202   57.2266 C   0  0  0  0  0  0  0  0  0  0  0  0
   68.2821   51.2844   56.7172 C   0  0  0  0  0  0  0  0  0  0  0  0
   67.9469   51.8143   55.4996 C   0  0  0  0  0  0  0  0  0  0  0  0
   68.9211   52.4065   54.7434 C   0  0  0  0  0  0  0  0  0  0  0  0
   70.2208   52.4646   55.2080 C   0  0  0  0  0  0  0  0  0  0  0  0
   70.5376   51.9173   56.4507 C   0  0  0  0  0  0  0  0  0  0  0  0
   69.7083   47.5312   57.0027 C   0  0  0  0  0  0  0  0  0  0  0  0
   68.5921   47.6293   55.9986 C   0  0  0  0  0  0  0  0  0  0  0  0
   67.9327   45.9166   53.7504 C   0  0  0  0  0  0  0  0  0  0  0  0
   68.7630   47.1234   53.5693 C   0  0  0  0  0  0  0  0  0  0  0  0
   69.2202   47.4173   52.2846 C   0  0  0  0  0  0  0  0  0  0  0  0
   69.9967   48.5284   52.0456 C   0  0  0  0  0  0  0  0  0  0  0  0
   70.2922   49.3213   53.1322 C   0  0  0  0  0  0  0  0  0  0  0  0
   69.8440   49.0221   54.3609 N   0  0  0  0  0  0  0  0  0  0  0  0
   69.0869   47.9547   54.6414 C   0  0  0  0  0  0  0  0  0  0  0  0
 13 14  1  0  0  0
 14 15  2  0  0  0
 14 19  1  0  0  0
 15 16  1  0  0  0
 16 17  2  0  0  0
 17 18  1  0  0  0
 18 19  2  0  0  0
 19 12  1  0  0  0
 12 11  1  0  0  0
 11  1  1  0  0  0
  1  2  1  0  0  0
  2  3  2  0  0  0
  2  4  1  0  0  0
  4  5  1  0  0  0
  5  6  2  0  0  0
  5 10  1  0  0  0
  6  7  1  0  0  0
  7  8  2  0  0  0
  8  9  1  0  0  0
  9 10  2  0  0  0
M  END
> <minimizedAffinity>
-6.19324

$$$$
cs_R4_output_folder/data/smiles/30.pdb


 21 23  0  0  0  0  0  0  0  0999 V2000
   74.7598   35.5059   53.2086 C   0  0  0  0  0  0  0  0  0  0  0  0
   75.7995   34.9390   55.3707 C   0  0  0  0  0  0  0  0  0  0  0  0
   74.6093   35.3174   54.6660 N   0  0  0  0  0  0  0  0  0  0  0  0
   73.3424   35.4126   55.2376 C   0  0  0  0  0  0  0  0  0  0  0  0
   72.4036   35.8513   54.4484 O   0  0  0  0  0  0  0  0  0  0  0  0
   72.8881   35.1015   56.5607 C   0  0  0  0  0  0  0  0  0  0  0  0
   72.4263   36.1401   57.3770 C   0  0  0  0  0  0  0  0  0  0  0  0
   71.9841   35.9015   58.6119 N   0  0  0  0  0  0  0  0  0  0  0  0
   71.9609   34.6627   59.1304 C   0  0  0  0  0  0  0  0  0  0  0  0
   72.3962   33.6571   58.3735 N   0  0  0  0  0  0  0  0  0  0  0  0
   72.8603   33.8578   57.0926 C   0  0  0  0  0  0  0  0  0  0  0  0
   76.0023   35.0496   52.6287 C   0  0  0  0  0  0  0  0  0  0  0  0
   76.2202   34.4061   51.4095 N   0  0  0  0  0  0  0  0  0  0  0  0
   75.8726   32.9422   51.1596 C   0  0  0  0  0  0  0  0  0  0  0  0
   75.1516   33.1876   49.8181 C   0  0  0  0  0  0  0  0  0  0  0  0
   76.1534   34.0718   49.1361 C   0  0  0  0  0  0  0  0  0  0  0  0
   76.5378   34.2768   47.8366 C   0  0  0  0  0  0  0  0  0  0  0  0
   77.5672   35.1611   47.5392 C   0  0  0  0  0  0  0  0  0  0  0  0
   78.2102   35.8434   48.5816 C   0  0  0  0  0  0  0  0  0  0  0  0
   77.8276   35.6436   49.8913 C   0  0  0  0  0  0  0  0  0  0  0  0
   76.7914   34.7528   50.1669 C   0  0  0  0  0  0  0  0  0  0  0  0
  2  3  1  0  0  0
  3  1  1  0  0  0
  3  4  1  0  0  0
  1 12  1  0  0  0
 12 13  1  0  0  0
 13 14  1  0  0  0
 13 21  1  0  0  0
 14 15  1  0  0  0
 15 16  1  0  0  0
 16 17  1  0  0  0
 16 21  2  0  0  0
 17 18  2  0  0  0
 18 19  1  0  0  0
 19 20  2  0  0  0
 20 21  1  0  0  0
  4  5  2  0  0  0
  4  6  1  0  0  0
  6  7  2  0  0  0
  6 11  1  0  0  0
  7  8  1  0  0  0
  8  9  2  0  0  0
  9 10  1  0  0  0
 10 11  2  0  0  0
M  END
> <minimizedAffinity>
-6.29832

$$$$
cs_R4_output_folder/data/smiles/31.pdb


 24 25  0  0  0  0  0  0  0  0999 V2000
   73.7921   49.5632   56.0193 O   0  0  0  0  0  0  0  0  0  0  0  0
   72.8448   50.3510   56.1234 C   0  0  0  0  0  0  0  0  0  0  0  0
   72.3687   50.7474   57.3919 N   0  0  0  0  0  0  0  0  0  0  0  0
   72.8820   50.3220   58.6029 C   0  0  0  0  0  0  0  0  0  0  0  0
   74.2359   51.0944   59.1814 S   0  0  0  0  0  0  0  0  0  0  0  0
   72.3817   49.3057   59.4009 N   0  0  0  0  0  0  0  0  0  0  0  0
   72.8464   47.9109   59.3005 C   0  0  0  0  0  0  0  0  0  0  0  0
   71.8580   47.0531   58.6451 C   0  0  0  0  0  0  0  0  0  0  0  0
   70.7590   47.6086   58.0211 C   0  0  0  0  0  0  0  0  0  0  0  0
   69.8022   46.8563   57.3919 C   0  0  0  0  0  0  0  0  0  0  0  0
   69.8992   45.4896   57.3560 C   0  0  0  0  0  0  0  0  0  0  0  0
   70.9922   44.9159   57.9752 C   0  0  0  0  0  0  0  0  0  0  0  0
   71.9521   45.6767   58.6066 C   0  0  0  0  0  0  0  0  0  0  0  0
   72.1617   50.9184   54.8930 C   0  0  0  0  0  0  0  0  0  0  0  0
   71.8467   49.9166   53.9737 O   0  0  0  0  0  0  0  0  0  0  0  0
   70.6087   49.9034   53.3649 C   0  0  0  0  0  0  0  0  0  0  0  0
   70.1482   50.9864   52.9462 O   0  0  0  0  0  0  0  0  0  0  0  0
   69.8360   48.6869   53.1999 C   0  0  0  0  0  0  0  0  0  0  0  0
   69.0623   48.1807   54.2186 C   0  0  0  0  0  0  0  0  0  0  0  0
   68.3259   47.0230   54.0640 C   0  0  0  0  0  0  0  0  0  0  0  0
   68.3529   46.3399   52.8602 C   0  0  0  0  0  0  0  0  0  0  0  0
   69.1234   46.8308   51.8241 C   0  0  0  0  0  0  0  0  0  0  0  0
   69.8517   47.9852   51.9928 C   0  0  0  0  0  0  0  0  0  0  0  0
   70.6380   48.4941   50.9487 O   0  0  0  0  0  0  0  0  0  0  0  0
  1  2  2  0  0  0
  2 14  1  0  0  0
  2  3  1  0  0  0
 14 15  1  0  0  0
 15 16  1  0  0  0
 16 17  2  0  0  0
 16 18  1  0  0  0
 18 19  2  0  0  0
 18 23  1  0  0  0
 19 20  1  0  0  0
 20 21  2  0  0  0
 21 22  1  0  0  0
 22 23  2  0  0  0
 23 24  1  0  0  0
  3  4  1  0  0  0
  4  5  2  0  0  0
  4  6  1  0  0  0
  6  7  1  0  0  0
  7  8  1  0  0  0
  8  9  2  0  0  0
  8 13  1  0  0  0
  9 10  1  0  0  0
 10 11  2  0  0  0
 11 12  1  0  0  0
 12 13  2  0  0  0
M  END
> <minimizedAffinity>
-7.06274

$$$$
cs_R4_output_folder/data/smiles/32.pdb


 20 22  0  0  0  0  0  0  0  0999 V2000
   70.2886   50.0777   52.5678 O   0  0  0  0  0  0  0  0  0  0  0  0
   70.1760   49.1867   53.4855 C   0  0  0  0  0  0  0  0  0  0  0  0
   70.8778   49.5010   54.6788 N   0  0  0  0  0  0  0  0  0  0  0  0
   71.6380   50.7166   54.8153 C   0  0  0  0  0  0  0  0  0  0  0  0
   72.9423   50.7755   54.3758 C   0  0  0  0  0  0  0  0  0  0  0  0
   73.7024   51.9425   54.4966 C   0  0  0  0  0  0  0  0  0  0  0  0
   73.1360   53.0637   55.0664 C   0  0  0  0  0  0  0  0  0  0  0  0
   71.8274   53.0371   55.5165 C   0  0  0  0  0  0  0  0  0  0  0  0
   71.2658   54.1561   56.0842 C   0  0  0  0  0  0  0  0  0  0  0  0
   69.9680   54.1362   56.5333 C   0  0  0  0  0  0  0  0  0  0  0  0
   69.2620   52.9462   56.3869 C   0  0  0  0  0  0  0  0  0  0  0  0
   69.7925   51.8131   55.8258 C   0  0  0  0  0  0  0  0  0  0  0  0
   71.0977   51.8506   55.3795 C   0  0  0  0  0  0  0  0  0  0  0  0
   69.3905   47.9933   53.2601 C   0  0  0  0  0  0  0  0  0  0  0  0
   69.0688   47.6165   51.9772 C   0  0  0  0  0  0  0  0  0  0  0  0
   68.3154   46.4774   51.7143 C   0  0  0  0  0  0  0  0  0  0  0  0
   67.8832   45.7108   52.7661 C   0  0  0  0  0  0  0  0  0  0  0  0
   68.1978   46.0738   54.0579 C   0  0  0  0  0  0  0  0  0  0  0  0
   67.7928   45.3442   55.1588 O   0  0  0  0  0  0  0  0  0  0  0  0
   68.9588   47.2265   54.3087 C   0  0  0  0  0  0  0  0  0  0  0  0
  1  2  2  0  0  0
  2  3  1  0  0  0
  2 14  1  0  0  0
  3  4  1  0  0  0
  4  5  2  0  0  0
  4 13  1  0  0  0
  5  6  1  0  0  0
  6  7  2  0  0  0
  7  8  1  0  0  0
  8  9  1  0  0  0
  8 13  2  0  0  0
  9 10  2  0  0  0
 10 11  1  0  0  0
 11 12  2  0  0  0
 12 13  1  0  0  0
 14 15  2  0  0  0
 14 20  1  0  0  0
 15 16  1  0  0  0
 16 17  2  0  0  0
 17 18  1  0  0  0
 18 19  1  0  0  0
 18 20  2  0  0  0
M  END
> <minimizedAffinity>
-7.03306

$$$$
cs_R4_output_folder/data/smiles/33.pdb


 21 22  0  0  0  0  0  0  0  0999 V2000
   67.7339   43.8401   55.1983 N   0  0  0  0  0  0  0  0  0  0  0  0
   68.1470   45.1812   55.0341 C   0  0  0  0  0  0  0  0  0  0  0  0
   68.4191   45.7769   56.1272 O   0  0  0  0  0  0  0  0  0  0  0  0
   68.2650   45.8580   53.7533 C   0  0  0  0  0  0  0  0  0  0  0  0
   67.5273   45.4544   52.6620 C   0  0  0  0  0  0  0  0  0  0  0  0
   67.6326   46.0947   51.4321 C   0  0  0  0  0  0  0  0  0  0  0  0
   68.4847   47.1649   51.2606 C   0  0  0  0  0  0  0  0  0  0  0  0
   69.2230   47.5719   52.3465 C   0  0  0  0  0  0  0  0  0  0  0  0
   69.1047   46.9178   53.5705 C   0  0  0  0  0  0  0  0  0  0  0  0
   70.1054   48.6719   52.1861 N   0  0  0  0  0  0  0  0  0  0  0  0
   70.0365   49.4447   51.2255 O   0  0  0  0  0  0  0  0  0  0  0  0
   71.0774   48.8931   53.1296 O   0  0  0  0  0  0  0  0  0  0  0  0
   67.4448   41.1375   55.5815 O   0  0  0  0  0  0  0  0  0  0  0  0
   67.4826   41.8279   56.6382 C   0  0  0  0  0  0  0  0  0  0  0  0
   67.6320   43.2228   56.4510 N   0  0  0  0  0  0  0  0  0  0  0  0
   67.3748   41.1655   57.9279 C   0  0  0  0  0  0  0  0  0  0  0  0
   68.0177   39.9625   58.1267 C   0  0  0  0  0  0  0  0  0  0  0  0
   67.9648   39.2696   59.3194 C   0  0  0  0  0  0  0  0  0  0  0  0
   67.2425   39.7893   60.3685 C   0  0  0  0  0  0  0  0  0  0  0  0
   66.5866   40.9902   60.2072 C   0  0  0  0  0  0  0  0  0  0  0  0
   66.6575   41.6696   58.9872 C   0  0  0  0  0  0  0  0  0  0  0  0
 13 14  2  0  0  0
 14 15  1  0  0  0
 14 16  1  0  0  0
 15  1  1  0  0  0
  1  2  1  0  0  0
  2  3  2  0  0  0
  2  4  1  0  0  0
  4  5  2  0  0  0
  4  9  1  0  0  0
  5  6  1  0  0  0
  6  7  2  0  0  0
  7  8  1  0  0  0
  8 10  1  0  0  0
  8  9  2  0  0  0
 10 11  2  0  0  0
 10 12  1  0  0  0
 16 17  2  0  0  0
 16 21  1  0  0  0
 17 18  1  0  0  0
 18 19  2  0  0  0
 19 20  1  0  0  0
 20 21  2  0  0  0
M  CHG 1  10   1
M  CHG 1  12  -1
M  END
> <minimizedAffinity>
-8.31034

$$$$
cs_R4_output_folder/data/smiles/34.pdb


 22 23  0  0  0  0  0  0  0  0999 V2000
   69.3521   46.8814   58.0051 N   0  0  0  0  0  0  0  0  0  0  0  0
   68.2796   45.0837   56.1737 O   0  0  0  0  0  0  0  0  0  0  0  0
   68.6826   46.1790   55.7014 C   0  0  0  0  0  0  0  0  0  0  0  0
   69.2289   47.1069   56.6322 N   0  0  0  0  0  0  0  0  0  0  0  0
   68.5728   46.4290   54.2728 C   0  0  0  0  0  0  0  0  0  0  0  0
   67.8217   45.5804   53.4951 C   0  0  0  0  0  0  0  0  0  0  0  0
   67.6985   45.7530   52.1208 C   0  0  0  0  0  0  0  0  0  0  0  0
   68.3280   46.7913   51.4755 C   0  0  0  0  0  0  0  0  0  0  0  0
   69.0856   47.6532   52.2421 C   0  0  0  0  0  0  0  0  0  0  0  0
   69.8912   48.9687   51.4175 Cl  0  0  0  0  0  0  0  0  0  0  0  0
   69.2029   47.4706   53.6184 C   0  0  0  0  0  0  0  0  0  0  0  0
   70.6447   46.8890   58.6156 C   0  0  0  0  0  0  0  0  0  0  0  0
   71.6159   48.2137   58.5683 S   0  0  0  0  0  0  0  0  0  0  0  0
   71.1726   45.7675   59.2945 N   0  0  0  0  0  0  0  0  0  0  0  0
   71.7836   44.6576   58.6801 C   0  0  0  0  0  0  0  0  0  0  0  0
   73.1868   44.6770   58.6087 C   0  0  0  0  0  0  0  0  0  0  0  0
   73.8969   43.6516   58.0537 C   0  0  0  0  0  0  0  0  0  0  0  0
   75.2666   43.7018   57.9988 F   0  0  0  0  0  0  0  0  0  0  0  0
   73.2074   42.5446   57.5428 C   0  0  0  0  0  0  0  0  0  0  0  0
   71.8276   42.4913   57.5971 C   0  0  0  0  0  0  0  0  0  0  0  0
   71.1342   43.5598   58.1707 C   0  0  0  0  0  0  0  0  0  0  0  0
   69.7701   43.5310   58.2380 F   0  0  0  0  0  0  0  0  0  0  0  0
  2  3  2  0  0  0
  3  4  1  0  0  0
  3  5  1  0  0  0
  4  1  1  0  0  0
  1 12  1  0  0  0
 12 13  2  0  0  0
 12 14  1  0  0  0
 14 15  1  0  0  0
 15 16  2  0  0  0
 15 21  1  0  0  0
 16 17  1  0  0  0
 17 18  1  0  0  0
 17 19  2  0  0  0
 19 20  1  0  0  0
 20 21  2  0  0  0
 21 22  1  0  0  0
  5  6  2  0  0  0
  5 11  1  0  0  0
  6  7  1  0  0  0
  7  8  2  0  0  0
  8  9  1  0  0  0
  9 10  1  0  0  0
  9 11  2  0  0  0
M  END
> <minimizedAffinity>
-7.72231

$$$$
cs_R4_output_folder/data/smiles/35.pdb


 22 23  0  0  0  0  0  0  0  0999 V2000
   70.4608   47.1288   58.0367 C   0  0  0  0  0  0  0  0  0  0  0  0
   69.7476   46.3419   58.7195 O   0  0  0  0  0  0  0  0  0  0  0  0
   70.0322   47.3981   56.7248 N   0  0  0  0  0  0  0  0  0  0  0  0
   73.7000   48.9664   58.4423 C   0  0  0  0  0  0  0  0  0  0  0  0
   73.9964   48.8083   59.7729 C   0  0  0  0  0  0  0  0  0  0  0  0
   73.1064   48.0840   60.5336 C   0  0  0  0  0  0  0  0  0  0  0  0
   71.9468   47.5255   59.9942 C   0  0  0  0  0  0  0  0  0  0  0  0
   71.6545   47.6866   58.6579 C   0  0  0  0  0  0  0  0  0  0  0  0
   72.5569   48.4155   57.9114 C   0  0  0  0  0  0  0  0  0  0  0  0
   74.6417   49.7365   57.6245 C   0  0  0  0  0  0  0  0  0  0  0  0
   75.4071   50.5846   58.0942 O   0  0  0  0  0  0  0  0  0  0  0  0
   74.6270   50.5848   55.3300 C   0  0  0  0  0  0  0  0  0  0  0  0
   74.6837   49.5064   56.2501 O   0  0  0  0  0  0  0  0  0  0  0  0
   68.6143   46.7212   56.0185 S   0  0  0  0  0  0  0  0  0  0  0  0
   67.3604   47.3476   56.5360 O   0  0  0  0  0  0  0  0  0  0  0  0
   68.5808   45.2580   56.4047 O   0  0  0  0  0  0  0  0  0  0  0  0
   68.6170   46.8111   54.2951 C   0  0  0  0  0  0  0  0  0  0  0  0
   69.3156   47.7877   53.6294 C   0  0  0  0  0  0  0  0  0  0  0  0
   69.3310   47.8767   52.2444 C   0  0  0  0  0  0  0  0  0  0  0  0
   68.6181   46.9501   51.4849 C   0  0  0  0  0  0  0  0  0  0  0  0
   67.9277   45.9833   52.1720 C   0  0  0  0  0  0  0  0  0  0  0  0
   67.9077   45.8901   53.5425 C   0  0  0  0  0  0  0  0  0  0  0  0
 12 13  1  0  0  0
 13 10  1  0  0  0
 10 11  2  0  0  0
 10  4  1  0  0  0
  4  5  2  0  0  0
  4  9  1  0  0  0
  5  6  1  0  0  0
  6  7  2  0  0  0
  7  8  1  0  0  0
  8  1  1  0  0  0
  8  9  2  0  0  0
  1  2  2  0  0  0
  1  3  1  0  0  0
  3 14  1  0  0  0
 14 15  2  0  0  0
 14 16  2  0  0  0
 14 17  1  0  0  0
 17 18  2  0  0  0
 17 22  1  0  0  0
 18 19  1  0  0  0
 19 20  2  0  0  0
 20 21  1  0  0  0
 21 22  2  0  0  0
M  END
> <minimizedAffinity>
-7.31038

$$$$
cs_R4_output_folder/data/smiles/36.pdb


 21 23  0  0  0  0  0  0  0  0999 V2000
   69.3674   47.3584   56.8981 C   0  0  0  0  0  0  0  0  0  0  0  0
   69.1546   48.3977   57.6925 O   0  0  0  0  0  0  0  0  0  0  0  0
   69.3256   47.6587   55.4877 C   0  0  0  0  0  0  0  0  0  0  0  0
   70.0204   48.7756   54.9279 C   0  0  0  0  0  0  0  0  0  0  0  0
   69.8942   48.7542   53.6152 N   0  0  0  0  0  0  0  0  0  0  0  0
   69.1665   47.7144   53.2049 C   0  0  0  0  0  0  0  0  0  0  0  0
   68.7643   47.3088   51.9546 C   0  0  0  0  0  0  0  0  0  0  0  0
   67.9752   46.1894   51.8127 C   0  0  0  0  0  0  0  0  0  0  0  0
   67.6239   45.5234   52.9609 C   0  0  0  0  0  0  0  0  0  0  0  0
   68.0344   45.9390   54.2242 C   0  0  0  0  0  0  0  0  0  0  0  0
   68.8172   47.0432   54.3736 C   0  0  0  0  0  0  0  0  0  0  0  0
   69.8110   45.9843   58.7705 O   0  0  0  0  0  0  0  0  0  0  0  0
   69.6048   46.1324   57.5695 C   0  0  0  0  0  0  0  0  0  0  0  0
   69.6248   44.8634   56.8376 N   0  0  0  0  0  0  0  0  0  0  0  0
   69.8614   43.6215   57.4981 C   0  0  0  0  0  0  0  0  0  0  0  0
   68.8395   42.5974   57.1528 C   0  0  0  0  0  0  0  0  0  0  0  0
   67.9477   42.7455   56.1817 C   0  0  0  0  0  0  0  0  0  0  0  0
   66.9885   41.6292   55.9574 C   0  0  0  0  0  0  0  0  0  0  0  0
   67.5636   40.3950   56.0541 O   0  0  0  0  0  0  0  0  0  0  0  0
   68.3259   40.1545   57.1556 C   0  0  0  0  0  0  0  0  0  0  0  0
   68.7992   41.3331   57.9262 C   0  0  0  0  0  0  0  0  0  0  0  0
 12 13  2  0  0  0
 13 14  1  0  0  0
 13  1  1  0  0  0
 14 15  1  0  0  0
 15 16  1  0  0  0
 16 17  2  0  0  0
 16 21  1  0  0  0
 17 18  1  0  0  0
 18 19  1  0  0  0
 19 20  1  0  0  0
 20 21  1  0  0  0
  1  2  2  0  0  0
  1  3  1  0  0  0
  3  4  2  0  0  0
  3 11  1  0  0  0
  4  5  1  0  0  0
  5  6  1  0  0  0
  6  7  1  0  0  0
  6 11  2  0  0  0
  7  8  2  0  0  0
  8  9  1  0  0  0
  9 10  2  0  0  0
 10 11  1  0  0  0
M  END
> <minimizedAffinity>
-7.41800

$$$$
cs_R4_output_folder/data/smiles/37.pdb


 29 31  0  0  0  0  0  0  0  0999 V2000
   68.3949   45.9932   54.1053 C   0  0  0  0  0  0  0  0  0  0  0  0
   67.8647   45.5056   52.9312 C   0  0  0  0  0  0  0  0  0  0  0  0
   67.9740   46.1891   51.7325 C   0  0  0  0  0  0  0  0  0  0  0  0
   68.6382   47.4148   51.6911 C   0  0  0  0  0  0  0  0  0  0  0  0
   69.1739   47.9202   52.8485 C   0  0  0  0  0  0  0  0  0  0  0  0
   69.0435   47.2129   54.0110 C   0  0  0  0  0  0  0  0  0  0  0  0
   68.5190   45.8029   56.4203 O   0  0  0  0  0  0  0  0  0  0  0  0
   68.2533   45.2463   55.3176 C   0  0  0  0  0  0  0  0  0  0  0  0
   67.8288   43.8998   55.4049 N   0  0  0  0  0  0  0  0  0  0  0  0
   67.7129   43.2306   56.6409 N   0  0  0  0  0  0  0  0  0  0  0  0
   67.4490   41.8478   56.7300 C   0  0  0  0  0  0  0  0  0  0  0  0
   67.3247   41.2580   55.5994 O   0  0  0  0  0  0  0  0  0  0  0  0
   67.3073   41.0441   57.9103 C   0  0  0  0  0  0  0  0  0  0  0  0
   66.6077   41.5133   59.0002 C   0  0  0  0  0  0  0  0  0  0  0  0
   66.4428   40.7823   60.1560 C   0  0  0  0  0  0  0  0  0  0  0  0
   66.9884   39.5227   60.2612 C   0  0  0  0  0  0  0  0  0  0  0  0
   67.6930   39.0254   59.1878 C   0  0  0  0  0  0  0  0  0  0  0  0
   67.8445   39.7937   58.0235 C   0  0  0  0  0  0  0  0  0  0  0  0
   68.5547   39.1942   57.0497 F   0  0  0  0  0  0  0  0  0  0  0  0
   70.0282   49.4654   52.8726 S   0  0  0  0  0  0  0  0  0  0  0  0
   71.4895   49.1570   53.0209 O   0  0  0  0  0  0  0  0  0  0  0  0
   69.8198   50.1626   51.5413 O   0  0  0  0  0  0  0  0  0  0  0  0
   69.4481   50.4831   54.1692 C   0  0  0  0  0  0  0  0  0  0  0  0
   69.3592   51.8584   54.0624 C   0  0  0  0  0  0  0  0  0  0  0  0
   68.8996   52.6554   55.0922 C   0  0  0  0  0  0  0  0  0  0  0  0
   68.5070   52.0852   56.2854 C   0  0  0  0  0  0  0  0  0  0  0  0
   68.5885   50.7168   56.4093 C   0  0  0  0  0  0  0  0  0  0  0  0
   68.1954   50.1692   57.5967 F   0  0  0  0  0  0  0  0  0  0  0  0
   69.0482   49.9247   55.3774 C   0  0  0  0  0  0  0  0  0  0  0  0
  7  8  2  0  0  0
  8  9  1  0  0  0
  8  1  1  0  0  0
  9 10  1  0  0  0
 10 11  1  0  0  0
 11 12  2  0  0  0
 11 13  1  0  0  0
 13 14  2  0  0  0
 13 18  1  0  0  0
 14 15  1  0  0  0
 15 16  2  0  0  0
 16 17  1  0  0  0
 17 18  2  0  0  0
 18 19  1  0  0  0
  1  2  2  0  0  0
  1  6  1  0  0  0
  2  3  1  0  0  0
  3  4  2  0  0  0
  4  5  1  0  0  0
  5 20  1  0  0  0
  5  6  2  0  0  0
 20 21  2  0  0  0
 20 22  2  0  0  0
 20 23  1  0  0  0
 23 24  2  0  0  0
 23 29  1  0  0  0
 24 25  1  0  0  0
 25 26  2  0  0  0
 26 27  1  0  0  0
 27 28  1  0  0  0
 27 29  2  0  0  0
M  END
> <minimizedAffinity>
-10.69627

$$$$
cs_R4_output_folder/data/smiles/38.pdb


 22 24  0  0  0  0  0  0  0  0999 V2000
   68.8585   48.5682   56.3255 C   0  0  0  0  0  0  0  0  0  0  0  0
   69.1981   48.5465   54.8937 C   0  0  0  0  0  0  0  0  0  0  0  0
   70.0722   49.4985   54.4476 N   0  0  0  0  0  0  0  0  0  0  0  0
   70.5211   49.5664   53.2281 N   0  0  0  0  0  0  0  0  0  0  0  0
   70.1435   48.6764   52.2905 C   0  0  0  0  0  0  0  0  0  0  0  0
   70.5688   48.7336   51.1230 O   0  0  0  0  0  0  0  0  0  0  0  0
   69.2714   47.6934   52.6501 C   0  0  0  0  0  0  0  0  0  0  0  0
   68.8531   46.7848   51.7051 C   0  0  0  0  0  0  0  0  0  0  0  0
   67.9581   45.8185   52.0871 C   0  0  0  0  0  0  0  0  0  0  0  0
   67.4929   45.7650   53.3830 C   0  0  0  0  0  0  0  0  0  0  0  0
   67.9112   46.6792   54.3417 C   0  0  0  0  0  0  0  0  0  0  0  0
   68.8004   47.6364   53.9632 C   0  0  0  0  0  0  0  0  0  0  0  0
   70.9363   45.9334   58.1499 C   0  0  0  0  0  0  0  0  0  0  0  0
   71.8323   46.7778   58.7919 C   0  0  0  0  0  0  0  0  0  0  0  0
   71.7636   48.1501   58.6392 C   0  0  0  0  0  0  0  0  0  0  0  0
   70.7952   48.7084   57.8385 C   0  0  0  0  0  0  0  0  0  0  0  0
   69.8731   47.8800   57.1753 C   0  0  0  0  0  0  0  0  0  0  0  0
   69.9907   46.5446   57.3640 C   0  0  0  0  0  0  0  0  0  0  0  0
   71.0980   44.5983   58.3701 O   0  0  0  0  0  0  0  0  0  0  0  0
   69.7922   42.5385   57.6628 C   0  0  0  0  0  0  0  0  0  0  0  0
   70.0992   43.6908   58.5309 C   0  0  0  0  0  0  0  0  0  0  0  0
   69.3885   43.9185   59.5624 O   0  0  0  0  0  0  0  0  0  0  0  0
 20 21  1  0  0  0
 21 22  2  0  0  0
 21 19  1  0  0  0
 19 13  1  0  0  0
 13 14  2  0  0  0
 13 18  1  0  0  0
 14 15  1  0  0  0
 15 16  2  0  0  0
 16 17  1  0  0  0
 17  1  1  0  0  0
 17 18  2  0  0  0
  1  2  1  0  0  0
  2  3  2  0  0  0
  2 12  1  0  0  0
  3  4  1  0  0  0
  4  5  1  0  0  0
  5  6  2  0  0  0
  5  7  1  0  0  0
  7  8  1  0  0  0
  7 12  2  0  0  0
  8  9  2  0  0  0
  9 10  1  0  0  0
 10 11  2  0  0  0
 11 12  1  0  0  0
M  END
> <minimizedAffinity>
-8.38084

$$$$
cs_R4_output_folder/data/smiles/39.pdb


 20 21  0  0  0  0  0  0  0  0999 V2000
   66.8661   42.6138   55.7183 N   0  0  0  0  0  0  0  0  0  0  0  0
   67.6267   43.7544   55.3471 C   0  0  0  0  0  0  0  0  0  0  0  0
   68.6953   43.9674   55.9752 O   0  0  0  0  0  0  0  0  0  0  0  0
   67.2688   44.6611   54.3271 N   0  0  0  0  0  0  0  0  0  0  0  0
   68.4933   38.9799   59.7626 N   0  0  0  0  0  0  0  0  0  0  0  0
   68.0737   39.9086   58.7514 C   0  0  0  0  0  0  0  0  0  0  0  0
   67.2967   41.0042   59.0667 C   0  0  0  0  0  0  0  0  0  0  0  0
   66.9012   41.8891   58.0768 C   0  0  0  0  0  0  0  0  0  0  0  0
   67.2598   41.7189   56.7560 C   0  0  0  0  0  0  0  0  0  0  0  0
   68.0352   40.6238   56.4451 C   0  0  0  0  0  0  0  0  0  0  0  0
   68.4409   39.7225   57.4353 C   0  0  0  0  0  0  0  0  0  0  0  0
   68.0304   45.7943   53.9628 C   0  0  0  0  0  0  0  0  0  0  0  0
   68.3820   45.9732   52.6444 C   0  0  0  0  0  0  0  0  0  0  0  0
   69.1256   47.0603   52.2285 C   0  0  0  0  0  0  0  0  0  0  0  0
   69.5573   48.0250   53.1119 C   0  0  0  0  0  0  0  0  0  0  0  0
   69.2058   47.8508   54.4453 C   0  0  0  0  0  0  0  0  0  0  0  0
   68.4620   46.7577   54.8420 C   0  0  0  0  0  0  0  0  0  0  0  0
   70.3231   49.1463   52.6867 N   0  0  0  0  0  0  0  0  0  0  0  0
   71.4705   49.2646   53.1379 O   0  0  0  0  0  0  0  0  0  0  0  0
   69.8686   50.0943   51.8152 O   0  0  0  0  0  0  0  0  0  0  0  0
  5  6  1  0  0  0
  6  7  2  0  0  0
  6 11  1  0  0  0
  7  8  1  0  0  0
  8  9  2  0  0  0
  9  1  1  0  0  0
  9 10  1  0  0  0
  1  2  1  0  0  0
  2  3  2  0  0  0
  2  4  1  0  0  0
  4 12  1  0  0  0
 12 13  2  0  0  0
 12 17  1  0  0  0
 13 14  1  0  0  0
 14 15  2  0  0  0
 15 18  1  0  0  0
 15 16  1  0  0  0
 18 19  2  0  0  0
 18 20  1  0  0  0
 16 17  2  0  0  0
 10 11  2  0  0  0
M  CHG 1  18   1
M  CHG 1  20  -1
M  END
> <minimizedAffinity>
-6.71493

$$$$
cs_R4_output_folder/data/smiles/40.pdb


 25 28  0  0  0  0  0  0  0  0999 V2000
   69.9366   50.6847   54.5348 N   0  0  0  0  0  0  0  0  0  0  0  0
   69.4527   52.0172   54.4472 C   0  0  0  0  0  0  0  0  0  0  0  0
   69.5161   52.8223   55.6885 C   0  0  0  0  0  0  0  0  0  0  0  0
   69.6506   52.1176   56.9792 C   0  0  0  0  0  0  0  0  0  0  0  0
   70.1208   50.6844   56.8665 C   0  0  0  0  0  0  0  0  0  0  0  0
   70.9311   50.6401   55.5747 C   0  0  0  0  0  0  0  0  0  0  0  0
   70.2920   50.0836   53.3036 C   0  0  0  0  0  0  0  0  0  0  0  0
   68.2058   46.3640   52.7153 C   0  0  0  0  0  0  0  0  0  0  0  0
   68.2246   46.9711   53.9561 C   0  0  0  0  0  0  0  0  0  0  0  0
   68.8865   48.1754   54.1892 C   0  0  0  0  0  0  0  0  0  0  0  0
   69.5545   48.8010   53.1601 C   0  0  0  0  0  0  0  0  0  0  0  0
   69.5359   48.1901   51.9088 C   0  0  0  0  0  0  0  0  0  0  0  0
   68.8752   46.9954   51.6900 C   0  0  0  0  0  0  0  0  0  0  0  0
   66.7616   44.9567   51.5210 O   0  0  0  0  0  0  0  0  0  0  0  0
   67.4972   45.1048   52.5293 C   0  0  0  0  0  0  0  0  0  0  0  0
   70.8620   50.2647   58.0018 N   0  0  0  0  0  0  0  0  0  0  0  0
   70.9588   48.9041   58.4327 C   0  0  0  0  0  0  0  0  0  0  0  0
   70.3060   47.9001   57.7304 C   0  0  0  0  0  0  0  0  0  0  0  0
   70.4169   46.5995   58.1470 C   0  0  0  0  0  0  0  0  0  0  0  0
   71.1530   46.2137   59.2476 C   0  0  0  0  0  0  0  0  0  0  0  0
   71.4181   45.0420   59.8518 N   0  0  0  0  0  0  0  0  0  0  0  0
   72.2086   45.2826   60.8996 N   0  0  0  0  0  0  0  0  0  0  0  0
   72.4569   46.5867   60.9802 C   0  0  0  0  0  0  0  0  0  0  0  0
   71.7968   47.2190   59.9372 C   0  0  0  0  0  0  0  0  0  0  0  0
   71.6947   48.5318   59.5288 C   0  0  0  0  0  0  0  0  0  0  0  0
 14 15  2  0  0  0
 15  8  1  0  0  0
  8  9  2  0  0  0
  8 13  1  0  0  0
  9 10  1  0  0  0
 10 11  2  0  0  0
 11  7  1  0  0  0
 11 12  1  0  0  0
  1  7  1  0  0  0
  1  2  1  0  0  0
  1  6  1  0  0  0
  2  3  1  0  0  0
  3  4  1  0  0  0
  4  5  1  0  0  0
  5 16  1  0  0  0
  5  6  1  0  0  0
 16 17  1  0  0  0
 17 18  2  0  0  0
 17 25  1  0  0  0
 18 19  1  0  0  0
 19 20  2  0  0  0
 20 21  1  0  0  0
 20 24  1  0  0  0
 21 22  1  0  0  0
 22 23  2  0  0  0
 23 24  1  0  0  0
 24 25  2  0  0  0
 12 13  2  0  0  0
M  CHG 1   1   1
M  END
> <minimizedAffinity>
-7.39354

$$$$
cs_R4_output_folder/data/smiles/41.pdb


 21 23  0  0  0  0  0  0  0  0999 V2000
   69.3412   46.9853   57.3896 C   0  0  0  0  0  0  0  0  0  0  0  0
   69.6997   46.2550   58.4679 N   0  0  0  0  0  0  0  0  0  0  0  0
   69.8338   44.9933   58.1912 N   0  0  0  0  0  0  0  0  0  0  0  0
   69.5602   44.8449   56.8787 C   0  0  0  0  0  0  0  0  0  0  0  0
   69.2468   46.0773   56.3484 C   0  0  0  0  0  0  0  0  0  0  0  0
   68.2857   52.5211   57.2891 O   0  0  0  0  0  0  0  0  0  0  0  0
   68.5898   51.1507   57.3095 C   0  0  0  0  0  0  0  0  0  0  0  0
   69.8694   50.7007   57.1777 C   0  0  0  0  0  0  0  0  0  0  0  0
   70.1324   49.3250   57.2020 C   0  0  0  0  0  0  0  0  0  0  0  0
   69.1126   48.4134   57.3589 C   0  0  0  0  0  0  0  0  0  0  0  0
   67.8391   48.9044   57.4883 C   0  0  0  0  0  0  0  0  0  0  0  0
   66.7939   48.0414   57.6472 O   0  0  0  0  0  0  0  0  0  0  0  0
   67.5616   50.2670   57.4664 C   0  0  0  0  0  0  0  0  0  0  0  0
   66.2489   50.6969   57.6035 O   0  0  0  0  0  0  0  0  0  0  0  0
   68.8881   46.3666   54.9664 C   0  0  0  0  0  0  0  0  0  0  0  0
   68.0251   45.5362   54.2709 C   0  0  0  0  0  0  0  0  0  0  0  0
   67.6689   45.7870   52.9636 C   0  0  0  0  0  0  0  0  0  0  0  0
   68.1736   46.9005   52.2957 C   0  0  0  0  0  0  0  0  0  0  0  0
   69.0228   47.7212   52.9734 C   0  0  0  0  0  0  0  0  0  0  0  0
   69.6777   49.1323   52.1641 Cl  0  0  0  0  0  0  0  0  0  0  0  0
   69.3695   47.4592   54.2748 C   0  0  0  0  0  0  0  0  0  0  0  0
  6  7  1  0  0  0
  7  8  2  0  0  0
  7 13  1  0  0  0
  8  9  1  0  0  0
  9 10  2  0  0  0
 10  1  1  0  0  0
 10 11  1  0  0  0
  1  2  2  0  0  0
  1  5  1  0  0  0
  2  3  1  0  0  0
  3  4  1  0  0  0
  4  5  2  0  0  0
  5 15  1  0  0  0
 15 16  2  0  0  0
 15 21  1  0  0  0
 16 17  1  0  0  0
 17 18  2  0  0  0
 18 19  1  0  0  0
 19 20  1  0  0  0
 19 21  2  0  0  0
 11 12  1  0  0  0
 11 13  2  0  0  0
 13 14  1  0  0  0
M  END
> <minimizedAffinity>
-7.72185

$$$$
cs_R4_output_folder/data/smiles/42.pdb


 28 31  0  0  0  0  0  0  0  0999 V2000
   71.4942   47.1820   58.8298 C   0  0  0  0  0  0  0  0  0  0  0  0
   70.6233   47.9093   58.0375 C   0  0  0  0  0  0  0  0  0  0  0  0
   69.7768   47.3304   57.1491 C   0  0  0  0  0  0  0  0  0  0  0  0
   69.8135   45.9374   57.0553 C   0  0  0  0  0  0  0  0  0  0  0  0
   70.6726   45.1969   57.8351 C   0  0  0  0  0  0  0  0  0  0  0  0
   71.5070   45.8249   58.7167 C   0  0  0  0  0  0  0  0  0  0  0  0
   72.3417   45.0855   59.4719 F   0  0  0  0  0  0  0  0  0  0  0  0
   76.7957   46.8271   59.2457 O   0  0  0  0  0  0  0  0  0  0  0  0
   75.9562   47.7163   59.2005 C   0  0  0  0  0  0  0  0  0  0  0  0
   75.6288   48.3970   60.4790 C   0  0  0  0  0  0  0  0  0  0  0  0
   74.3814   49.2424   60.3405 C   0  0  0  0  0  0  0  0  0  0  0  0
   73.5451   48.5672   59.3659 N   0  0  0  0  0  0  0  0  0  0  0  0
   72.3800   47.8837   59.7689 C   0  0  0  0  0  0  0  0  0  0  0  0
   72.0699   47.8628   60.9783 O   0  0  0  0  0  0  0  0  0  0  0  0
   73.9885   48.6467   57.9873 C   0  0  0  0  0  0  0  0  0  0  0  0
   75.3529   48.0324   57.9032 C   0  0  0  0  0  0  0  0  0  0  0  0
   68.8503   48.1259   56.3306 C   0  0  0  0  0  0  0  0  0  0  0  0
   69.2502   48.2867   54.9166 C   0  0  0  0  0  0  0  0  0  0  0  0
   70.1550   49.2468   54.5536 N   0  0  0  0  0  0  0  0  0  0  0  0
   70.5772   49.4110   53.3178 N   0  0  0  0  0  0  0  0  0  0  0  0
   70.1557   48.6482   52.3049 C   0  0  0  0  0  0  0  0  0  0  0  0
   70.5757   48.8280   51.1381 O   0  0  0  0  0  0  0  0  0  0  0  0
   69.2315   47.6477   52.5953 C   0  0  0  0  0  0  0  0  0  0  0  0
   68.7797   46.8632   51.5656 C   0  0  0  0  0  0  0  0  0  0  0  0
   67.8611   45.8723   51.7899 C   0  0  0  0  0  0  0  0  0  0  0  0
   67.4206   45.7014   53.0729 C   0  0  0  0  0  0  0  0  0  0  0  0
   67.8681   46.4829   54.1135 C   0  0  0  0  0  0  0  0  0  0  0  0
   68.7878   47.4802   53.9112 C   0  0  0  0  0  0  0  0  0  0  0  0
  8  9  2  0  0  0
  9 10  1  0  0  0
  9 16  1  0  0  0
 10 11  1  0  0  0
 11 12  1  0  0  0
 12 13  1  0  0  0
 12 15  1  0  0  0
 13 14  2  0  0  0
 13  1  1  0  0  0
  1  2  2  0  0  0
  1  6  1  0  0  0
  2  3  1  0  0  0
  3 17  1  0  0  0
  3  4  2  0  0  0
 17 18  1  0  0  0
 18 19  2  0  0  0
 18 28  1  0  0  0
 19 20  1  0  0  0
 20 21  1  0  0  0
 21 22  2  0  0  0
 21 23  1  0  0  0
 23 24  1  0  0  0
 23 28  2  0  0  0
 24 25  2  0  0  0
 25 26  1  0  0  0
 26 27  2  0  0  0
 27 28  1  0  0  0
  4  5  1  0  0  0
  5  6  2  0  0  0
  6  7  1  0  0  0
 15 16  1  0  0  0
M  END
> <minimizedAffinity>
-9.11510

$$$$
cs_R4_output_folder/data/smiles/43.pdb


 33 37  0  0  0  0  0  0  0  0999 V2000
   72.0018   46.9039   58.9307 C   0  0  0  0  0  0  0  0  0  0  0  0
   70.7780   47.1763   58.3567 C   0  0  0  0  0  0  0  0  0  0  0  0
   70.6379   48.2597   57.5184 C   0  0  0  0  0  0  0  0  0  0  0  0
   71.7310   49.0745   57.2543 C   0  0  0  0  0  0  0  0  0  0  0  0
   72.9642   48.7926   57.8381 C   0  0  0  0  0  0  0  0  0  0  0  0
   73.1126   47.7128   58.6757 C   0  0  0  0  0  0  0  0  0  0  0  0
   74.3040   47.4377   59.2445 F   0  0  0  0  0  0  0  0  0  0  0  0
   71.7913   45.8909   61.0377 O   0  0  0  0  0  0  0  0  0  0  0  0
   72.1916   45.7852   59.8399 C   0  0  0  0  0  0  0  0  0  0  0  0
   72.8150   44.6078   59.3817 N   0  0  0  0  0  0  0  0  0  0  0  0
   72.9993   43.5459   60.3500 C   0  0  0  0  0  0  0  0  0  0  0  0
   72.9373   42.1771   59.7124 C   0  0  0  0  0  0  0  0  0  0  0  0
   72.3270   42.3566   58.4246 N   0  0  0  0  0  0  0  0  0  0  0  0
   73.1009   43.0877   57.4594 C   0  0  0  0  0  0  0  0  0  0  0  0
   73.2110   44.5174   58.0081 C   0  0  0  0  0  0  0  0  0  0  0  0
   71.0595   41.8499   58.1144 C   0  0  0  0  0  0  0  0  0  0  0  0
   70.6697   40.5603   58.4821 C   0  0  0  0  0  0  0  0  0  0  0  0
   69.4187   40.1272   58.1570 C   0  0  0  0  0  0  0  0  0  0  0  0
   68.5120   40.8503   57.4995 N   0  0  0  0  0  0  0  0  0  0  0  0
   68.8488   42.1143   57.1212 C   0  0  0  0  0  0  0  0  0  0  0  0
   70.0896   42.5740   57.4318 C   0  0  0  0  0  0  0  0  0  0  0  0
   69.3550   48.5928   56.8526 C   0  0  0  0  0  0  0  0  0  0  0  0
   68.9372   47.5723   55.9052 C   0  0  0  0  0  0  0  0  0  0  0  0
   68.4880   46.3849   56.3822 N   0  0  0  0  0  0  0  0  0  0  0  0
   68.0849   45.4041   55.6304 N   0  0  0  0  0  0  0  0  0  0  0  0
   68.1127   45.5701   54.3052 C   0  0  0  0  0  0  0  0  0  0  0  0
   67.7240   44.6261   53.5533 O   0  0  0  0  0  0  0  0  0  0  0  0
   68.5505   46.7365   53.7183 C   0  0  0  0  0  0  0  0  0  0  0  0
   68.9728   47.7583   54.5654 C   0  0  0  0  0  0  0  0  0  0  0  0
   69.4537   49.0010   53.9635 C   0  0  0  0  0  0  0  0  0  0  0  0
   70.2928   48.5828   52.7436 C   0  0  0  0  0  0  0  0  0  0  0  0
   69.4320   47.9277   51.7085 C   0  0  0  0  0  0  0  0  0  0  0  0
   68.5466   46.8528   52.2445 C   0  0  0  0  0  0  0  0  0  0  0  0
  8  9  2  0  0  0
  9  1  1  0  0  0
  9 10  1  0  0  0
  1  2  2  0  0  0
  1  6  1  0  0  0
  2  3  1  0  0  0
  3 22  1  0  0  0
  3  4  2  0  0  0
 22 23  1  0  0  0
 23 24  2  0  0  0
 23 29  1  0  0  0
 24 25  1  0  0  0
 25 26  1  0  0  0
 26 27  2  0  0  0
 26 28  1  0  0  0
 28 29  2  0  0  0
 28 33  1  0  0  0
 29 30  1  0  0  0
 30 31  1  0  0  0
 31 32  1  0  0  0
 32 33  1  0  0  0
  4  5  1  0  0  0
  5  6  2  0  0  0
  6  7  1  0  0  0
 10 11  1  0  0  0
 10 15  1  0  0  0
 11 12  1  0  0  0
 12 13  1  0  0  0
 13 16  1  0  0  0
 13 14  1  0  0  0
 16 17  2  0  0  0
 16 21  1  0  0  0
 17 18  1  0  0  0
 18 19  2  0  0  0
 19 20  1  0  0  0
 20 21  2  0  0  0
 14 15  1  0  0  0
M  END
> <minimizedAffinity>
-9.13854

$$$$
cs_R4_output_folder/data/smiles/44.pdb


 23 25  0  0  0  0  0  0  0  0999 V2000
   68.4584   41.9630   56.7217 C   0  0  0  0  0  0  0  0  0  0  0  0
   69.2805   41.1353   57.3941 N   0  0  0  0  0  0  0  0  0  0  0  0
   70.3707   41.5695   58.0473 C   0  0  0  0  0  0  0  0  0  0  0  0
   71.2097   40.7183   58.7354 C   0  0  0  0  0  0  0  0  0  0  0  0
   72.3267   41.1818   59.4010 C   0  0  0  0  0  0  0  0  0  0  0  0
   72.5888   42.5356   59.3634 C   0  0  0  0  0  0  0  0  0  0  0  0
   71.7408   43.3762   58.6710 C   0  0  0  0  0  0  0  0  0  0  0  0
   70.6216   42.9286   58.0011 C   0  0  0  0  0  0  0  0  0  0  0  0
   69.7977   43.7483   57.3279 N   0  0  0  0  0  0  0  0  0  0  0  0
   68.7010   43.3508   56.6640 C   0  0  0  0  0  0  0  0  0  0  0  0
   67.3378   40.4419   55.3286 O   0  0  0  0  0  0  0  0  0  0  0  0
   67.2827   41.4759   56.0201 C   0  0  0  0  0  0  0  0  0  0  0  0
   67.8395   44.1524   55.9692 O   0  0  0  0  0  0  0  0  0  0  0  0
   68.1260   45.2293   55.1927 C   0  0  0  0  0  0  0  0  0  0  0  0
   67.9469   45.3165   53.8360 C   0  0  0  0  0  0  0  0  0  0  0  0
   68.2705   46.4655   53.1173 C   0  0  0  0  0  0  0  0  0  0  0  0
   68.7856   47.5729   53.7397 C   0  0  0  0  0  0  0  0  0  0  0  0
   68.9733   47.5113   55.0910 C   0  0  0  0  0  0  0  0  0  0  0  0
   68.6559   46.3783   55.8031 C   0  0  0  0  0  0  0  0  0  0  0  0
   69.1394   48.8173   52.9882 C   0  0  0  0  0  0  0  0  0  0  0  0
   70.4120   48.6521   52.2506 C   0  0  0  0  0  0  0  0  0  0  0  0
   71.4906   49.0294   52.7692 O   0  0  0  0  0  0  0  0  0  0  0  0
   70.4455   48.0874   50.9936 O   0  0  0  0  0  0  0  0  0  0  0  0
 11 12  2  0  0  0
 12  1  1  0  0  0
  1  2  2  0  0  0
  1 10  1  0  0  0
  2  3  1  0  0  0
  3  4  2  0  0  0
  3  8  1  0  0  0
  4  5  1  0  0  0
  5  6  2  0  0  0
  6  7  1  0  0  0
  7  8  2  0  0  0
  8  9  1  0  0  0
  9 10  2  0  0  0
 10 13  1  0  0  0
 13 14  1  0  0  0
 14 15  2  0  0  0
 14 19  1  0  0  0
 15 16  1  0  0  0
 16 17  2  0  0  0
 17 20  1  0  0  0
 17 18  1  0  0  0
 20 21  1  0  0  0
 21 22  2  0  0  0
 21 23  1  0  0  0
 18 19  2  0  0  0
M  END
> <minimizedAffinity>
-8.73097

$$$$
cs_R4_output_folder/data/smiles/45.pdb


 19 20  0  0  0  0  0  0  0  0999 V2000
   68.0172   41.4032   59.3004 C   0  0  0  0  0  0  0  0  0  0  0  0
   68.3090   40.2015   59.9533 C   0  0  0  0  0  0  0  0  0  0  0  0
   68.4397   39.0342   59.2383 C   0  0  0  0  0  0  0  0  0  0  0  0
   68.2796   39.0690   57.8774 C   0  0  0  0  0  0  0  0  0  0  0  0
   67.9913   40.2328   57.1849 C   0  0  0  0  0  0  0  0  0  0  0  0
   67.8418   40.1993   55.8054 O   0  0  0  0  0  0  0  0  0  0  0  0
   67.8621   41.3959   57.9152 C   0  0  0  0  0  0  0  0  0  0  0  0
   67.5735   42.5563   57.2182 O   0  0  0  0  0  0  0  0  0  0  0  0
   68.8633   43.3899   60.0224 O   0  0  0  0  0  0  0  0  0  0  0  0
   67.8758   42.6243   60.0055 N   0  0  0  0  0  0  0  0  0  0  0  0
   66.7424   43.0010   60.6542 O   0  0  0  0  0  0  0  0  0  0  0  0
   68.7453   37.7897   59.9415 C   0  0  0  0  0  0  0  0  0  0  0  0
   70.1756   37.6681   60.3768 C   0  0  0  0  0  0  0  0  0  0  0  0
   71.0008   36.9254   59.3807 C   0  0  0  0  0  0  0  0  0  0  0  0
   71.6341   37.5499   58.3303 C   0  0  0  0  0  0  0  0  0  0  0  0
   72.3777   36.8036   57.4547 C   0  0  0  0  0  0  0  0  0  0  0  0
   72.5168   35.4253   57.5890 C   0  0  0  0  0  0  0  0  0  0  0  0
   71.8758   34.8112   58.6487 C   0  0  0  0  0  0  0  0  0  0  0  0
   71.1290   35.5640   59.5280 C   0  0  0  0  0  0  0  0  0  0  0  0
  9 10  2  0  0  0
 10 11  1  0  0  0
 10  1  1  0  0  0
  1  2  2  0  0  0
  1  7  1  0  0  0
  2  3  1  0  0  0
  3 12  1  0  0  0
  3  4  2  0  0  0
 12 13  1  0  0  0
 13 14  1  0  0  0
 14 15  2  0  0  0
 14 19  1  0  0  0
 15 16  1  0  0  0
 16 17  2  0  0  0
 17 18  1  0  0  0
 18 19  2  0  0  0
  4  5  1  0  0  0
  5  6  1  0  0  0
  5  7  2  0  0  0
  7  8  1  0  0  0
M  CHG 1  10   1
M  CHG 1  11  -1
M  END
> <minimizedAffinity>
-6.93173

$$$$
cs_R4_output_folder/data/smiles/46.pdb


 29 31  0  0  0  0  0  0  0  0999 V2000
   72.1344   35.9428   57.9082 C   0  0  0  0  0  0  0  0  0  0  0  0
   71.6562   37.2151   58.0595 C   0  0  0  0  0  0  0  0  0  0  0  0
   70.7966   37.5385   59.0851 C   0  0  0  0  0  0  0  0  0  0  0  0
   70.4240   36.5586   59.9584 C   0  0  0  0  0  0  0  0  0  0  0  0
   70.9074   35.2908   59.7978 C   0  0  0  0  0  0  0  0  0  0  0  0
   71.7640   34.9535   58.7812 C   0  0  0  0  0  0  0  0  0  0  0  0
   72.2426   33.6850   58.6273 F   0  0  0  0  0  0  0  0  0  0  0  0
   78.3185   34.2371   58.0183 C   0  0  0  0  0  0  0  0  0  0  0  0
   77.1035   34.9295   57.6935 N   0  0  0  0  0  0  0  0  0  0  0  0
   76.5776   34.4409   56.4524 C   0  0  0  0  0  0  0  0  0  0  0  0
   75.3497   35.1710   55.9995 C   0  0  0  0  0  0  0  0  0  0  0  0
   74.4358   35.4925   57.0734 N   0  0  0  0  0  0  0  0  0  0  0  0
   73.0503   35.6163   56.8098 C   0  0  0  0  0  0  0  0  0  0  0  0
   72.5972   35.4512   55.6510 O   0  0  0  0  0  0  0  0  0  0  0  0
   74.9546   35.6827   58.3983 C   0  0  0  0  0  0  0  0  0  0  0  0
   76.0755   34.7236   58.7178 C   0  0  0  0  0  0  0  0  0  0  0  0
   70.3107   38.9327   59.2288 C   0  0  0  0  0  0  0  0  0  0  0  0
   68.9093   39.0085   58.7296 C   0  0  0  0  0  0  0  0  0  0  0  0
   68.7265   39.0501   57.4036 N   0  0  0  0  0  0  0  0  0  0  0  0
   67.8769   39.7135   56.6848 N   0  0  0  0  0  0  0  0  0  0  0  0
   67.9086   41.0482   56.5193 C   0  0  0  0  0  0  0  0  0  0  0  0
   67.0668   41.5702   55.7027 O   0  0  0  0  0  0  0  0  0  0  0  0
   68.7885   41.9127   57.1660 C   0  0  0  0  0  0  0  0  0  0  0  0
   68.9411   41.9894   58.5289 C   0  0  0  0  0  0  0  0  0  0  0  0
   67.9546   42.0379   59.4876 C   0  0  0  0  0  0  0  0  0  0  0  0
   66.8351   41.2270   59.5284 C   0  0  0  0  0  0  0  0  0  0  0  0
   66.7968   39.8679   59.6158 C   0  0  0  0  0  0  0  0  0  0  0  0
   67.8857   39.0129   59.6604 C   0  0  0  0  0  0  0  0  0  0  0  0
   67.9770   38.0833   60.6851 F   0  0  0  0  0  0  0  0  0  0  0  0
  8  9  1  0  0  0
  9 10  1  0  0  0
  9 16  1  0  0  0
 10 11  1  0  0  0
 11 12  1  0  0  0
 12 13  1  0  0  0
 12 15  1  0  0  0
 13 14  2  0  0  0
 13  1  1  0  0  0
  1  2  2  0  0  0
  1  6  1  0  0  0
  2  3  1  0  0  0
  3 17  1  0  0  0
  3  4  2  0  0  0
 17 18  1  0  0  0
 18 19  2  0  0  0
 18 28  1  0  0  0
 19 20  1  0  0  0
 20 21  1  0  0  0
 21 22  2  0  0  0
 21 23  1  0  0  0
 23 24  2  0  0  0
 24 25  1  0  0  0
 25 26  2  0  0  0
 26 27  1  0  0  0
 27 28  2  0  0  0
 28 29  1  0  0  0
  4  5  1  0  0  0
  5  6  2  0  0  0
  6  7  1  0  0  0
 15 16  1  0  0  0
M  CHG 1   9   1
M  END
> <minimizedAffinity>
-7.14177

$$$$
cs_R4_output_folder/data/smiles/47.pdb


 20 22  0  0  0  0  0  0  0  0999 V2000
   71.2589   48.8313   52.8372 N   0  0  0  0  0  0  0  0  0  0  0  0
   69.9664   49.0763   52.1896 C   0  0  0  0  0  0  0  0  0  0  0  0
   69.3467   47.7615   51.8548 C   0  0  0  0  0  0  0  0  0  0  0  0
   68.7262   47.0443   52.9961 C   0  0  0  0  0  0  0  0  0  0  0  0
   69.0231   47.6278   54.3324 C   0  0  0  0  0  0  0  0  0  0  0  0
   69.1288   46.7930   55.4310 C   0  0  0  0  0  0  0  0  0  0  0  0
   69.3943   47.2666   56.6876 C   0  0  0  0  0  0  0  0  0  0  0  0
   69.5550   48.6727   56.7850 C   0  0  0  0  0  0  0  0  0  0  0  0
   69.4472   49.4856   55.6874 C   0  0  0  0  0  0  0  0  0  0  0  0
   69.1808   48.9911   54.4392 C   0  0  0  0  0  0  0  0  0  0  0  0
   69.0522   49.7872   53.1985 C   0  0  0  0  0  0  0  0  0  0  0  0
   69.5099   46.5118   57.8044 O   0  0  0  0  0  0  0  0  0  0  0  0
   70.4569   45.9494   58.5664 C   0  0  0  0  0  0  0  0  0  0  0  0
   70.9480   44.5865   58.1906 C   0  0  0  0  0  0  0  0  0  0  0  0
   70.0848   43.5633   57.8860 C   0  0  0  0  0  0  0  0  0  0  0  0
   70.5388   42.3024   57.5499 C   0  0  0  0  0  0  0  0  0  0  0  0
   71.8938   42.0441   57.5123 C   0  0  0  0  0  0  0  0  0  0  0  0
   72.7701   43.0669   57.8172 C   0  0  0  0  0  0  0  0  0  0  0  0
   74.4934   42.6903   57.7560 Cl  0  0  0  0  0  0  0  0  0  0  0  0
   72.3113   44.3157   58.1498 C   0  0  0  0  0  0  0  0  0  0  0  0
  2  1  1  0  0  0
  2  3  1  0  0  0
  2 11  1  0  0  0
  3  4  1  0  0  0
  4  5  1  0  0  0
  5  6  1  0  0  0
  5 10  2  0  0  0
  6  7  2  0  0  0
  7 12  1  0  0  0
  7  8  1  0  0  0
 12 13  1  0  0  0
 13 14  1  0  0  0
 14 15  2  0  0  0
 14 20  1  0  0  0
 15 16  1  0  0  0
 16 17  2  0  0  0
 17 18  1  0  0  0
 18 19  1  0  0  0
 18 20  2  0  0  0
  8  9  2  0  0  0
  9 10  1  0  0  0
 10 11  1  0  0  0
M  CHG 1   1   1
M  END
> <minimizedAffinity>
-6.90780

$$$$
cs_R4_output_folder/data/smiles/48.pdb


 21 22  0  0  0  0  0  0  0  0999 V2000
   70.0887   44.8889   57.7234 C   0  0  0  0  0  0  0  0  0  0  0  0
   69.7911   45.6381   58.7138 O   0  0  0  0  0  0  0  0  0  0  0  0
   69.6489   45.3306   56.4637 N   0  0  0  0  0  0  0  0  0  0  0  0
   74.0543   41.9577   58.5748 C   0  0  0  0  0  0  0  0  0  0  0  0
   72.6418   42.3583   58.3113 C   0  0  0  0  0  0  0  0  0  0  0  0
   71.5866   41.5977   58.1780 O   0  0  0  0  0  0  0  0  0  0  0  0
   70.4990   42.3484   57.9487 C   0  0  0  0  0  0  0  0  0  0  0  0
   69.1622   41.7590   57.7574 C   0  0  0  0  0  0  0  0  0  0  0  0
   70.8327   43.6696   57.9268 C   0  0  0  0  0  0  0  0  0  0  0  0
   72.2167   43.6596   58.1617 C   0  0  0  0  0  0  0  0  0  0  0  0
   73.0791   44.8525   58.2367 C   0  0  0  0  0  0  0  0  0  0  0  0
   68.8882   46.5635   56.2454 C   0  0  0  0  0  0  0  0  0  0  0  0
   68.8095   46.7928   54.7882 C   0  0  0  0  0  0  0  0  0  0  0  0
   68.0603   45.8740   54.0471 C   0  0  0  0  0  0  0  0  0  0  0  0
   67.9369   45.9948   52.6755 C   0  0  0  0  0  0  0  0  0  0  0  0
   68.5417   47.0170   51.9869 C   0  0  0  0  0  0  0  0  0  0  0  0
   69.2894   47.9422   52.6998 C   0  0  0  0  0  0  0  0  0  0  0  0
   69.4052   47.8044   54.0911 C   0  0  0  0  0  0  0  0  0  0  0  0
   69.9437   49.0342   52.0186 C   0  0  0  0  0  0  0  0  0  0  0  0
   69.9578   50.3120   52.6045 N   0  0  0  0  0  0  0  0  0  0  0  0
   70.4899   48.8442   50.9203 O   0  0  0  0  0  0  0  0  0  0  0  0
  4  5  1  0  0  0
  5  6  1  0  0  0
  5 10  2  0  0  0
  6  7  1  0  0  0
  7  8  1  0  0  0
  7  9  2  0  0  0
  9  1  1  0  0  0
  9 10  1  0  0  0
  1  2  2  0  0  0
  1  3  1  0  0  0
  3 12  1  0  0  0
 12 13  1  0  0  0
 13 14  2  0  0  0
 13 18  1  0  0  0
 14 15  1  0  0  0
 15 16  2  0  0  0
 16 17  1  0  0  0
 17 19  1  0  0  0
 17 18  2  0  0  0
 19 20  1  0  0  0
 19 21  2  0  0  0
 10 11  1  0  0  0
M  END
> <minimizedAffinity>
-7.76767

$$$$
cs_R4_output_folder/data/smiles/49.pdb


 20 22  0  0  0  0  0  0  0  0999 V2000
   69.4619   48.0556   52.4687 C   0  0  0  0  0  0  0  0  0  0  0  0
   68.8739   46.8840   52.0096 C   0  0  0  0  0  0  0  0  0  0  0  0
   68.3275   45.9761   52.8836 C   0  0  0  0  0  0  0  0  0  0  0  0
   68.3644   46.2336   54.2404 C   0  0  0  0  0  0  0  0  0  0  0  0
   67.9106   45.5298   55.3130 N   0  0  0  0  0  0  0  0  0  0  0  0
   68.1951   46.2199   56.4073 N   0  0  0  0  0  0  0  0  0  0  0  0
   68.8192   47.3528   56.1165 C   0  0  0  0  0  0  0  0  0  0  0  0
   68.9391   47.3858   54.7447 C   0  0  0  0  0  0  0  0  0  0  0  0
   69.4755   48.2693   53.8355 C   0  0  0  0  0  0  0  0  0  0  0  0
   70.7593   48.6085   50.6706 O   0  0  0  0  0  0  0  0  0  0  0  0
   70.0225   48.9917   51.5779 N   0  0  0  0  0  0  0  0  0  0  0  0
   69.7469   50.3129   51.7250 O   0  0  0  0  0  0  0  0  0  0  0  0
   69.2925   48.3769   57.0755 C   0  0  0  0  0  0  0  0  0  0  0  0
   68.2987   49.4509   57.3671 C   0  0  0  0  0  0  0  0  0  0  0  0
   68.6892   50.7267   56.7164 C   0  0  0  0  0  0  0  0  0  0  0  0
   69.4909   51.6818   57.3094 C   0  0  0  0  0  0  0  0  0  0  0  0
   69.8278   52.8489   56.6713 C   0  0  0  0  0  0  0  0  0  0  0  0
   69.3564   53.0789   55.4025 C   0  0  0  0  0  0  0  0  0  0  0  0
   68.5425   52.1510   54.7500 C   0  0  0  0  0  0  0  0  0  0  0  0
   68.2323   50.9968   55.4322 C   0  0  0  0  0  0  0  0  0  0  0  0
 10 11  2  0  0  0
 11 12  1  0  0  0
 11  1  1  0  0  0
  1  2  2  0  0  0
  1  9  1  0  0  0
  2  3  1  0  0  0
  3  4  2  0  0  0
  4  5  1  0  0  0
  4  8  1  0  0  0
  5  6  1  0  0  0
  6  7  2  0  0  0
  7 13  1  0  0  0
  7  8  1  0  0  0
 13 14  1  0  0  0
 14 15  1  0  0  0
 15 16  2  0  0  0
 15 20  1  0  0  0
 16 17  1  0  0  0
 17 18  2  0  0  0
 18 19  1  0  0  0
 19 20  2  0  0  0
  8  9  2  0  0  0
M  CHG 1  11   1
M  CHG 1  12  -1
M  END
> <minimizedAffinity>
-8.37735

$$$$
cs_R4_output_folder/data/smiles/50.pdb


 21 23  0  0  0  0  0  0  0  0999 V2000
   69.9264   48.3865   57.7903 N   0  0  0  0  0  0  0  0  0  0  0  0
   69.6674   48.1450   56.4207 C   0  0  0  0  0  0  0  0  0  0  0  0
   70.1225   49.0604   55.4567 C   0  0  0  0  0  0  0  0  0  0  0  0
   69.8677   48.8454   54.1269 C   0  0  0  0  0  0  0  0  0  0  0  0
   69.1706   47.7576   53.6579 C   0  0  0  0  0  0  0  0  0  0  0  0
   68.9209   47.5546   52.3139 C   0  0  0  0  0  0  0  0  0  0  0  0
   68.2218   46.4616   51.8474 C   0  0  0  0  0  0  0  0  0  0  0  0
   67.7668   45.5527   52.7806 C   0  0  0  0  0  0  0  0  0  0  0  0
   68.0185   45.7561   54.1350 C   0  0  0  0  0  0  0  0  0  0  0  0
   68.7188   46.8523   54.5907 C   0  0  0  0  0  0  0  0  0  0  0  0
   68.9697   47.0552   55.9434 C   0  0  0  0  0  0  0  0  0  0  0  0
   71.4109   48.1579   58.6036 S   0  0  0  0  0  0  0  0  0  0  0  0
   71.1340   48.3394   60.0771 O   0  0  0  0  0  0  0  0  0  0  0  0
   72.4073   49.2441   58.2232 O   0  0  0  0  0  0  0  0  0  0  0  0
   73.8051   42.6397   57.7671 C   0  0  0  0  0  0  0  0  0  0  0  0
   73.2163   43.9899   57.9786 C   0  0  0  0  0  0  0  0  0  0  0  0
   71.8545   44.1806   58.0831 C   0  0  0  0  0  0  0  0  0  0  0  0
   71.3245   45.4371   58.2789 C   0  0  0  0  0  0  0  0  0  0  0  0
   72.1173   46.5797   58.3813 C   0  0  0  0  0  0  0  0  0  0  0  0
   73.4801   46.3743   58.2741 C   0  0  0  0  0  0  0  0  0  0  0  0
   74.0075   45.1155   58.0783 C   0  0  0  0  0  0  0  0  0  0  0  0
 15 16  1  0  0  0
 16 17  2  0  0  0
 16 21  1  0  0  0
 17 18  1  0  0  0
 18 19  2  0  0  0
 19 12  1  0  0  0
 19 20  1  0  0  0
 12 13  2  0  0  0
 12 14  2  0  0  0
 12  1  1  0  0  0
  1  2  1  0  0  0
  2  3  2  0  0  0
  2 11  1  0  0  0
  3  4  1  0  0  0
  4  5  2  0  0  0
  5  6  1  0  0  0
  5 10  1  0  0  0
  6  7  2  0  0  0
  7  8  1  0  0  0
  8  9  2  0  0  0
  9 10  1  0  0  0
 10 11  2  0  0  0
 20 21  2  0  0  0
M  END
> <minimizedAffinity>
-7.16081

$$$$
cs_R4_output_folder/data/smiles/51.pdb


 23 25  0  0  0  0  0  0  0  0999 V2000
   69.8442   48.1513   57.8352 C   0  0  0  0  0  0  0  0  0  0  0  0
   70.1137   48.7833   56.5159 C   0  0  0  0  0  0  0  0  0  0  0  0
   70.8445   49.8934   56.3932 N   0  0  0  0  0  0  0  0  0  0  0  0
   71.1207   50.5094   55.2237 C   0  0  0  0  0  0  0  0  0  0  0  0
   70.6015   49.9315   54.0955 C   0  0  0  0  0  0  0  0  0  0  0  0
   69.8353   48.7728   54.1799 C   0  0  0  0  0  0  0  0  0  0  0  0
   69.3026   48.1733   53.0610 C   0  0  0  0  0  0  0  0  0  0  0  0
   69.5206   48.7167   51.8050 O   0  0  0  0  0  0  0  0  0  0  0  0
   68.5320   47.0102   53.1455 C   0  0  0  0  0  0  0  0  0  0  0  0
   68.2945   46.4476   54.3420 N   0  0  0  0  0  0  0  0  0  0  0  0
   68.8098   47.0201   55.4723 C   0  0  0  0  0  0  0  0  0  0  0  0
   68.5702   46.4702   56.5764 O   0  0  0  0  0  0  0  0  0  0  0  0
   69.5733   48.1729   55.3919 C   0  0  0  0  0  0  0  0  0  0  0  0
   71.9276   51.7220   55.1756 C   0  0  0  0  0  0  0  0  0  0  0  0
   71.5573   52.9356   55.6914 C   0  0  0  0  0  0  0  0  0  0  0  0
   72.3872   54.0599   55.6079 C   0  0  0  0  0  0  0  0  0  0  0  0
   73.6190   53.9878   54.9961 C   0  0  0  0  0  0  0  0  0  0  0  0
   73.9970   52.7707   54.4736 C   0  0  0  0  0  0  0  0  0  0  0  0
   73.1812   51.6633   54.5564 C   0  0  0  0  0  0  0  0  0  0  0  0
   68.0050   46.4342   51.9311 C   0  0  0  0  0  0  0  0  0  0  0  0
   68.4826   46.7918   50.7996 O   0  0  0  0  0  0  0  0  0  0  0  0
   66.9628   45.4709   51.8959 N   0  0  0  0  0  0  0  0  0  0  0  0
   66.5191   44.9698   50.6422 N   0  0  0  0  0  0  0  0  0  0  0  0
  1  2  1  0  0  0
  2  3  2  0  0  0
  2 13  1  0  0  0
  3  4  1  0  0  0
  4 14  1  0  0  0
  4  5  2  0  0  0
 14 15  2  0  0  0
 14 19  1  0  0  0
 15 16  1  0  0  0
 16 17  2  0  0  0
 17 18  1  0  0  0
 18 19  2  0  0  0
  5  6  1  0  0  0
  6  7  1  0  0  0
  6 13  2  0  0  0
  7  8  1  0  0  0
  7  9  2  0  0  0
  9 20  1  0  0  0
  9 10  1  0  0  0
 20 21  2  0  0  0
 20 22  1  0  0  0
 22 23  1  0  0  0
 10 11  1  0  0  0
 11 12  2  0  0  0
 11 13  1  0  0  0
M  END
> <minimizedAffinity>
-7.41126

$$$$
cs_R4_output_folder/data/smiles/52.pdb


 22 24  0  0  0  0  0  0  0  0999 V2000
   74.3484   35.2454   55.5832 N   0  0  0  0  0  0  0  0  0  0  0  0
   73.9499   35.3207   54.2213 C   0  0  0  0  0  0  0  0  0  0  0  0
   72.7279   35.3799   53.9945 O   0  0  0  0  0  0  0  0  0  0  0  0
   74.8943   35.3310   53.1093 C   0  0  0  0  0  0  0  0  0  0  0  0
   76.0502   36.0785   53.1969 C   0  0  0  0  0  0  0  0  0  0  0  0
   76.9481   36.1156   52.1957 N   0  0  0  0  0  0  0  0  0  0  0  0
   76.7669   35.4214   51.0436 C   0  0  0  0  0  0  0  0  0  0  0  0
   77.7025   35.4760   50.0305 C   0  0  0  0  0  0  0  0  0  0  0  0
   77.5207   34.7805   48.8775 C   0  0  0  0  0  0  0  0  0  0  0  0
   76.3732   33.9998   48.7135 C   0  0  0  0  0  0  0  0  0  0  0  0
   75.4470   33.9507   49.7272 C   0  0  0  0  0  0  0  0  0  0  0  0
   75.6220   34.6515   50.8979 C   0  0  0  0  0  0  0  0  0  0  0  0
   74.7159   34.6293   51.9401 C   0  0  0  0  0  0  0  0  0  0  0  0
   71.9010   36.4160   58.1565 C   0  0  0  0  0  0  0  0  0  0  0  0
   71.6270   35.2104   58.7995 C   0  0  0  0  0  0  0  0  0  0  0  0
   72.2291   34.0346   58.4019 C   0  0  0  0  0  0  0  0  0  0  0  0
   73.1187   34.0611   57.3467 C   0  0  0  0  0  0  0  0  0  0  0  0
   73.4277   35.2356   56.6707 C   0  0  0  0  0  0  0  0  0  0  0  0
   72.7926   36.3761   57.1167 C   0  0  0  0  0  0  0  0  0  0  0  0
   71.2338   37.6656   58.6107 C   0  0  0  0  0  0  0  0  0  0  0  0
   71.7921   40.0473   58.4435 N   0  0  0  0  0  0  0  0  0  0  0  0
   72.2305   38.7676   58.9098 C   0  0  0  0  0  0  0  0  0  0  0  0
 21 22  1  0  0  0
 22 20  1  0  0  0
 20 14  1  0  0  0
 14 15  2  0  0  0
 14 19  1  0  0  0
 15 16  1  0  0  0
 16 17  2  0  0  0
 17 18  1  0  0  0
 18  1  1  0  0  0
 18 19  2  0  0  0
  1  2  1  0  0  0
  2  3  2  0  0  0
  2  4  1  0  0  0
  4  5  2  0  0  0
  4 13  1  0  0  0
  5  6  1  0  0  0
  6  7  2  0  0  0
  7  8  1  0  0  0
  7 12  1  0  0  0
  8  9  2  0  0  0
  9 10  1  0  0  0
 10 11  2  0  0  0
 11 12  1  0  0  0
 12 13  2  0  0  0
M  CHG 1  21   1
M  END
> <minimizedAffinity>
-7.50688

$$$$
cs_R4_output_folder/data/smiles/53.pdb


 23 25  0  0  0  0  0  0  0  0999 V2000
   68.0588   38.3337   58.6438 O   0  0  0  0  0  0  0  0  0  0  0  0
   69.0856   39.0541   58.5117 C   0  0  0  0  0  0  0  0  0  0  0  0
   70.2922   38.4778   58.9731 N   0  0  0  0  0  0  0  0  0  0  0  0
   70.3723   37.1652   59.5568 C   0  0  0  0  0  0  0  0  0  0  0  0
   69.6146   36.8447   60.6609 C   0  0  0  0  0  0  0  0  0  0  0  0
   69.7041   35.5654   61.2160 C   0  0  0  0  0  0  0  0  0  0  0  0
   70.5442   34.6276   60.6636 C   0  0  0  0  0  0  0  0  0  0  0  0
   71.3191   34.9132   59.5569 C   0  0  0  0  0  0  0  0  0  0  0  0
   72.1627   33.9773   58.9998 C   0  0  0  0  0  0  0  0  0  0  0  0
   72.9122   34.3128   57.8998 C   0  0  0  0  0  0  0  0  0  0  0  0
   72.7883   35.5850   57.3919 C   0  0  0  0  0  0  0  0  0  0  0  0
   71.9537   36.5456   57.9239 C   0  0  0  0  0  0  0  0  0  0  0  0
   71.8620   37.8262   57.3720 O   0  0  0  0  0  0  0  0  0  0  0  0
   71.2002   36.1950   59.0368 C   0  0  0  0  0  0  0  0  0  0  0  0
   68.9833   40.3756   57.9210 C   0  0  0  0  0  0  0  0  0  0  0  0
   67.9209   40.6442   57.0945 C   0  0  0  0  0  0  0  0  0  0  0  0
   67.7407   41.8770   56.4853 C   0  0  0  0  0  0  0  0  0  0  0  0
   68.6780   42.8556   56.7345 C   0  0  0  0  0  0  0  0  0  0  0  0
   69.7500   42.6003   57.5611 C   0  0  0  0  0  0  0  0  0  0  0  0
   69.9069   41.3653   58.1545 C   0  0  0  0  0  0  0  0  0  0  0  0
   68.5299   44.1395   56.1266 N   0  0  0  0  0  0  0  0  0  0  0  0
   67.8256   44.3123   55.1149 O   0  0  0  0  0  0  0  0  0  0  0  0
   69.1725   45.2334   56.6518 O   0  0  0  0  0  0  0  0  0  0  0  0
  1  2  2  0  0  0
  2  3  1  0  0  0
  2 15  1  0  0  0
  3  4  1  0  0  0
  4  5  2  0  0  0
  4 14  1  0  0  0
  5  6  1  0  0  0
  6  7  2  0  0  0
  7  8  1  0  0  0
  8  9  1  0  0  0
  8 14  2  0  0  0
  9 10  2  0  0  0
 10 11  1  0  0  0
 11 12  2  0  0  0
 12 13  1  0  0  0
 12 14  1  0  0  0
 15 16  2  0  0  0
 15 20  1  0  0  0
 16 17  1  0  0  0
 17 18  2  0  0  0
 18 21  1  0  0  0
 18 19  1  0  0  0
 21 22  2  0  0  0
 21 23  1  0  0  0
 19 20  2  0  0  0
M  CHG 1  21   1
M  CHG 1  23  -1
M  END
> <minimizedAffinity>
-7.65683

$$$$
cs_R4_output_folder/data/smiles/54.pdb


 26 28  0  0  0  0  0  0  0  0999 V2000
   69.5352   44.0416   56.9607 C   0  0  0  0  0  0  0  0  0  0  0  0
   70.7565   44.1453   57.5804 C   0  0  0  0  0  0  0  0  0  0  0  0
   71.3428   43.0715   58.2675 C   0  0  0  0  0  0  0  0  0  0  0  0
   70.6652   41.8732   58.3204 C   0  0  0  0  0  0  0  0  0  0  0  0
   69.4340   41.7388   57.7065 C   0  0  0  0  0  0  0  0  0  0  0  0
   68.8873   42.8088   57.0408 C   0  0  0  0  0  0  0  0  0  0  0  0
   69.0655   46.2964   56.8504 O   0  0  0  0  0  0  0  0  0  0  0  0
   68.9481   45.1821   56.2551 C   0  0  0  0  0  0  0  0  0  0  0  0
   68.2955   45.1334   55.0243 N   0  0  0  0  0  0  0  0  0  0  0  0
   67.7253   46.2623   54.3433 C   0  0  0  0  0  0  0  0  0  0  0  0
   68.6150   46.9605   53.4109 C   0  0  0  0  0  0  0  0  0  0  0  0
   69.2649   48.1212   53.8153 C   0  0  0  0  0  0  0  0  0  0  0  0
   70.1038   48.7774   52.9506 C   0  0  0  0  0  0  0  0  0  0  0  0
   70.3352   48.3257   51.6711 C   0  0  0  0  0  0  0  0  0  0  0  0
   69.6883   47.1978   51.3116 N   0  0  0  0  0  0  0  0  0  0  0  0
   68.8620   46.5297   52.1265 C   0  0  0  0  0  0  0  0  0  0  0  0
   68.5480   40.2314   57.7540 S   0  0  0  0  0  0  0  0  0  0  0  0
   69.5230   39.0851   57.9064 O   0  0  0  0  0  0  0  0  0  0  0  0
   67.7483   40.0576   56.5141 O   0  0  0  0  0  0  0  0  0  0  0  0
   67.5550   40.2396   59.1694 N   0  0  0  0  0  0  0  0  0  0  0  0
   66.6912   41.3193   59.2266 C   0  0  0  0  0  0  0  0  0  0  0  0
   66.1594   41.7433   60.5613 C   0  0  0  0  0  0  0  0  0  0  0  0
   67.1469   42.6500   61.2946 C   0  0  0  0  0  0  0  0  0  0  0  0
   68.4584   41.9318   61.5173 C   0  0  0  0  0  0  0  0  0  0  0  0
   68.2606   40.4404   61.5629 C   0  0  0  0  0  0  0  0  0  0  0  0
   68.2622   39.7531   60.2589 C   0  0  0  0  0  0  0  0  0  0  0  0
  7  8  2  0  0  0
  8  9  1  0  0  0
  8  1  1  0  0  0
  9 10  1  0  0  0
 10 11  1  0  0  0
 11 12  2  0  0  0
 11 16  1  0  0  0
 12 13  1  0  0  0
 13 14  2  0  0  0
 14 15  1  0  0  0
 15 16  2  0  0  0
  1  2  2  0  0  0
  1  6  1  0  0  0
  2  3  1  0  0  0
  3  4  2  0  0  0
  4  5  1  0  0  0
  5 17  1  0  0  0
  5  6  2  0  0  0
 17 18  2  0  0  0
 17 19  2  0  0  0
 17 20  1  0  0  0
 20 21  1  0  0  0
 20 26  1  0  0  0
 21 22  1  0  0  0
 22 23  1  0  0  0
 23 24  1  0  0  0
 24 25  1  0  0  0
 25 26  1  0  0  0
M  END
> <minimizedAffinity>
-7.35687

$$$$
cs_R4_output_folder/data/smiles/55.pdb


 20 22  0  0  0  0  0  0  0  0999 V2000
   69.4532   48.2145   53.8196 C   0  0  0  0  0  0  0  0  0  0  0  0
   69.3567   48.9233   54.9931 C   0  0  0  0  0  0  0  0  0  0  0  0
   68.7167   48.3716   56.0554 C   0  0  0  0  0  0  0  0  0  0  0  0
   68.1770   47.1252   55.9464 C   0  0  0  0  0  0  0  0  0  0  0  0
   68.2382   46.3436   54.7794 C   0  0  0  0  0  0  0  0  0  0  0  0
   68.8890   46.9265   53.7270 C   0  0  0  0  0  0  0  0  0  0  0  0
   70.2068   47.6929   51.1686 N   0  0  0  0  0  0  0  0  0  0  0  0
   70.2671   48.8645   52.4012 S   0  0  0  0  0  0  0  0  0  0  0  0
   71.7136   49.0989   52.7656 O   0  0  0  0  0  0  0  0  0  0  0  0
   69.6532   50.1730   51.9878 O   0  0  0  0  0  0  0  0  0  0  0  0
   67.6421   45.0823   54.7754 N   0  0  0  0  0  0  0  0  0  0  0  0
   67.9910   44.0233   55.6321 C   0  0  0  0  0  0  0  0  0  0  0  0
   67.2356   42.8695   55.6050 N   0  0  0  0  0  0  0  0  0  0  0  0
   67.4752   41.8225   56.3731 C   0  0  0  0  0  0  0  0  0  0  0  0
   68.5305   41.8597   57.2580 C   0  0  0  0  0  0  0  0  0  0  0  0
   69.3202   42.9992   57.3232 C   0  0  0  0  0  0  0  0  0  0  0  0
   68.9955   43.9987   56.5063 N   0  0  0  0  0  0  0  0  0  0  0  0
   70.4562   43.0609   58.2640 C   0  0  0  0  0  0  0  0  0  0  0  0
   71.3562   44.2969   58.1079 C   0  0  0  0  0  0  0  0  0  0  0  0
   71.8670   42.9416   57.6610 C   0  0  0  0  0  0  0  0  0  0  0  0
  7  8  1  0  0  0
  8  9  2  0  0  0
  8 10  2  0  0  0
  8  1  1  0  0  0
  1  2  2  0  0  0
  1  6  1  0  0  0
  2  3  1  0  0  0
  3  4  2  0  0  0
  4  5  1  0  0  0
  5 11  1  0  0  0
  5  6  2  0  0  0
 11 12  1  0  0  0
 12 13  2  0  0  0
 12 17  1  0  0  0
 13 14  1  0  0  0
 14 15  2  0  0  0
 15 16  1  0  0  0
 16 18  1  0  0  0
 16 17  2  0  0  0
 18 19  1  0  0  0
 18 20  1  0  0  0
 19 20  1  0  0  0
M  END
> <minimizedAffinity>
-8.11997

$$$$
cs_R4_output_folder/data/smiles/56.pdb


 27 30  0  0  0  0  0  0  0  0999 V2000
   71.3281   47.6010   59.0999 C   0  0  0  0  0  0  0  0  0  0  0  0
   71.5647   48.2368   60.1561 O   0  0  0  0  0  0  0  0  0  0  0  0
   71.0145   48.3541   57.9476 N   0  0  0  0  0  0  0  0  0  0  0  0
   71.0368   39.7112   58.5929 C   0  0  0  0  0  0  0  0  0  0  0  0
   70.9250   41.2043   58.5158 C   0  0  0  0  0  0  0  0  0  0  0  0
   70.0504   41.7888   57.6196 C   0  0  0  0  0  0  0  0  0  0  0  0
   69.9541   43.1621   57.5552 C   0  0  0  0  0  0  0  0  0  0  0  0
   70.7374   43.9447   58.3904 C   0  0  0  0  0  0  0  0  0  0  0  0
   70.6261   45.3399   58.3102 C   0  0  0  0  0  0  0  0  0  0  0  0
   71.3919   46.1438   59.1275 C   0  0  0  0  0  0  0  0  0  0  0  0
   72.2456   45.5026   60.0006 C   0  0  0  0  0  0  0  0  0  0  0  0
   72.3702   44.1407   60.0958 C   0  0  0  0  0  0  0  0  0  0  0  0
   71.5988   43.3290   59.2725 C   0  0  0  0  0  0  0  0  0  0  0  0
   71.6740   41.9830   59.3162 N   0  0  0  0  0  0  0  0  0  0  0  0
   70.9617   49.8160   57.9614 C   0  0  0  0  0  0  0  0  0  0  0  0
   71.9707   50.3915   57.0057 C   0  0  0  0  0  0  0  0  0  0  0  0
   71.5361   50.3075   55.5677 C   0  0  0  0  0  0  0  0  0  0  0  0
   70.1187   50.2054   55.4119 N   0  0  0  0  0  0  0  0  0  0  0  0
   69.4388   51.0201   56.3670 C   0  0  0  0  0  0  0  0  0  0  0  0
   69.5638   50.2786   57.7068 C   0  0  0  0  0  0  0  0  0  0  0  0
   69.6981   50.3447   54.0638 C   0  0  0  0  0  0  0  0  0  0  0  0
   69.4027   48.9993   53.5084 C   0  0  0  0  0  0  0  0  0  0  0  0
   68.7322   48.0595   54.2510 C   0  0  0  0  0  0  0  0  0  0  0  0
   68.4392   46.8066   53.7728 C   0  0  0  0  0  0  0  0  0  0  0  0
   68.8298   46.4693   52.5002 C   0  0  0  0  0  0  0  0  0  0  0  0
   69.5103   47.3826   51.7072 C   0  0  0  0  0  0  0  0  0  0  0  0
   69.7849   48.6306   52.2254 C   0  0  0  0  0  0  0  0  0  0  0  0
  4  5  1  0  0  0
  5  6  2  0  0  0
  5 14  1  0  0  0
  6  7  1  0  0  0
  7  8  2  0  0  0
  8  9  1  0  0  0
  8 13  1  0  0  0
  9 10  2  0  0  0
 10  1  1  0  0  0
 10 11  1  0  0  0
  1  2  2  0  0  0
  1  3  1  0  0  0
  3 15  1  0  0  0
 15 16  1  0  0  0
 15 20  1  0  0  0
 16 17  1  0  0  0
 17 18  1  0  0  0
 18 21  1  0  0  0
 18 19  1  0  0  0
 21 22  1  0  0  0
 22 23  2  0  0  0
 22 27  1  0  0  0
 23 24  1  0  0  0
 24 25  2  0  0  0
 25 26  1  0  0  0
 26 27  2  0  0  0
 19 20  1  0  0  0
 11 12  2  0  0  0
 12 13  1  0  0  0
 13 14  2  0  0  0
M  CHG 1  18   1
M  END
> <minimizedAffinity>
-6.77049

$$$$
cs_R4_output_folder/data/smiles/57.pdb


 22 23  0  0  0  0  0  0  0  0999 V2000
   70.9468   37.7385   60.0389 C   0  0  0  0  0  0  0  0  0  0  0  0
   68.5669   40.4240   57.6636 C   0  0  0  0  0  0  0  0  0  0  0  0
   69.8337   40.7778   58.0676 C   0  0  0  0  0  0  0  0  0  0  0  0
   70.6213   39.9148   58.8361 C   0  0  0  0  0  0  0  0  0  0  0  0
   70.1503   38.6898   59.2098 C   0  0  0  0  0  0  0  0  0  0  0  0
   68.8727   38.3219   58.8076 C   0  0  0  0  0  0  0  0  0  0  0  0
   68.1109   39.1826   58.0518 C   0  0  0  0  0  0  0  0  0  0  0  0
   67.2109   40.6599   55.2254 N   0  0  0  0  0  0  0  0  0  0  0  0
   67.5769   41.4983   56.7028 S   0  0  0  0  0  0  0  0  0  0  0  0
   68.3987   42.7335   56.4095 O   0  0  0  0  0  0  0  0  0  0  0  0
   66.3015   41.8490   57.4189 O   0  0  0  0  0  0  0  0  0  0  0  0
   71.2559   36.5884   59.2227 N   0  0  0  0  0  0  0  0  0  0  0  0
   72.1329   36.5457   58.1307 C   0  0  0  0  0  0  0  0  0  0  0  0
   72.7219   37.5772   57.7881 O   0  0  0  0  0  0  0  0  0  0  0  0
   72.3968   35.3693   57.3710 N   0  0  0  0  0  0  0  0  0  0  0  0
   73.2858   35.3328   56.2644 C   0  0  0  0  0  0  0  0  0  0  0  0
   72.8441   35.5980   54.9674 C   0  0  0  0  0  0  0  0  0  0  0  0
   73.6984   35.5675   53.8779 C   0  0  0  0  0  0  0  0  0  0  0  0
   75.0281   35.2658   54.0722 C   0  0  0  0  0  0  0  0  0  0  0  0
   75.9217   35.2180   53.0538 F   0  0  0  0  0  0  0  0  0  0  0  0
   75.4552   35.0048   55.3658 C   0  0  0  0  0  0  0  0  0  0  0  0
   74.6208   35.0306   56.4578 C   0  0  0  0  0  0  0  0  0  0  0  0
  8  9  1  0  0  0
  9 10  2  0  0  0
  9 11  2  0  0  0
  9  2  1  0  0  0
  2  3  2  0  0  0
  2  7  1  0  0  0
  3  4  1  0  0  0
  4  5  2  0  0  0
  5  1  1  0  0  0
  5  6  1  0  0  0
  1 12  1  0  0  0
 12 13  1  0  0  0
 13 14  2  0  0  0
 13 15  1  0  0  0
 15 16  1  0  0  0
 16 17  2  0  0  0
 16 22  1  0  0  0
 17 18  1  0  0  0
 18 19  2  0  0  0
 19 20  1  0  0  0
 19 21  1  0  0  0
 21 22  2  0  0  0
  6  7  2  0  0  0
M  END
> <minimizedAffinity>
-6.33770

$$$$
cs_R4_output_folder/data/smiles/58.pdb


 26 27  0  0  0  0  0  0  0  0999 V2000
   69.2943   43.9505   57.1189 C   0  0  0  0  0  0  0  0  0  0  0  0
   68.3864   44.1165   56.2932 O   0  0  0  0  0  0  0  0  0  0  0  0
   69.9993   45.1430   57.5617 N   0  0  0  0  0  0  0  0  0  0  0  0
   70.3734   40.0387   58.5559 C   0  0  0  0  0  0  0  0  0  0  0  0
   69.0696   40.3250   58.2239 C   0  0  0  0  0  0  0  0  0  0  0  0
   68.7058   41.5941   57.7552 C   0  0  0  0  0  0  0  0  0  0  0  0
   69.6091   42.6154   57.5989 C   0  0  0  0  0  0  0  0  0  0  0  0
   70.9326   42.3071   57.9414 C   0  0  0  0  0  0  0  0  0  0  0  0
   71.2881   41.0594   58.4014 C   0  0  0  0  0  0  0  0  0  0  0  0
   71.7969   38.9018   60.1763 C   0  0  0  0  0  0  0  0  0  0  0  0
   70.8065   38.7191   59.0527 C   0  0  0  0  0  0  0  0  0  0  0  0
   71.5752   38.0366   57.9151 C   0  0  0  0  0  0  0  0  0  0  0  0
   69.6995   37.8518   59.5374 C   0  0  0  0  0  0  0  0  0  0  0  0
   69.6612   46.4100   57.0723 C   0  0  0  0  0  0  0  0  0  0  0  0
   70.4978   47.6993   57.7462 S   0  0  0  0  0  0  0  0  0  0  0  0
   68.7120   46.7456   56.0907 C   0  0  0  0  0  0  0  0  0  0  0  0
   67.5500   47.1231   56.6110 O   0  0  0  0  0  0  0  0  0  0  0  0
   68.6910   46.7806   54.6585 C   0  0  0  0  0  0  0  0  0  0  0  0
   67.9571   45.9778   53.8307 C   0  0  0  0  0  0  0  0  0  0  0  0
   67.9878   46.0702   52.4331 C   0  0  0  0  0  0  0  0  0  0  0  0
   68.7854   47.0042   51.8362 C   0  0  0  0  0  0  0  0  0  0  0  0
   69.5410   47.8323   52.6135 C   0  0  0  0  0  0  0  0  0  0  0  0
   69.4905   47.7197   53.9861 C   0  0  0  0  0  0  0  0  0  0  0  0
   70.3635   48.7959   51.9708 N   0  0  0  0  0  0  0  0  0  0  0  0
   69.9851   49.3947   50.9627 O   0  0  0  0  0  0  0  0  0  0  0  0
   71.5996   49.0631   52.4838 O   0  0  0  0  0  0  0  0  0  0  0  0
 10 11  1  0  0  0
 11 12  1  0  0  0
 11 13  1  0  0  0
 11  4  1  0  0  0
  4  5  2  0  0  0
  4  9  1  0  0  0
  5  6  1  0  0  0
  6  7  2  0  0  0
  7  1  1  0  0  0
  7  8  1  0  0  0
  1  2  2  0  0  0
  1  3  1  0  0  0
  3 14  1  0  0  0
 14 15  2  0  0  0
 14 16  1  0  0  0
 16 17  2  0  0  0
 16 18  1  0  0  0
 18 19  2  0  0  0
 18 23  1  0  0  0
 19 20  1  0  0  0
 20 21  2  0  0  0
 21 22  1  0  0  0
 22 24  1  0  0  0
 22 23  2  0  0  0
 24 25  2  0  0  0
 24 26  1  0  0  0
  8  9  2  0  0  0
M  CHG 1  24   1
M  CHG 1  26  -1
M  END
> <minimizedAffinity>
-8.97911

$$$$
cs_R4_output_folder/data/smiles/59.pdb


 26 29  0  0  0  0  0  0  0  0999 V2000
   71.3835   47.2429   58.5345 C   0  0  0  0  0  0  0  0  0  0  0  0
   72.7080   47.6383   58.5448 C   0  0  0  0  0  0  0  0  0  0  0  0
   73.1259   48.6779   57.7292 C   0  0  0  0  0  0  0  0  0  0  0  0
   72.2714   49.3306   56.9096 C   0  0  0  0  0  0  0  0  0  0  0  0
   70.9224   48.9645   56.8654 C   0  0  0  0  0  0  0  0  0  0  0  0
   70.5308   47.9365   57.6783 C   0  0  0  0  0  0  0  0  0  0  0  0
   70.9376   46.1879   59.3529 N   0  0  0  0  0  0  0  0  0  0  0  0
   70.4397   44.6720   58.7063 S   0  0  0  0  0  0  0  0  0  0  0  0
   69.7022   43.8590   59.7290 O   0  0  0  0  0  0  0  0  0  0  0  0
   69.6086   44.8838   57.4721 O   0  0  0  0  0  0  0  0  0  0  0  0
   74.5001   44.2649   58.4038 C   0  0  0  0  0  0  0  0  0  0  0  0
   73.3246   43.7324   58.1792 C   0  0  0  0  0  0  0  0  0  0  0  0
   72.4565   42.6763   57.6998 C   0  0  0  0  0  0  0  0  0  0  0  0
   71.8692   43.7822   58.2437 C   0  0  0  0  0  0  0  0  0  0  0  0
   69.9895   49.7236   55.9584 C   0  0  0  0  0  0  0  0  0  0  0  0
   69.9675   49.1066   54.6445 C   0  0  0  0  0  0  0  0  0  0  0  0
   70.9054   49.5408   53.7525 N   0  0  0  0  0  0  0  0  0  0  0  0
   71.0783   49.1071   52.5435 N   0  0  0  0  0  0  0  0  0  0  0  0
   70.2489   48.1149   52.0965 C   0  0  0  0  0  0  0  0  0  0  0  0
   70.4429   47.7188   50.9224 O   0  0  0  0  0  0  0  0  0  0  0  0
   69.2709   47.6092   52.9200 C   0  0  0  0  0  0  0  0  0  0  0  0
   69.1420   48.1290   54.2191 C   0  0  0  0  0  0  0  0  0  0  0  0
   68.0859   47.5763   55.0173 C   0  0  0  0  0  0  0  0  0  0  0  0
   68.1348   46.0479   54.8884 C   0  0  0  0  0  0  0  0  0  0  0  0
   67.9446   45.5878   53.4878 C   0  0  0  0  0  0  0  0  0  0  0  0
   68.4011   46.5419   52.4226 C   0  0  0  0  0  0  0  0  0  0  0  0
 11 12  2  0  0  0
 12 13  1  0  0  0
 12 14  1  0  0  0
 13 14  2  0  0  0
 14  8  1  0  0  0
  8  9  2  0  0  0
  8 10  2  0  0  0
  8  7  1  0  0  0
  7  1  1  0  0  0
  1  2  2  0  0  0
  1  6  1  0  0  0
  2  3  1  0  0  0
  3  4  2  0  0  0
  4  5  1  0  0  0
  5 15  1  0  0  0
  5  6  2  0  0  0
 15 16  1  0  0  0
 16 17  2  0  0  0
 16 22  1  0  0  0
 17 18  1  0  0  0
 18 19  1  0  0  0
 19 20  2  0  0  0
 19 21  1  0  0  0
 21 22  2  0  0  0
 21 26  1  0  0  0
 22 23  1  0  0  0
 23 24  1  0  0  0
 24 25  1  0  0  0
 25 26  1  0  0  0
M  END
> <minimizedAffinity>
-8.96517

$$$$
cs_R4_output_folder/data/smiles/60.pdb


 26 29  0  0  0  0  0  0  0  0999 V2000
   68.4741   38.9006   57.7903 O   0  0  0  0  0  0  0  0  0  0  0  0
   69.2022   39.4703   58.6498 C   0  0  0  0  0  0  0  0  0  0  0  0
   68.9039   40.8133   59.1996 C   0  0  0  0  0  0  0  0  0  0  0  0
   69.8486   40.9727   60.3569 C   0  0  0  0  0  0  0  0  0  0  0  0
   69.7890   41.9762   61.2115 C   0  0  0  0  0  0  0  0  0  0  0  0
   70.7630   39.8601   60.2437 C   0  0  0  0  0  0  0  0  0  0  0  0
   71.7987   39.6840   60.9593 O   0  0  0  0  0  0  0  0  0  0  0  0
   70.3874   38.9458   59.2197 N   0  0  0  0  0  0  0  0  0  0  0  0
   71.0408   37.7490   58.8026 C   0  0  0  0  0  0  0  0  0  0  0  0
   71.8971   37.7031   57.7249 C   0  0  0  0  0  0  0  0  0  0  0  0
   72.5106   36.5045   57.3564 C   0  0  0  0  0  0  0  0  0  0  0  0
   72.2946   35.3288   58.0415 C   0  0  0  0  0  0  0  0  0  0  0  0
   71.4365   35.3757   59.1207 C   0  0  0  0  0  0  0  0  0  0  0  0
   71.1931   34.2228   59.8276 C   0  0  0  0  0  0  0  0  0  0  0  0
   70.3374   34.2543   60.9061 C   0  0  0  0  0  0  0  0  0  0  0  0
   69.7248   35.4591   61.2698 C   0  0  0  0  0  0  0  0  0  0  0  0
   69.9608   36.6118   60.5739 C   0  0  0  0  0  0  0  0  0  0  0  0
   70.8277   36.5667   59.4844 C   0  0  0  0  0  0  0  0  0  0  0  0
   70.6644   42.1754   62.3367 C   0  0  0  0  0  0  0  0  0  0  0  0
   71.8019   42.9751   62.1616 C   0  0  0  0  0  0  0  0  0  0  0  0
   72.6928   43.2541   63.1606 C   0  0  0  0  0  0  0  0  0  0  0  0
   72.4382   42.7094   64.3997 C   0  0  0  0  0  0  0  0  0  0  0  0
   73.3544   42.9992   65.4189 O   0  0  0  0  0  0  0  0  0  0  0  0
   71.3305   41.9125   64.6339 C   0  0  0  0  0  0  0  0  0  0  0  0
   71.1119   41.3842   65.8975 O   0  0  0  0  0  0  0  0  0  0  0  0
   70.4544   41.6558   63.5919 C   0  0  0  0  0  0  0  0  0  0  0  0
  1  2  2  0  0  0
  2  3  1  0  0  0
  2  8  1  0  0  0
  3  4  1  0  0  0
  4  5  2  0  0  0
  4  6  1  0  0  0
  5 19  1  0  0  0
 19 20  2  0  0  0
 19 26  1  0  0  0
 20 21  1  0  0  0
 21 22  2  0  0  0
 22 23  1  0  0  0
 22 24  1  0  0  0
 24 25  1  0  0  0
 24 26  2  0  0  0
  6  7  2  0  0  0
  6  8  1  0  0  0
  8  9  1  0  0  0
  9 10  2  0  0  0
  9 18  1  0  0  0
 10 11  1  0  0  0
 11 12  2  0  0  0
 12 13  1  0  0  0
 13 14  1  0  0  0
 13 18  2  0  0  0
 14 15  2  0  0  0
 15 16  1  0  0  0
 16 17  2  0  0  0
 17 18  1  0  0  0
M  END
> <minimizedAffinity>
-6.66557

$$$$
cs_R4_output_folder/data/smiles/61.pdb


 22 23  0  0  0  0  0  0  0  0999 V2000
   71.8291   50.2043   54.2336 N   0  0  0  0  0  0  0  0  0  0  0  0
   70.8091   51.2697   54.2322 C   0  0  0  0  0  0  0  0  0  0  0  0
   70.6827   51.7494   55.6078 C   0  0  0  0  0  0  0  0  0  0  0  0
   69.6411   51.1572   56.4628 C   0  0  0  0  0  0  0  0  0  0  0  0
   69.8735   50.0707   57.3223 C   0  0  0  0  0  0  0  0  0  0  0  0
   68.8503   49.5450   58.0821 C   0  0  0  0  0  0  0  0  0  0  0  0
   67.5686   50.0507   58.0394 C   0  0  0  0  0  0  0  0  0  0  0  0
   66.5698   49.5302   58.7884 F   0  0  0  0  0  0  0  0  0  0  0  0
   67.3367   51.1090   57.2032 C   0  0  0  0  0  0  0  0  0  0  0  0
   66.1074   51.6399   57.1249 F   0  0  0  0  0  0  0  0  0  0  0  0
   68.3547   51.6281   56.4492 C   0  0  0  0  0  0  0  0  0  0  0  0
   69.6763   50.8055   53.4487 C   0  0  0  0  0  0  0  0  0  0  0  0
   69.3561   49.3856   53.3708 C   0  0  0  0  0  0  0  0  0  0  0  0
   68.7739   48.7733   54.4617 C   0  0  0  0  0  0  0  0  0  0  0  0
   68.4368   47.4428   54.4536 C   0  0  0  0  0  0  0  0  0  0  0  0
   67.8663   46.8940   55.5572 F   0  0  0  0  0  0  0  0  0  0  0  0
   68.6797   46.6740   53.3255 C   0  0  0  0  0  0  0  0  0  0  0  0
   68.3538   45.3713   53.3076 F   0  0  0  0  0  0  0  0  0  0  0  0
   69.2594   47.2741   52.2323 C   0  0  0  0  0  0  0  0  0  0  0  0
   69.5184   46.5468   51.0913 F   0  0  0  0  0  0  0  0  0  0  0  0
   69.5893   48.6079   52.2617 C   0  0  0  0  0  0  0  0  0  0  0  0
   70.1579   49.1934   51.1555 F   0  0  0  0  0  0  0  0  0  0  0  0
  2  1  1  0  0  0
  2  3  1  0  0  0
  2 12  1  0  0  0
  3  4  1  0  0  0
  4  5  2  0  0  0
  4 11  1  0  0  0
  5  6  1  0  0  0
  6  7  2  0  0  0
  7  8  1  0  0  0
  7  9  1  0  0  0
  9 10  1  0  0  0
  9 11  2  0  0  0
 12 13  1  0  0  0
 13 14  2  0  0  0
 13 21  1  0  0  0
 14 15  1  0  0  0
 15 16  1  0  0  0
 15 17  2  0  0  0
 17 18  1  0  0  0
 17 19  1  0  0  0
 19 20  1  0  0  0
 19 21  2  0  0  0
 21 22  1  0  0  0
M  CHG 1   1   1
M  END
> <minimizedAffinity>
-7.57638

$$$$
cs_R4_output_folder/data/smiles/62.pdb


 21 23  0  0  0  0  0  0  0  0999 V2000
   70.9965   51.4111   54.6077 C   0  0  0  0  0  0  0  0  0  0  0  0
   70.6934   52.6928   55.0737 O   0  0  0  0  0  0  0  0  0  0  0  0
   70.0127   52.9571   56.2497 C   0  0  0  0  0  0  0  0  0  0  0  0
   70.1763   54.1244   56.7142 O   0  0  0  0  0  0  0  0  0  0  0  0
   71.0465   51.2257   58.3088 C   0  0  0  0  0  0  0  0  0  0  0  0
   69.6233   51.1368   57.9019 C   0  0  0  0  0  0  0  0  0  0  0  0
   68.8177   50.2296   58.5142 N   0  0  0  0  0  0  0  0  0  0  0  0
   67.5189   50.0981   58.1936 C   0  0  0  0  0  0  0  0  0  0  0  0
   67.0166   50.9228   57.2085 C   0  0  0  0  0  0  0  0  0  0  0  0
   67.8352   51.8623   56.5701 C   0  0  0  0  0  0  0  0  0  0  0  0
   69.1645   51.9764   56.9182 C   0  0  0  0  0  0  0  0  0  0  0  0
   69.8329   50.9941   53.6942 C   0  0  0  0  0  0  0  0  0  0  0  0
   70.1071   49.5797   53.2814 C   0  0  0  0  0  0  0  0  0  0  0  0
   69.6249   49.3251   51.8752 C   0  0  0  0  0  0  0  0  0  0  0  0
   69.7330   47.7876   51.8602 C   0  0  0  0  0  0  0  0  0  0  0  0
   69.1947   47.4878   53.2411 C   0  0  0  0  0  0  0  0  0  0  0  0
   68.5673   46.3210   53.6302 C   0  0  0  0  0  0  0  0  0  0  0  0
   68.1263   46.2208   54.9286 C   0  0  0  0  0  0  0  0  0  0  0  0
   68.3376   47.2985   55.7748 C   0  0  0  0  0  0  0  0  0  0  0  0
   68.9635   48.4505   55.3739 C   0  0  0  0  0  0  0  0  0  0  0  0
   69.4138   48.5671   54.0675 C   0  0  0  0  0  0  0  0  0  0  0  0
  5  6  1  0  0  0
  6  7  2  0  0  0
  6 11  1  0  0  0
  7  8  1  0  0  0
  8  9  2  0  0  0
  9 10  1  0  0  0
 10 11  2  0  0  0
 11  3  1  0  0  0
  3  4  2  0  0  0
  3  2  1  0  0  0
  2  1  1  0  0  0
  1 12  1  0  0  0
 13 12  1  0  0  0
 13 14  1  0  0  0
 13 21  1  0  0  0
 14 15  1  0  0  0
 15 16  1  0  0  0
 16 17  1  0  0  0
 16 21  2  0  0  0
 17 18  2  0  0  0
 18 19  1  0  0  0
 19 20  2  0  0  0
 20 21  1  0  0  0
M  END
> <minimizedAffinity>
-7.11593

$$$$
cs_R4_output_folder/data/smiles/63.pdb


 25 28  0  0  0  0  0  0  0  0999 V2000
   74.4414   50.4169   56.1921 C   0  0  0  0  0  0  0  0  0  0  0  0
   73.4811   49.7273   56.8993 C   0  0  0  0  0  0  0  0  0  0  0  0
   72.1332   49.7286   56.5235 C   0  0  0  0  0  0  0  0  0  0  0  0
   71.7170   50.4254   55.4228 C   0  0  0  0  0  0  0  0  0  0  0  0
   72.7222   51.1157   54.7277 C   0  0  0  0  0  0  0  0  0  0  0  0
   74.0047   51.0928   55.1161 N   0  0  0  0  0  0  0  0  0  0  0  0
   76.3838   49.3458   54.6400 O   0  0  0  0  0  0  0  0  0  0  0  0
   76.8200   49.8444   55.7095 C   0  0  0  0  0  0  0  0  0  0  0  0
   75.8163   50.4252   56.5659 N   0  0  0  0  0  0  0  0  0  0  0  0
   78.2290   49.8391   56.0635 C   0  0  0  0  0  0  0  0  0  0  0  0
   79.2432   49.1227   55.6301 C   0  0  0  0  0  0  0  0  0  0  0  0
   80.1837   49.7995   56.5238 C   0  0  0  0  0  0  0  0  0  0  0  0
   79.1523   50.5209   56.9559 C   0  0  0  0  0  0  0  0  0  0  0  0
   70.3408   50.5042   54.8993 C   0  0  0  0  0  0  0  0  0  0  0  0
   70.0037   49.5182   53.8688 C   0  0  0  0  0  0  0  0  0  0  0  0
   70.5724   49.5663   52.6225 N   0  0  0  0  0  0  0  0  0  0  0  0
   70.3219   48.6874   51.6808 N   0  0  0  0  0  0  0  0  0  0  0  0
   69.4779   47.6542   51.8616 C   0  0  0  0  0  0  0  0  0  0  0  0
   69.2299   46.8050   50.9684 O   0  0  0  0  0  0  0  0  0  0  0  0
   68.8727   47.5373   53.0739 C   0  0  0  0  0  0  0  0  0  0  0  0
   69.1410   48.4813   54.0844 C   0  0  0  0  0  0  0  0  0  0  0  0
   68.4018   48.2634   55.3321 C   0  0  0  0  0  0  0  0  0  0  0  0
   68.6184   46.8343   55.8241 C   0  0  0  0  0  0  0  0  0  0  0  0
   68.4877   45.8296   54.7205 C   0  0  0  0  0  0  0  0  0  0  0  0
   67.9247   46.4601   53.4509 C   0  0  0  0  0  0  0  0  0  0  0  0
  7  8  2  0  0  0
  8  9  1  0  0  0
  8 10  1  0  0  0
  9  1  1  0  0  0
  1  2  2  0  0  0
  1  6  1  0  0  0
  2  3  1  0  0  0
  3  4  2  0  0  0
  4 14  1  0  0  0
  4  5  1  0  0  0
 14 15  1  0  0  0
 15 16  2  0  0  0
 15 21  1  0  0  0
 16 17  1  0  0  0
 17 18  1  0  0  0
 18 19  2  0  0  0
 18 20  1  0  0  0
 20 21  2  0  0  0
 20 25  1  0  0  0
 21 22  1  0  0  0
 22 23  1  0  0  0
 23 24  1  0  0  0
 24 25  1  0  0  0
  5  6  2  0  0  0
 10 11  2  0  0  0
 10 13  1  0  0  0
 11 12  1  0  0  0
 12 13  2  0  0  0
M  END
> <minimizedAffinity>
-8.50706

$$$$
cs_R4_output_folder/data/smiles/64.pdb


 25 27  0  0  0  0  0  0  0  0999 V2000
   70.4720   46.2654   58.3252 C   0  0  0  0  0  0  0  0  0  0  0  0
   71.6128   47.0056   58.7440 C   0  0  0  0  0  0  0  0  0  0  0  0
   71.9312   48.2545   58.2915 C   0  0  0  0  0  0  0  0  0  0  0  0
   71.0280   48.8397   57.3300 C   0  0  0  0  0  0  0  0  0  0  0  0
   69.9834   48.1120   56.9746 C   0  0  0  0  0  0  0  0  0  0  0  0
   69.6077   46.8924   57.3427 C   0  0  0  0  0  0  0  0  0  0  0  0
   70.6065   43.8858   58.6956 C   0  0  0  0  0  0  0  0  0  0  0  0
   71.5238   43.9106   57.8641 O   0  0  0  0  0  0  0  0  0  0  0  0
   70.0226   45.1585   59.1121 N   0  0  0  0  0  0  0  0  0  0  0  0
   70.1066   42.5655   59.2061 C   0  0  0  0  0  0  0  0  0  0  0  0
   69.9770   41.8549   57.7167 C   0  0  0  0  0  0  0  0  0  0  0  0
   67.7666   42.2941   56.6113 C   0  0  0  0  0  0  0  0  0  0  0  0
   68.8564   42.0790   57.1683 C   0  0  0  0  0  0  0  0  0  0  0  0
   68.9629   48.9120   56.1146 C   0  0  0  0  0  0  0  0  0  0  0  0
   69.3807   48.7490   54.6670 C   0  0  0  0  0  0  0  0  0  0  0  0
   70.2484   49.5626   54.0763 N   0  0  0  0  0  0  0  0  0  0  0  0
   70.7105   49.5972   52.8814 N   0  0  0  0  0  0  0  0  0  0  0  0
   70.2136   48.5157   51.9563 C   0  0  0  0  0  0  0  0  0  0  0  0
   70.6849   48.5501   50.8372 O   0  0  0  0  0  0  0  0  0  0  0  0
   69.3523   47.7578   52.5975 C   0  0  0  0  0  0  0  0  0  0  0  0
   68.8161   46.6720   51.7082 C   0  0  0  0  0  0  0  0  0  0  0  0
   67.9299   45.8320   52.2576 C   0  0  0  0  0  0  0  0  0  0  0  0
   67.4639   45.8216   53.5229 C   0  0  0  0  0  0  0  0  0  0  0  0
   67.9744   46.8380   54.3555 C   0  0  0  0  0  0  0  0  0  0  0  0
   68.8633   47.7580   53.8921 C   0  0  0  0  0  0  0  0  0  0  0  0
 12 13  3  0  0  0
 13 11  1  0  0  0
 11 10  1  0  0  0
 10  7  1  0  0  0
  7  8  2  0  0  0
  7  9  1  0  0  0
  9  1  1  0  0  0
  1  2  2  0  0  0
  1  6  1  0  0  0
  2  3  1  0  0  0
  3  4  2  0  0  0
  4  5  1  0  0  0
  5 14  1  0  0  0
  5  6  2  0  0  0
 14 15  1  0  0  0
 15 16  2  0  0  0
 15 25  1  0  0  0
 16 17  1  0  0  0
 17 18  1  0  0  0
 18 19  2  0  0  0
 18 20  1  0  0  0
 20 21  1  0  0  0
 20 25  2  0  0  0
 21 22  2  0  0  0
 22 23  1  0  0  0
 23 24  2  0  0  0
 24 25  1  0  0  0
M  END
> <minimizedAffinity>
-9.11490

$$$$
cs_R4_output_folder/data/smiles/65.pdb


 21 22  0  0  0  0  0  0  0  0999 V2000
   69.2700   48.0350   54.4482 C   0  0  0  0  0  0  0  0  0  0  0  0
   68.3960   47.1060   54.9492 C   0  0  0  0  0  0  0  0  0  0  0  0
   67.7550   46.1765   54.1576 C   0  0  0  0  0  0  0  0  0  0  0  0
   68.0100   46.1855   52.7957 C   0  0  0  0  0  0  0  0  0  0  0  0
   68.8826   47.1099   52.2850 C   0  0  0  0  0  0  0  0  0  0  0  0
   69.5145   48.0322   53.0940 C   0  0  0  0  0  0  0  0  0  0  0  0
   70.3888   48.9363   52.4623 N   0  0  0  0  0  0  0  0  0  0  0  0
   70.0956   49.4098   51.3634 O   0  0  0  0  0  0  0  0  0  0  0  0
   71.5536   49.2838   53.0682 O   0  0  0  0  0  0  0  0  0  0  0  0
   67.3810   45.2422   51.8906 C   0  0  0  0  0  0  0  0  0  0  0  0
   66.7284   45.6538   50.9184 O   0  0  0  0  0  0  0  0  0  0  0  0
   69.8804   48.9316   55.2598 O   0  0  0  0  0  0  0  0  0  0  0  0
   69.3107   49.6425   56.3139 C   0  0  0  0  0  0  0  0  0  0  0  0
   71.3440   50.1606   58.2652 C   0  0  0  0  0  0  0  0  0  0  0  0
   70.8661   51.2717   57.3633 C   0  0  0  0  0  0  0  0  0  0  0  0
   71.4211   52.5363   57.4951 C   0  0  0  0  0  0  0  0  0  0  0  0
   71.0167   53.5818   56.6932 C   0  0  0  0  0  0  0  0  0  0  0  0
   70.0408   53.3016   55.7629 C   0  0  0  0  0  0  0  0  0  0  0  0
   69.4733   52.0541   55.6130 C   0  0  0  0  0  0  0  0  0  0  0  0
   68.4061   51.8165   54.5738 C   0  0  0  0  0  0  0  0  0  0  0  0
   69.8919   51.0274   56.4233 C   0  0  0  0  0  0  0  0  0  0  0  0
 14 15  1  0  0  0
 15 16  2  0  0  0
 15 21  1  0  0  0
 16 17  1  0  0  0
 17 18  2  0  0  0
 18 19  1  0  0  0
 19 20  1  0  0  0
 19 21  2  0  0  0
 21 13  1  0  0  0
 13 12  1  0  0  0
 12  1  1  0  0  0
  1  2  2  0  0  0
  1  6  1  0  0  0
  2  3  1  0  0  0
  3  4  2  0  0  0
  4 10  1  0  0  0
  4  5  1  0  0  0
 10 11  2  0  0  0
  5  6  2  0  0  0
  6  7  1  0  0  0
  7  8  2  0  0  0
  7  9  1  0  0  0
M  CHG 1   7   1
M  CHG 1   9  -1
M  END
> <minimizedAffinity>
-7.63077

$$$$
cs_R4_output_folder/data/smiles/66.pdb


 25 27  0  0  0  0  0  0  0  0999 V2000
   69.9379   42.1508   58.2671 C   0  0  0  0  0  0  0  0  0  0  0  0
   68.8075   41.7416   57.3845 C   0  0  0  0  0  0  0  0  0  0  0  0
   68.2091   42.5710   56.4545 C   0  0  0  0  0  0  0  0  0  0  0  0
   67.2248   41.8058   55.8665 C   0  0  0  0  0  0  0  0  0  0  0  0
   67.2693   40.5925   56.4460 N   0  0  0  0  0  0  0  0  0  0  0  0
   68.1984   40.5232   57.3521 N   0  0  0  0  0  0  0  0  0  0  0  0
   68.6200   39.4687   58.2189 C   0  0  0  0  0  0  0  0  0  0  0  0
   69.8887   38.9278   58.1566 C   0  0  0  0  0  0  0  0  0  0  0  0
   70.3199   37.9147   58.9811 C   0  0  0  0  0  0  0  0  0  0  0  0
   69.4631   37.3883   59.9288 C   0  0  0  0  0  0  0  0  0  0  0  0
   69.9981   36.0914   60.9914 Cl  0  0  0  0  0  0  0  0  0  0  0  0
   68.1927   37.9213   59.9986 C   0  0  0  0  0  0  0  0  0  0  0  0
   67.7579   38.9398   59.1715 C   0  0  0  0  0  0  0  0  0  0  0  0
   68.5818   43.9533   56.1982 C   0  0  0  0  0  0  0  0  0  0  0  0
   69.4155   44.5077   56.9448 O   0  0  0  0  0  0  0  0  0  0  0  0
   68.0468   44.7235   55.1302 N   0  0  0  0  0  0  0  0  0  0  0  0
   68.4126   46.0746   54.8837 C   0  0  0  0  0  0  0  0  0  0  0  0
   68.2765   47.0092   55.8906 C   0  0  0  0  0  0  0  0  0  0  0  0
   68.6097   48.3315   55.7406 C   0  0  0  0  0  0  0  0  0  0  0  0
   69.1126   48.7800   54.5154 C   0  0  0  0  0  0  0  0  0  0  0  0
   69.2570   47.8655   53.4965 C   0  0  0  0  0  0  0  0  0  0  0  0
   68.9078   46.5366   53.6916 C   0  0  0  0  0  0  0  0  0  0  0  0
   69.7857   48.3154   52.2183 C   0  0  0  0  0  0  0  0  0  0  0  0
   70.0230   47.4328   51.1474 N   0  0  0  0  0  0  0  0  0  0  0  0
   70.0530   49.5410   52.0321 O   0  0  0  0  0  0  0  0  0  0  0  0
  1  2  1  0  0  0
  2  3  2  0  0  0
  2  6  1  0  0  0
  3 14  1  0  0  0
  3  4  1  0  0  0
 14 15  2  0  0  0
 14 16  1  0  0  0
 16 17  1  0  0  0
 17 18  2  0  0  0
 17 22  1  0  0  0
 18 19  1  0  0  0
 19 20  2  0  0  0
 20 21  1  0  0  0
 21 23  1  0  0  0
 21 22  2  0  0  0
 23 24  1  0  0  0
 23 25  2  0  0  0
  4  5  2  0  0  0
  5  6  1  0  0  0
  6  7  1  0  0  0
  7  8  2  0  0  0
  7 13  1  0  0  0
  8  9  1  0  0  0
  9 10  2  0  0  0
 10 11  1  0  0  0
 10 12  1  0  0  0
 12 13  2  0  0  0
M  END
> <minimizedAffinity>
-8.83714

$$$$
cs_R4_output_folder/data/smiles/67.pdb


 22 25  0  0  0  0  0  0  0  0999 V2000
   70.0809   49.5907   53.6370 C   0  0  0  0  0  0  0  0  0  0  0  0
   70.1757   50.1599   52.4267 N   0  0  0  0  0  0  0  0  0  0  0  0
   69.6808   49.3498   51.5083 N   0  0  0  0  0  0  0  0  0  0  0  0
   69.2393   48.2147   52.0682 C   0  0  0  0  0  0  0  0  0  0  0  0
   68.6483   47.0677   51.5792 C   0  0  0  0  0  0  0  0  0  0  0  0
   68.2995   46.0499   52.4372 C   0  0  0  0  0  0  0  0  0  0  0  0
   68.5377   46.1652   53.7980 C   0  0  0  0  0  0  0  0  0  0  0  0
   69.1361   47.3372   54.2535 C   0  0  0  0  0  0  0  0  0  0  0  0
   69.4937   48.3652   53.4312 C   0  0  0  0  0  0  0  0  0  0  0  0
   68.1864   45.1202   54.7312 C   0  0  0  0  0  0  0  0  0  0  0  0
   68.6285   44.9914   55.9842 N   0  0  0  0  0  0  0  0  0  0  0  0
   68.0812   43.8959   56.5369 N   0  0  0  0  0  0  0  0  0  0  0  0
   67.3049   43.3717   55.5985 N   0  0  0  0  0  0  0  0  0  0  0  0
   67.3589   44.1035   54.4958 N   0  0  0  0  0  0  0  0  0  0  0  0
   70.5198   50.1734   54.8969 C   0  0  0  0  0  0  0  0  0  0  0  0
   69.5865   51.2253   55.4443 C   0  0  0  0  0  0  0  0  0  0  0  0
   66.6622   49.6984   58.0556 C   0  0  0  0  0  0  0  0  0  0  0  0
   66.5520   50.9793   57.5694 C   0  0  0  0  0  0  0  0  0  0  0  0
   67.5085   51.4633   56.7215 C   0  0  0  0  0  0  0  0  0  0  0  0
   68.5739   50.6803   56.3547 C   0  0  0  0  0  0  0  0  0  0  0  0
   68.6902   49.4080   56.8330 C   0  0  0  0  0  0  0  0  0  0  0  0
   67.7282   48.9141   57.6883 C   0  0  0  0  0  0  0  0  0  0  0  0
 17 18  2  0  0  0
 17 22  1  0  0  0
 18 19  1  0  0  0
 19 20  2  0  0  0
 20 16  1  0  0  0
 20 21  1  0  0  0
 16 15  1  0  0  0
 15  1  1  0  0  0
  1  2  2  0  0  0
  1  9  1  0  0  0
  2  3  1  0  0  0
  3  4  1  0  0  0
  4  5  1  0  0  0
  4  9  2  0  0  0
  5  6  2  0  0  0
  6  7  1  0  0  0
  7 10  1  0  0  0
  7  8  2  0  0  0
 10 11  2  0  0  0
 10 14  1  0  0  0
 11 12  1  0  0  0
 12 13  2  0  0  0
 13 14  1  0  0  0
  8  9  1  0  0  0
 21 22  2  0  0  0
M  END
> <minimizedAffinity>
-8.88404

$$$$
cs_R4_output_folder/data/smiles/68.pdb


 20 22  0  0  0  0  0  0  0  0999 V2000
   70.2395   47.7916   57.9788 C   0  0  0  0  0  0  0  0  0  0  0  0
   67.8513   47.1188   56.6539 O   0  0  0  0  0  0  0  0  0  0  0  0
   68.8802   47.2864   55.9163 C   0  0  0  0  0  0  0  0  0  0  0  0
   70.0803   47.6263   56.5575 N   0  0  0  0  0  0  0  0  0  0  0  0
   68.7556   47.1168   54.4566 C   0  0  0  0  0  0  0  0  0  0  0  0
   68.0156   46.0547   53.9757 C   0  0  0  0  0  0  0  0  0  0  0  0
   67.8801   45.8649   52.5944 C   0  0  0  0  0  0  0  0  0  0  0  0
   68.4808   46.7345   51.7017 C   0  0  0  0  0  0  0  0  0  0  0  0
   69.2176   47.7936   52.1621 C   0  0  0  0  0  0  0  0  0  0  0  0
   69.3281   47.9450   53.5345 C   0  0  0  0  0  0  0  0  0  0  0  0
   70.7729   49.1545   58.2584 C   0  0  0  0  0  0  0  0  0  0  0  0
   71.0290   49.9294   57.0734 N   0  0  0  0  0  0  0  0  0  0  0  0
   72.2963   50.1085   56.4152 C   0  0  0  0  0  0  0  0  0  0  0  0
   71.9646   50.6382   55.0635 C   0  0  0  0  0  0  0  0  0  0  0  0
   70.5605   51.0885   55.1881 C   0  0  0  0  0  0  0  0  0  0  0  0
   69.7517   51.8382   54.3248 C   0  0  0  0  0  0  0  0  0  0  0  0
   68.4540   52.1430   54.6518 C   0  0  0  0  0  0  0  0  0  0  0  0
   67.9141   51.7167   55.8414 C   0  0  0  0  0  0  0  0  0  0  0  0
   68.7168   50.9870   56.6702 C   0  0  0  0  0  0  0  0  0  0  0  0
   70.0483   50.6578   56.3665 C   0  0  0  0  0  0  0  0  0  0  0  0
  2  3  2  0  0  0
  3  4  1  0  0  0
  3  5  1  0  0  0
  4  1  1  0  0  0
  1 11  1  0  0  0
 11 12  1  0  0  0
 12 13  1  0  0  0
 12 20  1  0  0  0
 13 14  1  0  0  0
 14 15  1  0  0  0
 15 16  1  0  0  0
 15 20  2  0  0  0
 16 17  2  0  0  0
 17 18  1  0  0  0
 18 19  2  0  0  0
 19 20  1  0  0  0
  5  6  2  0  0  0
  5 10  1  0  0  0
  6  7  1  0  0  0
  7  8  2  0  0  0
  8  9  1  0  0  0
  9 10  2  0  0  0
M  END
> <minimizedAffinity>
-6.40816

$$$$
cs_R4_output_folder/data/smiles/69.pdb


 26 29  0  0  0  0  0  0  0  0999 V2000
   73.8765   50.2552   56.5835 C   0  0  0  0  0  0  0  0  0  0  0  0
   73.2167   51.1750   55.7824 C   0  0  0  0  0  0  0  0  0  0  0  0
   71.8613   51.1761   55.5894 C   0  0  0  0  0  0  0  0  0  0  0  0
   71.1040   50.1886   56.2416 C   0  0  0  0  0  0  0  0  0  0  0  0
   71.7784   49.2931   57.0253 C   0  0  0  0  0  0  0  0  0  0  0  0
   73.1278   49.3214   57.1949 N   0  0  0  0  0  0  0  0  0  0  0  0
   75.6074   49.3835   54.6964 O   0  0  0  0  0  0  0  0  0  0  0  0
   76.1813   49.8638   55.7366 C   0  0  0  0  0  0  0  0  0  0  0  0
   75.2898   50.3268   56.7321 N   0  0  0  0  0  0  0  0  0  0  0  0
   77.6281   49.9052   55.8333 C   0  0  0  0  0  0  0  0  0  0  0  0
   78.4833   49.0569   55.3129 C   0  0  0  0  0  0  0  0  0  0  0  0
   79.8423   49.4367   55.6279 C   0  0  0  0  0  0  0  0  0  0  0  0
   79.8173   50.5308   56.3504 C   0  0  0  0  0  0  0  0  0  0  0  0
   78.4068   50.9267   56.5455 C   0  0  0  0  0  0  0  0  0  0  0  0
   69.6200   50.1610   56.0005 C   0  0  0  0  0  0  0  0  0  0  0  0
   69.1048   48.8273   55.6583 C   0  0  0  0  0  0  0  0  0  0  0  0
   68.6089   48.0121   56.6207 N   0  0  0  0  0  0  0  0  0  0  0  0
   68.1682   46.7951   56.4305 N   0  0  0  0  0  0  0  0  0  0  0  0
   68.1996   46.2887   55.1935 C   0  0  0  0  0  0  0  0  0  0  0  0
   67.7913   45.1175   54.9334 O   0  0  0  0  0  0  0  0  0  0  0  0
   68.7035   47.0830   54.1463 C   0  0  0  0  0  0  0  0  0  0  0  0
   69.1605   48.3587   54.3536 C   0  0  0  0  0  0  0  0  0  0  0  0
   69.6021   49.1987   53.2523 C   0  0  0  0  0  0  0  0  0  0  0  0
   69.7692   48.5205   51.9552 C   0  0  0  0  0  0  0  0  0  0  0  0
   69.2509   47.1631   51.8349 C   0  0  0  0  0  0  0  0  0  0  0  0
   68.7521   46.4598   52.8114 C   0  0  0  0  0  0  0  0  0  0  0  0
  7  8  2  0  0  0
  8  9  1  0  0  0
  8 10  1  0  0  0
  9  1  1  0  0  0
  1  2  2  0  0  0
  1  6  1  0  0  0
  2  3  1  0  0  0
  3  4  2  0  0  0
  4 15  1  0  0  0
  4  5  1  0  0  0
 15 16  1  0  0  0
 16 17  2  0  0  0
 16 22  1  0  0  0
 17 18  1  0  0  0
 18 19  1  0  0  0
 19 20  2  0  0  0
 19 21  1  0  0  0
 21 22  2  0  0  0
 21 26  1  0  0  0
 22 23  1  0  0  0
 23 24  1  0  0  0
 24 25  1  0  0  0
 25 26  2  0  0  0
  5  6  2  0  0  0
 10 11  2  0  0  0
 10 14  1  0  0  0
 11 12  1  0  0  0
 12 13  2  0  0  0
 13 14  1  0  0  0
M  END
> <minimizedAffinity>
-9.09541

$$$$
cs_R4_output_folder/data/smiles/70.pdb


 27 30  0  0  0  0  0  0  0  0999 V2000
   70.4219   51.5209   53.1687 O   0  0  0  0  0  0  0  0  0  0  0  0
   70.8263   50.3364   53.5004 C   0  0  0  0  0  0  0  0  0  0  0  0
   71.9856   50.3047   54.2838 N   0  0  0  0  0  0  0  0  0  0  0  0
   70.0715   49.2246   53.0458 C   0  0  0  0  0  0  0  0  0  0  0  0
   69.6132   48.2807   53.9815 C   0  0  0  0  0  0  0  0  0  0  0  0
   68.8758   47.1737   53.6275 C   0  0  0  0  0  0  0  0  0  0  0  0
   68.4309   46.2526   54.5566 C   0  0  0  0  0  0  0  0  0  0  0  0
   67.6945   45.1525   54.1765 C   0  0  0  0  0  0  0  0  0  0  0  0
   67.3770   44.9354   52.8538 C   0  0  0  0  0  0  0  0  0  0  0  0
   67.8103   45.8403   51.9156 C   0  0  0  0  0  0  0  0  0  0  0  0
   68.5543   46.9477   52.3128 C   0  0  0  0  0  0  0  0  0  0  0  0
   68.9850   47.8396   51.4112 N   0  0  0  0  0  0  0  0  0  0  0  0
   69.7110   48.9287   51.7631 C   0  0  0  0  0  0  0  0  0  0  0  0
   70.0605   49.6922   50.8505 O   0  0  0  0  0  0  0  0  0  0  0  0
   72.6619   51.5356   54.6798 C   0  0  0  0  0  0  0  0  0  0  0  0
   71.8327   52.2981   55.6897 C   0  0  0  0  0  0  0  0  0  0  0  0
   72.1220   51.8372   57.0821 C   0  0  0  0  0  0  0  0  0  0  0  0
   72.5175   50.4242   57.0906 N   0  0  0  0  0  0  0  0  0  0  0  0
   73.8659   50.3659   56.5323 C   0  0  0  0  0  0  0  0  0  0  0  0
   74.0006   51.1974   55.2966 C   0  0  0  0  0  0  0  0  0  0  0  0
   72.5608   50.0154   58.4868 C   0  0  0  0  0  0  0  0  0  0  0  0
   71.9749   48.6584   58.6294 C   0  0  0  0  0  0  0  0  0  0  0  0
   72.3435   47.7501   59.5710 C   0  0  0  0  0  0  0  0  0  0  0  0
   71.7350   46.4937   59.6280 C   0  0  0  0  0  0  0  0  0  0  0  0
   70.7572   46.1722   58.7276 C   0  0  0  0  0  0  0  0  0  0  0  0
   70.3693   47.0849   57.7623 C   0  0  0  0  0  0  0  0  0  0  0  0
   70.9787   48.3195   57.7185 C   0  0  0  0  0  0  0  0  0  0  0  0
  1  2  2  0  0  0
  2  3  1  0  0  0
  2  4  1  0  0  0
  3 15  1  0  0  0
 15 16  1  0  0  0
 15 20  1  0  0  0
 16 17  1  0  0  0
 17 18  1  0  0  0
 18 21  1  0  0  0
 18 19  1  0  0  0
 21 22  1  0  0  0
 22 23  2  0  0  0
 22 27  1  0  0  0
 23 24  1  0  0  0
 24 25  2  0  0  0
 25 26  1  0  0  0
 26 27  2  0  0  0
 19 20  1  0  0  0
  4  5  2  0  0  0
  4 13  1  0  0  0
  5  6  1  0  0  0
  6  7  2  0  0  0
  6 11  1  0  0  0
  7  8  1  0  0  0
  8  9  2  0  0  0
  9 10  1  0  0  0
 10 11  2  0  0  0
 11 12  1  0  0  0
 12 13  1  0  0  0
 13 14  2  0  0  0
M  CHG 1  18   1
M  END
> <minimizedAffinity>
-8.12834

$$$$
cs_R4_output_folder/data/smiles/71.pdb


 22 23  0  0  0  0  0  0  0  0999 V2000
   67.8083   47.5774   56.8919 N   0  0  0  0  0  0  0  0  0  0  0  0
   68.6998   46.7979   56.1447 C   0  0  0  0  0  0  0  0  0  0  0  0
   69.5566   46.0681   56.8104 N   0  0  0  0  0  0  0  0  0  0  0  0
   68.6613   46.8109   54.6930 C   0  0  0  0  0  0  0  0  0  0  0  0
   67.9886   45.8903   53.9314 C   0  0  0  0  0  0  0  0  0  0  0  0
   67.9711   45.9305   52.5451 C   0  0  0  0  0  0  0  0  0  0  0  0
   68.6531   46.9270   51.9072 C   0  0  0  0  0  0  0  0  0  0  0  0
   69.3464   47.8770   52.6351 C   0  0  0  0  0  0  0  0  0  0  0  0
   69.3442   47.8104   54.0343 C   0  0  0  0  0  0  0  0  0  0  0  0
   70.0578   48.9180   51.9821 N   0  0  0  0  0  0  0  0  0  0  0  0
   70.5721   48.7352   50.8713 O   0  0  0  0  0  0  0  0  0  0  0  0
   70.1896   50.1475   52.5723 O   0  0  0  0  0  0  0  0  0  0  0  0
   69.5812   46.0660   58.1868 O   0  0  0  0  0  0  0  0  0  0  0  0
   70.8175   45.8493   58.7951 C   0  0  0  0  0  0  0  0  0  0  0  0
   71.1744   46.5895   59.7469 O   0  0  0  0  0  0  0  0  0  0  0  0
   71.7056   44.7666   58.3371 C   0  0  0  0  0  0  0  0  0  0  0  0
   73.0157   44.9783   58.0225 C   0  0  0  0  0  0  0  0  0  0  0  0
   73.8063   43.9447   57.6012 C   0  0  0  0  0  0  0  0  0  0  0  0
   73.3062   42.6840   57.4860 C   0  0  0  0  0  0  0  0  0  0  0  0
   71.9866   42.4406   57.7974 C   0  0  0  0  0  0  0  0  0  0  0  0
   71.5261   41.1749   57.6704 F   0  0  0  0  0  0  0  0  0  0  0  0
   71.2095   43.5018   58.2199 C   0  0  0  0  0  0  0  0  0  0  0  0
  1  2  1  0  0  0
  2  3  2  0  0  0
  2  4  1  0  0  0
  3 13  1  0  0  0
 13 14  1  0  0  0
 14 15  2  0  0  0
 14 16  1  0  0  0
 16 17  2  0  0  0
 16 22  1  0  0  0
 17 18  1  0  0  0
 18 19  2  0  0  0
 19 20  1  0  0  0
 20 21  1  0  0  0
 20 22  2  0  0  0
  4  5  2  0  0  0
  4  9  1  0  0  0
  5  6  1  0  0  0
  6  7  2  0  0  0
  7  8  1  0  0  0
  8 10  1  0  0  0
  8  9  2  0  0  0
 10 11  2  0  0  0
 10 12  1  0  0  0
M  CHG 1   3   1
M  CHG 1  10   1
M  CHG 1  12  -1
M  END
> <minimizedAffinity>
-9.02405

$$$$
cs_R4_output_folder/data/smiles/72.pdb


 20 21  0  0  0  0  0  0  0  0999 V2000
   67.8238   47.3226   57.0617 O   0  0  0  0  0  0  0  0  0  0  0  0
   68.7972   47.5898   56.2701 C   0  0  0  0  0  0  0  0  0  0  0  0
   69.9666   48.2157   56.7688 N   0  0  0  0  0  0  0  0  0  0  0  0
   68.6917   47.2483   54.8692 C   0  0  0  0  0  0  0  0  0  0  0  0
   67.9944   46.1798   54.3837 C   0  0  0  0  0  0  0  0  0  0  0  0
   67.9270   45.8973   53.0131 C   0  0  0  0  0  0  0  0  0  0  0  0
   68.5869   46.7293   52.1389 C   0  0  0  0  0  0  0  0  0  0  0  0
   69.3003   47.8196   52.6048 C   0  0  0  0  0  0  0  0  0  0  0  0
   69.3432   48.0610   53.9415 C   0  0  0  0  0  0  0  0  0  0  0  0
   69.9906   48.6903   51.6922 N   0  0  0  0  0  0  0  0  0  0  0  0
   70.6019   48.1679   50.7459 O   0  0  0  0  0  0  0  0  0  0  0  0
   69.9491   50.0410   51.8967 O   0  0  0  0  0  0  0  0  0  0  0  0
   70.0783   48.5483   58.1108 N   0  0  0  0  0  0  0  0  0  0  0  0
   70.0773   49.7333   58.6047 C   0  0  0  0  0  0  0  0  0  0  0  0
   69.9571   50.9585   57.8113 C   0  0  0  0  0  0  0  0  0  0  0  0
   68.8119   51.4597   57.3849 C   0  0  0  0  0  0  0  0  0  0  0  0
   69.0458   52.6775   56.6284 C   0  0  0  0  0  0  0  0  0  0  0  0
   70.3418   52.9036   56.6034 C   0  0  0  0  0  0  0  0  0  0  0  0
   71.1788   54.2354   55.8288 Cl  0  0  0  0  0  0  0  0  0  0  0  0
   71.0494   51.8412   57.3465 C   0  0  0  0  0  0  0  0  0  0  0  0
  1  2  2  0  0  0
  2  3  1  0  0  0
  2  4  1  0  0  0
  3 13  1  0  0  0
 13 14  2  0  0  0
 14 15  1  0  0  0
 15 16  2  0  0  0
 15 20  1  0  0  0
 16 17  1  0  0  0
 17 18  2  0  0  0
 18 19  1  0  0  0
 18 20  1  0  0  0
  4  5  2  0  0  0
  4  9  1  0  0  0
  5  6  1  0  0  0
  6  7  2  0  0  0
  7  8  1  0  0  0
  8 10  1  0  0  0
  8  9  2  0  0  0
 10 11  2  0  0  0
 10 12  1  0  0  0
M  CHG 1  10   1
M  CHG 1  12  -1
M  END
> <minimizedAffinity>
-7.54771

$$$$
cs_R4_output_folder/data/smiles/73.pdb


 23 25  0  0  0  0  0  0  0  0999 V2000
   68.6538   44.5985   56.3928 C   0  0  0  0  0  0  0  0  0  0  0  0
   67.9305   43.4583   56.1577 N   0  0  0  0  0  0  0  0  0  0  0  0
   68.2840   42.2707   56.6607 C   0  0  0  0  0  0  0  0  0  0  0  0
   69.4025   42.1103   57.4498 C   0  0  0  0  0  0  0  0  0  0  0  0
   70.1344   43.2584   57.6903 C   0  0  0  0  0  0  0  0  0  0  0  0
   69.7315   44.4251   57.1593 N   0  0  0  0  0  0  0  0  0  0  0  0
   69.7898   40.8168   57.9986 C   0  0  0  0  0  0  0  0  0  0  0  0
   68.8929   39.7880   58.2005 C   0  0  0  0  0  0  0  0  0  0  0  0
   69.2709   38.5644   58.7229 C   0  0  0  0  0  0  0  0  0  0  0  0
   70.5898   38.3559   59.0538 C   0  0  0  0  0  0  0  0  0  0  0  0
   71.5083   39.3663   58.8618 C   0  0  0  0  0  0  0  0  0  0  0  0
   71.0974   40.5814   58.3372 C   0  0  0  0  0  0  0  0  0  0  0  0
   68.2064   45.8070   55.8283 N   0  0  0  0  0  0  0  0  0  0  0  0
   69.1259   47.7332   52.7967 C   0  0  0  0  0  0  0  0  0  0  0  0
   68.5780   47.0090   51.7630 C   0  0  0  0  0  0  0  0  0  0  0  0
   67.8929   45.8658   52.0834 C   0  0  0  0  0  0  0  0  0  0  0  0
   67.7506   45.4449   53.4147 C   0  0  0  0  0  0  0  0  0  0  0  0
   68.2871   46.1479   54.4604 C   0  0  0  0  0  0  0  0  0  0  0  0
   68.9826   47.3136   54.0965 C   0  0  0  0  0  0  0  0  0  0  0  0
   69.2802   50.5016   53.2780 N   0  0  0  0  0  0  0  0  0  0  0  0
   70.0105   49.2050   52.3990 S   0  0  0  0  0  0  0  0  0  0  0  0
   71.4470   49.1086   52.8483 O   0  0  0  0  0  0  0  0  0  0  0  0
   69.9328   49.5139   50.9330 O   0  0  0  0  0  0  0  0  0  0  0  0
 20 21  1  0  0  0
 21 22  2  0  0  0
 21 23  2  0  0  0
 21 14  1  0  0  0
 14 15  2  0  0  0
 14 19  1  0  0  0
 15 16  1  0  0  0
 16 17  2  0  0  0
 17 18  1  0  0  0
 18 13  1  0  0  0
 18 19  2  0  0  0
 13  1  1  0  0  0
  1  2  2  0  0  0
  1  6  1  0  0  0
  2  3  1  0  0  0
  3  4  2  0  0  0
  4  7  1  0  0  0
  4  5  1  0  0  0
  7  8  2  0  0  0
  7 12  1  0  0  0
  8  9  1  0  0  0
  9 10  2  0  0  0
 10 11  1  0  0  0
 11 12  2  0  0  0
  5  6  2  0  0  0
M  END
> <minimizedAffinity>
-9.52526

$$$$
cs_R4_output_folder/data/smiles/74.pdb


 19 20  0  0  0  0  0  0  0  0999 V2000
   69.4391   48.6691   54.0346 C   0  0  0  0  0  0  0  0  0  0  0  0
   69.0089   47.9466   52.9308 C   0  0  0  0  0  0  0  0  0  0  0  0
   68.2290   46.8354   53.0675 C   0  0  0  0  0  0  0  0  0  0  0  0
   67.8804   46.4525   54.3474 C   0  0  0  0  0  0  0  0  0  0  0  0
   68.2887   47.1454   55.4585 C   0  0  0  0  0  0  0  0  0  0  0  0
   69.0858   48.2801   55.2913 C   0  0  0  0  0  0  0  0  0  0  0  0
   69.4405   49.0060   56.4958 C   0  0  0  0  0  0  0  0  0  0  0  0
   68.8151   50.1571   56.9052 C   0  0  0  0  0  0  0  0  0  0  0  0
   69.1931   50.8400   58.0643 C   0  0  0  0  0  0  0  0  0  0  0  0
   70.2253   50.3237   58.8039 C   0  0  0  0  0  0  0  0  0  0  0  0
   70.8581   49.1665   58.4009 C   0  0  0  0  0  0  0  0  0  0  0  0
   71.9069   48.6345   59.1436 O   0  0  0  0  0  0  0  0  0  0  0  0
   70.4910   48.5033   57.2718 C   0  0  0  0  0  0  0  0  0  0  0  0
   69.8953   50.9643   53.7372 O   0  0  0  0  0  0  0  0  0  0  0  0
   70.3165   49.8106   53.7950 C   0  0  0  0  0  0  0  0  0  0  0  0
   71.6944   49.6402   53.6198 O   0  0  0  0  0  0  0  0  0  0  0  0
   67.8123   46.1271   51.9231 N   0  0  0  0  0  0  0  0  0  0  0  0
   68.1463   46.5716   50.8037 O   0  0  0  0  0  0  0  0  0  0  0  0
   67.0680   44.9922   52.0622 O   0  0  0  0  0  0  0  0  0  0  0  0
 14 15  2  0  0  0
 15 16  1  0  0  0
 15  1  1  0  0  0
  1  2  2  0  0  0
  1  6  1  0  0  0
  2  3  1  0  0  0
  3 17  1  0  0  0
  3  4  2  0  0  0
 17 18  2  0  0  0
 17 19  1  0  0  0
  4  5  1  0  0  0
  5  6  2  0  0  0
  6  7  1  0  0  0
  7  8  2  0  0  0
  7 13  1  0  0  0
  8  9  1  0  0  0
  9 10  2  0  0  0
 10 11  1  0  0  0
 11 12  1  0  0  0
 11 13  2  0  0  0
M  CHG 1  17   1
M  CHG 1  19  -1
M  END
> <minimizedAffinity>
-6.81287

$$$$
cs_R4_output_folder/data/smiles/75.pdb


 23 25  0  0  0  0  0  0  0  0999 V2000
   69.9030   44.7499   57.4624 C   0  0  0  0  0  0  0  0  0  0  0  0
   70.8078   45.2782   58.3849 C   0  0  0  0  0  0  0  0  0  0  0  0
   70.9942   46.6333   58.5461 C   0  0  0  0  0  0  0  0  0  0  0  0
   70.2340   47.4580   57.7403 C   0  0  0  0  0  0  0  0  0  0  0  0
   69.3336   46.9607   56.8213 C   0  0  0  0  0  0  0  0  0  0  0  0
   69.2115   45.6295   56.7268 N   0  0  0  0  0  0  0  0  0  0  0  0
   68.1115   41.3990   57.0084 C   0  0  0  0  0  0  0  0  0  0  0  0
   68.4035   42.8268   57.1599 N   0  0  0  0  0  0  0  0  0  0  0  0
   69.7330   43.3045   57.3207 C   0  0  0  0  0  0  0  0  0  0  0  0
   70.6872   42.5105   57.3361 O   0  0  0  0  0  0  0  0  0  0  0  0
   71.9349   47.1889   59.5055 C   0  0  0  0  0  0  0  0  0  0  0  0
   71.6309   47.1772   60.7252 O   0  0  0  0  0  0  0  0  0  0  0  0
   73.1735   47.7416   59.1242 N   0  0  0  0  0  0  0  0  0  0  0  0
   74.1282   48.3012   60.0622 C   0  0  0  0  0  0  0  0  0  0  0  0
   74.2294   49.7641   60.2717 C   0  0  0  0  0  0  0  0  0  0  0  0
   75.2740   49.0625   59.3896 C   0  0  0  0  0  0  0  0  0  0  0  0
   68.5112   47.8428   55.9502 C   0  0  0  0  0  0  0  0  0  0  0  0
   68.6611   47.4881   54.5311 C   0  0  0  0  0  0  0  0  0  0  0  0
   69.5037   48.1926   53.7075 C   0  0  0  0  0  0  0  0  0  0  0  0
   69.6574   47.8710   52.3624 C   0  0  0  0  0  0  0  0  0  0  0  0
   68.9383   46.8068   51.8303 C   0  0  0  0  0  0  0  0  0  0  0  0
   68.0919   46.0960   52.6444 C   0  0  0  0  0  0  0  0  0  0  0  0
   67.9615   46.4392   53.9750 C   0  0  0  0  0  0  0  0  0  0  0  0
  7  8  1  0  0  0
  8  9  1  0  0  0
  9 10  2  0  0  0
  9  1  1  0  0  0
  1  2  2  0  0  0
  1  6  1  0  0  0
  2  3  1  0  0  0
  3 11  1  0  0  0
  3  4  2  0  0  0
 11 12  2  0  0  0
 11 13  1  0  0  0
 13 14  1  0  0  0
 14 15  1  0  0  0
 14 16  1  0  0  0
 15 16  1  0  0  0
  4  5  1  0  0  0
  5 17  1  0  0  0
  5  6  2  0  0  0
 17 18  1  0  0  0
 18 19  2  0  0  0
 18 23  1  0  0  0
 19 20  1  0  0  0
 20 21  2  0  0  0
 21 22  1  0  0  0
 22 23  2  0  0  0
M  END
> <minimizedAffinity>
-8.02446

$$$$
cs_R4_output_folder/data/smiles/76.pdb


 22 24  0  0  0  0  0  0  0  0999 V2000
   68.9158   48.2489   56.2658 C   0  0  0  0  0  0  0  0  0  0  0  0
   69.3269   48.3513   54.8538 C   0  0  0  0  0  0  0  0  0  0  0  0
   70.2089   49.3156   54.4536 N   0  0  0  0  0  0  0  0  0  0  0  0
   70.5810   49.4878   53.2013 N   0  0  0  0  0  0  0  0  0  0  0  0
   70.0899   48.6944   52.2334 C   0  0  0  0  0  0  0  0  0  0  0  0
   70.4704   48.8923   51.0449 O   0  0  0  0  0  0  0  0  0  0  0  0
   69.1971   47.6947   52.5373 C   0  0  0  0  0  0  0  0  0  0  0  0
   68.7058   46.8774   51.5542 C   0  0  0  0  0  0  0  0  0  0  0  0
   67.8169   45.8630   51.8833 C   0  0  0  0  0  0  0  0  0  0  0  0
   67.4189   45.6640   53.1807 C   0  0  0  0  0  0  0  0  0  0  0  0
   67.9382   46.5138   54.1492 C   0  0  0  0  0  0  0  0  0  0  0  0
   68.8216   47.5360   53.8791 C   0  0  0  0  0  0  0  0  0  0  0  0
   71.5737   45.7275   58.4516 C   0  0  0  0  0  0  0  0  0  0  0  0
   71.7742   47.0889   58.4525 C   0  0  0  0  0  0  0  0  0  0  0  0
   70.9325   47.9628   57.7589 C   0  0  0  0  0  0  0  0  0  0  0  0
   69.8782   47.4513   57.0581 C   0  0  0  0  0  0  0  0  0  0  0  0
   69.6927   46.0623   57.0715 C   0  0  0  0  0  0  0  0  0  0  0  0
   70.5182   45.1980   57.7528 C   0  0  0  0  0  0  0  0  0  0  0  0
   72.4534   44.9028   59.1668 O   0  0  0  0  0  0  0  0  0  0  0  0
   74.7294   44.9731   58.6509 C   0  0  0  0  0  0  0  0  0  0  0  0
   73.5589   44.3810   58.5473 C   0  0  0  0  0  0  0  0  0  0  0  0
   73.4057   43.1264   57.7518 C   0  0  0  0  0  0  0  0  0  0  0  0
 20 21  2  0  0  0
 21 22  1  0  0  0
 21 19  1  0  0  0
 19 13  1  0  0  0
 13 14  2  0  0  0
 13 18  1  0  0  0
 14 15  1  0  0  0
 15 16  2  0  0  0
 16  1  1  0  0  0
 16 17  1  0  0  0
  1  2  1  0  0  0
  2  3  2  0  0  0
  2 12  1  0  0  0
  3  4  1  0  0  0
  4  5  1  0  0  0
  5  6  2  0  0  0
  5  7  1  0  0  0
  7  8  1  0  0  0
  7 12  2  0  0  0
  8  9  2  0  0  0
  9 10  1  0  0  0
 10 11  2  0  0  0
 11 12  1  0  0  0
 17 18  2  0  0  0
M  END
> <minimizedAffinity>
-8.19838

$$$$
cs_R4_output_folder/data/smiles/77.pdb


 27 29  0  0  0  0  0  0  0  0999 V2000
   69.1530   43.3115   56.9840 C   0  0  0  0  0  0  0  0  0  0  0  0
   70.2830   43.5682   57.4576 O   0  0  0  0  0  0  0  0  0  0  0  0
   68.3847   44.3220   56.3797 N   0  0  0  0  0  0  0  0  0  0  0  0
   69.2966   41.6365   59.5563 C   0  0  0  0  0  0  0  0  0  0  0  0
   68.7631   41.1543   58.2619 C   0  0  0  0  0  0  0  0  0  0  0  0
   68.7138   41.9238   57.1012 C   0  0  0  0  0  0  0  0  0  0  0  0
   68.1594   41.0801   56.1631 C   0  0  0  0  0  0  0  0  0  0  0  0
   67.9079   39.9024   56.7496 N   0  0  0  0  0  0  0  0  0  0  0  0
   68.2737   39.9261   58.0477 N   0  0  0  0  0  0  0  0  0  0  0  0
   68.1473   38.8313   58.9535 C   0  0  0  0  0  0  0  0  0  0  0  0
   69.2814   38.1679   59.4154 C   0  0  0  0  0  0  0  0  0  0  0  0
   69.1518   37.1101   60.2843 C   0  0  0  0  0  0  0  0  0  0  0  0
   67.9288   36.6480   60.7450 C   0  0  0  0  0  0  0  0  0  0  0  0
   67.7778   35.2959   61.8499 Cl  0  0  0  0  0  0  0  0  0  0  0  0
   66.8036   37.3098   60.2834 C   0  0  0  0  0  0  0  0  0  0  0  0
   66.9292   38.3827   59.4020 C   0  0  0  0  0  0  0  0  0  0  0  0
   68.8116   45.7206   56.2537 C   0  0  0  0  0  0  0  0  0  0  0  0
   68.7251   46.1399   54.8148 C   0  0  0  0  0  0  0  0  0  0  0  0
   67.9378   45.4346   53.9479 C   0  0  0  0  0  0  0  0  0  0  0  0
   67.8003   45.8093   52.6164 C   0  0  0  0  0  0  0  0  0  0  0  0
   68.4846   46.9238   52.1799 C   0  0  0  0  0  0  0  0  0  0  0  0
   69.2874   47.6590   53.0218 C   0  0  0  0  0  0  0  0  0  0  0  0
   69.4041   47.2605   54.3381 C   0  0  0  0  0  0  0  0  0  0  0  0
   70.0988   49.0654   52.3909 S   0  0  0  0  0  0  0  0  0  0  0  0
   69.2462   50.4845   52.9201 N   0  0  0  0  0  0  0  0  0  0  0  0
   71.4954   49.1535   52.9861 O   0  0  0  0  0  0  0  0  0  0  0  0
   70.2318   49.0308   50.9101 O   0  0  0  0  0  0  0  0  0  0  0  0
  4  5  1  0  0  0
  5  6  2  0  0  0
  5  9  1  0  0  0
  6  1  1  0  0  0
  6  7  1  0  0  0
  1  2  2  0  0  0
  1  3  1  0  0  0
  3 17  1  0  0  0
 17 18  1  0  0  0
 18 19  2  0  0  0
 18 23  1  0  0  0
 19 20  1  0  0  0
 20 21  2  0  0  0
 21 22  1  0  0  0
 22 24  1  0  0  0
 22 23  2  0  0  0
 24 25  1  0  0  0
 24 26  2  0  0  0
 24 27  2  0  0  0
  7  8  2  0  0  0
  8  9  1  0  0  0
  9 10  1  0  0  0
 10 11  2  0  0  0
 10 16  1  0  0  0
 11 12  1  0  0  0
 12 13  2  0  0  0
 13 14  1  0  0  0
 13 15  1  0  0  0
 15 16  2  0  0  0
M  END
> <minimizedAffinity>
-8.42953

$$$$
cs_R4_output_folder/data/smiles/78.pdb


 20 21  0  0  0  0  0  0  0  0999 V2000
   68.3267   47.5419   56.4568 C   0  0  0  0  0  0  0  0  0  0  0  0
   69.1325   47.0183   57.5390 N   0  0  0  0  0  0  0  0  0  0  0  0
   70.4199   47.5063   57.8951 C   0  0  0  0  0  0  0  0  0  0  0  0
   70.9060   48.4454   57.2434 O   0  0  0  0  0  0  0  0  0  0  0  0
   71.1838   46.9334   59.0040 C   0  0  0  0  0  0  0  0  0  0  0  0
   71.9757   47.7278   59.8046 C   0  0  0  0  0  0  0  0  0  0  0  0
   72.7042   47.2120   60.8553 C   0  0  0  0  0  0  0  0  0  0  0  0
   72.6305   45.8750   61.0970 N   0  0  0  0  0  0  0  0  0  0  0  0
   71.8577   45.0925   60.3182 C   0  0  0  0  0  0  0  0  0  0  0  0
   71.7970   43.6361   60.6065 C   0  0  0  0  0  0  0  0  0  0  0  0
   71.1573   45.6221   59.2998 N   0  0  0  0  0  0  0  0  0  0  0  0
   68.2989   46.6383   55.2564 C   0  0  0  0  0  0  0  0  0  0  0  0
   69.9179   49.1333   52.9542 C   0  0  0  0  0  0  0  0  0  0  0  0
   69.8625   48.4391   51.7605 C   0  0  0  0  0  0  0  0  0  0  0  0
   69.3079   47.1895   51.7287 C   0  0  0  0  0  0  0  0  0  0  0  0
   68.7965   46.5919   52.8555 C   0  0  0  0  0  0  0  0  0  0  0  0
   68.8437   47.2699   54.0490 C   0  0  0  0  0  0  0  0  0  0  0  0
   69.4013   48.5324   54.0930 C   0  0  0  0  0  0  0  0  0  0  0  0
   70.0000   51.3669   53.8762 C   0  0  0  0  0  0  0  0  0  0  0  0
   70.4835   50.3928   52.9536 O   0  0  0  0  0  0  0  0  0  0  0  0
 19 20  1  0  0  0
 20 13  1  0  0  0
 13 14  2  0  0  0
 13 18  1  0  0  0
 14 15  1  0  0  0
 15 16  2  0  0  0
 16 17  1  0  0  0
 17 12  1  0  0  0
 17 18  2  0  0  0
 12  1  1  0  0  0
  1  2  1  0  0  0
  2  3  1  0  0  0
  3  4  2  0  0  0
  3  5  1  0  0  0
  5  6  2  0  0  0
  5 11  1  0  0  0
  6  7  1  0  0  0
  7  8  2  0  0  0
  8  9  1  0  0  0
  9 10  1  0  0  0
  9 11  2  0  0  0
M  END
> <minimizedAffinity>
-6.64866

$$$$
cs_R4_output_folder/data/smiles/79.pdb


 29 31  0  0  0  0  0  0  0  0999 V2000
   73.5051   32.9383   55.8694 C   0  0  0  0  0  0  0  0  0  0  0  0
   73.0420   34.1534   56.5845 C   0  0  0  0  0  0  0  0  0  0  0  0
   72.5656   34.0275   57.8917 C   0  0  0  0  0  0  0  0  0  0  0  0
   72.1236   35.1184   58.5994 C   0  0  0  0  0  0  0  0  0  0  0  0
   72.1441   36.3836   58.0195 C   0  0  0  0  0  0  0  0  0  0  0  0
   72.6139   36.4689   56.7455 C   0  0  0  0  0  0  0  0  0  0  0  0
   73.0706   35.3969   55.9883 C   0  0  0  0  0  0  0  0  0  0  0  0
   73.5527   35.5771   54.6288 C   0  0  0  0  0  0  0  0  0  0  0  0
   72.7246   35.7573   53.7157 O   0  0  0  0  0  0  0  0  0  0  0  0
   74.9286   35.5512   54.3355 N   0  0  0  0  0  0  0  0  0  0  0  0
   75.8787   35.3615   55.2872 F   0  0  0  0  0  0  0  0  0  0  0  0
   75.3278   35.7269   52.9928 N   0  0  0  0  0  0  0  0  0  0  0  0
   75.9610   34.6866   52.2657 C   0  0  0  0  0  0  0  0  0  0  0  0
   76.1376   33.6014   52.9157 O   0  0  0  0  0  0  0  0  0  0  0  0
   76.4008   34.7765   50.8868 C   0  0  0  0  0  0  0  0  0  0  0  0
   77.4546   35.6254   50.5690 C   0  0  0  0  0  0  0  0  0  0  0  0
   77.8678   35.7055   49.2640 C   0  0  0  0  0  0  0  0  0  0  0  0
   77.2614   34.9675   48.2717 C   0  0  0  0  0  0  0  0  0  0  0  0
   76.2066   34.1114   48.5518 C   0  0  0  0  0  0  0  0  0  0  0  0
   75.8043   34.0470   49.8914 C   0  0  0  0  0  0  0  0  0  0  0  0
   71.6034   37.8085   58.8369 S   0  0  0  0  0  0  0  0  0  0  0  0
   70.6000   38.5013   57.9327 O   0  0  0  0  0  0  0  0  0  0  0  0
   70.8386   37.3851   60.0572 O   0  0  0  0  0  0  0  0  0  0  0  0
   72.8581   38.9072   59.1498 N   0  0  0  0  0  0  0  0  0  0  0  0
   73.6326   38.6649   60.3161 C   0  0  0  0  0  0  0  0  0  0  0  0
   73.0426   39.1468   61.5951 C   0  0  0  0  0  0  0  0  0  0  0  0
   72.3872   40.3464   61.5375 O   0  0  0  0  0  0  0  0  0  0  0  0
   71.6420   40.5421   60.3837 C   0  0  0  0  0  0  0  0  0  0  0  0
   72.4158   40.2774   59.1288 C   0  0  0  0  0  0  0  0  0  0  0  0
  1  2  1  0  0  0
  2  3  2  0  0  0
  2  7  1  0  0  0
  3  4  1  0  0  0
  4  5  2  0  0  0
  5 21  1  0  0  0
  5  6  1  0  0  0
 21 22  2  0  0  0
 21 23  2  0  0  0
 21 24  1  0  0  0
 24 25  1  0  0  0
 24 29  1  0  0  0
 25 26  1  0  0  0
 26 27  1  0  0  0
 27 28  1  0  0  0
 28 29  1  0  0  0
  6  7  2  0  0  0
  7  8  1  0  0  0
  8  9  2  0  0  0
  8 10  1  0  0  0
 10 11  1  0  0  0
 10 12  1  0  0  0
 12 13  1  0  0  0
 13 14  2  0  0  0
 13 15  1  0  0  0
 15 16  2  0  0  0
 15 20  1  0  0  0
 16 17  1  0  0  0
 17 18  2  0  0  0
 18 19  1  0  0  0
 19 20  2  0  0  0
M  END
> <minimizedAffinity>
-7.19856

$$$$
cs_R4_output_folder/data/smiles/80.pdb


 28 31  0  0  0  0  0  0  0  0999 V2000
   70.8473   45.8956   58.1472 C   0  0  0  0  0  0  0  0  0  0  0  0
   71.7099   46.7877   58.7875 C   0  0  0  0  0  0  0  0  0  0  0  0
   71.5589   48.1490   58.6838 C   0  0  0  0  0  0  0  0  0  0  0  0
   70.5129   48.6746   57.9184 C   0  0  0  0  0  0  0  0  0  0  0  0
   69.6456   47.8361   57.2759 C   0  0  0  0  0  0  0  0  0  0  0  0
   69.8486   46.4598   57.4168 C   0  0  0  0  0  0  0  0  0  0  0  0
   69.4101   44.0175   59.7921 O   0  0  0  0  0  0  0  0  0  0  0  0
   70.3921   43.6230   59.1482 C   0  0  0  0  0  0  0  0  0  0  0  0
   71.1151   44.5217   58.3345 N   0  0  0  0  0  0  0  0  0  0  0  0
   70.8383   42.1767   59.2176 C   0  0  0  0  0  0  0  0  0  0  0  0
   69.8456   41.3083   58.5337 C   0  0  0  0  0  0  0  0  0  0  0  0
   69.0165   41.7636   57.5294 C   0  0  0  0  0  0  0  0  0  0  0  0
   68.0936   40.9316   56.9024 C   0  0  0  0  0  0  0  0  0  0  0  0
   68.0125   39.6201   57.3015 C   0  0  0  0  0  0  0  0  0  0  0  0
   68.8344   39.1803   58.2929 C   0  0  0  0  0  0  0  0  0  0  0  0
   69.7150   40.0022   58.8804 N   0  0  0  0  0  0  0  0  0  0  0  0
   68.5078   48.3269   56.4574 C   0  0  0  0  0  0  0  0  0  0  0  0
   68.8971   48.6173   55.0549 C   0  0  0  0  0  0  0  0  0  0  0  0
   69.2991   49.8615   54.6990 N   0  0  0  0  0  0  0  0  0  0  0  0
   69.6889   50.1410   53.4718 N   0  0  0  0  0  0  0  0  0  0  0  0
   69.7146   49.2165   52.4943 C   0  0  0  0  0  0  0  0  0  0  0  0
   70.0912   49.5147   51.3380 O   0  0  0  0  0  0  0  0  0  0  0  0
   69.3230   47.9483   52.7839 C   0  0  0  0  0  0  0  0  0  0  0  0
   68.9094   47.6534   54.0806 C   0  0  0  0  0  0  0  0  0  0  0  0
   68.4635   46.2661   54.3137 C   0  0  0  0  0  0  0  0  0  0  0  0
   67.4719   45.9232   53.1903 C   0  0  0  0  0  0  0  0  0  0  0  0
   67.9979   46.1728   51.8288 C   0  0  0  0  0  0  0  0  0  0  0  0
   69.3254   46.8429   51.7867 C   0  0  0  0  0  0  0  0  0  0  0  0
  7  8  2  0  0  0
  8 10  1  0  0  0
  8  9  1  0  0  0
 10 11  1  0  0  0
 11 12  2  0  0  0
 11 16  1  0  0  0
 12 13  1  0  0  0
 13 14  2  0  0  0
 14 15  1  0  0  0
 15 16  2  0  0  0
  9  1  1  0  0  0
  1  2  2  0  0  0
  1  6  1  0  0  0
  2  3  1  0  0  0
  3  4  2  0  0  0
  4  5  1  0  0  0
  5 17  1  0  0  0
  5  6  2  0  0  0
 17 18  1  0  0  0
 18 19  2  0  0  0
 18 24  1  0  0  0
 19 20  1  0  0  0
 20 21  1  0  0  0
 21 22  2  0  0  0
 21 23  1  0  0  0
 23 24  2  0  0  0
 23 28  1  0  0  0
 24 25  1  0  0  0
 25 26  1  0  0  0
 26 27  1  0  0  0
 27 28  1  0  0  0
M  END
> <minimizedAffinity>
-9.06331

$$$$
cs_R4_output_folder/data/smiles/81.pdb


 29 32  0  0  0  0  0  0  0  0999 V2000
   70.6427   46.3411   58.0449 C   0  0  0  0  0  0  0  0  0  0  0  0
   69.7957   47.1697   57.3220 C   0  0  0  0  0  0  0  0  0  0  0  0
   70.0161   48.4975   57.0557 C   0  0  0  0  0  0  0  0  0  0  0  0
   71.1780   49.0526   57.5470 C   0  0  0  0  0  0  0  0  0  0  0  0
   72.0522   48.2719   58.2710 C   0  0  0  0  0  0  0  0  0  0  0  0
   71.7928   46.9183   58.5230 C   0  0  0  0  0  0  0  0  0  0  0  0
   72.6749   46.1829   59.2325 F   0  0  0  0  0  0  0  0  0  0  0  0
   70.4565   43.8705   57.3858 N   0  0  0  0  0  0  0  0  0  0  0  0
   70.2661   44.9411   58.2580 C   0  0  0  0  0  0  0  0  0  0  0  0
   69.6950   44.6356   59.3625 O   0  0  0  0  0  0  0  0  0  0  0  0
   70.0420   42.4994   57.6936 C   0  0  0  0  0  0  0  0  0  0  0  0
   68.3135   39.8198   57.5744 C   0  0  0  0  0  0  0  0  0  0  0  0
   67.9750   41.1191   56.9926 C   0  0  0  0  0  0  0  0  0  0  0  0
   66.8458   41.3976   56.2928 N   0  0  0  0  0  0  0  0  0  0  0  0
   66.8620   42.6530   55.9166 N   0  0  0  0  0  0  0  0  0  0  0  0
   67.9774   43.1896   56.3592 N   0  0  0  0  0  0  0  0  0  0  0  0
   68.7215   42.2796   57.0433 C   0  0  0  0  0  0  0  0  0  0  0  0
   69.0553   49.2915   56.2380 C   0  0  0  0  0  0  0  0  0  0  0  0
   69.4007   49.0972   54.8099 C   0  0  0  0  0  0  0  0  0  0  0  0
   70.2436   49.9754   54.1990 N   0  0  0  0  0  0  0  0  0  0  0  0
   70.6417   49.8583   52.9574 N   0  0  0  0  0  0  0  0  0  0  0  0
   70.2080   48.8244   52.2296 C   0  0  0  0  0  0  0  0  0  0  0  0
   70.5713   48.6699   51.0128 O   0  0  0  0  0  0  0  0  0  0  0  0
   69.3538   47.8797   52.7485 C   0  0  0  0  0  0  0  0  0  0  0  0
   68.9130   46.8229   51.9566 C   0  0  0  0  0  0  0  0  0  0  0  0
   68.0475   45.9097   52.5125 C   0  0  0  0  0  0  0  0  0  0  0  0
   67.6368   46.0483   53.8165 C   0  0  0  0  0  0  0  0  0  0  0  0
   68.0827   47.1104   54.6063 C   0  0  0  0  0  0  0  0  0  0  0  0
   68.9504   48.0376   54.0761 C   0  0  0  0  0  0  0  0  0  0  0  0
 12 13  1  0  0  0
 13 14  1  0  0  0
 13 17  2  0  0  0
 14 15  1  0  0  0
 15 16  2  0  0  0
 16 17  1  0  0  0
 17 11  1  0  0  0
 11  8  1  0  0  0
  8  9  1  0  0  0
  9 10  2  0  0  0
  9  1  1  0  0  0
  1  2  2  0  0  0
  1  6  1  0  0  0
  2  3  1  0  0  0
  3 18  1  0  0  0
  3  4  2  0  0  0
 18 19  1  0  0  0
 19 20  2  0  0  0
 19 29  1  0  0  0
 20 21  1  0  0  0
 21 22  1  0  0  0
 22 23  2  0  0  0
 22 24  1  0  0  0
 24 25  1  0  0  0
 24 29  2  0  0  0
 25 26  2  0  0  0
 26 27  1  0  0  0
 27 28  2  0  0  0
 28 29  1  0  0  0
  4  5  1  0  0  0
  5  6  2  0  0  0
  6  7  1  0  0  0
M  END
> <minimizedAffinity>
-10.30623

$$$$
cs_R4_output_folder/data/smiles/82.pdb


 23 25  0  0  0  0  0  0  0  0999 V2000
   69.6608   47.8715   57.5541 C   0  0  0  0  0  0  0  0  0  0  0  0
   69.4276   47.7867   56.1242 N   0  0  0  0  0  0  0  0  0  0  0  0
   69.8160   48.7543   55.3551 N   0  0  0  0  0  0  0  0  0  0  0  0
   69.6347   48.7601   54.0015 C   0  0  0  0  0  0  0  0  0  0  0  0
   69.0013   47.6670   53.4635 C   0  0  0  0  0  0  0  0  0  0  0  0
   68.7705   47.6126   52.1006 C   0  0  0  0  0  0  0  0  0  0  0  0
   68.1208   46.5038   51.5819 C   0  0  0  0  0  0  0  0  0  0  0  0
   67.7053   45.4678   52.3872 C   0  0  0  0  0  0  0  0  0  0  0  0
   67.9235   45.5021   53.7480 C   0  0  0  0  0  0  0  0  0  0  0  0
   68.5732   46.6120   54.2680 C   0  0  0  0  0  0  0  0  0  0  0  0
   68.8159   46.7221   55.6251 C   0  0  0  0  0  0  0  0  0  0  0  0
   68.4268   45.7606   56.3702 O   0  0  0  0  0  0  0  0  0  0  0  0
   70.1588   49.8951   53.2142 C   0  0  0  0  0  0  0  0  0  0  0  0
   71.2264   50.5659   54.0341 C   0  0  0  0  0  0  0  0  0  0  0  0
   72.3932   50.1261   54.1036 O   0  0  0  0  0  0  0  0  0  0  0  0
   70.8925   51.7272   54.7456 N   0  0  0  0  0  0  0  0  0  0  0  0
   71.7190   52.5267   55.5651 C   0  0  0  0  0  0  0  0  0  0  0  0
   71.5004   52.5177   56.9491 C   0  0  0  0  0  0  0  0  0  0  0  0
   72.2596   53.2852   57.7721 C   0  0  0  0  0  0  0  0  0  0  0  0
   73.2618   54.0919   57.2820 C   0  0  0  0  0  0  0  0  0  0  0  0
   74.0167   54.8581   58.1092 F   0  0  0  0  0  0  0  0  0  0  0  0
   73.4892   54.1130   55.9271 C   0  0  0  0  0  0  0  0  0  0  0  0
   72.7113   53.3256   55.0726 C   0  0  0  0  0  0  0  0  0  0  0  0
  1  2  1  0  0  0
  2  3  1  0  0  0
  2 11  1  0  0  0
  3  4  2  0  0  0
  4 13  1  0  0  0
  4  5  1  0  0  0
 13 14  1  0  0  0
 14 15  2  0  0  0
 14 16  1  0  0  0
 16 17  1  0  0  0
 17 18  2  0  0  0
 17 23  1  0  0  0
 18 19  1  0  0  0
 19 20  2  0  0  0
 20 21  1  0  0  0
 20 22  1  0  0  0
 22 23  2  0  0  0
  5  6  1  0  0  0
  5 10  2  0  0  0
  6  7  2  0  0  0
  7  8  1  0  0  0
  8  9  2  0  0  0
  9 10  1  0  0  0
 10 11  1  0  0  0
 11 12  2  0  0  0
M  END
> <minimizedAffinity>
-7.71440

$$$$
cs_R4_output_folder/data/smiles/83.pdb


 22 24  0  0  0  0  0  0  0  0999 V2000
   73.1988   47.5975   61.0657 C   0  0  0  0  0  0  0  0  0  0  0  0
   72.3612   46.8094   60.1147 C   0  0  0  0  0  0  0  0  0  0  0  0
   71.4453   47.4227   59.2816 C   0  0  0  0  0  0  0  0  0  0  0  0
   70.6644   46.7154   58.3972 C   0  0  0  0  0  0  0  0  0  0  0  0
   70.8196   45.3521   58.3605 C   0  0  0  0  0  0  0  0  0  0  0  0
   70.0883   44.5505   57.5123 C   0  0  0  0  0  0  0  0  0  0  0  0
   70.2383   43.1830   57.4686 C   0  0  0  0  0  0  0  0  0  0  0  0
   71.1507   42.5797   58.2990 C   0  0  0  0  0  0  0  0  0  0  0  0
   71.9003   43.3423   59.1602 C   0  0  0  0  0  0  0  0  0  0  0  0
   71.7415   44.7036   59.1934 C   0  0  0  0  0  0  0  0  0  0  0  0
   72.4753   45.4815   60.0402 N   0  0  0  0  0  0  0  0  0  0  0  0
   69.6773   47.3687   57.4996 C   0  0  0  0  0  0  0  0  0  0  0  0
   68.4653   47.2855   57.7221 O   0  0  0  0  0  0  0  0  0  0  0  0
   70.1592   48.0831   56.3913 N   0  0  0  0  0  0  0  0  0  0  0  0
   69.4562   48.7886   55.3811 C   0  0  0  0  0  0  0  0  0  0  0  0
   69.2175   48.0899   54.1078 C   0  0  0  0  0  0  0  0  0  0  0  0
   69.9294   48.5689   53.0027 C   0  0  0  0  0  0  0  0  0  0  0  0
   69.8349   47.9712   51.7743 C   0  0  0  0  0  0  0  0  0  0  0  0
   69.0295   46.8692   51.5778 C   0  0  0  0  0  0  0  0  0  0  0  0
   68.3253   46.3865   52.6405 C   0  0  0  0  0  0  0  0  0  0  0  0
   68.4325   47.0070   53.8871 C   0  0  0  0  0  0  0  0  0  0  0  0
   67.6597   46.5049   54.8828 F   0  0  0  0  0  0  0  0  0  0  0  0
  1  2  1  0  0  0
  2  3  2  0  0  0
  2 11  1  0  0  0
  3  4  1  0  0  0
  4 12  1  0  0  0
  4  5  2  0  0  0
 12 13  2  0  0  0
 12 14  1  0  0  0
 14 15  1  0  0  0
 15 16  1  0  0  0
 16 17  2  0  0  0
 16 21  1  0  0  0
 17 18  1  0  0  0
 18 19  2  0  0  0
 19 20  1  0  0  0
 20 21  2  0  0  0
 21 22  1  0  0  0
  5  6  1  0  0  0
  5 10  1  0  0  0
  6  7  2  0  0  0
  7  8  1  0  0  0
  8  9  2  0  0  0
  9 10  1  0  0  0
 10 11  2  0  0  0
M  END
> <minimizedAffinity>
-6.93785

$$$$
cs_R4_output_folder/data/smiles/84.pdb


 27 29  0  0  0  0  0  0  0  0999 V2000
   70.5974   46.3058   58.3779 C   0  0  0  0  0  0  0  0  0  0  0  0
   71.4225   46.6554   59.4231 C   0  0  0  0  0  0  0  0  0  0  0  0
   72.0050   47.9212   59.5160 C   0  0  0  0  0  0  0  0  0  0  0  0
   71.7312   48.8344   58.5177 C   0  0  0  0  0  0  0  0  0  0  0  0
   70.9113   48.5210   57.4563 C   0  0  0  0  0  0  0  0  0  0  0  0
   70.3637   47.2606   57.4142 C   0  0  0  0  0  0  0  0  0  0  0  0
   69.6908   44.4125   59.4053 O   0  0  0  0  0  0  0  0  0  0  0  0
   70.0003   44.9727   58.3061 C   0  0  0  0  0  0  0  0  0  0  0  0
   69.7366   44.2550   57.1315 N   0  0  0  0  0  0  0  0  0  0  0  0
   69.1523   42.9549   57.1007 C   0  0  0  0  0  0  0  0  0  0  0  0
   67.9885   42.7038   56.3952 C   0  0  0  0  0  0  0  0  0  0  0  0
   67.4531   41.4294   56.3901 C   0  0  0  0  0  0  0  0  0  0  0  0
   68.0185   40.3999   57.0516 N   0  0  0  0  0  0  0  0  0  0  0  0
   69.1549   40.6241   57.7465 C   0  0  0  0  0  0  0  0  0  0  0  0
   69.7116   41.8900   57.7683 C   0  0  0  0  0  0  0  0  0  0  0  0
   70.5637   49.6708   56.1820 S   0  0  0  0  0  0  0  0  0  0  0  0
   70.4867   51.0586   56.7350 O   0  0  0  0  0  0  0  0  0  0  0  0
   71.7354   49.6905   55.2051 O   0  0  0  0  0  0  0  0  0  0  0  0
   69.1084   49.3159   55.3414 N   0  0  0  0  0  0  0  0  0  0  0  0
   68.9496   48.2933   54.3834 C   0  0  0  0  0  0  0  0  0  0  0  0
   68.3942   47.0680   54.6809 C   0  0  0  0  0  0  0  0  0  0  0  0
   68.2853   46.1221   53.6835 C   0  0  0  0  0  0  0  0  0  0  0  0
   67.7356   44.9027   53.9642 F   0  0  0  0  0  0  0  0  0  0  0  0
   68.7030   46.3275   52.3878 C   0  0  0  0  0  0  0  0  0  0  0  0
   69.2549   47.5587   52.1137 C   0  0  0  0  0  0  0  0  0  0  0  0
   69.3752   48.5204   53.0920 C   0  0  0  0  0  0  0  0  0  0  0  0
   69.9387   49.7288   52.7419 F   0  0  0  0  0  0  0  0  0  0  0  0
  7  8  2  0  0  0
  8  9  1  0  0  0
  8  1  1  0  0  0
  9 10  1  0  0  0
 10 11  2  0  0  0
 10 15  1  0  0  0
 11 12  1  0  0  0
 12 13  2  0  0  0
 13 14  1  0  0  0
 14 15  2  0  0  0
  1  2  2  0  0  0
  1  6  1  0  0  0
  2  3  1  0  0  0
  3  4  2  0  0  0
  4  5  1  0  0  0
  5 16  1  0  0  0
  5  6  2  0  0  0
 16 17  2  0  0  0
 16 18  2  0  0  0
 16 19  1  0  0  0
 19 20  1  0  0  0
 20 21  2  0  0  0
 20 26  1  0  0  0
 21 22  1  0  0  0
 22 23  1  0  0  0
 22 24  2  0  0  0
 24 25  1  0  0  0
 25 26  2  0  0  0
 26 27  1  0  0  0
M  END
> <minimizedAffinity>
-8.32520

$$$$
cs_R4_output_folder/data/smiles/85.pdb


 23 25  0  0  0  0  0  0  0  0999 V2000
   72.6613   34.6187   57.8373 C   0  0  0  0  0  0  0  0  0  0  0  0
   71.7384   34.8103   58.8353 C   0  0  0  0  0  0  0  0  0  0  0  0
   71.2011   36.0818   59.0659 C   0  0  0  0  0  0  0  0  0  0  0  0
   71.5812   37.1672   58.3036 C   0  0  0  0  0  0  0  0  0  0  0  0
   72.5111   36.9187   57.3139 C   0  0  0  0  0  0  0  0  0  0  0  0
   73.0621   35.6770   57.0589 C   0  0  0  0  0  0  0  0  0  0  0  0
   71.0295   38.5147   58.5185 C   0  0  0  0  0  0  0  0  0  0  0  0
   69.7516   38.7872   58.4928 C   0  0  0  0  0  0  0  0  0  0  0  0
   69.1810   40.1658   58.7121 C   0  0  0  0  0  0  0  0  0  0  0  0
   70.2897   41.1461   58.3878 C   0  0  0  0  0  0  0  0  0  0  0  0
   71.3909   40.8174   59.2727 N   0  0  0  0  0  0  0  0  0  0  0  0
   72.0019   39.6002   58.7828 C   0  0  0  0  0  0  0  0  0  0  0  0
   74.0248   35.5385   55.9993 N   0  0  0  0  0  0  0  0  0  0  0  0
   73.6473   35.4394   54.6497 C   0  0  0  0  0  0  0  0  0  0  0  0
   72.4018   35.4794   54.4072 O   0  0  0  0  0  0  0  0  0  0  0  0
   74.6007   35.2980   53.5468 C   0  0  0  0  0  0  0  0  0  0  0  0
   75.8138   35.9427   53.6152 C   0  0  0  0  0  0  0  0  0  0  0  0
   76.7475   35.8431   52.6039 C   0  0  0  0  0  0  0  0  0  0  0  0
   76.4989   35.0884   51.4778 C   0  0  0  0  0  0  0  0  0  0  0  0
   75.2841   34.4391   51.4044 C   0  0  0  0  0  0  0  0  0  0  0  0
   74.3397   34.5430   52.4324 C   0  0  0  0  0  0  0  0  0  0  0  0
   74.2673   32.9378   58.3920 C   0  0  0  0  0  0  0  0  0  0  0  0
   73.2344   33.3803   57.5566 O   0  0  0  0  0  0  0  0  0  0  0  0
 22 23  1  0  0  0
 23  1  1  0  0  0
  1  2  2  0  0  0
  1  6  1  0  0  0
  2  3  1  0  0  0
  3  4  2  0  0  0
  4  7  1  0  0  0
  4  5  1  0  0  0
  7  8  2  0  0  0
  7 12  1  0  0  0
  8  9  1  0  0  0
  9 10  1  0  0  0
 10 11  1  0  0  0
 11 12  1  0  0  0
  5  6  2  0  0  0
  6 13  1  0  0  0
 13 14  1  0  0  0
 14 15  2  0  0  0
 14 16  1  0  0  0
 16 17  2  0  0  0
 16 21  1  0  0  0
 17 18  1  0  0  0
 18 19  2  0  0  0
 19 20  1  0  0  0
 20 21  2  0  0  0
M  CHG 1  11   1
M  END
> <minimizedAffinity>
-6.50012

$$$$
cs_R4_output_folder/data/smiles/86.pdb


 23 25  0  0  0  0  0  0  0  0999 V2000
   70.3151   46.2735   57.1939 N   0  0  0  0  0  0  0  0  0  0  0  0
   69.2435   46.8032   56.4486 C   0  0  0  0  0  0  0  0  0  0  0  0
   68.2049   46.0859   56.3085 O   0  0  0  0  0  0  0  0  0  0  0  0
   69.2390   48.1208   55.8221 C   0  0  0  0  0  0  0  0  0  0  0  0
   69.1136   49.3687   56.3950 C   0  0  0  0  0  0  0  0  0  0  0  0
   69.1641   50.3400   55.4435 N   0  0  0  0  0  0  0  0  0  0  0  0
   69.0654   51.7700   55.6732 C   0  0  0  0  0  0  0  0  0  0  0  0
   69.3222   49.7439   54.2448 C   0  0  0  0  0  0  0  0  0  0  0  0
   69.4332   50.2346   52.9589 C   0  0  0  0  0  0  0  0  0  0  0  0
   69.5889   49.3477   51.9174 C   0  0  0  0  0  0  0  0  0  0  0  0
   69.6403   47.9742   52.1034 C   0  0  0  0  0  0  0  0  0  0  0  0
   69.5277   47.4923   53.4060 C   0  0  0  0  0  0  0  0  0  0  0  0
   69.3708   48.3796   54.4555 C   0  0  0  0  0  0  0  0  0  0  0  0
   70.2437   44.6819   57.9147 S   0  0  0  0  0  0  0  0  0  0  0  0
   69.6473   44.7446   59.2969 O   0  0  0  0  0  0  0  0  0  0  0  0
   69.3507   43.8348   57.0752 O   0  0  0  0  0  0  0  0  0  0  0  0
   75.9094   42.6136   58.2025 C   0  0  0  0  0  0  0  0  0  0  0  0
   74.4942   43.0681   58.1169 C   0  0  0  0  0  0  0  0  0  0  0  0
   73.4452   42.2183   57.8602 C   0  0  0  0  0  0  0  0  0  0  0  0
   72.1322   42.6743   57.7892 C   0  0  0  0  0  0  0  0  0  0  0  0
   71.8568   44.0088   57.9770 C   0  0  0  0  0  0  0  0  0  0  0  0
   72.9009   44.8882   58.2371 C   0  0  0  0  0  0  0  0  0  0  0  0
   74.2035   44.4107   58.3034 C   0  0  0  0  0  0  0  0  0  0  0  0
 17 18  1  0  0  0
 18 19  2  0  0  0
 18 23  1  0  0  0
 19 20  1  0  0  0
 20 21  2  0  0  0
 21 14  1  0  0  0
 21 22  1  0  0  0
 14 15  2  0  0  0
 14 16  2  0  0  0
 14  1  1  0  0  0
  1  2  1  0  0  0
  2  3  2  0  0  0
  2  4  1  0  0  0
  4  5  2  0  0  0
  4 13  1  0  0  0
  5  6  1  0  0  0
  6  7  1  0  0  0
  6  8  1  0  0  0
  8  9  1  0  0  0
  8 13  2  0  0  0
  9 10  2  0  0  0
 10 11  1  0  0  0
 11 12  2  0  0  0
 12 13  1  0  0  0
 22 23  2  0  0  0
M  END
> <minimizedAffinity>
-7.09985

$$$$
cs_R4_output_folder/data/smiles/87.pdb


 21 23  0  0  0  0  0  0  0  0999 V2000
   69.2661   45.6007   56.7922 C   0  0  0  0  0  0  0  0  0  0  0  0
   70.3942   46.1009   57.3020 N   0  0  0  0  0  0  0  0  0  0  0  0
   71.2846   45.2986   57.9551 C   0  0  0  0  0  0  0  0  0  0  0  0
   71.0114   43.9447   58.0890 C   0  0  0  0  0  0  0  0  0  0  0  0
   69.8581   43.4338   57.5680 C   0  0  0  0  0  0  0  0  0  0  0  0
   69.0183   44.3008   56.9297 N   0  0  0  0  0  0  0  0  0  0  0  0
   69.5364   42.0293   57.6817 C   0  0  0  0  0  0  0  0  0  0  0  0
   70.2698   41.0916   58.3567 C   0  0  0  0  0  0  0  0  0  0  0  0
   69.8783   39.7548   58.4082 C   0  0  0  0  0  0  0  0  0  0  0  0
   68.7324   39.3271   57.7773 C   0  0  0  0  0  0  0  0  0  0  0  0
   67.9899   40.2641   57.0977 C   0  0  0  0  0  0  0  0  0  0  0  0
   68.3753   41.5846   57.0456 C   0  0  0  0  0  0  0  0  0  0  0  0
   68.3403   46.4174   56.1111 N   0  0  0  0  0  0  0  0  0  0  0  0
   69.2117   47.7355   52.7194 C   0  0  0  0  0  0  0  0  0  0  0  0
   68.5831   46.8073   51.9190 C   0  0  0  0  0  0  0  0  0  0  0  0
   67.8821   45.7632   52.5145 C   0  0  0  0  0  0  0  0  0  0  0  0
   67.8156   45.6570   53.8903 C   0  0  0  0  0  0  0  0  0  0  0  0
   68.4426   46.5828   54.7041 C   0  0  0  0  0  0  0  0  0  0  0  0
   69.1230   47.5960   54.0970 C   0  0  0  0  0  0  0  0  0  0  0  0
   70.5025   48.6690   51.0078 O   0  0  0  0  0  0  0  0  0  0  0  0
   69.9461   48.8282   52.1167 C   0  0  0  0  0  0  0  0  0  0  0  0
 20 21  2  0  0  0
 21 14  1  0  0  0
 14 15  2  0  0  0
 14 19  1  0  0  0
 15 16  1  0  0  0
 16 17  2  0  0  0
 17 18  1  0  0  0
 18 13  1  0  0  0
 18 19  2  0  0  0
 13  1  1  0  0  0
  1  2  2  0  0  0
  1  6  1  0  0  0
  2  3  1  0  0  0
  3  4  2  0  0  0
  4  5  1  0  0  0
  5  7  1  0  0  0
  5  6  2  0  0  0
  7  8  2  0  0  0
  7 12  1  0  0  0
  8  9  1  0  0  0
  9 10  2  0  0  0
 10 11  1  0  0  0
 11 12  2  0  0  0
M  END
> <minimizedAffinity>
-8.53104

$$$$
cs_R4_output_folder/data/smiles/88.pdb


 29 32  0  0  0  0  0  0  0  0999 V2000
   68.8703   41.9496   57.2667 C   0  0  0  0  0  0  0  0  0  0  0  0
   69.8994   41.3643   58.0144 C   0  0  0  0  0  0  0  0  0  0  0  0
   69.9419   40.0300   58.3468 C   0  0  0  0  0  0  0  0  0  0  0  0
   68.8999   39.2560   57.9057 C   0  0  0  0  0  0  0  0  0  0  0  0
   67.8511   39.7445   57.1682 C   0  0  0  0  0  0  0  0  0  0  0  0
   67.8637   41.1203   56.8584 C   0  0  0  0  0  0  0  0  0  0  0  0
   66.8447   41.6330   56.1230 F   0  0  0  0  0  0  0  0  0  0  0  0
   69.7711   44.0604   57.6621 O   0  0  0  0  0  0  0  0  0  0  0  0
   68.9179   43.3695   56.9897 C   0  0  0  0  0  0  0  0  0  0  0  0
   68.1521   44.0985   56.0823 N   0  0  0  0  0  0  0  0  0  0  0  0
   68.2814   45.4694   55.8930 O   0  0  0  0  0  0  0  0  0  0  0  0
   68.3949   46.0420   54.6385 C   0  0  0  0  0  0  0  0  0  0  0  0
   69.0255   47.2500   54.4384 C   0  0  0  0  0  0  0  0  0  0  0  0
   69.1291   47.8106   53.1617 C   0  0  0  0  0  0  0  0  0  0  0  0
   68.6026   47.1699   52.0613 C   0  0  0  0  0  0  0  0  0  0  0  0
   67.9744   45.9617   52.2681 C   0  0  0  0  0  0  0  0  0  0  0  0
   67.8740   45.4115   53.5296 C   0  0  0  0  0  0  0  0  0  0  0  0
   71.0492   39.4875   59.1765 C   0  0  0  0  0  0  0  0  0  0  0  0
   70.8912   38.0819   59.5692 C   0  0  0  0  0  0  0  0  0  0  0  0
   70.1720   37.7688   60.6875 N   0  0  0  0  0  0  0  0  0  0  0  0
   69.9952   36.5607   61.1536 N   0  0  0  0  0  0  0  0  0  0  0  0
   70.5447   35.5205   60.5171 C   0  0  0  0  0  0  0  0  0  0  0  0
   70.4194   34.3249   60.9063 O   0  0  0  0  0  0  0  0  0  0  0  0
   71.2848   35.7637   59.3777 C   0  0  0  0  0  0  0  0  0  0  0  0
   71.8621   34.7095   58.6789 C   0  0  0  0  0  0  0  0  0  0  0  0
   72.5967   34.9004   57.5329 C   0  0  0  0  0  0  0  0  0  0  0  0
   72.7519   36.1866   57.0831 C   0  0  0  0  0  0  0  0  0  0  0  0
   72.2148   37.2645   57.7184 C   0  0  0  0  0  0  0  0  0  0  0  0
   71.4714   37.0573   58.8824 C   0  0  0  0  0  0  0  0  0  0  0  0
  8  9  2  0  0  0
  9 10  1  0  0  0
  9  1  1  0  0  0
 10 11  1  0  0  0
 11 12  1  0  0  0
 12 13  2  0  0  0
 12 17  1  0  0  0
 13 14  1  0  0  0
 14 15  2  0  0  0
 15 16  1  0  0  0
 16 17  2  0  0  0
  1  2  2  0  0  0
  1  6  1  0  0  0
  2  3  1  0  0  0
  3 18  1  0  0  0
  3  4  2  0  0  0
 18 19  1  0  0  0
 19 20  2  0  0  0
 19 29  1  0  0  0
 20 21  1  0  0  0
 21 22  1  0  0  0
 22 23  2  0  0  0
 22 24  1  0  0  0
 24 25  1  0  0  0
 24 29  2  0  0  0
 25 26  2  0  0  0
 26 27  1  0  0  0
 27 28  2  0  0  0
 28 29  1  0  0  0
  4  5  1  0  0  0
  5  6  2  0  0  0
  6  7  1  0  0  0
M  END
> <minimizedAffinity>
-10.39142

$$$$
cs_R4_output_folder/data/smiles/89.pdb


 19 21  0  0  0  0  0  0  0  0999 V2000
   69.7919   48.8880   55.2675 N   0  0  0  0  0  0  0  0  0  0  0  0
   70.3120   49.4311   54.1508 C   0  0  0  0  0  0  0  0  0  0  0  0
   71.2183   50.5976   54.3396 C   0  0  0  0  0  0  0  0  0  0  0  0
   70.0087   48.9234   52.9551 N   0  0  0  0  0  0  0  0  0  0  0  0
   69.1992   47.8767   52.7492 C   0  0  0  0  0  0  0  0  0  0  0  0
   68.9147   47.3896   51.5279 N   0  0  0  0  0  0  0  0  0  0  0  0
   68.1012   46.3390   51.3146 C   0  0  0  0  0  0  0  0  0  0  0  0
   67.5400   45.7426   52.4222 C   0  0  0  0  0  0  0  0  0  0  0  0
   67.8163   46.2229   53.6849 C   0  0  0  0  0  0  0  0  0  0  0  0
   68.6544   47.3045   53.8790 C   0  0  0  0  0  0  0  0  0  0  0  0
   68.9676   47.8278   55.1064 C   0  0  0  0  0  0  0  0  0  0  0  0
   68.4588   47.2917   56.1466 O   0  0  0  0  0  0  0  0  0  0  0  0
   68.1239   50.9092   56.3690 C   0  0  0  0  0  0  0  0  0  0  0  0
   69.2814   50.3647   57.0898 C   0  0  0  0  0  0  0  0  0  0  0  0
   69.5405   50.8857   58.3656 C   0  0  0  0  0  0  0  0  0  0  0  0
   70.6048   50.4265   59.1024 C   0  0  0  0  0  0  0  0  0  0  0  0
   71.4087   49.4513   58.5682 C   0  0  0  0  0  0  0  0  0  0  0  0
   71.1478   48.9342   57.2967 C   0  0  0  0  0  0  0  0  0  0  0  0
   70.0839   49.3901   56.5576 C   0  0  0  0  0  0  0  0  0  0  0  0
 13 14  1  0  0  0
 14 15  2  0  0  0
 14 19  1  0  0  0
 15 16  1  0  0  0
 16 17  2  0  0  0
 17 18  1  0  0  0
 18 19  2  0  0  0
 19  1  1  0  0  0
  1  2  1  0  0  0
  1 11  1  0  0  0
  2  3  1  0  0  0
  2  4  2  0  0  0
  4  5  1  0  0  0
  5  6  2  0  0  0
  5 10  1  0  0  0
  6  7  1  0  0  0
  7  8  2  0  0  0
  8  9  1  0  0  0
  9 10  2  0  0  0
 10 11  1  0  0  0
 11 12  2  0  0  0
M  END
> <minimizedAffinity>
-6.31851

$$$$
cs_R4_output_folder/data/smiles/90.pdb


 21 23  0  0  0  0  0  0  0  0999 V2000
   69.7121   51.7696   54.5692 C   0  0  0  0  0  0  0  0  0  0  0  0
   69.8694   49.4195   53.9591 C   0  0  0  0  0  0  0  0  0  0  0  0
   70.9859   49.3566   54.5688 O   0  0  0  0  0  0  0  0  0  0  0  0
   69.1431   50.6497   53.9028 N   0  0  0  0  0  0  0  0  0  0  0  0
   68.5068   47.3910   55.4682 C   0  0  0  0  0  0  0  0  0  0  0  0
   68.6354   47.2559   54.0060 C   0  0  0  0  0  0  0  0  0  0  0  0
   68.0864   46.1559   53.3545 C   0  0  0  0  0  0  0  0  0  0  0  0
   68.2117   46.0301   51.9901 C   0  0  0  0  0  0  0  0  0  0  0  0
   68.8731   46.9997   51.3404 N   0  0  0  0  0  0  0  0  0  0  0  0
   69.4094   48.0649   51.9327 C   0  0  0  0  0  0  0  0  0  0  0  0
   69.3150   48.2474   53.3170 C   0  0  0  0  0  0  0  0  0  0  0  0
   68.9268   52.5334   55.5321 C   0  0  0  0  0  0  0  0  0  0  0  0
   68.9040   52.1841   56.9714 C   0  0  0  0  0  0  0  0  0  0  0  0
   67.6967   51.2870   57.1606 C   0  0  0  0  0  0  0  0  0  0  0  0
   68.2171   50.0285   57.5417 N   0  0  0  0  0  0  0  0  0  0  0  0
   69.5790   50.1909   57.8802 C   0  0  0  0  0  0  0  0  0  0  0  0
   70.4025   49.2286   58.4781 C   0  0  0  0  0  0  0  0  0  0  0  0
   71.7131   49.5404   58.7682 C   0  0  0  0  0  0  0  0  0  0  0  0
   72.1521   50.8199   58.4426 C   0  0  0  0  0  0  0  0  0  0  0  0
   71.3244   51.7544   57.8523 C   0  0  0  0  0  0  0  0  0  0  0  0
   70.0026   51.4561   57.5544 C   0  0  0  0  0  0  0  0  0  0  0  0
  5  6  1  0  0  0
  6  7  2  0  0  0
  6 11  1  0  0  0
  7  8  1  0  0  0
  8  9  2  0  0  0
  9 10  1  0  0  0
 10 11  2  0  0  0
 11  2  1  0  0  0
  2  3  2  0  0  0
  2  4  1  0  0  0
  4  1  1  0  0  0
  1 12  1  0  0  0
 13 12  1  0  0  0
 13 14  1  0  0  0
 13 21  1  0  0  0
 14 15  1  0  0  0
 15 16  1  0  0  0
 16 17  1  0  0  0
 16 21  2  0  0  0
 17 18  2  0  0  0
 18 19  1  0  0  0
 19 20  2  0  0  0
 20 21  1  0  0  0
M  END
> <minimizedAffinity>
-7.18216

$$$$
cs_R4_output_folder/data/smiles/91.pdb


 23 24  0  0  0  0  0  0  0  0999 V2000
   68.3269   47.6669   56.6294 S   0  0  0  0  0  0  0  0  0  0  0  0
   68.5194   48.9690   55.9050 O   0  0  0  0  0  0  0  0  0  0  0  0
   67.2663   47.8934   57.6632 O   0  0  0  0  0  0  0  0  0  0  0  0
   72.1610   46.2958   58.7446 C   0  0  0  0  0  0  0  0  0  0  0  0
   71.8307   47.6283   58.6219 C   0  0  0  0  0  0  0  0  0  0  0  0
   70.6835   48.0603   57.9900 C   0  0  0  0  0  0  0  0  0  0  0  0
   69.7988   47.1550   57.4425 C   0  0  0  0  0  0  0  0  0  0  0  0
   70.1289   45.8235   57.5653 C   0  0  0  0  0  0  0  0  0  0  0  0
   71.2776   45.3887   58.1978 C   0  0  0  0  0  0  0  0  0  0  0  0
   74.2278   47.0705   59.8508 C   0  0  0  0  0  0  0  0  0  0  0  0
   73.4132   45.8639   59.4366 C   0  0  0  0  0  0  0  0  0  0  0  0
   74.3022   45.0695   58.4697 C   0  0  0  0  0  0  0  0  0  0  0  0
   72.9996   44.5971   61.0838 I   0  0  0  0  0  0  0  0  0  0  0  0
   67.7985   46.5021   55.5073 N   0  0  0  0  0  0  0  0  0  0  0  0
   68.0898   46.6019   54.1038 C   0  0  0  0  0  0  0  0  0  0  0  0
   67.4240   45.8245   53.1797 C   0  0  0  0  0  0  0  0  0  0  0  0
   67.7165   45.9327   51.8317 C   0  0  0  0  0  0  0  0  0  0  0  0
   68.6766   46.8207   51.3974 C   0  0  0  0  0  0  0  0  0  0  0  0
   69.3466   47.6028   52.3094 C   0  0  0  0  0  0  0  0  0  0  0  0
   69.0428   47.4785   53.6325 C   0  0  0  0  0  0  0  0  0  0  0  0
   70.4017   48.5840   51.8815 C   0  0  0  0  0  0  0  0  0  0  0  0
   71.1269   49.0409   52.9738 O   0  0  0  0  0  0  0  0  0  0  0  0
   69.8642   49.6475   51.1934 O   0  0  0  0  0  0  0  0  0  0  0  0
 10 11  1  0  0  0
 11 12  1  0  0  0
 11 13  1  0  0  0
 11  4  1  0  0  0
  4  5  2  0  0  0
  4  9  1  0  0  0
  5  6  1  0  0  0
  6  7  2  0  0  0
  7  1  1  0  0  0
  7  8  1  0  0  0
  1  2  2  0  0  0
  1  3  2  0  0  0
  1 14  1  0  0  0
 14 15  1  0  0  0
 15 16  2  0  0  0
 15 20  1  0  0  0
 16 17  1  0  0  0
 17 18  2  0  0  0
 18 19  1  0  0  0
 19 21  1  0  0  0
 19 20  2  0  0  0
 21 22  1  0  0  0
 21 23  1  0  0  0
  8  9  2  0  0  0
M  END
> <minimizedAffinity>
-7.94647

$$$$
cs_R4_output_folder/data/smiles/92.pdb


 26 27  0  0  0  0  0  0  0  0999 V2000
   70.3885   42.8143   58.5762 C   0  0  0  0  0  0  0  0  0  0  0  0
   69.1653   43.0691   58.4602 O   0  0  0  0  0  0  0  0  0  0  0  0
   71.2782   43.9098   58.6542 N   0  0  0  0  0  0  0  0  0  0  0  0
   71.5837   38.6830   58.6996 C   0  0  0  0  0  0  0  0  0  0  0  0
   70.2643   39.0370   58.5520 C   0  0  0  0  0  0  0  0  0  0  0  0
   69.8715   40.3739   58.5117 C   0  0  0  0  0  0  0  0  0  0  0  0
   70.7771   41.4100   58.6174 C   0  0  0  0  0  0  0  0  0  0  0  0
   72.1032   41.0330   58.7647 C   0  0  0  0  0  0  0  0  0  0  0  0
   72.4964   39.7114   58.8049 C   0  0  0  0  0  0  0  0  0  0  0  0
   72.3210   36.7320   57.3579 C   0  0  0  0  0  0  0  0  0  0  0  0
   72.0201   37.2557   58.7452 C   0  0  0  0  0  0  0  0  0  0  0  0
   73.3026   37.1422   59.5475 C   0  0  0  0  0  0  0  0  0  0  0  0
   70.9741   36.4362   59.4302 C   0  0  0  0  0  0  0  0  0  0  0  0
   70.8703   45.2628   58.6097 C   0  0  0  0  0  0  0  0  0  0  0  0
   71.7536   46.3770   59.3861 S   0  0  0  0  0  0  0  0  0  0  0  0
   69.7155   45.6494   57.9059 N   0  0  0  0  0  0  0  0  0  0  0  0
   69.6283   45.7380   56.5248 N   0  0  0  0  0  0  0  0  0  0  0  0
   68.6800   46.5300   55.8462 C   0  0  0  0  0  0  0  0  0  0  0  0
   67.8758   47.1857   56.5783 O   0  0  0  0  0  0  0  0  0  0  0  0
   68.5877   46.6248   54.3883 C   0  0  0  0  0  0  0  0  0  0  0  0
   69.1356   47.6465   53.6704 C   0  0  0  0  0  0  0  0  0  0  0  0
   69.0260   47.6979   52.2821 C   0  0  0  0  0  0  0  0  0  0  0  0
   68.3545   46.7065   51.6047 C   0  0  0  0  0  0  0  0  0  0  0  0
   67.7955   45.6667   52.3141 C   0  0  0  0  0  0  0  0  0  0  0  0
   67.9202   45.6408   53.6968 C   0  0  0  0  0  0  0  0  0  0  0  0
   67.3439   44.5784   54.3743 O   0  0  0  0  0  0  0  0  0  0  0  0
 10 11  1  0  0  0
 11 12  1  0  0  0
 11 13  1  0  0  0
 11  4  1  0  0  0
  4  5  2  0  0  0
  4  9  1  0  0  0
  5  6  1  0  0  0
  6  7  2  0  0  0
  7  1  1  0  0  0
  7  8  1  0  0  0
  1  2  2  0  0  0
  1  3  1  0  0  0
  3 14  1  0  0  0
 14 15  2  0  0  0
 14 16  1  0  0  0
 16 17  1  0  0  0
 17 18  1  0  0  0
 18 19  2  0  0  0
 18 20  1  0  0  0
 20 21  2  0  0  0
 20 25  1  0  0  0
 21 22  1  0  0  0
 22 23  2  0  0  0
 23 24  1  0  0  0
 24 25  2  0  0  0
 25 26  1  0  0  0
  8  9  2  0  0  0
M  END
> <minimizedAffinity>
-8.56512

$$$$
cs_R4_output_folder/data/smiles/93.pdb


 25 27  0  0  0  0  0  0  0  0999 V2000
   68.9091   47.6078   55.1592 C   0  0  0  0  0  0  0  0  0  0  0  0
   68.8052   46.7952   56.2660 C   0  0  0  0  0  0  0  0  0  0  0  0
   69.4854   47.0199   57.4461 C   0  0  0  0  0  0  0  0  0  0  0  0
   70.3087   48.1528   57.4533 C   0  0  0  0  0  0  0  0  0  0  0  0
   70.4416   48.9946   56.3720 C   0  0  0  0  0  0  0  0  0  0  0  0
   69.7380   48.7177   55.2214 C   0  0  0  0  0  0  0  0  0  0  0  0
   71.3068   50.1932   56.4084 C   0  0  0  0  0  0  0  0  0  0  0  0
   71.5868   50.7148   57.7669 C   0  0  0  0  0  0  0  0  0  0  0  0
   71.1698   49.9007   58.9318 C   0  0  0  0  0  0  0  0  0  0  0  0
   71.0296   48.4644   58.6342 N   0  0  0  0  0  0  0  0  0  0  0  0
   71.6254   47.4800   59.4574 C   0  0  0  0  0  0  0  0  0  0  0  0
   71.8900   47.7780   60.6884 O   0  0  0  0  0  0  0  0  0  0  0  0
   71.9487   46.1610   58.9701 C   0  0  0  0  0  0  0  0  0  0  0  0
   71.1549   45.0421   59.0587 C   0  0  0  0  0  0  0  0  0  0  0  0
   71.5478   43.8252   58.4776 C   0  0  0  0  0  0  0  0  0  0  0  0
   72.7416   43.7196   57.7985 C   0  0  0  0  0  0  0  0  0  0  0  0
   73.0958   42.4989   57.2364 O   0  0  0  0  0  0  0  0  0  0  0  0
   73.5488   44.8237   57.6954 C   0  0  0  0  0  0  0  0  0  0  0  0
   73.1544   46.0111   58.2708 C   0  0  0  0  0  0  0  0  0  0  0  0
   73.9722   47.1236   58.1646 O   0  0  0  0  0  0  0  0  0  0  0  0
   68.2158   47.3526   53.9911 O   0  0  0  0  0  0  0  0  0  0  0  0
   68.5000   46.3679   53.0621 C   0  0  0  0  0  0  0  0  0  0  0  0
   70.0469   47.3725   51.3095 N   0  0  0  0  0  0  0  0  0  0  0  0
   68.7977   46.8279   51.6986 C   0  0  0  0  0  0  0  0  0  0  0  0
   67.9072   46.7445   50.8180 O   0  0  0  0  0  0  0  0  0  0  0  0
 23 24  1  0  0  0
 24 25  2  0  0  0
 24 22  1  0  0  0
 22 21  1  0  0  0
 21  1  1  0  0  0
  1  2  2  0  0  0
  1  6  1  0  0  0
  2  3  1  0  0  0
  3  4  2  0  0  0
  4  5  1  0  0  0
  4 10  1  0  0  0
  5  6  2  0  0  0
  5  7  1  0  0  0
  7  8  1  0  0  0
  8  9  1  0  0  0
  9 10  1  0  0  0
 10 11  1  0  0  0
 11 12  2  0  0  0
 11 13  1  0  0  0
 13 14  2  0  0  0
 13 19  1  0  0  0
 14 15  1  0  0  0
 15 16  2  0  0  0
 16 17  1  0  0  0
 16 18  1  0  0  0
 18 19  2  0  0  0
 19 20  1  0  0  0
M  END
> <minimizedAffinity>
-6.69454

$$$$
cs_R4_output_folder/data/smiles/94.pdb


 21 23  0  0  0  0  0  0  0  0999 V2000
   69.7817   48.7715   56.7293 C   0  0  0  0  0  0  0  0  0  0  0  0
   67.0161   49.5549   57.9024 C   0  0  0  0  0  0  0  0  0  0  0  0
   68.0705   50.4763   57.3937 C   0  0  0  0  0  0  0  0  0  0  0  0
   67.9265   51.8427   57.3898 C   0  0  0  0  0  0  0  0  0  0  0  0
   69.1056   52.3438   56.8470 C   0  0  0  0  0  0  0  0  0  0  0  0
   69.5630   53.6220   56.5825 C   0  0  0  0  0  0  0  0  0  0  0  0
   70.7928   53.8656   56.0291 C   0  0  0  0  0  0  0  0  0  0  0  0
   71.5933   52.7877   55.7294 C   0  0  0  0  0  0  0  0  0  0  0  0
   71.1588   51.5126   55.9841 C   0  0  0  0  0  0  0  0  0  0  0  0
   69.9185   51.2564   56.5427 C   0  0  0  0  0  0  0  0  0  0  0  0
   69.2723   50.1117   56.8835 N   0  0  0  0  0  0  0  0  0  0  0  0
   69.2696   48.1008   55.4907 C   0  0  0  0  0  0  0  0  0  0  0  0
   69.4838   48.6180   54.2303 C   0  0  0  0  0  0  0  0  0  0  0  0
   69.0067   47.9878   53.0990 C   0  0  0  0  0  0  0  0  0  0  0  0
   68.2851   46.7970   53.1741 C   0  0  0  0  0  0  0  0  0  0  0  0
   68.0687   46.2785   54.4225 C   0  0  0  0  0  0  0  0  0  0  0  0
   68.5549   46.9237   55.5676 C   0  0  0  0  0  0  0  0  0  0  0  0
   67.7902   46.1497   51.9619 C   0  0  0  0  0  0  0  0  0  0  0  0
   68.1063   46.5710   50.8135 O   0  0  0  0  0  0  0  0  0  0  0  0
   66.9368   45.0217   51.9934 N   0  0  0  0  0  0  0  0  0  0  0  0
   66.5024   44.4529   50.8224 O   0  0  0  0  0  0  0  0  0  0  0  0
  2  3  1  0  0  0
  3  4  2  0  0  0
  3 11  1  0  0  0
  4  5  1  0  0  0
  5  6  2  0  0  0
  5 10  1  0  0  0
  6  7  1  0  0  0
  7  8  2  0  0  0
  8  9  1  0  0  0
  9 10  2  0  0  0
 10 11  1  0  0  0
 11  1  1  0  0  0
  1 12  1  0  0  0
 12 13  2  0  0  0
 12 17  1  0  0  0
 13 14  1  0  0  0
 14 15  2  0  0  0
 15 18  1  0  0  0
 15 16  1  0  0  0
 18 19  2  0  0  0
 18 20  1  0  0  0
 20 21  1  0  0  0
 16 17  2  0  0  0
M  END
> <minimizedAffinity>
-7.64681

$$$$
cs_R4_output_folder/data/smiles/95.pdb


 23 25  0  0  0  0  0  0  0  0999 V2000
   73.7068   52.8223   57.5292 O   0  0  0  0  0  0  0  0  0  0  0  0
   72.8924   52.3733   56.6804 C   0  0  0  0  0  0  0  0  0  0  0  0
   71.6169   52.7667   56.7593 N   0  0  0  0  0  0  0  0  0  0  0  0
   70.6625   52.3287   55.8767 C   0  0  0  0  0  0  0  0  0  0  0  0
   71.0611   51.4613   54.8953 C   0  0  0  0  0  0  0  0  0  0  0  0
   72.4166   51.0739   54.8507 C   0  0  0  0  0  0  0  0  0  0  0  0
   72.7962   50.2735   53.9501 O   0  0  0  0  0  0  0  0  0  0  0  0
   73.3051   51.5257   55.7281 N   0  0  0  0  0  0  0  0  0  0  0  0
   69.2703   52.7936   55.9732 C   0  0  0  0  0  0  0  0  0  0  0  0
   68.4773   52.0369   56.8129 F   0  0  0  0  0  0  0  0  0  0  0  0
   69.3551   54.0318   56.6940 F   0  0  0  0  0  0  0  0  0  0  0  0
   68.6802   53.1564   54.8055 F   0  0  0  0  0  0  0  0  0  0  0  0
   70.1603   50.8956   53.8986 C   0  0  0  0  0  0  0  0  0  0  0  0
   69.5848   49.5801   54.1896 C   0  0  0  0  0  0  0  0  0  0  0  0
   69.3636   49.1380   55.4715 C   0  0  0  0  0  0  0  0  0  0  0  0
   68.8195   47.8916   55.7184 C   0  0  0  0  0  0  0  0  0  0  0  0
   68.4723   47.0334   54.7044 C   0  0  0  0  0  0  0  0  0  0  0  0
   67.9465   45.8307   54.9532 N   0  0  0  0  0  0  0  0  0  0  0  0
   67.5975   44.9718   53.9688 C   0  0  0  0  0  0  0  0  0  0  0  0
   67.8014   45.3731   52.6692 C   0  0  0  0  0  0  0  0  0  0  0  0
   68.3393   46.6009   52.3785 C   0  0  0  0  0  0  0  0  0  0  0  0
   68.6876   47.4626   53.4158 C   0  0  0  0  0  0  0  0  0  0  0  0
   69.2261   48.6958   53.1631 C   0  0  0  0  0  0  0  0  0  0  0  0
  1  2  2  0  0  0
  2  3  1  0  0  0
  2  8  1  0  0  0
  3  4  1  0  0  0
  4  9  1  0  0  0
  4  5  2  0  0  0
  9 10  1  0  0  0
  9 11  1  0  0  0
  9 12  1  0  0  0
  5 13  1  0  0  0
  5  6  1  0  0  0
 13 14  1  0  0  0
 14 15  2  0  0  0
 14 23  1  0  0  0
 15 16  1  0  0  0
 16 17  2  0  0  0
 17 18  1  0  0  0
 17 22  1  0  0  0
 18 19  2  0  0  0
 19 20  1  0  0  0
 20 21  2  0  0  0
 21 22  1  0  0  0
 22 23  2  0  0  0
  6  7  2  0  0  0
  6  8  1  0  0  0
M  END
> <minimizedAffinity>
-7.73283

$$$$
cs_R4_output_folder/data/smiles/96.pdb


 27 30  0  0  0  0  0  0  0  0999 V2000
   71.3249   46.9611   58.8762 C   0  0  0  0  0  0  0  0  0  0  0  0
   70.5455   47.7894   58.1022 C   0  0  0  0  0  0  0  0  0  0  0  0
   69.7002   47.3088   57.0899 C   0  0  0  0  0  0  0  0  0  0  0  0
   69.6962   45.9485   56.9136 C   0  0  0  0  0  0  0  0  0  0  0  0
   70.4799   45.0830   57.6877 C   0  0  0  0  0  0  0  0  0  0  0  0
   71.2954   45.5973   58.6707 C   0  0  0  0  0  0  0  0  0  0  0  0
   72.0394   44.7321   59.4027 F   0  0  0  0  0  0  0  0  0  0  0  0
   71.8341   47.3205   61.1288 O   0  0  0  0  0  0  0  0  0  0  0  0
   72.1947   47.5038   59.9309 C   0  0  0  0  0  0  0  0  0  0  0  0
   73.3907   48.2056   59.6065 N   0  0  0  0  0  0  0  0  0  0  0  0
   73.7214   48.3662   58.2085 C   0  0  0  0  0  0  0  0  0  0  0  0
   74.2300   49.7453   57.9919 C   0  0  0  0  0  0  0  0  0  0  0  0
   74.6017   50.5511   58.9579 C   0  0  0  0  0  0  0  0  0  0  0  0
   74.5696   50.2039   60.4085 C   0  0  0  0  0  0  0  0  0  0  0  0
   74.2498   48.7408   60.6263 C   0  0  0  0  0  0  0  0  0  0  0  0
   68.9066   48.2830   56.2854 C   0  0  0  0  0  0  0  0  0  0  0  0
   69.3170   48.3112   54.8704 C   0  0  0  0  0  0  0  0  0  0  0  0
   70.2444   49.2406   54.5269 N   0  0  0  0  0  0  0  0  0  0  0  0
   70.6510   49.3804   53.2868 N   0  0  0  0  0  0  0  0  0  0  0  0
   70.1854   48.6235   52.2836 C   0  0  0  0  0  0  0  0  0  0  0  0
   70.5970   48.7785   51.0866 O   0  0  0  0  0  0  0  0  0  0  0  0
   69.2444   47.6606   52.5633 C   0  0  0  0  0  0  0  0  0  0  0  0
   68.7571   46.8627   51.5552 C   0  0  0  0  0  0  0  0  0  0  0  0
   67.8230   45.8970   51.8659 C   0  0  0  0  0  0  0  0  0  0  0  0
   67.4060   45.7589   53.1647 C   0  0  0  0  0  0  0  0  0  0  0  0
   67.8902   46.5587   54.1987 C   0  0  0  0  0  0  0  0  0  0  0  0
   68.8119   47.5132   53.8883 C   0  0  0  0  0  0  0  0  0  0  0  0
  8  9  2  0  0  0
  9  1  1  0  0  0
  9 10  1  0  0  0
  1  2  2  0  0  0
  1  6  1  0  0  0
  2  3  1  0  0  0
  3 16  1  0  0  0
  3  4  2  0  0  0
 16 17  1  0  0  0
 17 18  2  0  0  0
 17 27  1  0  0  0
 18 19  1  0  0  0
 19 20  1  0  0  0
 20 21  2  0  0  0
 20 22  1  0  0  0
 22 23  1  0  0  0
 22 27  2  0  0  0
 23 24  2  0  0  0
 24 25  1  0  0  0
 25 26  2  0  0  0
 26 27  1  0  0  0
  4  5  1  0  0  0
  5  6  2  0  0  0
  6  7  1  0  0  0
 10 11  1  0  0  0
 10 15  1  0  0  0
 11 12  1  0  0  0
 12 13  2  0  0  0
 13 14  1  0  0  0
 14 15  1  0  0  0
M  END
> <minimizedAffinity>
-9.39489

$$$$
cs_R4_output_folder/data/smiles/97.pdb


 24 27  0  0  0  0  0  0  0  0999 V2000
   71.6917   39.3517   60.2710 O   0  0  0  0  0  0  0  0  0  0  0  0
   71.3754   39.5188   59.0508 C   0  0  0  0  0  0  0  0  0  0  0  0
   71.1352   38.3855   58.2985 N   0  0  0  0  0  0  0  0  0  0  0  0
   71.2819   40.8677   58.5375 C   0  0  0  0  0  0  0  0  0  0  0  0
   69.9838   41.3076   58.1966 C   0  0  0  0  0  0  0  0  0  0  0  0
   69.8667   42.5813   57.7143 C   0  0  0  0  0  0  0  0  0  0  0  0
   68.7081   42.9710   57.4122 O   0  0  0  0  0  0  0  0  0  0  0  0
   70.8885   43.4165   57.5513 N   0  0  0  0  0  0  0  0  0  0  0  0
   72.1392   43.0404   57.8630 C   0  0  0  0  0  0  0  0  0  0  0  0
   73.1758   43.9262   57.6822 C   0  0  0  0  0  0  0  0  0  0  0  0
   74.4653   43.5494   57.9982 C   0  0  0  0  0  0  0  0  0  0  0  0
   74.6414   42.2768   58.4875 C   0  0  0  0  0  0  0  0  0  0  0  0
   73.5937   41.3829   58.6699 C   0  0  0  0  0  0  0  0  0  0  0  0
   72.3173   41.7461   58.3608 C   0  0  0  0  0  0  0  0  0  0  0  0
   71.1887   37.0412   58.7758 C   0  0  0  0  0  0  0  0  0  0  0  0
   70.5347   36.6444   59.9329 C   0  0  0  0  0  0  0  0  0  0  0  0
   70.5679   35.3787   60.4272 C   0  0  0  0  0  0  0  0  0  0  0  0
   71.2974   34.4399   59.7324 C   0  0  0  0  0  0  0  0  0  0  0  0
   71.9685   34.7830   58.5737 C   0  0  0  0  0  0  0  0  0  0  0  0
   72.6913   33.8234   57.9241 C   0  0  0  0  0  0  0  0  0  0  0  0
   73.3939   34.1048   56.7732 C   0  0  0  0  0  0  0  0  0  0  0  0
   73.3628   35.3826   56.2755 C   0  0  0  0  0  0  0  0  0  0  0  0
   72.6228   36.3421   56.9515 C   0  0  0  0  0  0  0  0  0  0  0  0
   71.9075   36.0994   58.0993 C   0  0  0  0  0  0  0  0  0  0  0  0
  1  2  2  0  0  0
  2  3  1  0  0  0
  2  4  1  0  0  0
  3 15  1  0  0  0
 15 16  2  0  0  0
 15 24  1  0  0  0
 16 17  1  0  0  0
 17 18  2  0  0  0
 18 19  1  0  0  0
 19 20  1  0  0  0
 19 24  2  0  0  0
 20 21  2  0  0  0
 21 22  1  0  0  0
 22 23  2  0  0  0
 23 24  1  0  0  0
  4  5  2  0  0  0
  4 14  1  0  0  0
  5  6  1  0  0  0
  6  7  2  0  0  0
  6  8  1  0  0  0
  8  9  1  0  0  0
  9 10  1  0  0  0
  9 14  2  0  0  0
 10 11  2  0  0  0
 11 12  1  0  0  0
 12 13  2  0  0  0
 13 14  1  0  0  0
M  END
> <minimizedAffinity>
-7.51338

$$$$
cs_R4_output_folder/data/smiles/98.pdb


 21 22  0  0  0  0  0  0  0  0999 V2000
   69.8252   48.0273   57.5414 C   0  0  0  0  0  0  0  0  0  0  0  0
   69.0814   49.2864   57.4369 C   0  0  0  0  0  0  0  0  0  0  0  0
   67.7483   49.3318   57.7561 C   0  0  0  0  0  0  0  0  0  0  0  0
   67.0295   50.5221   57.6522 C   0  0  0  0  0  0  0  0  0  0  0  0
   67.6956   51.6558   57.2201 C   0  0  0  0  0  0  0  0  0  0  0  0
   69.0457   51.6121   56.8975 C   0  0  0  0  0  0  0  0  0  0  0  0
   69.7527   50.4424   56.9984 C   0  0  0  0  0  0  0  0  0  0  0  0
   69.7664   52.8393   56.4298 C   0  0  0  0  0  0  0  0  0  0  0  0
   70.8423   53.1206   57.2483 F   0  0  0  0  0  0  0  0  0  0  0  0
   68.9407   53.9516   56.4632 F   0  0  0  0  0  0  0  0  0  0  0  0
   70.1477   52.6709   55.1093 F   0  0  0  0  0  0  0  0  0  0  0  0
   69.4401   46.9528   56.8393 O   0  0  0  0  0  0  0  0  0  0  0  0
   67.9709   46.1136   52.9867 C   0  0  0  0  0  0  0  0  0  0  0  0
   67.8348   45.2043   54.0105 C   0  0  0  0  0  0  0  0  0  0  0  0
   68.3148   45.4652   55.2863 C   0  0  0  0  0  0  0  0  0  0  0  0
   68.9519   46.6386   55.6169 C   0  0  0  0  0  0  0  0  0  0  0  0
   69.0815   47.5591   54.5511 C   0  0  0  0  0  0  0  0  0  0  0  0
   68.6066   47.2962   53.2969 C   0  0  0  0  0  0  0  0  0  0  0  0
   66.7152   44.8713   51.3798 O   0  0  0  0  0  0  0  0  0  0  0  0
   67.4665   45.8385   51.6438 C   0  0  0  0  0  0  0  0  0  0  0  0
   67.8273   46.6770   50.6044 O   0  0  0  0  0  0  0  0  0  0  0  0
 19 20  2  0  0  0
 20 21  1  0  0  0
 20 13  1  0  0  0
 13 14  2  0  0  0
 13 18  1  0  0  0
 14 15  1  0  0  0
 15 16  2  0  0  0
 16 12  1  0  0  0
 16 17  1  0  0  0
 12  1  1  0  0  0
  1  2  1  0  0  0
  2  3  2  0  0  0
  2  7  1  0  0  0
  3  4  1  0  0  0
  4  5  2  0  0  0
  5  6  1  0  0  0
  6  8  1  0  0  0
  6  7  2  0  0  0
  8  9  1  0  0  0
  8 10  1  0  0  0
  8 11  1  0  0  0
 17 18  2  0  0  0
M  END
> <minimizedAffinity>
-7.05809

$$$$
cs_R4_output_folder/data/smiles/99.pdb


 21 23  0  0  0  0  0  0  0  0999 V2000
   71.1315   47.1129   59.6460 O   0  0  0  0  0  0  0  0  0  0  0  0
   70.9106   46.5250   58.5161 C   0  0  0  0  0  0  0  0  0  0  0  0
   70.1159   47.2229   57.5957 N   0  0  0  0  0  0  0  0  0  0  0  0
   69.8225   48.6794   57.6163 C   0  0  0  0  0  0  0  0  0  0  0  0
   70.1212   48.9747   56.1328 C   0  0  0  0  0  0  0  0  0  0  0  0
   69.4135   47.8133   55.4792 C   0  0  0  0  0  0  0  0  0  0  0  0
   68.8007   47.6188   54.2706 C   0  0  0  0  0  0  0  0  0  0  0  0
   68.1938   46.4206   53.9528 C   0  0  0  0  0  0  0  0  0  0  0  0
   67.5810   46.2384   52.7348 F   0  0  0  0  0  0  0  0  0  0  0  0
   68.2168   45.4057   54.8888 C   0  0  0  0  0  0  0  0  0  0  0  0
   68.8278   45.5791   56.1069 C   0  0  0  0  0  0  0  0  0  0  0  0
   69.4411   46.8004   56.4179 C   0  0  0  0  0  0  0  0  0  0  0  0
   71.5210   45.2282   58.3689 C   0  0  0  0  0  0  0  0  0  0  0  0
   72.7931   45.0323   57.8773 C   0  0  0  0  0  0  0  0  0  0  0  0
   73.3910   43.7677   57.7992 C   0  0  0  0  0  0  0  0  0  0  0  0
   72.7109   42.6519   58.2215 C   0  0  0  0  0  0  0  0  0  0  0  0
   71.4416   42.8362   58.7146 C   0  0  0  0  0  0  0  0  0  0  0  0
   70.8582   44.0698   58.7901 C   0  0  0  0  0  0  0  0  0  0  0  0
   69.5786   44.2374   59.2894 O   0  0  0  0  0  0  0  0  0  0  0  0
   73.2660   41.3868   58.1603 O   0  0  0  0  0  0  0  0  0  0  0  0
   72.2816   39.8710   59.1513 I   0  0  0  0  0  0  0  0  0  0  0  0
  1  2  2  0  0  0
  2 13  1  0  0  0
  2  3  1  0  0  0
 13 14  2  0  0  0
 13 18  1  0  0  0
 14 15  1  0  0  0
 15 16  2  0  0  0
 16 20  1  0  0  0
 16 17  1  0  0  0
 20 21  1  0  0  0
 17 18  2  0  0  0
 18 19  1  0  0  0
  3  4  1  0  0  0
  3 12  1  0  0  0
  4  5  1  0  0  0
  5  6  1  0  0  0
  6  7  1  0  0  0
  6 12  2  0  0  0
  7  8  2  0  0  0
  8  9  1  0  0  0
  8 10  1  0  0  0
 10 11  2  0  0  0
 11 12  1  0  0  0
M  END
> <minimizedAffinity>
-6.23619

$$$$
