@<TRIPOS>MOLECULE
*****
 48 50 0 0 0
SMALL
GASTEIGER

@<TRIPOS>ATOM
      1 C           5.2734   -1.3283   -2.2358 C.3     1  UNL1       -0.0624
      2 C           5.5615   -0.6938   -0.8797 C.3     1  UNL1       -0.0421
      3 C           5.8303    0.7926   -1.0667 C.3     1  UNL1       -0.0487
      4 C           4.4698    1.4162   -1.0497 C.3     1  UNL1       -0.0301
      5 C           3.5292    0.4282   -0.3863 C.3     1  UNL1        0.0822
      6 S           2.8627    1.2498    1.0468 S.O2    1  UNL1       -0.0002
      7 O           3.9291    1.5202    2.0738 O.2     1  UNL1       -0.1691
      8 O           2.1958    2.5093    0.5813 O.2     1  UNL1       -0.1691
      9 C           1.7112    0.1712    1.7830 C.ar    1  UNL1        0.0892
     10 C           2.1554   -0.7422    2.7131 C.ar    1  UNL1       -0.0368
     11 C           1.2450   -1.6005    3.3079 C.ar    1  UNL1       -0.0592
     12 C          -0.0738   -1.5112    2.9487 C.ar    1  UNL1       -0.0495
     13 C          -0.5312   -0.6032    2.0211 C.ar    1  UNL1        0.0400
     14 C          -1.9305   -0.5060    1.6518 C.2     1  UNL1        0.2602
     15 O          -2.7668   -1.2014    2.2904 O.2     1  UNL1       -0.2687
     16 N          -2.4592    0.3087    0.6248 N.am    1  UNL1       -0.2301
     17 N          -3.8213    0.3590    0.3190 N.am    1  UNL1       -0.2289
     18 C          -4.4168   -0.0500   -0.8899 C.2     1  UNL1        0.2784
     19 O          -3.6456   -0.5114   -1.8007 O.2     1  UNL1       -0.2670
     20 C          -5.8456    0.0153   -1.1723 C.ar    1  UNL1        0.1268
     21 C          -6.7431    0.5255   -0.2716 C.ar    1  UNL1       -0.0311
     22 C          -8.1154    0.5812   -0.5446 C.ar    1  UNL1       -0.0582
     23 C          -8.5437    0.1018   -1.7600 C.ar    1  UNL1       -0.0436
     24 C          -7.6337   -0.4047   -2.6483 C.ar    1  UNL1        0.0284
     25 N          -6.3039   -0.4407   -2.3429 N.ar    1  UNL1       -0.2503
     26 C           0.3624    0.2523    1.4252 C.ar    1  UNL1       -0.0247
     27 C           4.3338   -0.7717   -0.0296 C.3     1  UNL1       -0.0277
     28 H           5.9251   -0.8596   -3.0235 H       1  UNL1        0.0232
     29 H           5.3812   -2.4183   -2.2268 H       1  UNL1        0.0232
     30 H           4.2014   -1.1305   -2.4693 H       1  UNL1        0.0232
     31 H           6.4385   -1.2199   -0.4410 H       1  UNL1        0.0299
     32 H           6.3446    0.9949   -2.0323 H       1  UNL1        0.0268
     33 H           6.4524    1.1295   -0.1879 H       1  UNL1        0.0268
     34 H           4.4944    2.4032   -0.5304 H       1  UNL1        0.0284
     35 H           4.1063    1.6049   -2.0891 H       1  UNL1        0.0284
     36 H           2.6677    0.1931   -1.0540 H       1  UNL1        0.0540
     37 H           3.2018   -0.8318    3.0178 H       1  UNL1        0.0636
     38 H           1.5477   -2.3467    4.0546 H       1  UNL1        0.0618
     39 H          -0.7766   -2.1989    3.4299 H       1  UNL1        0.0625
     40 H          -1.7963    0.8924    0.0773 H       1  UNL1        0.1731
     41 H          -4.4373    0.7382    1.0685 H       1  UNL1        0.1732
     42 H          -6.4177    0.9054    0.6867 H       1  UNL1        0.0640
     43 H          -8.8374    0.9817    0.1552 H       1  UNL1        0.0619
     44 H          -9.6073    0.1423   -1.9766 H       1  UNL1        0.0633
     45 H          -7.9804   -0.7839   -3.6156 H       1  UNL1        0.0830
     46 H           0.1161    1.0032    0.6868 H       1  UNL1        0.0644
     47 H           3.7864   -1.6906   -0.2934 H       1  UNL1        0.0286
     48 H           4.5604   -0.8540    1.0542 H       1  UNL1        0.0286
@<TRIPOS>BOND
     1     1     2    1
     2     1    28    1
     3     1    29    1
     4     1    30    1
     5     2     3    1
     6     2    31    1
     7     3     4    1
     8     3    32    1
     9     3    33    1
    10     4     5    1
    11     4    34    1
    12     4    35    1
    13     5     6    1
    14     5    27    1
    15     5    36    1
    16     6     7    2
    17     6     8    2
    18     6     9    1
    19     9    10   ar
    20    10    11   ar
    21    10    37    1
    22    11    12   ar
    23    11    38    1
    24    12    13   ar
    25    12    39    1
    26    13    14    1
    27    13    26   ar
    28    14    15    2
    29    14    16   am
    30    16    17    1
    31    16    40    1
    32    17    18   am
    33    17    41    1
    34    18    19    2
    35    18    20    1
    36    20    21   ar
    37    21    22   ar
    38    21    42    1
    39    22    23   ar
    40    22    43    1
    41    23    24   ar
    42    23    44    1
    43    24    25   ar
    44    24    45    1
    45    25    20   ar
    46    26     9   ar
    47    26    46    1
    48    27     2    1
    49    27    47    1
    50    27    48    1
