@<TRIPOS>MOLECULE
*****
 34 36 0 0 0
SMALL
GASTEIGER

@<TRIPOS>ATOM
      1 C          -2.2842   -2.0956    0.1743 C.3     1  UNL1       -0.0377
      2 C          -2.3142   -0.6421    0.5000 C.ar    1  UNL1       -0.0264
      3 C          -3.1286   -0.2525    1.5428 C.ar    1  UNL1       -0.0569
      4 C          -3.1962    1.0736    1.8877 C.ar    1  UNL1       -0.0614
      5 C          -2.4485    1.9867    1.1841 C.ar    1  UNL1       -0.0598
      6 C          -1.6384    1.5787    0.1427 C.ar    1  UNL1       -0.0374
      7 C          -1.5468    0.2491   -0.2313 C.ar    1  UNL1        0.0558
      8 N          -0.7431   -0.2097   -1.3251 N.ar    1  UNL1       -0.2434
      9 C           0.5712   -0.3687   -1.4582 C.ar    1  UNL1        0.1727
     10 C           1.6071   -0.0954   -0.4615 C.ar    1  UNL1        0.0612
     11 C           1.2882    0.0476    0.8532 C.ar    1  UNL1       -0.0441
     12 C           2.2718    0.3440    1.8199 C.ar    1  UNL1       -0.0193
     13 C           3.5897    0.4989    1.4719 C.ar    1  UNL1        0.1204
     14 O           4.5732    0.7921    2.4186 O.3     1  UNL1       -0.5066
     15 C           3.9036    0.3535    0.1514 C.ar    1  UNL1        0.0220
     16 C           2.9298    0.0574   -0.8286 C.ar    1  UNL1        0.1310
     17 O           3.4187   -0.0519   -2.1041 O.3     1  UNL1       -0.5059
     18 N           0.8426   -0.8126   -2.7330 N.ar    1  UNL1       -0.1507
     19 N          -0.3070   -0.9121   -3.3373 N.ar    1  UNL1       -0.2260
     20 C          -1.3104   -0.5597   -2.5336 C.ar    1  UNL1        0.3489
     21 O          -2.5503   -0.5250   -2.7539 O.2     1  UNL1       -0.2446
     22 H          -1.3394   -2.3557   -0.3030 H       1  UNL1        0.0278
     23 H          -2.4138   -2.6850    1.1187 H       1  UNL1        0.0278
     24 H          -3.1504   -2.3449   -0.4956 H       1  UNL1        0.0278
     25 H          -3.7297   -0.9588    2.1141 H       1  UNL1        0.0621
     26 H          -3.8403    1.3945    2.7150 H       1  UNL1        0.0618
     27 H          -2.5209    3.0316    1.4785 H       1  UNL1        0.0618
     28 H          -1.0599    2.3028   -0.3982 H       1  UNL1        0.0638
     29 H           0.3019   -0.0673    1.2734 H       1  UNL1        0.0627
     30 H           2.0102    0.4565    2.8606 H       1  UNL1        0.0654
     31 H           4.8119    1.7554    2.6510 H       1  UNL1        0.2921
     32 H           4.9552    0.4767   -0.1262 H       1  UNL1        0.0691
     33 H           2.9542   -0.2381   -2.9327 H       1  UNL1        0.2922
     34 H          -0.5073   -1.2241   -4.3353 H       1  UNL1        0.1937
@<TRIPOS>BOND
     1     1     2    1
     2     1    22    1
     3     1    23    1
     4     1    24    1
     5     2     3   ar
     6     3     4   ar
     7     3    25    1
     8     4     5   ar
     9     4    26    1
    10     5     6   ar
    11     5    27    1
    12     6     7   ar
    13     6    28    1
    14     7     8    1
    15     7     2   ar
    16     8     9   ar
    17     9    10    1
    18     9    18   ar
    19    10    11   ar
    20    11    12   ar
    21    11    29    1
    22    12    13   ar
    23    12    30    1
    24    13    14    1
    25    13    15   ar
    26    14    31    1
    27    15    16   ar
    28    15    32    1
    29    16    17    1
    30    16    10   ar
    31    17    33    1
    32    18    19   ar
    33    19    20   ar
    34    19    34    1
    35    20    21    2
    36    20     8   ar
