@<TRIPOS>MOLECULE
*****
 53 56 0 0 0
SMALL
GASTEIGER

@<TRIPOS>ATOM
      1 O           2.2786    0.1023   -0.3531 O.2     1  UNL1       -0.2754
      2 C           2.7622    0.3246   -1.4894 C.2     1  UNL1        0.2193
      3 C           4.2021    0.6950   -1.7011 C.3     1  UNL1        0.0685
      4 C           4.8873    0.7486   -0.4407 C.ar    1  UNL1        0.0780
      5 N           5.1808    1.9279    0.1265 N.ar    1  UNL1       -0.1748
      6 N           5.8101    1.9936    1.2888 N.ar    1  UNL1       -0.2425
      7 C           6.1926    0.9186    1.9707 C.ar    1  UNL1        0.2725
      8 O           6.7938    1.0020    3.0816 O.2     1  UNL1       -0.2658
      9 C           5.9265   -0.3399    1.4522 C.ar    1  UNL1        0.0496
     10 C           6.3026   -1.4838    2.1206 C.ar    1  UNL1       -0.0487
     11 C           6.0024   -2.6993    1.5401 C.ar    1  UNL1       -0.0610
     12 C           5.3413   -2.7793    0.3188 C.ar    1  UNL1       -0.0611
     13 C           4.9739   -1.6207   -0.3331 C.ar    1  UNL1       -0.0521
     14 C           5.2629   -0.3962    0.2269 C.ar    1  UNL1        0.0108
     15 N           1.8876    0.2144   -2.6059 N.am    1  UNL1       -0.3064
     16 C           0.4920   -0.1359   -2.4689 C.3     1  UNL1        0.0883
     17 C          -0.1777    0.8756   -1.6345 C.2     1  UNL1        0.2328
     18 O           0.5022    1.8364   -1.1914 O.2     1  UNL1       -0.2739
     19 N          -1.5797    0.7907   -1.3173 N.am    1  UNL1       -0.2972
     20 C          -2.1807    1.8156   -0.4924 C.3     1  UNL1        0.0305
     21 C          -3.0679    1.0811    0.5243 C.3     1  UNL1        0.0280
     22 N          -4.0987    0.3754   -0.2149 N.pl3   1  UNL1       -0.3269
     23 C          -5.3248    0.0476    0.4213 C.ar    1  UNL1        0.0299
     24 C          -6.4167   -0.4611   -0.2469 C.ar    1  UNL1       -0.0379
     25 C          -7.5982   -0.7778    0.4024 C.ar    1  UNL1       -0.0247
     26 C          -7.7306   -0.5942    1.7603 C.ar    1  UNL1        0.1235
     27 F          -8.8978   -0.9052    2.4095 F       1  UNL1       -0.2055
     28 C          -6.6549   -0.0864    2.4573 C.ar    1  UNL1       -0.0247
     29 C          -5.4752    0.2265    1.7906 C.ar    1  UNL1       -0.0379
     30 C          -3.8806   -0.0016   -1.5962 C.3     1  UNL1        0.0280
     31 C          -2.3847   -0.2828   -1.8006 C.3     1  UNL1        0.0305
     32 H           4.1746    1.7077   -2.1569 H       1  UNL1        0.0423
     33 H           4.5723    0.0238   -2.4729 H       1  UNL1        0.0423
     34 H           6.0114    2.9430    1.6811 H       1  UNL1        0.1921
     35 H           6.8120   -1.3772    3.0628 H       1  UNL1        0.0625
     36 H           6.2968   -3.5835    2.0632 H       1  UNL1        0.0618
     37 H           5.1181   -3.7413   -0.1137 H       1  UNL1        0.0618
     38 H           4.4562   -1.6309   -1.2885 H       1  UNL1        0.0624
     39 H           2.2526    0.3910   -3.5756 H       1  UNL1        0.1492
     40 H           0.3655   -1.1156   -1.9388 H       1  UNL1        0.0558
     41 H           0.0197   -0.2617   -3.4607 H       1  UNL1        0.0558
     42 H          -1.4344    2.4224    0.0346 H       1  UNL1        0.0480
     43 H          -2.8813    2.4338   -1.0917 H       1  UNL1        0.0480
     44 H          -2.4186    0.3246    1.0050 H       1  UNL1        0.0479
     45 H          -3.4817    1.8298    1.2348 H       1  UNL1        0.0479
     46 H          -6.3217   -0.6083   -1.3282 H       1  UNL1        0.0637
     47 H          -8.4300   -1.1719   -0.1455 H       1  UNL1        0.0647
     48 H          -6.7613    0.0544    3.5087 H       1  UNL1        0.0647
     49 H          -4.6485    0.6181    2.3481 H       1  UNL1        0.0637
     50 H          -4.1609    0.8684   -2.2266 H       1  UNL1        0.0479
     51 H          -4.4188   -0.9219   -1.8872 H       1  UNL1        0.0479
     52 H          -2.1914   -1.2487   -1.3304 H       1  UNL1        0.0480
     53 H          -2.2614   -0.3678   -2.9114 H       1  UNL1        0.0480
@<TRIPOS>BOND
     1     1     2    2
     2     2     3    1
     3     2    15   am
     4     3     4    1
     5     3    32    1
     6     3    33    1
     7     4     5   ar
     8     5     6   ar
     9     6     7   ar
    10     6    34    1
    11     7     8    2
    12     7     9   ar
    13     9    10   ar
    14    10    11   ar
    15    10    35    1
    16    11    12   ar
    17    11    36    1
    18    12    13   ar
    19    12    37    1
    20    13    14   ar
    21    13    38    1
    22    14     4   ar
    23    14     9   ar
    24    15    16    1
    25    15    39    1
    26    16    17    1
    27    16    40    1
    28    16    41    1
    29    17    18    2
    30    17    19   am
    31    19    20    1
    32    20    21    1
    33    20    42    1
    34    20    43    1
    35    21    22    1
    36    21    44    1
    37    21    45    1
    38    22    23    1
    39    22    30    1
    40    23    24   ar
    41    24    25   ar
    42    24    46    1
    43    25    26   ar
    44    25    47    1
    45    26    27    1
    46    26    28   ar
    47    28    29   ar
    48    28    48    1
    49    29    23   ar
    50    29    49    1
    51    30    31    1
    52    30    50    1
    53    30    51    1
    54    31    19    1
    55    31    52    1
    56    31    53    1
