@<TRIPOS>MOLECULE
*****
 45 47 0 0 0
SMALL
GASTEIGER

@<TRIPOS>ATOM
      1 O           4.7066    0.5605   -1.5885 O.2     1  UNL1       -0.2687
      2 C           4.8279    0.5461   -0.3175 C.2     1  UNL1        0.2601
      3 N           3.6328    0.3937    0.4180 N.am    1  UNL1       -0.2301
      4 N           2.3472    0.2618   -0.1006 N.am    1  UNL1       -0.2301
      5 C           1.5174   -0.8451    0.0212 C.2     1  UNL1        0.2602
      6 O           1.9498   -1.8651    0.6627 O.2     1  UNL1       -0.2687
      7 C           0.1718   -0.9691   -0.5154 C.ar    1  UNL1        0.0400
      8 C          -0.2116   -2.0205   -1.3236 C.ar    1  UNL1       -0.0495
      9 C          -1.5022   -2.1668   -1.8220 C.ar    1  UNL1       -0.0592
     10 C          -2.4445   -1.1910   -1.4768 C.ar    1  UNL1       -0.0350
     11 C          -2.0899   -0.1310   -0.6719 C.ar    1  UNL1        0.1092
     12 S          -3.3361    1.0275   -0.2783 S.O2    1  UNL1        0.0724
     13 O          -4.3168    1.1069   -1.4152 O.2     1  UNL1       -0.1500
     14 O          -2.6585    2.3703   -0.0631 O.2     1  UNL1       -0.1500
     15 N          -4.1724    0.6235    1.1491 N.pl3   1  UNL1       -0.2163
     16 C          -5.5278    0.2225    1.0739 C.ar    1  UNL1        0.0480
     17 C          -6.4763    0.9187    0.3535 C.ar    1  UNL1       -0.0393
     18 C          -7.7871    0.5851    0.2525 C.ar    1  UNL1       -0.0600
     19 C          -8.2391   -0.5383    0.9129 C.ar    1  UNL1       -0.0616
     20 C          -7.3324   -1.2717    1.6486 C.ar    1  UNL1       -0.0600
     21 C          -6.0077   -0.9092    1.7336 C.ar    1  UNL1       -0.0393
     22 C          -0.8058   -0.0345   -0.2084 C.ar    1  UNL1       -0.0229
     23 C           6.1306    0.6783    0.2900 C.ar    1  UNL1        0.0382
     24 C           6.3306    1.0743    1.6076 C.ar    1  UNL1       -0.0496
     25 C           7.5941    1.1865    2.1724 C.ar    1  UNL1       -0.0610
     26 C           8.7001    0.8992    1.4154 C.ar    1  UNL1       -0.0617
     27 C           8.5407    0.5029    0.1020 C.ar    1  UNL1       -0.0610
     28 C           7.2747    0.4005   -0.4309 C.ar    1  UNL1       -0.0496
     29 H           3.7553    0.3770    1.4784 H       1  UNL1        0.1731
     30 H           1.9780    1.1048   -0.6453 H       1  UNL1        0.1731
     31 H           0.5020   -2.7675   -1.5967 H       1  UNL1        0.0625
     32 H          -1.8013   -2.9906   -2.4532 H       1  UNL1        0.0618
     33 H          -3.4434   -1.3122   -1.8661 H       1  UNL1        0.0637
     34 H          -3.7347    0.6552    2.1059 H       1  UNL1        0.1737
     35 H          -6.1436    1.8090   -0.1715 H       1  UNL1        0.0636
     36 H          -8.4789    1.1781   -0.3276 H       1  UNL1        0.0618
     37 H          -9.2861   -0.7692    0.8062 H       1  UNL1        0.0618
     38 H          -7.7169   -2.1455    2.1562 H       1  UNL1        0.0618
     39 H          -5.3325   -1.5040    2.3124 H       1  UNL1        0.0636
     40 H          -0.5499    0.7973    0.4099 H       1  UNL1        0.0645
     41 H           5.4448    1.2985    2.1939 H       1  UNL1        0.0625
     42 H           7.7272    1.4995    3.2126 H       1  UNL1        0.0618
     43 H           9.6864    0.9935    1.8854 H       1  UNL1        0.0618
     44 H           9.4197    0.2830   -0.4727 H       1  UNL1        0.0618
     45 H           7.1576    0.0772   -1.4764 H       1  UNL1        0.0625
@<TRIPOS>BOND
     1     1     2    2
     2     2     3   am
     3     2    23    1
     4     3     4    1
     5     3    29    1
     6     4     5   am
     7     4    30    1
     8     5     6    2
     9     5     7    1
    10     7     8   ar
    11     8     9   ar
    12     8    31    1
    13     9    10   ar
    14     9    32    1
    15    10    11   ar
    16    10    33    1
    17    11    12    1
    18    11    22   ar
    19    12    13    2
    20    12    14    2
    21    12    15    1
    22    15    16    1
    23    15    34    1
    24    16    17   ar
    25    17    18   ar
    26    17    35    1
    27    18    19   ar
    28    18    36    1
    29    19    20   ar
    30    19    37    1
    31    20    21   ar
    32    20    38    1
    33    21    16   ar
    34    21    39    1
    35    22     7   ar
    36    22    40    1
    37    23    24   ar
    38    24    25   ar
    39    24    41    1
    40    25    26   ar
    41    25    42    1
    42    26    27   ar
    43    26    43    1
    44    27    28   ar
    45    27    44    1
    46    28    23   ar
    47    28    45    1
