@<TRIPOS>MOLECULE
*****
 48 50 0 0 0
SMALL
GASTEIGER

@<TRIPOS>ATOM
      1 C           5.8490    2.1540    2.7077 C.3     1  UNL1       -0.0207
      2 C           5.4162    1.2012    1.6514 C.ar    1  UNL1        0.0588
      3 C           4.6824    1.5742    0.5445 C.ar    1  UNL1       -0.0303
      4 C           4.2864    0.6694   -0.4337 C.ar    1  UNL1        0.0243
      5 C           3.5076    1.1188   -1.5828 C.3     1  UNL1        0.0028
      6 C           2.0652    0.8085   -1.5398 C.ar    1  UNL1       -0.0428
      7 C           1.5215   -0.3018   -2.1436 C.ar    1  UNL1       -0.0564
      8 C           0.1618   -0.5797   -2.0855 C.ar    1  UNL1       -0.0351
      9 C          -0.7139    0.2544   -1.4128 C.ar    1  UNL1        0.1055
     10 S          -2.4357   -0.1100   -1.3511 S.O2    1  UNL1        0.0611
     11 O          -3.1318    1.2235   -1.1602 O.2     1  UNL1       -0.1528
     12 O          -2.9149   -0.6504   -2.6643 O.2     1  UNL1       -0.1528
     13 N          -2.7761   -1.1433   -0.0433 N.3     1  UNL1       -0.1738
     14 C          -2.4498   -0.5604    1.2115 C.3     1  UNL1        0.0208
     15 C          -3.6457   -0.3766    2.1192 C.3     1  UNL1       -0.0385
     16 C          -4.8493    0.1258    1.3878 C.3     1  UNL1       -0.0504
     17 C          -5.1841   -0.7590    0.2167 C.3     1  UNL1       -0.0359
     18 C          -4.0752   -1.7316   -0.0566 C.3     1  UNL1        0.0291
     19 C          -4.3602   -2.5626   -1.2734 C.3     1  UNL1       -0.0478
     20 C          -0.1704    1.3716   -0.8055 C.ar    1  UNL1       -0.0351
     21 C           1.1836    1.6488   -0.8627 C.ar    1  UNL1       -0.0564
     22 C           4.6423   -0.6487   -0.2887 C.ar    1  UNL1        0.2682
     23 O           4.3375   -1.5563   -1.1157 O.2     1  UNL1       -0.2661
     24 N           5.3643   -0.9800    0.8131 N.ar    1  UNL1       -0.2428
     25 N           5.7341   -0.1104    1.7352 N.ar    1  UNL1       -0.1762
     26 H           5.0817    2.9133    2.8963 H       1  UNL1        0.0293
     27 H           6.1548    1.5916    3.6014 H       1  UNL1        0.0293
     28 H           6.7293    2.7016    2.2823 H       1  UNL1        0.0293
     29 H           4.4211    2.6223    0.4659 H       1  UNL1        0.0640
     30 H           3.9820    0.7576   -2.5316 H       1  UNL1        0.0363
     31 H           3.5757    2.2450   -1.6556 H       1  UNL1        0.0363
     32 H           2.1985   -0.9636   -2.6809 H       1  UNL1        0.0621
     33 H          -0.2346   -1.4468   -2.5613 H       1  UNL1        0.0637
     34 H          -1.8973    0.3903    1.1023 H       1  UNL1        0.0444
     35 H          -1.7605   -1.2690    1.7466 H       1  UNL1        0.0444
     36 H          -3.8300   -1.3320    2.6412 H       1  UNL1        0.0278
     37 H          -3.3418    0.3707    2.8873 H       1  UNL1        0.0278
     38 H          -4.7207    1.1709    1.0820 H       1  UNL1        0.0266
     39 H          -5.6917    0.1404    2.1403 H       1  UNL1        0.0266
     40 H          -5.5192   -0.1931   -0.6669 H       1  UNL1        0.0281
     41 H          -6.0754   -1.3803    0.5249 H       1  UNL1        0.0281
     42 H          -4.0937   -2.4585    0.8103 H       1  UNL1        0.0477
     43 H          -3.4495   -3.1738   -1.4691 H       1  UNL1        0.0245
     44 H          -4.7328   -2.0157   -2.1374 H       1  UNL1        0.0245
     45 H          -5.1638   -3.3117   -1.0117 H       1  UNL1        0.0245
     46 H          -0.8655    2.0250   -0.2817 H       1  UNL1        0.0637
     47 H           1.5578    2.5371   -0.3697 H       1  UNL1        0.0621
     48 H           5.6306   -2.0009    0.9106 H       1  UNL1        0.1921
@<TRIPOS>BOND
     1     1     2    1
     2     1    26    1
     3     1    27    1
     4     1    28    1
     5     2     3   ar
     6     3     4   ar
     7     3    29    1
     8     4     5    1
     9     4    22   ar
    10     5     6    1
    11     5    30    1
    12     5    31    1
    13     6     7   ar
    14     7     8   ar
    15     7    32    1
    16     8     9   ar
    17     8    33    1
    18     9    10    1
    19     9    20   ar
    20    10    11    2
    21    10    12    2
    22    10    13    1
    23    13    14    1
    24    14    15    1
    25    14    34    1
    26    14    35    1
    27    15    16    1
    28    15    36    1
    29    15    37    1
    30    16    17    1
    31    16    38    1
    32    16    39    1
    33    17    18    1
    34    17    40    1
    35    17    41    1
    36    18    19    1
    37    18    13    1
    38    18    42    1
    39    19    43    1
    40    19    44    1
    41    19    45    1
    42    20    21   ar
    43    20    46    1
    44    21     6   ar
    45    21    47    1
    46    22    23    2
    47    22    24   ar
    48    24    25   ar
    49    24    48    1
    50    25     2   ar
