@<TRIPOS>MOLECULE
*****
 43 45 0 0 0
SMALL
GASTEIGER

@<TRIPOS>ATOM
      1 C           4.5498   -2.3823    0.2441 C.3     1  UNL1       -0.0586
      2 C           4.2578   -1.1847   -0.6668 C.3     1  UNL1       -0.0215
      3 C           5.5511   -0.6351   -1.2387 C.3     1  UNL1       -0.0586
      4 C           3.4830   -0.1574    0.0747 C.ar    1  UNL1       -0.0430
      5 C           3.9900    0.4260    1.2211 C.ar    1  UNL1       -0.0582
      6 C           3.2952    1.4061    1.8990 C.ar    1  UNL1       -0.0597
      7 C           2.0738    1.8504    1.4753 C.ar    1  UNL1       -0.0405
      8 C           1.5408    1.2734    0.3164 C.ar    1  UNL1        0.0337
      9 N           0.3019    1.7695   -0.1615 N.am    1  UNL1       -0.2852
     10 C          -0.6804    0.9277   -0.7694 C.2     1  UNL1        0.2231
     11 O          -0.3913   -0.2875   -0.8287 O.2     1  UNL1       -0.2751
     12 C          -1.9541    1.4962   -1.2882 C.3     1  UNL1        0.0688
     13 C          -3.0567    1.2702   -0.3427 C.ar    1  UNL1        0.0780
     14 N          -3.4073    2.2530    0.5261 N.ar    1  UNL1       -0.1748
     15 N          -4.3444    2.1589    1.4358 N.ar    1  UNL1       -0.2425
     16 C          -5.0359    0.9946    1.5388 C.ar    1  UNL1        0.2725
     17 O          -5.9469    0.8206    2.3819 O.2     1  UNL1       -0.2658
     18 C          -4.7198   -0.0329    0.6792 C.ar    1  UNL1        0.0496
     19 C          -5.4305   -1.2415    0.7514 C.ar    1  UNL1       -0.0487
     20 C          -5.1422   -2.2684   -0.1063 C.ar    1  UNL1       -0.0610
     21 C          -4.1586   -2.1580   -1.0591 C.ar    1  UNL1       -0.0611
     22 C          -3.4447   -0.9738   -1.1464 C.ar    1  UNL1       -0.0521
     23 C          -3.7314    0.0793   -0.2736 C.ar    1  UNL1        0.0108
     24 C           2.2473    0.2978   -0.3446 C.ar    1  UNL1       -0.0370
     25 H           3.6817   -2.4498    0.9432 H       1  UNL1        0.0235
     26 H           5.4485   -2.1464    0.8528 H       1  UNL1        0.0235
     27 H           4.5994   -3.3137   -0.3196 H       1  UNL1        0.0235
     28 H           3.6975   -1.5857   -1.5373 H       1  UNL1        0.0343
     29 H           5.8649   -1.2389   -2.1392 H       1  UNL1        0.0235
     30 H           5.3907    0.4037   -1.5774 H       1  UNL1        0.0235
     31 H           6.3889   -0.7006   -0.4993 H       1  UNL1        0.0235
     32 H           4.9574    0.0804    1.5554 H       1  UNL1        0.0620
     33 H           3.7544    1.8102    2.7803 H       1  UNL1        0.0618
     34 H           1.5001    2.6287    1.9999 H       1  UNL1        0.0636
     35 H           0.0413    2.7869   -0.0909 H       1  UNL1        0.1548
     36 H          -2.1600    1.0132   -2.2584 H       1  UNL1        0.0423
     37 H          -1.7780    2.6069   -1.4358 H       1  UNL1        0.0423
     38 H          -4.5909    2.9383    2.0891 H       1  UNL1        0.1921
     39 H          -6.2153   -1.3345    1.5113 H       1  UNL1        0.0625
     40 H          -5.6769   -3.2071   -0.0638 H       1  UNL1        0.0618
     41 H          -3.9152   -2.9737   -1.7563 H       1  UNL1        0.0618
     42 H          -2.6796   -0.8637   -1.9035 H       1  UNL1        0.0624
     43 H           1.8442   -0.1564   -1.2518 H       1  UNL1        0.0639
@<TRIPOS>BOND
     1     1     2    1
     2     1    25    1
     3     1    26    1
     4     1    27    1
     5     2     3    1
     6     2     4    1
     7     2    28    1
     8     3    29    1
     9     3    30    1
    10     3    31    1
    11     4     5   ar
    12     5     6   ar
    13     5    32    1
    14     6     7   ar
    15     6    33    1
    16     7     8   ar
    17     7    34    1
    18     8     9    1
    19     8    24   ar
    20     9    10   am
    21     9    35    1
    22    10    11    2
    23    10    12    1
    24    12    13    1
    25    12    36    1
    26    12    37    1
    27    13    14   ar
    28    14    15   ar
    29    15    16   ar
    30    15    38    1
    31    16    17    2
    32    16    18   ar
    33    18    19   ar
    34    19    20   ar
    35    19    39    1
    36    20    21   ar
    37    20    40    1
    38    21    22   ar
    39    21    41    1
    40    22    23   ar
    41    22    42    1
    42    23    13   ar
    43    23    18   ar
    44    24     4   ar
    45    24    43    1
