@<TRIPOS>MOLECULE
*****
 39 41 0 0 0
SMALL
GASTEIGER

@<TRIPOS>ATOM
      1 C           4.3913   -1.1211    0.6602 C.3     1  UNL1       -0.0648
      2 C           3.1549   -0.3994    1.0392 C.3     1  UNL1       -0.0502
      3 C           2.3493    0.1128   -0.1869 C.3     1  UNL1       -0.0294
      4 C           1.1005    0.8206    0.1565 C.3     1  UNL1       -0.0471
      5 C           0.1770    1.3002   -0.8845 C.3     1  UNL1       -0.0485
      6 C          -0.5914    0.2417   -1.6426 C.3     1  UNL1       -0.0265
      7 C          -1.4558   -0.4634   -0.6448 C.ar    1  UNL1       -0.0232
      8 C          -0.9723   -1.6205   -0.0322 C.ar    1  UNL1        0.0270
      9 C          -1.7261   -2.2368    0.9322 C.ar    1  UNL1        0.3387
     10 O          -1.2555   -3.2937    1.4742 O.2     1  UNL1       -0.2451
     11 O          -2.8916   -1.7771    1.3023 O.2     1  UNL1       -0.4051
     12 C          -3.3902   -0.7007    0.7609 C.ar    1  UNL1        0.2190
     13 N          -4.5880   -0.2155    1.1255 N.ar    1  UNL1       -0.2777
     14 C          -5.1368    0.8852    0.5885 C.ar    1  UNL1        0.3294
     15 O          -6.2826    1.2897    0.9858 O.2     1  UNL1       -0.2466
     16 N          -4.4848    1.5615   -0.3644 N.ar    1  UNL1       -0.2744
     17 C          -3.2581    1.1217   -0.7823 C.ar    1  UNL1        0.2651
     18 O          -2.6631    1.7591   -1.6748 O.2     1  UNL1       -0.2669
     19 C          -2.6823   -0.0027   -0.2397 C.ar    1  UNL1        0.1029
     20 C           2.7361   -0.3745   -1.5478 C.3     1  UNL1       -0.0469
     21 C           3.3272    0.9076   -1.0707 C.3     1  UNL1       -0.0469
     22 H           5.1873   -0.5579    0.1841 H       1  UNL1        0.0230
     23 H           4.1126   -2.0541    0.1035 H       1  UNL1        0.0230
     24 H           4.8257   -1.5205    1.6198 H       1  UNL1        0.0230
     25 H           2.4643   -1.1539    1.5082 H       1  UNL1        0.0268
     26 H           3.3366    0.4566    1.7078 H       1  UNL1        0.0268
     27 H           1.4255    1.7576    0.7299 H       1  UNL1        0.0271
     28 H           0.5710    0.2418    0.9732 H       1  UNL1        0.0271
     29 H          -0.4784    2.1052   -0.4581 H       1  UNL1        0.0269
     30 H           0.8242    1.8964   -1.6181 H       1  UNL1        0.0269
     31 H           0.0765   -0.5783   -2.0185 H       1  UNL1        0.0313
     32 H          -1.1118    0.7152   -2.4759 H       1  UNL1        0.0313
     33 H          -0.0140   -1.9877   -0.3453 H       1  UNL1        0.0692
     34 H          -5.1058   -0.7354    1.8679 H       1  UNL1        0.1733
     35 H          -4.8467    2.4208   -0.8271 H       1  UNL1        0.1734
     36 H           2.1070   -0.3608   -2.4448 H       1  UNL1        0.0271
     37 H           3.4461   -1.2559   -1.6087 H       1  UNL1        0.0271
     38 H           4.3829    0.9504   -0.8034 H       1  UNL1        0.0271
     39 H           2.9395    1.8657   -1.4489 H       1  UNL1        0.0271
@<TRIPOS>BOND
     1     1     2    1
     2     1    22    1
     3     1    23    1
     4     1    24    1
     5     2     3    1
     6     2    25    1
     7     2    26    1
     8     3     4    1
     9     3    20    1
    10     4     5    1
    11     4    27    1
    12     4    28    1
    13     5     6    1
    14     5    29    1
    15     5    30    1
    16     6     7    1
    17     6    31    1
    18     6    32    1
    19     7     8   ar
    20     8     9   ar
    21     8    33    1
    22     9    10    2
    23     9    11   ar
    24    11    12   ar
    25    12    13   ar
    26    13    14   ar
    27    13    34    1
    28    14    15    2
    29    14    16   ar
    30    16    17   ar
    31    16    35    1
    32    17    18    2
    33    17    19   ar
    34    19     7   ar
    35    19    12   ar
    36    20    21    1
    37    20    36    1
    38    20    37    1
    39    21     3    1
    40    21    38    1
    41    21    39    1
