@<TRIPOS>MOLECULE
*****
 40 42 0 0 0
SMALL
GASTEIGER

@<TRIPOS>ATOM
      1 C           6.3654    1.8658   -0.2718 C.3     1  UNL1        0.0059
      2 N           5.8512    1.4998   -1.5730 N.3     1  UNL1       -0.1930
      3 S           5.2931   -0.1359   -1.5884 S.O2    1  UNL1        0.0582
      4 O           6.4474   -0.9859   -1.0948 O.2     1  UNL1       -0.1531
      5 O           4.8516   -0.5386   -2.9492 O.2     1  UNL1       -0.1531
      6 C           3.9880   -0.3006   -0.4391 C.ar    1  UNL1        0.1070
      7 C           4.2387   -0.6414    0.8727 C.ar    1  UNL1       -0.0352
      8 C           3.2538   -0.7790    1.7953 C.ar    1  UNL1       -0.0582
      9 C           1.9338   -0.5616    1.3782 C.ar    1  UNL1       -0.0404
     10 C           1.6111   -0.2230    0.0993 C.ar    1  UNL1        0.0354
     11 N           0.2984   -0.0228   -0.3350 N.pl3   1  UNL1       -0.2836
     12 C          -0.9032   -0.3983    0.3246 C.ar    1  UNL1        0.2200
     13 N          -0.8744   -1.0296    1.4960 N.ar    1  UNL1       -0.2226
     14 C          -1.9663   -1.4078    2.1641 C.ar    1  UNL1        0.0332
     15 C          -3.1903   -1.1086    1.5722 C.ar    1  UNL1       -0.0174
     16 C          -3.2581   -0.4572    0.3623 C.ar    1  UNL1        0.0760
     17 C          -4.5389   -0.1350   -0.2738 C.ar    1  UNL1        0.0005
     18 C          -5.7311   -0.4596    0.2918 C.ar    1  UNL1       -0.0526
     19 C          -6.9496   -0.1467   -0.3252 C.ar    1  UNL1       -0.0611
     20 C          -6.9425    0.5018   -1.5274 C.ar    1  UNL1       -0.0617
     21 C          -5.7252    0.8405   -2.1184 C.ar    1  UNL1       -0.0611
     22 C          -4.5364    0.5195   -1.4874 C.ar    1  UNL1       -0.0526
     23 N          -2.1042   -0.1136   -0.2398 N.ar    1  UNL1       -0.2142
     24 C           2.6813   -0.0982   -0.8004 C.ar    1  UNL1       -0.0141
     25 H           5.5961    1.5661    0.4934 H       1  UNL1        0.0405
     26 H           6.4440    2.9651   -0.1890 H       1  UNL1        0.0405
     27 H           7.2995    1.3313   -0.0187 H       1  UNL1        0.0405
     28 H           5.0246    2.1162   -1.7517 H       1  UNL1        0.1477
     29 H           5.2600   -0.8062    1.1813 H       1  UNL1        0.0637
     30 H           3.4083   -1.0443    2.8311 H       1  UNL1        0.0619
     31 H           1.1823   -0.6732    2.1637 H       1  UNL1        0.0636
     32 H           0.2084    0.4797   -1.2837 H       1  UNL1        0.1550
     33 H          -1.9298   -1.9256    3.1253 H       1  UNL1        0.0831
     34 H          -4.1115   -1.4008    2.0860 H       1  UNL1        0.0654
     35 H          -5.8057   -0.9661    1.2286 H       1  UNL1        0.0624
     36 H          -7.8692   -0.4191    0.1518 H       1  UNL1        0.0618
     37 H          -7.8637    0.7636   -2.0409 H       1  UNL1        0.0618
     38 H          -5.7661    1.3549   -3.0735 H       1  UNL1        0.0618
     39 H          -3.6234    0.8017   -1.9829 H       1  UNL1        0.0624
     40 H           2.4525    0.1727   -1.8340 H       1  UNL1        0.0656
@<TRIPOS>BOND
     1     1     2    1
     2     1    25    1
     3     1    26    1
     4     1    27    1
     5     2     3    1
     6     2    28    1
     7     3     4    2
     8     3     5    2
     9     3     6    1
    10     6     7   ar
    11     7     8   ar
    12     7    29    1
    13     8     9   ar
    14     8    30    1
    15     9    10   ar
    16     9    31    1
    17    10    11    1
    18    10    24   ar
    19    11    12    1
    20    11    32    1
    21    12    13   ar
    22    13    14   ar
    23    14    15   ar
    24    14    33    1
    25    15    16   ar
    26    15    34    1
    27    16    17    1
    28    16    23   ar
    29    17    18   ar
    30    18    19   ar
    31    18    35    1
    32    19    20   ar
    33    19    36    1
    34    20    21   ar
    35    20    37    1
    36    21    22   ar
    37    21    38    1
    38    22    17   ar
    39    22    39    1
    40    23    12   ar
    41    24     6   ar
    42    24    40    1
