@<TRIPOS>MOLECULE
*****
 34 36 0 0 0
SMALL
GASTEIGER

@<TRIPOS>ATOM
      1 C          -3.6107    2.2196    0.2650 C.2     1  UNL1       -0.0951
      2 C          -4.0427    1.4206   -0.6564 C.2     1  UNL1       -0.0214
      3 C          -3.6443    0.1274   -1.0813 C.2     1  UNL1        0.1870
      4 O          -4.3842   -0.3884   -2.0501 O.2     1  UNL1       -0.2872
      5 C          -2.5557   -0.6833   -0.5974 C.ar    1  UNL1        0.0407
      6 C          -2.5340   -2.0262   -1.0425 C.ar    1  UNL1       -0.0088
      7 C          -1.4993   -2.8207   -0.6452 C.ar    1  UNL1        0.1882
      8 F          -1.5036   -4.1178   -1.0914 F       1  UNL1       -0.1998
      9 C          -0.5010   -2.3350    0.1662 C.ar    1  UNL1        0.2870
     10 O           0.4219   -3.1198    0.4953 O.2     1  UNL1       -0.2645
     11 N          -0.5276   -1.0458    0.5889 N.ar    1  UNL1       -0.3078
     12 C           0.4643   -0.5644    1.4391 C.3     1  UNL1        0.0519
     13 C           1.6929    0.0365    1.0193 C.ar    1  UNL1       -0.0170
     14 C           2.5506    0.4329    2.0648 C.ar    1  UNL1       -0.0561
     15 C           3.7596    1.0208    1.7938 C.ar    1  UNL1       -0.0594
     16 C           4.1465    1.2294    0.4879 C.ar    1  UNL1       -0.0363
     17 C           3.3269    0.8513   -0.5536 C.ar    1  UNL1        0.0660
     18 N           3.4224    0.9200   -1.8915 N.ar    1  UNL1       -0.2770
     19 N           2.3479    0.4107   -2.4327 N.ar    1  UNL1       -0.1812
     20 C           1.4869   -0.0210   -1.4685 C.ar    1  UNL1        0.0572
     21 C           2.0925    0.2509   -0.2675 C.ar    1  UNL1        0.0243
     22 C          -1.5521   -0.2657    0.1926 C.ar    1  UNL1        0.0193
     23 H          -2.8324    2.1398    0.9738 H       1  UNL1        0.0536
     24 H          -4.1302    3.2204    0.3850 H       1  UNL1        0.0536
     25 H          -4.9365    1.8421   -1.2620 H       1  UNL1        0.0650
     26 H          -3.3392   -2.4094   -1.6913 H       1  UNL1        0.0655
     27 H           0.0219    0.1765    2.2144 H       1  UNL1        0.0542
     28 H           0.7772   -1.3930    2.1872 H       1  UNL1        0.0542
     29 H           2.2562    0.2737    3.0846 H       1  UNL1        0.0621
     30 H           4.4257    1.3289    2.5850 H       1  UNL1        0.0618
     31 H           5.0907    1.6891    0.2399 H       1  UNL1        0.0639
     32 H           4.2704    1.3371   -2.3614 H       1  UNL1        0.1889
     33 H           0.5347   -0.4776   -1.6224 H       1  UNL1        0.0854
     34 H          -1.4956    0.7402    0.5324 H       1  UNL1        0.0817
@<TRIPOS>BOND
     1     1     2    2
     2     1    23    1
     3     1    24    1
     4     2     3    1
     5     2    25    1
     6     3     4    2
     7     3     5    1
     8     5     6   ar
     9     6     7   ar
    10     6    26    1
    11     7     8    1
    12     7     9   ar
    13     9    10    2
    14     9    11   ar
    15    11    12    1
    16    11    22   ar
    17    12    13    1
    18    12    27    1
    19    12    28    1
    20    13    14   ar
    21    14    15   ar
    22    14    29    1
    23    15    16   ar
    24    15    30    1
    25    16    17   ar
    26    16    31    1
    27    17    18   ar
    28    18    19   ar
    29    18    32    1
    30    19    20   ar
    31    20    21   ar
    32    20    33    1
    33    21    13   ar
    34    21    17   ar
    35    22     5   ar
    36    22    34    1
