@<TRIPOS>MOLECULE
*****
 55 59 0 0 0
SMALL
GASTEIGER

@<TRIPOS>ATOM
      1 O          -0.4324   -0.1551   -2.5641 O.2     1  UNL1       -0.2699
      2 C          -0.5029    0.4217   -1.4654 C.2     1  UNL1        0.2494
      3 C           0.6491    1.0612   -0.8254 C.ar    1  UNL1        0.0723
      4 C           1.3856    0.2663    0.0291 C.ar    1  UNL1       -0.0433
      5 C           2.5072    0.7531    0.7212 C.ar    1  UNL1       -0.0406
      6 C           3.2107   -0.1755    1.6219 C.3     1  UNL1        0.0171
      7 C           4.1721   -0.9838    0.8585 C.ar    1  UNL1        0.0736
      8 N           3.7110   -2.1622    0.3626 N.ar    1  UNL1       -0.1750
      9 N           4.4384   -2.9499   -0.3902 N.ar    1  UNL1       -0.2425
     10 C           5.7011   -2.6369   -0.7223 C.ar    1  UNL1        0.2725
     11 O           6.4023   -3.3796   -1.4396 O.2     1  UNL1       -0.2658
     12 C           6.2086   -1.4492   -0.2377 C.ar    1  UNL1        0.0496
     13 C           7.5203   -1.0757   -0.5288 C.ar    1  UNL1       -0.0487
     14 C           8.0230    0.1107   -0.0180 C.ar    1  UNL1       -0.0610
     15 C           7.2519    0.9195    0.7674 C.ar    1  UNL1       -0.0611
     16 C           5.9397    0.5664    1.0710 C.ar    1  UNL1       -0.0521
     17 C           5.4515   -0.6114    0.5572 C.ar    1  UNL1        0.0106
     18 C           2.8227    2.0595    0.4952 C.ar    1  UNL1       -0.0555
     19 C           2.0802    2.8760   -0.3729 C.ar    1  UNL1       -0.0254
     20 C           0.9912    2.3572   -1.0278 C.ar    1  UNL1        0.1355
     21 F           0.2435    3.1095   -1.8768 F       1  UNL1       -0.2047
     22 N          -1.7299    0.5017   -0.7393 N.am    1  UNL1       -0.2959
     23 C          -3.0651    0.0102   -1.0080 C.3     1  UNL1        0.0276
     24 C          -3.6149    1.0634   -0.0971 C.3     1  UNL1        0.0671
     25 C          -4.6537    0.5567    0.8003 C.2     1  UNL1        0.2217
     26 O          -4.4373    0.4639    2.0703 O.2     1  UNL1       -0.2752
     27 N          -5.9140    0.1576    0.2955 N.am    1  UNL1       -0.3012
     28 C          -6.4166    0.1596   -1.0458 C.3     1  UNL1        0.0147
     29 C          -7.1404   -1.1764   -1.1287 C.3     1  UNL1       -0.0357
     30 C          -7.5236   -1.5078    0.2950 C.3     1  UNL1       -0.0357
     31 C          -7.0128   -0.3612    1.1313 C.3     1  UNL1        0.0147
     32 C          -2.2151    1.0534    0.4996 C.3     1  UNL1        0.0276
     33 H           1.1394   -0.7699    0.2104 H       1  UNL1        0.0629
     34 H           2.4914   -0.8998    2.1080 H       1  UNL1        0.0377
     35 H           3.6676    0.3388    2.4939 H       1  UNL1        0.0377
     36 H           4.0531   -3.8735   -0.7701 H       1  UNL1        0.1921
     37 H           8.0982   -1.7365   -1.1497 H       1  UNL1        0.0625
     38 H           9.0520    0.3634   -0.2711 H       1  UNL1        0.0618
     39 H           7.6677    1.8346    1.1526 H       1  UNL1        0.0618
     40 H           5.3238    1.1841    1.7068 H       1  UNL1        0.0624
     41 H           3.6592    2.5256    0.9888 H       1  UNL1        0.0621
     42 H           2.3789    3.9139   -0.5171 H       1  UNL1        0.0646
     43 H          -3.3585    0.0566   -2.0770 H       1  UNL1        0.0472
     44 H          -3.1442   -1.0214   -0.5665 H       1  UNL1        0.0472
     45 H          -3.8598    2.0059   -0.6374 H       1  UNL1        0.0425
     46 H          -7.1237    1.0056   -1.2170 H       1  UNL1        0.0464
     47 H          -5.6815    0.2064   -1.8441 H       1  UNL1        0.0464
     48 H          -6.4238   -1.9287   -1.5280 H       1  UNL1        0.0281
     49 H          -8.0272   -1.0833   -1.7873 H       1  UNL1        0.0281
     50 H          -8.6229   -1.6420    0.4011 H       1  UNL1        0.0281
     51 H          -6.9784   -2.4294    0.6336 H       1  UNL1        0.0281
     52 H          -7.7259    0.4623    1.2496 H       1  UNL1        0.0464
     53 H          -6.6075   -0.7219    2.1034 H       1  UNL1        0.0464
     54 H          -2.2063    0.3110    1.3502 H       1  UNL1        0.0472
     55 H          -1.8229    2.0552    0.7729 H       1  UNL1        0.0472
@<TRIPOS>BOND
     1     1     2    2
     2     2     3    1
     3     2    22   am
     4     3     4   ar
     5     4     5   ar
     6     4    33    1
     7     5     6    1
     8     5    18   ar
     9     6     7    1
    10     6    34    1
    11     6    35    1
    12     7     8   ar
    13     8     9   ar
    14     9    10   ar
    15     9    36    1
    16    10    11    2
    17    10    12   ar
    18    12    13   ar
    19    13    14   ar
    20    13    37    1
    21    14    15   ar
    22    14    38    1
    23    15    16   ar
    24    15    39    1
    25    16    17   ar
    26    16    40    1
    27    17     7   ar
    28    17    12   ar
    29    18    19   ar
    30    18    41    1
    31    19    20   ar
    32    19    42    1
    33    20    21    1
    34    20     3   ar
    35    22    23    1
    36    23    24    1
    37    23    43    1
    38    23    44    1
    39    24    25    1
    40    24    32    1
    41    24    45    1
    42    25    26    2
    43    25    27   am
    44    27    28    1
    45    28    29    1
    46    28    46    1
    47    28    47    1
    48    29    30    1
    49    29    48    1
    50    29    49    1
    51    30    31    1
    52    30    50    1
    53    30    51    1
    54    31    27    1
    55    31    52    1
    56    31    53    1
    57    32    22    1
    58    32    54    1
    59    32    55    1
