@<TRIPOS>MOLECULE
*****
 38 40 0 0 0
SMALL
GASTEIGER

@<TRIPOS>ATOM
      1 O           0.1757    0.1748    1.6708 O.2     1  UNL1       -0.2733
      2 C           0.3126   -0.6825    0.7987 C.2     1  UNL1        0.2415
      3 C           1.5517   -1.5032    0.6524 C.3     1  UNL1        0.0705
      4 C           2.5547   -0.9098   -0.2290 C.ar    1  UNL1        0.0781
      5 N           2.4320   -1.2903   -1.5565 N.ar    1  UNL1       -0.1748
      6 N           3.2147   -0.7979   -2.4885 N.ar    1  UNL1       -0.2425
      7 C           4.1435    0.0807   -2.1759 C.ar    1  UNL1        0.2725
      8 O           4.9054    0.5833   -3.0556 O.2     1  UNL1       -0.2658
      9 C           4.3264    0.5094   -0.8557 C.ar    1  UNL1        0.0496
     10 C           5.3013    1.3939   -0.5153 C.ar    1  UNL1       -0.0487
     11 C           5.4579    1.7606    0.8062 C.ar    1  UNL1       -0.0610
     12 C           4.6261    1.2255    1.7981 C.ar    1  UNL1       -0.0611
     13 C           3.6410    0.3367    1.4758 C.ar    1  UNL1       -0.0521
     14 C           3.4937   -0.0186    0.1281 C.ar    1  UNL1        0.0108
     15 N          -0.7052   -1.0165   -0.1968 N.am    1  UNL1       -0.1939
     16 O          -1.8493   -0.3076   -0.0879 O.3     1  UNL1       -0.2752
     17 C          -2.9865   -1.1457   -0.2343 C.3     1  UNL1        0.0983
     18 C          -4.1994   -0.3392   -0.0673 C.ar    1  UNL1       -0.0197
     19 C          -5.3055   -0.4283   -0.8598 C.ar    1  UNL1       -0.0563
     20 C          -6.4329    0.3732   -0.6258 C.ar    1  UNL1       -0.0614
     21 C          -6.4388    1.2644    0.4105 C.ar    1  UNL1       -0.0617
     22 C          -5.3171    1.3545    1.2179 C.ar    1  UNL1       -0.0614
     23 C          -4.2168    0.5737    0.9908 C.ar    1  UNL1       -0.0563
     24 H           1.2308   -2.4831    0.2426 H       1  UNL1        0.0424
     25 H           1.9583   -1.7634    1.6648 H       1  UNL1        0.0424
     26 H           3.1115   -1.1182   -3.5088 H       1  UNL1        0.1921
     27 H           5.9528    1.8130   -1.2836 H       1  UNL1        0.0625
     28 H           6.2524    2.4609    1.0645 H       1  UNL1        0.0618
     29 H           4.7687    1.5321    2.8217 H       1  UNL1        0.0618
     30 H           2.9688   -0.1029    2.1826 H       1  UNL1        0.0624
     31 H          -0.5546   -1.7303   -0.9372 H       1  UNL1        0.1825
     32 H          -2.8596   -1.5890   -1.2543 H       1  UNL1        0.0634
     33 H          -2.8920   -1.9914    0.4955 H       1  UNL1        0.0634
     34 H          -5.3473   -1.1010   -1.6755 H       1  UNL1        0.0621
     35 H          -7.3282    0.3149   -1.2477 H       1  UNL1        0.0618
     36 H          -7.3120    1.8813    0.5936 H       1  UNL1        0.0618
     37 H          -5.3084    2.0458    2.0357 H       1  UNL1        0.0618
     38 H          -3.3264    0.6401    1.6279 H       1  UNL1        0.0621
@<TRIPOS>BOND
     1     1     2    2
     2     2     3    1
     3     2    15   am
     4     3     4    1
     5     3    24    1
     6     3    25    1
     7     4     5   ar
     8     5     6   ar
     9     6     7   ar
    10     6    26    1
    11     7     8    2
    12     7     9   ar
    13     9    10   ar
    14    10    11   ar
    15    10    27    1
    16    11    12   ar
    17    11    28    1
    18    12    13   ar
    19    12    29    1
    20    13    14   ar
    21    13    30    1
    22    14     4   ar
    23    14     9   ar
    24    15    16    1
    25    15    31    1
    26    16    17    1
    27    17    18    1
    28    17    32    1
    29    17    33    1
    30    18    19   ar
    31    19    20   ar
    32    19    34    1
    33    20    21   ar
    34    20    35    1
    35    21    22   ar
    36    21    36    1
    37    22    23   ar
    38    22    37    1
    39    23    18   ar
    40    23    38    1
