@<TRIPOS>MOLECULE
*****
 37 39 0 0 0
SMALL
GASTEIGER

@<TRIPOS>ATOM
      1 O           0.4196   -0.7120    0.4879 O.2     1  UNL1       -0.2751
      2 C           0.3532    0.5119    0.1770 C.2     1  UNL1        0.2231
      3 C          -0.9848    1.1369    0.1807 C.3     1  UNL1        0.0688
      4 C          -1.9782    0.0558    0.0829 C.ar    1  UNL1        0.0780
      5 N          -1.5717   -1.2416   -0.0244 N.ar    1  UNL1       -0.1748
      6 N          -2.3904   -2.2575   -0.1769 N.ar    1  UNL1       -0.2425
      7 C          -3.7393   -2.0853   -0.2411 C.ar    1  UNL1        0.2725
      8 O          -4.5056   -3.0920   -0.3978 O.2     1  UNL1       -0.2658
      9 C          -4.2400   -0.8095   -0.1418 C.ar    1  UNL1        0.0496
     10 C          -5.6218   -0.6222   -0.2307 C.ar    1  UNL1       -0.0487
     11 C          -6.0990    0.6749   -0.1572 C.ar    1  UNL1       -0.0610
     12 C          -5.2123    1.7194    0.0029 C.ar    1  UNL1       -0.0611
     13 C          -3.8508    1.4919    0.0888 C.ar    1  UNL1       -0.0521
     14 C          -3.3495    0.2317    0.0173 C.ar    1  UNL1        0.0108
     15 N           1.5706    1.1897   -0.1632 N.am    1  UNL1       -0.2852
     16 C           2.7620    0.4280   -0.1436 C.ar    1  UNL1        0.0339
     17 C           2.7023   -0.9050   -0.4720 C.ar    1  UNL1       -0.0405
     18 C           3.8391   -1.7366   -0.4117 C.ar    1  UNL1       -0.0595
     19 C           5.0504   -1.1815   -0.0105 C.ar    1  UNL1       -0.0500
     20 C           5.1248    0.1593    0.3193 C.ar    1  UNL1        0.0566
     21 C           6.4418    0.6843    0.7214 C.3     1  UNL1        0.4175
     22 F           6.4063    2.0585    0.9324 F       1  UNL1       -0.1659
     23 F           6.8135    0.0783    1.9375 F       1  UNL1       -0.1659
     24 F           7.4144    0.3825   -0.2049 F       1  UNL1       -0.1659
     25 C           3.9968    0.9330    0.2502 C.ar    1  UNL1       -0.0288
     26 H          -1.0759    1.8063   -0.6570 H       1  UNL1        0.0423
     27 H          -1.0423    1.6644    1.1712 H       1  UNL1        0.0423
     28 H          -2.0033   -3.2239   -0.2668 H       1  UNL1        0.1921
     29 H          -6.3103   -1.4360   -0.3549 H       1  UNL1        0.0625
     30 H          -7.1682    0.8882   -0.2373 H       1  UNL1        0.0618
     31 H          -5.6440    2.7126    0.0552 H       1  UNL1        0.0618
     32 H          -3.1562    2.3079    0.2143 H       1  UNL1        0.0624
     33 H           1.5208    2.2247   -0.4253 H       1  UNL1        0.1548
     34 H           1.8058   -1.4038   -0.8286 H       1  UNL1        0.0636
     35 H           3.7499   -2.7757   -0.6702 H       1  UNL1        0.0618
     36 H           5.9085   -1.8401    0.0321 H       1  UNL1        0.0623
     37 H           4.0637    1.9825    0.5130 H       1  UNL1        0.0642
@<TRIPOS>BOND
     1     1     2    2
     2     2     3    1
     3     2    15   am
     4     3     4    1
     5     3    26    1
     6     3    27    1
     7     4     5   ar
     8     5     6   ar
     9     6     7   ar
    10     6    28    1
    11     7     8    2
    12     7     9   ar
    13     9    10   ar
    14    10    11   ar
    15    10    29    1
    16    11    12   ar
    17    11    30    1
    18    12    13   ar
    19    12    31    1
    20    13    14   ar
    21    13    32    1
    22    14     4   ar
    23    14     9   ar
    24    15    16    1
    25    15    33    1
    26    16    17   ar
    27    17    18   ar
    28    17    34    1
    29    18    19   ar
    30    18    35    1
    31    19    20   ar
    32    19    36    1
    33    20    21    1
    34    20    25   ar
    35    21    22    1
    36    21    23    1
    37    21    24    1
    38    25    16   ar
    39    25    37    1
