@<TRIPOS>MOLECULE
*****
 34 35 0 0 0
SMALL
GASTEIGER

@<TRIPOS>ATOM
      1 C           6.5583    0.0730   -0.5175 C.3     1  UNL1        0.0125
      2 C           5.2259    0.0353    0.1901 C.2     1  UNL1        0.2141
      3 O           5.2638   -0.0818    1.4262 O.2     1  UNL1       -0.2758
      4 N           4.0182    0.1269   -0.5042 N.am    1  UNL1       -0.2857
      5 C           2.7433    0.1012    0.0886 C.ar    1  UNL1        0.0336
      6 C           2.4674    0.0885    1.4330 C.ar    1  UNL1       -0.0370
      7 C           1.1769    0.0554    1.9503 C.ar    1  UNL1       -0.0176
      8 C           0.1030    0.0339    1.0983 C.ar    1  UNL1        0.1286
      9 O          -1.2096    0.0003    1.6054 O.3     1  UNL1       -0.4557
     10 C          -2.3007   -0.0216    0.7450 C.ar    1  UNL1        0.1366
     11 C          -2.9079    1.1299    0.2934 C.ar    1  UNL1        0.0018
     12 C          -3.9956    1.1358   -0.5635 C.ar    1  UNL1        0.0345
     13 N          -4.5903    2.3515   -1.0038 N.pl3   1  UNL1       -0.3577
     14 C          -4.4732   -0.0926   -0.9687 C.ar    1  UNL1        0.0364
     15 C          -3.9013   -1.2730   -0.5457 C.ar    1  UNL1        0.2784
     16 N          -4.4162   -2.5205   -0.9806 N.pl3   1  UNL1        0.0798
     17 O          -5.3784   -2.5582   -1.7398 O.2     1  UNL1        0.0414
     18 O          -3.8409   -3.6921   -0.5547 O.co2   1  UNL1       -0.5760
     19 C          -2.8043   -1.2336    0.3198 C.ar    1  UNL1        0.0579
     20 C           0.3308    0.0457   -0.2556 C.ar    1  UNL1       -0.0176
     21 C           1.6095    0.0783   -0.7481 C.ar    1  UNL1       -0.0370
     22 H           6.4718    0.6760   -1.4460 H       1  UNL1        0.0323
     23 H           7.2811    0.6002    0.1394 H       1  UNL1        0.0323
     24 H           6.8512   -0.9640   -0.6932 H       1  UNL1        0.0323
     25 H           4.0507    0.2251   -1.5603 H       1  UNL1        0.1548
     26 H           3.2539    0.1085    2.1641 H       1  UNL1        0.0637
     27 H           0.9940    0.0460    3.0162 H       1  UNL1        0.0655
     28 H          -2.4983    2.0782    0.6384 H       1  UNL1        0.0673
     29 H          -4.0589    3.2490   -0.9762 H       1  UNL1        0.1423
     30 H          -5.5529    2.3671   -1.3563 H       1  UNL1        0.1423
     31 H          -5.3197   -0.1467   -1.6370 H       1  UNL1        0.0704
     32 H          -2.3351   -2.1358    0.6684 H       1  UNL1        0.0723
     33 H          -0.5433    0.0280   -0.9042 H       1  UNL1        0.0655
     34 H           1.7268    0.0861   -1.8136 H       1  UNL1        0.0637
@<TRIPOS>UNITY_ATOM_ATTR
16 1
charge 1
18 1
charge -1
@<TRIPOS>BOND
     1     1     2    1
     2     1    22    1
     3     1    23    1
     4     1    24    1
     5     2     3    2
     6     2     4   am
     7     4     5    1
     8     4    25    1
     9     5     6   ar
    10     6     7   ar
    11     6    26    1
    12     7     8   ar
    13     7    27    1
    14     8     9    1
    15     8    20   ar
    16     9    10    1
    17    10    11   ar
    18    11    12   ar
    19    11    28    1
    20    12    13    1
    21    12    14   ar
    22    13    29    1
    23    13    30    1
    24    14    15   ar
    25    14    31    1
    26    15    16    1
    27    15    19   ar
    28    16    17    2
    29    16    18    1
    30    19    10   ar
    31    19    32    1
    32    20    21   ar
    33    20    33    1
    34    21     5   ar
    35    21    34    1
