@<TRIPOS>MOLECULE
*****
 34 36 0 0 0
SMALL
GASTEIGER

@<TRIPOS>ATOM
      1 N          -0.2916    2.7018    1.4604 N.pl3   1  UNL1       -0.3510
      2 C          -1.2179    1.8552    0.8000 C.ar    1  UNL1        0.1323
      3 C          -0.8589    0.5362    0.5987 C.ar    1  UNL1        0.0701
      4 N           0.3905   -0.0040    1.0225 N.pl3   1  UNL1       -0.3117
      5 C           1.5064    0.0282    0.1514 C.ar    1  UNL1        0.0455
      6 C           1.3129    0.6060   -1.1149 C.ar    1  UNL1       -0.0397
      7 C           2.3501    0.6621   -1.9884 C.ar    1  UNL1       -0.0600
      8 C           3.5871    0.1616   -1.6519 C.ar    1  UNL1       -0.0609
      9 C           3.7572   -0.3954   -0.4197 C.ar    1  UNL1       -0.0460
     10 C           2.7343   -0.4801    0.5132 C.ar    1  UNL1        0.0799
     11 C           2.9968   -1.0900    1.8082 C.2     1  UNL1        0.3386
     12 O           4.1881   -1.5207    2.0076 O.2     1  UNL1       -0.2451
     13 O           2.1422   -1.2652    2.8414 O.3     1  UNL1       -0.4771
     14 C          -1.7966   -0.2521   -0.0507 C.ar    1  UNL1        0.0405
     15 C          -1.5535   -1.5844   -0.3088 C.ar    1  UNL1       -0.0492
     16 C          -2.4639   -2.3880   -0.9499 C.ar    1  UNL1       -0.0609
     17 C          -3.6868   -1.8572   -1.3642 C.ar    1  UNL1       -0.0582
     18 C          -3.9176   -0.5246   -1.1003 C.ar    1  UNL1       -0.0186
     19 C          -3.0012    0.2871   -0.4542 C.ar    1  UNL1        0.1409
     20 O          -3.2635    1.5563   -0.2223 O.2     1  UNL1       -0.4208
     21 C          -2.4332    2.3612    0.3823 C.ar    1  UNL1        0.3601
     22 O          -2.7815    3.5583    0.5547 O.2     1  UNL1       -0.2430
     23 H           0.6322    2.8590    1.0213 H       1  UNL1        0.1426
     24 H          -0.5194    3.1649    2.3702 H       1  UNL1        0.1426
     25 H           0.4093   -0.3972    1.9641 H       1  UNL1        0.1522
     26 H           0.3387    1.0090   -1.4012 H       1  UNL1        0.0636
     27 H           2.2540    1.1047   -2.9952 H       1  UNL1        0.0618
     28 H           4.4281    0.2058   -2.3572 H       1  UNL1        0.0618
     29 H           4.7417   -0.7922   -0.1558 H       1  UNL1        0.0626
     30 H           2.1762   -2.0639    3.4776 H       1  UNL1        0.2954
     31 H          -0.6032   -2.0501   -0.0017 H       1  UNL1        0.0625
     32 H          -2.2734   -3.4354   -1.1532 H       1  UNL1        0.0618
     33 H          -4.4220   -2.4596   -1.8690 H       1  UNL1        0.0619
     34 H          -4.8618   -0.0974   -1.4153 H       1  UNL1        0.0654
@<TRIPOS>BOND
     1     1     2    1
     2     1    23    1
     3     1    24    1
     4     2     3   ar
     5     3     4    1
     6     3    14   ar
     7     4     5    1
     8     4    25    1
     9     5     6   ar
    10     6     7   ar
    11     6    26    1
    12     7     8   ar
    13     7    27    1
    14     8     9   ar
    15     8    28    1
    16     9    10   ar
    17     9    29    1
    18    10    11    1
    19    10     5   ar
    20    11    12    2
    21    11    13    1
    22    13    30    1
    23    14    15   ar
    24    15    16   ar
    25    15    31    1
    26    16    17   ar
    27    16    32    1
    28    17    18   ar
    29    17    33    1
    30    18    19   ar
    31    18    34    1
    32    19    20   ar
    33    19    14   ar
    34    20    21   ar
    35    21    22    2
    36    21     2   ar
