@<TRIPOS>MOLECULE
*****
 32 34 0 0 0
SMALL
GASTEIGER

@<TRIPOS>ATOM
      1 O          -3.4664   -2.0549   -2.1670 O.2     1  UNL1       -0.2658
      2 C          -2.6313   -1.1965   -1.8086 C.ar    1  UNL1        0.2725
      3 N          -1.6709   -0.7306   -2.6231 N.ar    1  UNL1       -0.2425
      4 N          -0.8039    0.1758   -2.2112 N.ar    1  UNL1       -0.1750
      5 C          -0.8219    0.6954   -0.9462 C.ar    1  UNL1        0.0736
      6 C           0.2228    1.6407   -0.5611 C.3     1  UNL1        0.0173
      7 C           1.4143    0.9833    0.0994 C.ar    1  UNL1       -0.0351
      8 C           1.6592    0.9774    1.4261 C.ar    1  UNL1       -0.0578
      9 C           2.7912    0.3308    1.9309 C.ar    1  UNL1       -0.0551
     10 C           3.6652   -0.3039    1.0808 C.ar    1  UNL1        0.0156
     11 C           3.4426   -0.3133   -0.2687 C.ar    1  UNL1        0.2734
     12 N           4.3564   -0.9734   -1.1665 N.pl3   1  UNL1        0.0796
     13 O           5.3494   -1.5218   -0.6651 O.2     1  UNL1        0.0414
     14 O           4.1875   -1.0215   -2.5180 O.co2   1  UNL1       -0.5760
     15 C           2.3270    0.3258   -0.7422 C.ar    1  UNL1        0.0191
     16 C          -1.7925    0.2350   -0.1055 C.ar    1  UNL1        0.0106
     17 C          -1.8791    0.7367    1.1801 C.ar    1  UNL1       -0.0521
     18 C          -2.8509    0.3124    2.0576 C.ar    1  UNL1       -0.0611
     19 C          -3.7667   -0.6353    1.6559 C.ar    1  UNL1       -0.0610
     20 C          -3.6824   -1.1381    0.3652 C.ar    1  UNL1       -0.0487
     21 C          -2.7190   -0.7240   -0.5217 C.ar    1  UNL1        0.0496
     22 H          -1.6432   -1.1223   -3.6035 H       1  UNL1        0.1921
     23 H           0.6490    2.0832   -1.5104 H       1  UNL1        0.0377
     24 H          -0.1204    2.5282    0.0060 H       1  UNL1        0.0377
     25 H           1.0184    1.4650    2.1251 H       1  UNL1        0.0620
     26 H           2.9867    0.3269    2.9922 H       1  UNL1        0.0620
     27 H           4.5642   -0.8208    1.4436 H       1  UNL1        0.0685
     28 H           2.1298    0.3323   -1.8093 H       1  UNL1        0.0688
     29 H          -1.1535    1.4954    1.4411 H       1  UNL1        0.0624
     30 H          -2.8595    0.7471    3.0506 H       1  UNL1        0.0618
     31 H          -4.5204   -0.9550    2.3586 H       1  UNL1        0.0618
     32 H          -4.3818   -1.8802    0.0149 H       1  UNL1        0.0625
@<TRIPOS>UNITY_ATOM_ATTR
12 1
charge 1
14 1
charge -1
@<TRIPOS>BOND
     1     1     2    2
     2     2     3   ar
     3     3     4   ar
     4     3    22    1
     5     4     5   ar
     6     5     6    1
     7     5    16   ar
     8     6     7    1
     9     6    23    1
    10     6    24    1
    11     7     8   ar
    12     8     9   ar
    13     8    25    1
    14     9    10   ar
    15     9    26    1
    16    10    11   ar
    17    10    27    1
    18    11    12    1
    19    11    15   ar
    20    12    13    2
    21    12    14    1
    22    15     7   ar
    23    15    28    1
    24    16    17   ar
    25    17    18   ar
    26    17    29    1
    27    18    19   ar
    28    18    30    1
    29    19    20   ar
    30    19    31    1
    31    20    21   ar
    32    20    32    1
    33    21     2   ar
    34    21    16   ar
