@<TRIPOS>MOLECULE
*****
 33 34 0 0 0
SMALL
GASTEIGER

@<TRIPOS>ATOM
      1 O           3.6632    2.1353   -1.7385 O.2     1  UNL1       -0.2451
      2 C           4.2530    1.3570   -0.9582 C.2     1  UNL1        0.3370
      3 O           5.6346    1.3905   -0.8962 O.3     1  UNL1       -0.4771
      4 C           3.5502    0.4109   -0.1062 C.ar    1  UNL1        0.0640
      5 C           4.2296   -0.4436    0.7526 C.ar    1  UNL1       -0.0061
      6 C           3.5616   -1.3361    1.5559 C.ar    1  UNL1        0.1194
      7 O           4.2151   -2.1961    2.4183 O.3     1  UNL1       -0.5067
      8 C           2.1860   -1.3851    1.5091 C.ar    1  UNL1        0.0007
      9 C           1.5046   -0.5398    0.6588 C.ar    1  UNL1        0.0316
     10 N           0.0849   -0.5885    0.6086 N.pl3   1  UNL1       -0.3396
     11 C          -0.6542    0.2715   -0.2592 C.3     1  UNL1        0.0346
     12 C          -2.1238    0.1186   -0.1864 C.ar    1  UNL1       -0.0240
     13 C          -2.7700   -0.3885    0.9150 C.ar    1  UNL1       -0.0567
     14 C          -4.1560   -0.5282    0.9565 C.ar    1  UNL1       -0.0550
     15 C          -4.8997   -0.1558   -0.1157 C.ar    1  UNL1        0.0156
     16 C          -4.3094    0.3592   -1.2478 C.ar    1  UNL1        0.2735
     17 N          -5.1164    0.7432   -2.3617 N.pl3   1  UNL1        0.0796
     18 O          -6.3363    0.6466   -2.3894 O.2     1  UNL1        0.0414
     19 O          -4.4711    1.2499   -3.4617 O.co2   1  UNL1       -0.5760
     20 C          -2.9403    0.4864   -1.2627 C.ar    1  UNL1        0.0202
     21 C           2.1772    0.3640   -0.1550 C.ar    1  UNL1       -0.0266
     22 H           6.1658    2.2446   -1.0747 H       1  UNL1        0.2954
     23 H           5.3066   -0.3891    0.7740 H       1  UNL1        0.0662
     24 H           4.3964   -1.8733    3.3676 H       1  UNL1        0.2921
     25 H           1.6630   -2.1008    2.1542 H       1  UNL1        0.0672
     26 H          -0.3937   -1.2749    1.2246 H       1  UNL1        0.1464
     27 H          -0.3933    1.3324   -0.0738 H       1  UNL1        0.0511
     28 H          -0.3390    0.0750   -1.3258 H       1  UNL1        0.0511
     29 H          -2.2288   -0.6891    1.7761 H       1  UNL1        0.0621
     30 H          -4.6156   -0.9346    1.8514 H       1  UNL1        0.0620
     31 H          -5.9905   -0.2615   -0.0931 H       1  UNL1        0.0685
     32 H          -2.4894    0.8922   -2.1578 H       1  UNL1        0.0688
     33 H           1.6358    1.0075   -0.8037 H       1  UNL1        0.0644
@<TRIPOS>UNITY_ATOM_ATTR
17 1
charge 1
19 1
charge -1
@<TRIPOS>BOND
     1     1     2    2
     2     2     3    1
     3     2     4    1
     4     3    22    1
     5     4     5   ar
     6     5     6   ar
     7     5    23    1
     8     6     7    1
     9     6     8   ar
    10     7    24    1
    11     8     9   ar
    12     8    25    1
    13     9    10    1
    14     9    21   ar
    15    10    11    1
    16    10    26    1
    17    11    12    1
    18    11    27    1
    19    11    28    1
    20    12    13   ar
    21    13    14   ar
    22    13    29    1
    23    14    15   ar
    24    14    30    1
    25    15    16   ar
    26    15    31    1
    27    16    17    1
    28    16    20   ar
    29    17    18    2
    30    17    19    1
    31    20    12   ar
    32    20    32    1
    33    21     4   ar
    34    21    33    1
