@<TRIPOS>MOLECULE
*****
 35 36 0 0 0
SMALL
GASTEIGER

@<TRIPOS>ATOM
      1 C           6.7709   -0.4195    0.5006 C.3     1  UNL1       -0.0397
      2 C           5.3424   -0.1324    0.2427 C.ar    1  UNL1       -0.0504
      3 C           4.3422   -0.5572    1.1056 C.ar    1  UNL1       -0.0585
      4 C           3.0234   -0.2704    0.8349 C.ar    1  UNL1       -0.0561
      5 C           2.6313    0.4357   -0.2798 C.ar    1  UNL1       -0.0196
      6 C           1.1872    0.7095   -0.5135 C.3     1  UNL1        0.0983
      7 O           0.4528    0.1202    0.4853 O.3     1  UNL1       -0.2749
      8 N          -0.8545    0.3661    0.2769 N.am    1  UNL1       -0.1902
      9 C          -1.8059   -0.6708    0.1671 C.2     1  UNL1        0.2669
     10 O          -1.4536   -1.8657    0.2608 O.2     1  UNL1       -0.2681
     11 C          -3.1996   -0.3296   -0.0545 C.ar    1  UNL1        0.0451
     12 C          -3.5968    0.8708   -0.6511 C.ar    1  UNL1       -0.0491
     13 C          -4.9258    1.1219   -0.8132 C.ar    1  UNL1       -0.0546
     14 C          -5.8532    0.1868   -0.3843 C.ar    1  UNL1        0.0156
     15 C          -5.4933   -1.0023    0.2064 C.ar    1  UNL1        0.2739
     16 N          -6.4852   -1.9408    0.6393 N.pl3   1  UNL1        0.0796
     17 O          -7.6713   -1.6589    0.4727 O.2     1  UNL1        0.0414
     18 O          -6.1562   -3.1273    1.2237 O.co2   1  UNL1       -0.5760
     19 C          -4.1434   -1.2419    0.3628 C.ar    1  UNL1        0.0277
     20 C           3.6306    0.8542   -1.1331 C.ar    1  UNL1       -0.0561
     21 C           4.9637    0.5753   -0.8773 C.ar    1  UNL1       -0.0585
     22 H           6.9073   -0.8694    1.5046 H       1  UNL1        0.0278
     23 H           7.3853    0.5182    0.4944 H       1  UNL1        0.0278
     24 H           7.1111   -1.1273   -0.2767 H       1  UNL1        0.0278
     25 H           4.6621   -1.1171    1.9900 H       1  UNL1        0.0620
     26 H           2.2408   -0.5990    1.5016 H       1  UNL1        0.0621
     27 H           0.9775    1.8163   -0.4441 H       1  UNL1        0.0634
     28 H           0.9066    0.4333   -1.5370 H       1  UNL1        0.0634
     29 H          -1.1609    1.3794    0.1964 H       1  UNL1        0.1828
     30 H          -2.8224    1.5665   -0.9670 H       1  UNL1        0.0625
     31 H          -5.2612    2.0523   -1.2791 H       1  UNL1        0.0620
     32 H          -6.9029    0.3884   -0.5125 H       1  UNL1        0.0685
     33 H          -3.8373   -2.1657    0.8273 H       1  UNL1        0.0693
     34 H           3.3475    1.4132   -2.0138 H       1  UNL1        0.0621
     35 H           5.7404    0.9092   -1.5561 H       1  UNL1        0.0620
@<TRIPOS>UNITY_ATOM_ATTR
16 1
charge 1
18 1
charge -1
@<TRIPOS>BOND
     1     1     2    1
     2     1    22    1
     3     1    23    1
     4     1    24    1
     5     2     3   ar
     6     3     4   ar
     7     3    25    1
     8     4     5   ar
     9     4    26    1
    10     5     6    1
    11     5    20   ar
    12     6     7    1
    13     6    27    1
    14     6    28    1
    15     7     8    1
    16     8     9   am
    17     8    29    1
    18     9    10    2
    19     9    11    1
    20    11    12   ar
    21    12    13   ar
    22    12    30    1
    23    13    14   ar
    24    13    31    1
    25    14    15   ar
    26    14    32    1
    27    15    16    1
    28    15    19   ar
    29    16    17    2
    30    16    18    1
    31    19    11   ar
    32    19    33    1
    33    20    21   ar
    34    20    34    1
    35    21     2   ar
    36    21    35    1
