@<TRIPOS>MOLECULE
*****
 41 43 0 0 0
SMALL
GASTEIGER

@<TRIPOS>ATOM
      1 O           1.2708   -0.6601    0.3998 O.2     1  UNL1       -0.2743
      2 C           0.7290   -0.2184   -0.6751 C.2     1  UNL1        0.2295
      3 C          -0.6815    0.1710   -0.6006 C.3     1  UNL1        0.0322
      4 C          -1.2134   -0.2031    0.7799 C.3     1  UNL1        0.0138
      5 C          -2.6295    0.2213    0.8523 C.ar    1  UNL1        0.1108
      6 N          -3.5772   -0.6357    0.4426 N.ar    1  UNL1       -0.2337
      7 C          -4.8790   -0.3038    0.4972 C.ar    1  UNL1        0.0781
      8 C          -5.8549   -1.1711    0.0801 C.ar    1  UNL1       -0.0355
      9 C          -7.1925   -0.8372    0.1318 C.ar    1  UNL1       -0.0597
     10 C          -7.5251    0.4205    0.6268 C.ar    1  UNL1       -0.0609
     11 C          -6.5475    1.3135    1.0542 C.ar    1  UNL1       -0.0474
     12 C          -5.2225    0.9498    0.9887 C.ar    1  UNL1        0.0647
     13 C          -4.2117    1.7988    1.3988 C.ar    1  UNL1        0.2592
     14 O          -4.5572    2.9254    1.8391 O.2     1  UNL1       -0.2672
     15 N          -2.9087    1.4568    1.3398 N.ar    1  UNL1       -0.3103
     16 N           1.5407   -0.1491   -1.8234 N.am    1  UNL1       -0.2341
     17 N           2.8855   -0.5740   -1.6732 N.am    1  UNL1       -0.2304
     18 C           3.7521    0.2393   -0.8614 C.2     1  UNL1        0.2601
     19 O           3.2250    1.2820   -0.3549 O.2     1  UNL1       -0.2687
     20 C           5.1461   -0.0929   -0.6205 C.ar    1  UNL1        0.0383
     21 C           5.8860    0.7396    0.1948 C.ar    1  UNL1       -0.0469
     22 C           7.2166    0.4853    0.4766 C.ar    1  UNL1       -0.0257
     23 C           7.8281   -0.6216   -0.0634 C.ar    1  UNL1        0.1234
     24 F           9.1145   -0.8957    0.1929 F       1  UNL1       -0.2055
     25 C           7.1115   -1.4653   -0.8784 C.ar    1  UNL1       -0.0257
     26 C           5.7928   -1.1890   -1.1418 C.ar    1  UNL1       -0.0469
     27 H          -1.2493   -0.4225   -1.3501 H       1  UNL1        0.0363
     28 H          -0.8654    1.2394   -0.8197 H       1  UNL1        0.0363
     29 H          -1.1504   -1.3123    0.8931 H       1  UNL1        0.0348
     30 H          -0.6134    0.2157    1.5985 H       1  UNL1        0.0348
     31 H          -5.5760   -2.1516   -0.3042 H       1  UNL1        0.0639
     32 H          -7.9895   -1.4899   -0.1845 H       1  UNL1        0.0618
     33 H          -8.5664    0.6801    0.6701 H       1  UNL1        0.0618
     34 H          -6.8004    2.2976    1.4442 H       1  UNL1        0.0626
     35 H          -2.1374    2.0914    1.6463 H       1  UNL1        0.1700
     36 H           1.1509    0.1935   -2.7106 H       1  UNL1        0.1728
     37 H           3.2747   -1.4255   -2.1072 H       1  UNL1        0.1731
     38 H           5.4117    1.6148    0.6234 H       1  UNL1        0.0626
     39 H           7.8152    1.1301    1.1173 H       1  UNL1        0.0646
     40 H           7.5496   -2.3575   -1.3317 H       1  UNL1        0.0646
     41 H           5.2479   -1.8665   -1.7875 H       1  UNL1        0.0626
@<TRIPOS>BOND
     1     1     2    2
     2     2     3    1
     3     2    16   am
     4     3     4    1
     5     3    27    1
     6     3    28    1
     7     4     5    1
     8     4    29    1
     9     4    30    1
    10     5     6   ar
    11     6     7   ar
    12     7     8   ar
    13     8     9   ar
    14     8    31    1
    15     9    10   ar
    16     9    32    1
    17    10    11   ar
    18    10    33    1
    19    11    12   ar
    20    11    34    1
    21    12    13   ar
    22    12     7   ar
    23    13    14    2
    24    13    15   ar
    25    15     5   ar
    26    15    35    1
    27    16    17    1
    28    16    36    1
    29    17    18   am
    30    17    37    1
    31    18    19    2
    32    18    20    1
    33    20    21   ar
    34    21    22   ar
    35    21    38    1
    36    22    23   ar
    37    22    39    1
    38    23    24    1
    39    23    25   ar
    40    25    26   ar
    41    25    40    1
    42    26    20   ar
    43    26    41    1
