@<TRIPOS>MOLECULE
*****
 38 40 0 0 0
SMALL
GASTEIGER

@<TRIPOS>ATOM
      1 O           0.0532   -0.7386   -1.2761 O.2     1  UNL1       -0.2738
      2 C           0.0043    0.4506   -0.8680 C.2     1  UNL1        0.2364
      3 C          -1.1531    1.3541   -1.1050 C.3     1  UNL1        0.0835
      4 C          -2.4402    0.8763   -0.6033 C.ar    1  UNL1        0.1192
      5 N          -3.2523    0.0529   -1.2864 N.ar    1  UNL1       -0.2332
      6 C          -4.4447   -0.3458   -0.8341 C.ar    1  UNL1        0.0782
      7 C          -5.3191   -1.1716   -1.4886 C.ar    1  UNL1       -0.0355
      8 C          -6.5409   -1.5311   -0.9658 C.ar    1  UNL1       -0.0597
      9 C          -6.9183   -1.0594    0.2525 C.ar    1  UNL1       -0.0609
     10 C          -6.0651   -0.2225    0.9465 C.ar    1  UNL1       -0.0474
     11 C          -4.8444    0.1308    0.4113 C.ar    1  UNL1        0.0647
     12 C          -3.9981    0.9812    1.1150 C.ar    1  UNL1        0.2592
     13 O          -4.3436    1.4280    2.2572 O.2     1  UNL1       -0.2672
     14 N          -2.8325    1.3348    0.6089 N.ar    1  UNL1       -0.3100
     15 N           1.1552    0.9193   -0.1407 N.am    1  UNL1       -0.2338
     16 N           2.2955    0.1833    0.1367 N.am    1  UNL1       -0.2304
     17 C           3.5578    0.6601   -0.2908 C.2     1  UNL1        0.2601
     18 O           3.5601    1.7713   -0.9277 O.2     1  UNL1       -0.2687
     19 C           4.8157    0.0113   -0.0722 C.ar    1  UNL1        0.0383
     20 C           5.9732    0.7623   -0.1416 C.ar    1  UNL1       -0.0469
     21 C           7.2095    0.2136    0.0551 C.ar    1  UNL1       -0.0257
     22 C           7.2657   -1.1361    0.3287 C.ar    1  UNL1        0.1234
     23 F           8.4950   -1.6910    0.5280 F       1  UNL1       -0.2055
     24 C           6.1354   -1.9055    0.4020 C.ar    1  UNL1       -0.0257
     25 C           4.9052   -1.3164    0.1983 C.ar    1  UNL1       -0.0469
     26 H          -0.9244    2.3694   -0.6655 H       1  UNL1        0.0438
     27 H          -1.1725    1.5488   -2.2106 H       1  UNL1        0.0438
     28 H          -5.0473   -1.5639   -2.4744 H       1  UNL1        0.0639
     29 H          -7.2041   -2.1860   -1.5040 H       1  UNL1        0.0618
     30 H          -7.8687   -1.3043    0.7256 H       1  UNL1        0.0618
     31 H          -6.3417    0.1694    1.9211 H       1  UNL1        0.0626
     32 H          -2.2351    1.9810    1.1826 H       1  UNL1        0.1701
     33 H           1.0880    1.9263    0.2020 H       1  UNL1        0.1728
     34 H           2.2506   -0.7104    0.6530 H       1  UNL1        0.1731
     35 H           5.9122    1.8342   -0.3605 H       1  UNL1        0.0626
     36 H           8.0795    0.8511   -0.0081 H       1  UNL1        0.0646
     37 H           6.1706   -2.9746    0.6134 H       1  UNL1        0.0646
     38 H           4.0194   -1.9530    0.2628 H       1  UNL1        0.0626
@<TRIPOS>BOND
     1     1     2    2
     2     2     3    1
     3     2    15   am
     4     3     4    1
     5     3    26    1
     6     3    27    1
     7     4     5   ar
     8     5     6   ar
     9     6     7   ar
    10     7     8   ar
    11     7    28    1
    12     8     9   ar
    13     8    29    1
    14     9    10   ar
    15     9    30    1
    16    10    11   ar
    17    10    31    1
    18    11    12   ar
    19    11     6   ar
    20    12    13    2
    21    12    14   ar
    22    14     4   ar
    23    14    32    1
    24    15    16    1
    25    15    33    1
    26    16    17   am
    27    16    34    1
    28    17    18    2
    29    17    19    1
    30    19    20   ar
    31    20    21   ar
    32    20    35    1
    33    21    22   ar
    34    21    36    1
    35    22    23    1
    36    22    24   ar
    37    24    25   ar
    38    24    37    1
    39    25    19   ar
    40    25    38    1
