@<TRIPOS>MOLECULE
*****
 49 52 0 0 0
SMALL
GASTEIGER

@<TRIPOS>ATOM
      1 O           0.1450    3.5173    0.3054 O.2     1  UNL1       -0.2756
      2 C           0.0847    2.2662    0.2280 C.2     1  UNL1        0.2161
      3 C          -1.2295    1.6129    0.2178 C.3     1  UNL1        0.0309
      4 C          -2.0514    1.8020    1.4556 C.3     1  UNL1        0.0138
      5 C          -3.3744    1.0902    1.2698 C.ar    1  UNL1        0.1108
      6 N          -3.7007    0.6483    0.0363 N.ar    1  UNL1       -0.2337
      7 C          -4.8398   -0.0317   -0.1773 C.ar    1  UNL1        0.0781
      8 C          -5.1490   -0.4746   -1.4389 C.ar    1  UNL1       -0.0355
      9 C          -6.3202   -1.1692   -1.6144 C.ar    1  UNL1       -0.0597
     10 C          -7.1798   -1.4324   -0.5960 C.ar    1  UNL1       -0.0609
     11 C          -6.8881   -0.9907    0.6993 C.ar    1  UNL1       -0.0474
     12 C          -5.6933   -0.2852    0.8649 C.ar    1  UNL1        0.0647
     13 C          -5.3673    0.1653    2.1308 C.ar    1  UNL1        0.2592
     14 O          -6.1517   -0.0705    3.0657 O.2     1  UNL1       -0.2672
     15 N          -4.2074    0.8425    2.2804 N.ar    1  UNL1       -0.3103
     16 N           1.2921    1.5197    0.1427 N.am    1  UNL1       -0.2985
     17 C           2.5536    2.1870    0.0345 C.3     1  UNL1        0.0304
     18 C           3.6096    1.3412   -0.6323 C.3     1  UNL1        0.0280
     19 N           3.7114   -0.0038   -0.1132 N.pl3   1  UNL1       -0.3269
     20 C           4.6950   -0.9359   -0.5007 C.ar    1  UNL1        0.0299
     21 C           5.1015   -1.9219    0.3864 C.ar    1  UNL1       -0.0379
     22 C           6.0491   -2.8509    0.0216 C.ar    1  UNL1       -0.0247
     23 C           6.6031   -2.7934   -1.2610 C.ar    1  UNL1        0.1235
     24 F           7.5357   -3.7268   -1.5592 F       1  UNL1       -0.2055
     25 C           6.1974   -1.8188   -2.1289 C.ar    1  UNL1       -0.0247
     26 C           5.2233   -0.8589   -1.7579 C.ar    1  UNL1       -0.0379
     27 C           2.6617   -0.3513    0.8563 C.3     1  UNL1        0.0280
     28 C           1.3068    0.0584    0.2433 C.3     1  UNL1        0.0304
     29 H          -1.8250    2.1346   -0.6022 H       1  UNL1        0.0362
     30 H          -1.2120    0.5536   -0.1155 H       1  UNL1        0.0362
     31 H          -1.6005    1.3639    2.3641 H       1  UNL1        0.0348
     32 H          -2.2704    2.8654    1.6268 H       1  UNL1        0.0348
     33 H          -4.4472   -0.2572   -2.2566 H       1  UNL1        0.0639
     34 H          -6.5176   -1.5055   -2.6445 H       1  UNL1        0.0618
     35 H          -8.0968   -1.9855   -0.7865 H       1  UNL1        0.0618
     36 H          -7.5568   -1.1871    1.5210 H       1  UNL1        0.0626
     37 H          -3.9853    1.1678    3.2645 H       1  UNL1        0.1700
     38 H           2.9320    2.5837    0.9929 H       1  UNL1        0.0480
     39 H           2.3647    3.0920   -0.6259 H       1  UNL1        0.0480
     40 H           3.3115    1.1988   -1.7134 H       1  UNL1        0.0479
     41 H           4.5600    1.8978   -0.6456 H       1  UNL1        0.0479
     42 H           4.6388   -1.9068    1.3669 H       1  UNL1        0.0637
     43 H           6.3523   -3.6049    0.7422 H       1  UNL1        0.0647
     44 H           6.6276   -1.7828   -3.1121 H       1  UNL1        0.0647
     45 H           4.9294   -0.1079   -2.4708 H       1  UNL1        0.0637
     46 H           2.7178   -1.4333    1.0192 H       1  UNL1        0.0479
     47 H           2.7364    0.1725    1.8004 H       1  UNL1        0.0479
     48 H           1.2630   -0.3880   -0.7579 H       1  UNL1        0.0480
     49 H           0.4607   -0.2060    0.9051 H       1  UNL1        0.0480
@<TRIPOS>BOND
     1     1     2    2
     2     2     3    1
     3     2    16   am
     4     3     4    1
     5     3    29    1
     6     3    30    1
     7     4     5    1
     8     4    31    1
     9     4    32    1
    10     5     6   ar
    11     6     7   ar
    12     7     8   ar
    13     8     9   ar
    14     8    33    1
    15     9    10   ar
    16     9    34    1
    17    10    11   ar
    18    10    35    1
    19    11    12   ar
    20    11    36    1
    21    12    13   ar
    22    12     7   ar
    23    13    14    2
    24    13    15   ar
    25    15     5   ar
    26    15    37    1
    27    16    17    1
    28    17    18    1
    29    17    38    1
    30    17    39    1
    31    18    19    1
    32    18    40    1
    33    18    41    1
    34    19    20    1
    35    19    27    1
    36    20    21   ar
    37    21    22   ar
    38    21    42    1
    39    22    23   ar
    40    22    43    1
    41    23    24    1
    42    23    25   ar
    43    25    26   ar
    44    25    44    1
    45    26    20   ar
    46    26    45    1
    47    27    28    1
    48    27    46    1
    49    27    47    1
    50    28    16    1
    51    28    48    1
    52    28    49    1
