@<TRIPOS>MOLECULE
*****
 46 49 0 0 0
SMALL
GASTEIGER

@<TRIPOS>ATOM
      1 C           6.9714    1.7782    0.9583 C.3     1  UNL1       -0.0349
      2 C           6.7394    0.3548    0.6087 C.ar    1  UNL1        0.0129
      3 C           7.6895   -0.6738    0.6118 C.ar    1  UNL1        0.1274
      4 O           7.0416   -1.7454    0.2402 O.2     1  UNL1       -0.3624
      5 N           5.7787   -1.4863    0.0053 N.ar    1  UNL1       -0.0815
      6 C           5.5357   -0.1831    0.2213 C.ar    1  UNL1        0.1034
      7 C           4.2913    0.5758    0.0946 C.3     1  UNL1        0.0578
      8 N           3.1838   -0.3042   -0.3420 N.am    1  UNL1       -0.3056
      9 C           1.8897    0.2012   -0.5336 C.2     1  UNL1        0.2472
     10 O           1.7453    1.4496   -0.3097 O.2     1  UNL1       -0.2701
     11 C           0.7140   -0.5429   -0.9562 C.ar    1  UNL1        0.0721
     12 C          -0.4722    0.1628   -1.2116 C.ar    1  UNL1       -0.0433
     13 C          -1.6448   -0.4233   -1.6247 C.ar    1  UNL1       -0.0406
     14 C          -2.8626    0.3959   -1.9028 C.3     1  UNL1        0.0171
     15 C          -3.5207    0.9244   -0.7080 C.ar    1  UNL1        0.0736
     16 N          -3.2550    2.2079   -0.2978 N.ar    1  UNL1       -0.1750
     17 N          -3.7836    2.7338    0.7890 N.ar    1  UNL1       -0.2425
     18 C          -4.6261    2.0963    1.6089 C.ar    1  UNL1        0.2725
     19 O          -5.1267    2.5978    2.6418 O.2     1  UNL1       -0.2658
     20 C          -4.9460    0.7982    1.2659 C.ar    1  UNL1        0.0496
     21 C          -5.8187    0.0892    2.0636 C.ar    1  UNL1       -0.0487
     22 C          -6.1681   -1.2075    1.7398 C.ar    1  UNL1       -0.0610
     23 C          -5.6129   -1.7514    0.5999 C.ar    1  UNL1       -0.0611
     24 C          -4.7431   -1.0284   -0.1841 C.ar    1  UNL1       -0.0521
     25 C          -4.3874    0.2537    0.1238 C.ar    1  UNL1        0.0106
     26 C          -1.6257   -1.7861   -1.7900 C.ar    1  UNL1       -0.0555
     27 C          -0.4716   -2.5282   -1.5481 C.ar    1  UNL1       -0.0254
     28 C           0.6558   -1.8990   -1.1424 C.ar    1  UNL1        0.1355
     29 F           1.7489   -2.6478   -0.9130 F       1  UNL1       -0.2047
     30 H           6.8468    1.8406    2.0774 H       1  UNL1        0.0279
     31 H           7.9782    2.0894    0.6728 H       1  UNL1        0.0279
     32 H           6.2211    2.4261    0.4484 H       1  UNL1        0.0279
     33 H           8.7324   -0.5616    0.8738 H       1  UNL1        0.1060
     34 H           3.9360    0.9852    1.0760 H       1  UNL1        0.0528
     35 H           4.3341    1.4061   -0.6213 H       1  UNL1        0.0528
     36 H           3.3625   -1.3064   -0.5130 H       1  UNL1        0.1494
     37 H          -0.4603    1.2512   -1.0723 H       1  UNL1        0.0629
     38 H          -3.5501   -0.1239   -2.6015 H       1  UNL1        0.0377
     39 H          -2.4891    1.2732   -2.4947 H       1  UNL1        0.0377
     40 H          -3.5453    3.7296    1.0611 H       1  UNL1        0.1921
     41 H          -6.2380    0.5452    2.9531 H       1  UNL1        0.0625
     42 H          -6.8569   -1.7416    2.3861 H       1  UNL1        0.0618
     43 H          -5.8661   -2.7633    0.3188 H       1  UNL1        0.0618
     44 H          -4.3544   -1.4812   -1.0558 H       1  UNL1        0.0624
     45 H          -2.4788   -2.3593   -2.1189 H       1  UNL1        0.0621
     46 H          -0.4919   -3.6215   -1.6903 H       1  UNL1        0.0646
@<TRIPOS>BOND
     1     1     2    1
     2     1    30    1
     3     1    31    1
     4     1    32    1
     5     2     3   ar
     6     3     4   ar
     7     3    33    1
     8     4     5   ar
     9     5     6   ar
    10     6     7    1
    11     6     2   ar
    12     7     8    1
    13     7    34    1
    14     7    35    1
    15     8     9   am
    16     8    36    1
    17     9    10    2
    18     9    11    1
    19    11    12   ar
    20    12    13   ar
    21    12    37    1
    22    13    14    1
    23    13    26   ar
    24    14    15    1
    25    14    38    1
    26    14    39    1
    27    15    16   ar
    28    16    17   ar
    29    17    18   ar
    30    17    40    1
    31    18    19    2
    32    18    20   ar
    33    20    21   ar
    34    21    22   ar
    35    21    41    1
    36    22    23   ar
    37    22    42    1
    38    23    24   ar
    39    23    43    1
    40    24    25   ar
    41    24    44    1
    42    25    15   ar
    43    25    20   ar
    44    26    27   ar
    45    26    45    1
    46    27    28   ar
    47    27    46    1
    48    28    29    1
    49    28    11   ar
