@<TRIPOS>MOLECULE
*****
 35 37 0 0 0
SMALL
GASTEIGER

@<TRIPOS>ATOM
      1 C          -2.8590   -0.0420   -3.6671 C.3     1  UNL1       -0.0221
      2 C          -2.4667   -0.0353   -2.2224 C.ar    1  UNL1        0.0457
      3 C          -1.1208   -0.0181   -1.8555 C.ar    1  UNL1        0.0215
      4 C          -0.6885   -0.0111   -0.5466 C.ar    1  UNL1        0.2241
      5 O           0.5292    0.0046   -0.0503 O.3     1  UNL1       -0.4379
      6 C           1.8226    0.0204   -0.2598 C.ar    1  UNL1        0.1311
      7 C           2.4389    0.0266   -1.4910 C.ar    1  UNL1       -0.0192
      8 C           3.8240    0.0438   -1.5416 C.ar    1  UNL1       -0.0576
      9 C           4.6028    0.0548   -0.4077 C.ar    1  UNL1       -0.0494
     10 C           4.0112    0.0490    0.8378 C.ar    1  UNL1        0.0400
     11 C           4.8617    0.0609    2.0341 C.2     1  UNL1        0.2416
     12 N           6.2743    0.0783    1.9064 N.am    1  UNL1       -0.3253
     13 O           4.3664    0.0562    3.1800 O.2     1  UNL1       -0.2704
     14 C           2.6574    0.0322    0.8812 C.ar    1  UNL1       -0.0072
     15 N          -1.7184   -0.0228    0.3727 N.ar    1  UNL1       -0.1928
     16 C          -3.0059   -0.0391    0.0720 C.ar    1  UNL1        0.1643
     17 C          -4.0261   -0.0505    1.1135 C.2     1  UNL1        0.0274
     18 C          -3.8151   -0.0463    2.4114 C.2     1  UNL1       -0.0429
     19 C          -5.1158   -0.0616    3.0980 C.2     1  UNL1       -0.0188
     20 C          -5.9879   -0.1134    2.1044 C.1     1  UNL1       -0.1191
     21 C          -5.4609   -0.0686    0.9090 C.2     1  UNL1       -0.0088
     22 N          -3.3734   -0.0453   -1.2408 N.ar    1  UNL1       -0.2323
     23 H          -2.2597    0.7717   -4.1537 H       1  UNL1        0.0293
     24 H          -2.5988   -0.9942   -4.1546 H       1  UNL1        0.0293
     25 H          -3.9441    0.1899   -3.6993 H       1  UNL1        0.0293
     26 H          -0.3858   -0.0099   -2.6204 H       1  UNL1        0.0689
     27 H           1.8785    0.0185   -2.4256 H       1  UNL1        0.0654
     28 H           4.3216    0.0488   -2.5112 H       1  UNL1        0.0619
     29 H           5.6842    0.0681   -0.4934 H       1  UNL1        0.0625
     30 H           6.8647    0.8904    2.1747 H       1  UNL1        0.1453
     31 H           6.7415   -0.7613    1.5263 H       1  UNL1        0.1453
     32 H           2.1919    0.0276    1.8644 H       1  UNL1        0.0662
     33 H          -2.8854   -0.0341    2.9654 H       1  UNL1        0.0631
     34 H          -5.3472   -0.0382    4.1379 H       1  UNL1        0.0706
     35 H          -6.0113   -0.0499   -0.0220 H       1  UNL1        0.0713
@<TRIPOS>BOND
     1     1     2    1
     2     1    23    1
     3     1    24    1
     4     1    25    1
     5     2     3   ar
     6     3     4   ar
     7     3    26    1
     8     4     5    1
     9     4    15   ar
    10     5     6    1
    11     6     7   ar
    12     7     8   ar
    13     7    27    1
    14     8     9   ar
    15     8    28    1
    16     9    10   ar
    17     9    29    1
    18    10    11    1
    19    10    14   ar
    20    11    12   am
    21    11    13    2
    22    12    30    1
    23    12    31    1
    24    14     6   ar
    25    14    32    1
    26    15    16   ar
    27    16    17    1
    28    16    22   ar
    29    17    18    2
    30    18    19    1
    31    18    33    1
    32    19    20    2
    33    19    34    1
    34    20    21    2
    35    21    17    1
    36    21    35    1
    37    22     2   ar
