@<TRIPOS>MOLECULE
*****
 38 40 0 0 0
SMALL
GASTEIGER

@<TRIPOS>ATOM
      1 O          -0.2112    1.7797    0.5319 O.2     1  UNL1       -0.2917
      2 C           0.2110    0.9103   -0.2824 C.2     1  UNL1        0.1678
      3 C          -0.6826    0.3428   -1.3314 C.3     1  UNL1        0.0362
      4 C          -1.7070   -0.4343   -0.6277 C.ar    1  UNL1       -0.0322
      5 C          -1.4885   -1.7948   -0.4521 C.ar    1  UNL1       -0.0576
      6 C          -2.3509   -2.5947    0.2509 C.ar    1  UNL1       -0.0609
      7 C          -3.4721   -2.0280    0.8018 C.ar    1  UNL1       -0.0540
      8 C          -3.7306   -0.6786    0.6507 C.ar    1  UNL1       -0.0176
      9 C          -4.8658   -0.1605    1.2030 C.ar    1  UNL1       -0.0540
     10 C          -5.1310    1.1928    1.0348 C.ar    1  UNL1       -0.0612
     11 C          -4.2673    1.9731    0.3312 C.ar    1  UNL1       -0.0612
     12 C          -3.1343    1.4201   -0.2110 C.ar    1  UNL1       -0.0538
     13 C          -2.8338    0.1008   -0.0698 C.ar    1  UNL1       -0.0143
     14 C           1.5924    0.4844   -0.1571 C.ar    1  UNL1        0.0276
     15 C           2.2072   -0.4598   -0.9336 C.ar    1  UNL1       -0.0056
     16 C           3.5446   -0.8288   -0.7404 C.ar    1  UNL1        0.1656
     17 O           4.0546   -1.7975   -1.5885 O.3     1  UNL1       -0.5031
     18 C           4.2500   -0.2187    0.2589 C.ar    1  UNL1        0.2293
     19 O           5.5706   -0.5579    0.4782 O.3     1  UNL1       -0.4990
     20 C           3.6683    0.7320    1.0567 C.ar    1  UNL1        0.2363
     21 N           4.4264    1.3634    2.1073 N.3     1  UNL1       -0.2394
     22 O           5.5714    1.8359    1.5639 O.co2   1  UNL1       -0.5715
     23 F           4.6573    0.4477    3.0527 F       1  UNL1        0.0273
     24 C           2.3536    1.0744    0.8444 C.ar    1  UNL1        0.0224
     25 H          -0.1536   -0.3118   -2.0354 H       1  UNL1        0.0394
     26 H          -1.1099    1.1536   -1.9705 H       1  UNL1        0.0394
     27 H          -0.6063   -2.2464   -0.8859 H       1  UNL1        0.0621
     28 H          -2.1840   -3.6609    0.3940 H       1  UNL1        0.0618
     29 H          -4.1496   -2.6822    1.3617 H       1  UNL1        0.0624
     30 H          -5.5621   -0.7567    1.7619 H       1  UNL1        0.0624
     31 H          -6.0186    1.6125    1.4636 H       1  UNL1        0.0618
     32 H          -4.5092    3.0187    0.2205 H       1  UNL1        0.0618
     33 H          -2.4934    2.0473   -0.7705 H       1  UNL1        0.0624
     34 H           1.6507   -0.9365   -1.7171 H       1  UNL1        0.0662
     35 H           5.0004   -2.1070   -1.5027 H       1  UNL1        0.2923
     36 H           6.0769   -1.2308   -0.0407 H       1  UNL1        0.2925
     37 H           3.8756    2.1590    2.5173 H       1  UNL1        0.4312
     38 H           1.9505    1.8374    1.5111 H       1  UNL1        0.0691
@<TRIPOS>UNITY_ATOM_ATTR
21 1
charge 1
22 1
charge -1
@<TRIPOS>BOND
     1     1     2    2
     2     2     3    1
     3     2    14    1
     4     3     4    1
     5     3    25    1
     6     3    26    1
     7     4     5   ar
     8     5     6   ar
     9     5    27    1
    10     6     7   ar
    11     6    28    1
    12     7     8   ar
    13     7    29    1
    14     8     9   ar
    15     9    10   ar
    16     9    30    1
    17    10    11   ar
    18    10    31    1
    19    11    12   ar
    20    11    32    1
    21    12    13   ar
    22    12    33    1
    23    13     4   ar
    24    13     8   ar
    25    14    15   ar
    26    15    16   ar
    27    15    34    1
    28    16    17    1
    29    16    18   ar
    30    17    35    1
    31    18    19    1
    32    18    20   ar
    33    19    36    1
    34    20    21    1
    35    20    24   ar
    36    21    22    1
    37    21    23    1
    38    21    37    1
    39    24    14   ar
    40    24    38    1
