@<TRIPOS>MOLECULE
*****
 38 40 0 0 0
SMALL
GASTEIGER

@<TRIPOS>ATOM
      1 O          -1.5403    2.1878   -1.2415 O.2     1  UNL1       -0.2449
      2 C          -1.2611    1.0577   -0.8470 C.2     1  UNL1        0.3401
      3 O           0.1327    0.7916   -0.8609 O.3     1  UNL1       -0.4577
      4 C           1.0803    1.7293   -1.2829 C.3     1  UNL1        0.1267
      5 C           2.4402    1.0791   -1.1524 C.3     1  UNL1        0.1236
      6 O           2.6292    0.7324    0.2065 O.3     1  UNL1       -0.4886
      7 C           3.8244    0.1058    0.6103 C.ar    1  UNL1        0.1208
      8 C           4.0162   -0.2352    1.9327 C.ar    1  UNL1       -0.0172
      9 C           5.1877   -0.8511    2.3372 C.ar    1  UNL1       -0.0230
     10 C           6.1626   -1.1196    1.3978 C.ar    1  UNL1        0.1236
     11 F           7.3120   -1.7312    1.8327 F       1  UNL1       -0.2055
     12 C           6.0018   -0.7916    0.0687 C.ar    1  UNL1       -0.0230
     13 C           4.8176   -0.1775   -0.2963 C.ar    1  UNL1       -0.0172
     14 C          -2.1204   -0.0027   -0.3868 C.ar    1  UNL1        0.0732
     15 C          -1.5638   -1.2269    0.0204 C.ar    1  UNL1        0.0173
     16 C          -2.3397   -2.2596    0.4638 C.ar    1  UNL1        0.2500
     17 O          -1.7703   -3.3314    0.8136 O.2     1  UNL1       -0.2679
     18 N          -3.6662   -2.1384    0.5255 N.ar    1  UNL1       -0.3221
     19 C          -4.2535   -0.9893    0.1485 C.ar    1  UNL1        0.0500
     20 C          -5.6350   -0.8879    0.2220 C.ar    1  UNL1       -0.0377
     21 C          -6.2250    0.2771   -0.1607 C.ar    1  UNL1       -0.0598
     22 C          -5.4954    1.3521   -0.6160 C.ar    1  UNL1       -0.0611
     23 C          -4.1126    1.2688   -0.6962 C.ar    1  UNL1       -0.0518
     24 C          -3.5007    0.0990   -0.3135 C.ar    1  UNL1        0.0125
     25 H           1.0902    2.6253   -0.5996 H       1  UNL1        0.0732
     26 H           0.9002    2.1228   -2.2931 H       1  UNL1        0.0732
     27 H           2.3692    0.1055   -1.7130 H       1  UNL1        0.0731
     28 H           3.2519    1.7242   -1.5401 H       1  UNL1        0.0731
     29 H           3.2453   -0.0207    2.6643 H       1  UNL1        0.0655
     30 H           5.3484   -1.1244    3.3804 H       1  UNL1        0.0647
     31 H           6.7652   -1.0029   -0.6619 H       1  UNL1        0.0647
     32 H           4.6604    0.0907   -1.3211 H       1  UNL1        0.0655
     33 H          -0.4758   -1.2980   -0.0407 H       1  UNL1        0.0680
     34 H          -4.2589   -2.9517    0.8732 H       1  UNL1        0.1689
     35 H          -6.1711   -1.7529    0.5842 H       1  UNL1        0.0638
     36 H          -7.3195    0.3274   -0.0914 H       1  UNL1        0.0618
     37 H          -5.9823    2.2656   -0.9141 H       1  UNL1        0.0618
     38 H          -3.5440    2.1112   -1.0527 H       1  UNL1        0.0624
@<TRIPOS>BOND
     1     1     2    2
     2     2     3    1
     3     2    14    1
     4     3     4    1
     5     4     5    1
     6     4    25    1
     7     4    26    1
     8     5     6    1
     9     5    27    1
    10     5    28    1
    11     6     7    1
    12     7     8   ar
    13     8     9   ar
    14     8    29    1
    15     9    10   ar
    16     9    30    1
    17    10    11    1
    18    10    12   ar
    19    12    13   ar
    20    12    31    1
    21    13     7   ar
    22    13    32    1
    23    14    15   ar
    24    15    16   ar
    25    15    33    1
    26    16    17    2
    27    16    18   ar
    28    18    19   ar
    29    18    34    1
    30    19    20   ar
    31    20    21   ar
    32    20    35    1
    33    21    22   ar
    34    21    36    1
    35    22    23   ar
    36    22    37    1
    37    23    24   ar
    38    23    38    1
    39    24    14   ar
    40    24    19   ar
