@<TRIPOS>MOLECULE
*****
 31 32 0 0 0
SMALL
GASTEIGER

@<TRIPOS>ATOM
      1 O          -0.9072    1.5050    0.1809 O.2     1  UNL1       -0.2917
      2 C          -0.3095    0.4067    0.0616 C.2     1  UNL1        0.1678
      3 C          -1.0866   -0.8359   -0.0108 C.3     1  UNL1        0.0356
      4 C          -2.5389   -0.5466    0.0766 C.ar    1  UNL1       -0.0399
      5 C          -3.1794   -0.5077    1.2872 C.ar    1  UNL1       -0.0582
      6 C          -4.5273   -0.2355    1.3187 C.ar    1  UNL1       -0.0615
      7 C          -5.2430   -0.0035    0.1782 C.ar    1  UNL1       -0.0617
      8 C          -4.5788   -0.0478   -1.0236 C.ar    1  UNL1       -0.0615
      9 C          -3.2320   -0.3179   -1.0798 C.ar    1  UNL1       -0.0582
     10 C           1.1479    0.3970   -0.0021 C.ar    1  UNL1        0.0278
     11 C           1.8651    1.5740    0.0671 C.ar    1  UNL1       -0.0056
     12 C           3.2481    1.5952    0.0091 C.ar    1  UNL1        0.1659
     13 O           3.9159    2.8082    0.0836 O.3     1  UNL1       -0.5031
     14 C           3.9661    0.4251   -0.1216 C.ar    1  UNL1        0.2370
     15 O           5.3583    0.4444   -0.1802 O.3     1  UNL1       -0.4989
     16 C           3.2596   -0.7503   -0.1912 C.ar    1  UNL1        0.3184
     17 N           3.9732   -1.9792   -0.3268 N.pl3   1  UNL1        0.0836
     18 O           5.1094   -2.0628    0.2004 O.2     1  UNL1        0.0416
     19 O           3.4880   -3.0595   -0.9946 O.co2   1  UNL1       -0.5759
     20 C           1.8728   -0.7695   -0.1328 C.ar    1  UNL1        0.0301
     21 H          -0.9006   -1.3549   -0.9956 H       1  UNL1        0.0394
     22 H          -0.8117   -1.5544    0.8146 H       1  UNL1        0.0394
     23 H          -2.6141   -0.6929    2.2128 H       1  UNL1        0.0620
     24 H          -5.0131   -0.2108    2.2986 H       1  UNL1        0.0618
     25 H          -6.3188    0.2114    0.2354 H       1  UNL1        0.0618
     26 H          -5.1055    0.1296   -1.9505 H       1  UNL1        0.0618
     27 H          -2.6996   -0.3530   -2.0497 H       1  UNL1        0.0620
     28 H           1.2911    2.5013    0.1709 H       1  UNL1        0.0662
     29 H           3.4097    3.6755    0.1794 H       1  UNL1        0.2923
     30 H           5.8560    1.3012   -0.1287 H       1  UNL1        0.2925
     31 H           1.3048   -1.6922   -0.1868 H       1  UNL1        0.0694
@<TRIPOS>UNITY_ATOM_ATTR
17 1
charge 1
19 1
charge -1
@<TRIPOS>BOND
     1     1     2    2
     2     2     3    1
     3     2    10    1
     4     3     4    1
     5     3    21    1
     6     3    22    1
     7     4     5   ar
     8     5     6   ar
     9     5    23    1
    10     6     7   ar
    11     6    24    1
    12     7     8   ar
    13     7    25    1
    14     8     9   ar
    15     8    26    1
    16     9     4   ar
    17     9    27    1
    18    10    11   ar
    19    11    12   ar
    20    11    28    1
    21    12    13    1
    22    12    14   ar
    23    13    29    1
    24    14    15    1
    25    14    16   ar
    26    15    30    1
    27    16    17    1
    28    16    20   ar
    29    17    18    2
    30    17    19    1
    31    20    10   ar
    32    20    31    1
