@<TRIPOS>MOLECULE
*****
 43 45 0 0 0
SMALL
GASTEIGER

@<TRIPOS>ATOM
      1 O           2.9876    2.1526    0.3860 O.2     1  UNL1       -0.2699
      2 C           2.3114    1.1919   -0.0556 C.2     1  UNL1        0.2484
      3 N           2.8770   -0.0991    0.0076 N.am    1  UNL1       -0.2786
      4 C           4.1257   -0.4912    0.5061 C.ar    1  UNL1        0.0756
      5 C           5.0549    0.3648    1.0445 C.ar    1  UNL1       -0.0369
      6 C           6.2967   -0.0897    1.5307 C.ar    1  UNL1       -0.0598
      7 C           6.6266   -1.4196    1.4835 C.ar    1  UNL1       -0.0582
      8 C           5.6876   -2.2664    0.9421 C.ar    1  UNL1       -0.0183
      9 C           4.4695   -1.8396    0.4623 C.ar    1  UNL1        0.1380
     10 O           3.5463   -2.7165   -0.0764 O.3     1  UNL1       -0.5049
     11 C           0.9680    1.4500   -0.6160 C.ar    1  UNL1        0.0389
     12 C           0.4926    2.7403   -0.6142 C.ar    1  UNL1       -0.0495
     13 C          -0.7364    3.0695   -1.1121 C.ar    1  UNL1       -0.0592
     14 C          -1.5379    2.0952   -1.6354 C.ar    1  UNL1       -0.0350
     15 C          -1.1060    0.7883   -1.6592 C.ar    1  UNL1        0.1092
     16 S          -2.1073   -0.4554   -2.3075 S.O2    1  UNL1        0.0725
     17 O          -1.2984   -1.4637   -3.1131 O.2     1  UNL1       -0.1500
     18 O          -3.0946    0.1232   -3.2960 O.2     1  UNL1       -0.1500
     19 N          -3.0048   -1.2493   -1.0763 N.pl3   1  UNL1       -0.2127
     20 C          -3.9503   -0.6039   -0.2540 C.ar    1  UNL1        0.0893
     21 C          -4.6015    0.5363   -0.6464 C.ar    1  UNL1       -0.0358
     22 C          -5.5426    1.1328    0.2054 C.ar    1  UNL1       -0.0597
     23 C          -5.8321    0.5939    1.4416 C.ar    1  UNL1       -0.0582
     24 C          -5.1759   -0.5562    1.8376 C.ar    1  UNL1       -0.0183
     25 C          -4.2554   -1.1341    0.9974 C.ar    1  UNL1        0.1391
     26 O          -3.5874   -2.2857    1.3748 O.3     1  UNL1       -0.5049
     27 C           0.1582    0.4814   -1.1419 C.ar    1  UNL1       -0.0230
     28 H           2.2434   -0.8620   -0.3856 H       1  UNL1        0.1552
     29 H           4.8677    1.4192    1.1150 H       1  UNL1        0.0637
     30 H           6.9995    0.6404    1.9500 H       1  UNL1        0.0618
     31 H           7.5760   -1.7368    1.8597 H       1  UNL1        0.0619
     32 H           5.9473   -3.3200    0.9039 H       1  UNL1        0.0655
     33 H           3.6584   -3.6984   -0.1698 H       1  UNL1        0.2922
     34 H           1.1249    3.5120   -0.2008 H       1  UNL1        0.0625
     35 H          -1.0614    4.0878   -1.0881 H       1  UNL1        0.0618
     36 H          -2.5334    2.3194   -2.0519 H       1  UNL1        0.0637
     37 H          -2.8387   -2.2816   -0.9264 H       1  UNL1        0.1738
     38 H          -4.4249    0.9947   -1.5927 H       1  UNL1        0.0638
     39 H          -6.0587    2.0379   -0.1069 H       1  UNL1        0.0618
     40 H          -6.5562    1.0671    2.0777 H       1  UNL1        0.0619
     41 H          -5.4226   -0.9592    2.8149 H       1  UNL1        0.0655
     42 H          -3.7540   -2.7209    2.2547 H       1  UNL1        0.2922
     43 H           0.4614   -0.5494   -1.1782 H       1  UNL1        0.0645
@<TRIPOS>BOND
     1     1     2    2
     2     2     3   am
     3     2    11    1
     4     3     4    1
     5     3    28    1
     6     4     5   ar
     7     5     6   ar
     8     5    29    1
     9     6     7   ar
    10     6    30    1
    11     7     8   ar
    12     7    31    1
    13     8     9   ar
    14     8    32    1
    15     9    10    1
    16     9     4   ar
    17    10    33    1
    18    11    12   ar
    19    12    13   ar
    20    12    34    1
    21    13    14   ar
    22    13    35    1
    23    14    15   ar
    24    14    36    1
    25    15    16    1
    26    15    27   ar
    27    16    17    2
    28    16    18    2
    29    16    19    1
    30    19    20    1
    31    19    37    1
    32    20    21   ar
    33    21    22   ar
    34    21    38    1
    35    22    23   ar
    36    22    39    1
    37    23    24   ar
    38    23    40    1
    39    24    25   ar
    40    24    41    1
    41    25    26    1
    42    25    20   ar
    43    26    42    1
    44    27    11   ar
    45    27    43    1
