@<TRIPOS>MOLECULE
*****
 40 42 0 0 0
SMALL
GASTEIGER

@<TRIPOS>ATOM
      1 O          -2.6266    0.0865   -1.0273 O.2     1  UNL1       -0.2698
      2 C          -2.3062    0.0974    0.1863 C.2     1  UNL1        0.2494
      3 N          -3.2470   -0.4306    1.1017 N.am    1  UNL1       -0.2664
      4 C          -4.5014   -0.9539    0.6908 C.ar    1  UNL1        0.1251
      5 C          -5.3759   -1.4537    1.6232 C.ar    1  UNL1       -0.0215
      6 C          -6.5951   -1.9577    1.1846 C.ar    1  UNL1       -0.0571
      7 C          -6.8991   -1.9488   -0.1383 C.ar    1  UNL1       -0.0435
      8 C          -6.0069   -1.4428   -1.0546 C.ar    1  UNL1        0.0297
      9 N          -4.8365   -0.9627   -0.6002 N.ar    1  UNL1       -0.2401
     10 C          -1.0143    0.6424    0.5555 C.ar    1  UNL1        0.0389
     11 C          -0.5883    0.6883    1.8768 C.ar    1  UNL1       -0.0495
     12 C           0.6454    1.2122    2.2002 C.ar    1  UNL1       -0.0592
     13 C           1.4720    1.6974    1.2150 C.ar    1  UNL1       -0.0350
     14 C           1.0604    1.6566   -0.0947 C.ar    1  UNL1        0.1092
     15 S           2.1127    2.2705   -1.3871 S.O2    1  UNL1        0.0724
     16 O           3.0201    3.3355   -0.8109 O.2     1  UNL1       -0.1500
     17 O           1.2509    2.9328   -2.4046 O.2     1  UNL1       -0.1500
     18 N           3.0465    1.0378   -2.0987 N.pl3   1  UNL1       -0.2135
     19 C           4.0122    0.2363   -1.4359 C.ar    1  UNL1        0.0831
     20 C           4.5951    0.6274   -0.2529 C.ar    1  UNL1       -0.0365
     21 C           5.5477   -0.1533    0.3930 C.ar    1  UNL1       -0.0598
     22 C           5.9473   -1.3622   -0.1355 C.ar    1  UNL1       -0.0589
     23 C           5.3698   -1.7641   -1.3210 C.ar    1  UNL1       -0.0246
     24 C           4.4262   -0.9869   -1.9572 C.ar    1  UNL1        0.1456
     25 F           3.8648   -1.3887   -3.1192 F       1  UNL1       -0.2035
     26 C          -0.1704    1.1343   -0.4196 C.ar    1  UNL1       -0.0230
     27 H          -3.0058   -0.4355    2.1332 H       1  UNL1        0.1566
     28 H          -5.0816   -1.4356    2.6626 H       1  UNL1        0.0652
     29 H          -7.2765   -2.3517    1.9546 H       1  UNL1        0.0619
     30 H          -7.8706   -2.3558   -0.4390 H       1  UNL1        0.0633
     31 H          -6.2865   -1.4539   -2.0983 H       1  UNL1        0.0830
     32 H          -1.2346    0.3046    2.6850 H       1  UNL1        0.0625
     33 H           0.9451    1.2299    3.2597 H       1  UNL1        0.0618
     34 H           2.4450    2.1117    1.5052 H       1  UNL1        0.0637
     35 H           2.9161    0.8251   -3.1383 H       1  UNL1        0.1738
     36 H           4.3489    1.5505    0.2231 H       1  UNL1        0.0637
     37 H           5.9917    0.1903    1.3360 H       1  UNL1        0.0618
     38 H           6.6962   -1.9718    0.3763 H       1  UNL1        0.0618
     39 H           5.6742   -2.7122   -1.7480 H       1  UNL1        0.0647
     40 H          -0.4648    1.1191   -1.4813 H       1  UNL1        0.0645
@<TRIPOS>BOND
     1     1     2    2
     2     2     3   am
     3     2    10    1
     4     3     4    1
     5     3    27    1
     6     4     5   ar
     7     5     6   ar
     8     5    28    1
     9     6     7   ar
    10     6    29    1
    11     7     8   ar
    12     7    30    1
    13     8     9   ar
    14     8    31    1
    15     9     4   ar
    16    10    11   ar
    17    11    12   ar
    18    11    32    1
    19    12    13   ar
    20    12    33    1
    21    13    14   ar
    22    13    34    1
    23    14    15    1
    24    14    26   ar
    25    15    16    2
    26    15    17    2
    27    15    18    1
    28    18    19    1
    29    18    35    1
    30    19    20   ar
    31    20    21   ar
    32    20    36    1
    33    21    22   ar
    34    21    37    1
    35    22    23   ar
    36    22    38    1
    37    23    24   ar
    38    23    39    1
    39    24    25    1
    40    24    19   ar
    41    26    10   ar
    42    26    40    1
