@<TRIPOS>MOLECULE
*****
 51 54 0 0 0
SMALL
GASTEIGER

@<TRIPOS>ATOM
      1 C           5.8951   -2.1437    1.4530 C.3     1  UNL1        0.0368
      2 O           5.2683   -0.9807    1.0329 O.3     1  UNL1       -0.3797
      3 C           4.0574   -1.2165    0.3898 C.3     1  UNL1        0.0612
      4 C           2.8897   -0.6456    1.1352 C.3     1  UNL1       -0.0107
      5 C           1.8992   -0.0938    0.1353 C.3     1  UNL1        0.0173
      6 N           2.5413    0.9942   -0.5625 N.am    1  UNL1       -0.2973
      7 C           1.8833    2.2338   -0.6823 C.2     1  UNL1        0.2494
      8 O           2.4055    3.2129   -1.2881 O.2     1  UNL1       -0.2699
      9 C           0.5584    2.3809   -0.0848 C.ar    1  UNL1        0.0723
     10 C          -0.5728    2.0657   -0.8006 C.ar    1  UNL1       -0.0433
     11 C          -1.8581    2.1756   -0.2878 C.ar    1  UNL1       -0.0406
     12 C          -3.0289    1.8279   -1.1297 C.3     1  UNL1        0.0171
     13 C          -3.2299    0.3863   -1.2922 C.ar    1  UNL1        0.0736
     14 N          -2.6821   -0.1975   -2.3915 N.ar    1  UNL1       -0.1750
     15 N          -2.7199   -1.4730   -2.6582 N.ar    1  UNL1       -0.2425
     16 C          -3.3308   -2.3345   -1.8263 C.ar    1  UNL1        0.2725
     17 O          -3.3986   -3.5611   -2.0262 O.2     1  UNL1       -0.2658
     18 C          -3.9213   -1.8106   -0.6718 C.ar    1  UNL1        0.0496
     19 C          -4.5769   -2.6258    0.2208 C.ar    1  UNL1       -0.0487
     20 C          -5.1582   -2.0859    1.3339 C.ar    1  UNL1       -0.0610
     21 C          -5.1122   -0.7331    1.6004 C.ar    1  UNL1       -0.0611
     22 C          -4.4540    0.0626    0.6995 C.ar    1  UNL1       -0.0521
     23 C          -3.8621   -0.4536   -0.4221 C.ar    1  UNL1        0.0106
     24 C          -1.9821    2.6221    0.9949 C.ar    1  UNL1       -0.0555
     25 C          -0.8663    2.9605    1.7798 C.ar    1  UNL1       -0.0254
     26 C           0.3846    2.8232    1.1959 C.ar    1  UNL1        0.1355
     27 F           1.4956    3.1339    1.9035 F       1  UNL1       -0.2047
     28 C           3.8553    0.7295   -1.1076 C.3     1  UNL1        0.0173
     29 C           4.0567   -0.7853   -1.0355 C.3     1  UNL1       -0.0107
     30 H           5.2755   -2.7368    2.1759 H       1  UNL1        0.0524
     31 H           6.7893   -1.8192    2.0435 H       1  UNL1        0.0524
     32 H           6.2546   -2.7708    0.6284 H       1  UNL1        0.0524
     33 H           3.9303   -2.3419    0.3984 H       1  UNL1        0.0597
     34 H           3.2273    0.2430    1.7445 H       1  UNL1        0.0305
     35 H           2.4183   -1.3961    1.8065 H       1  UNL1        0.0305
     36 H           1.5812   -0.8952   -0.5791 H       1  UNL1        0.0465
     37 H           0.9958    0.3035    0.6844 H       1  UNL1        0.0465
     38 H          -0.4568    1.7190   -1.8021 H       1  UNL1        0.0629
     39 H          -3.9474    2.3637   -0.8007 H       1  UNL1        0.0377
     40 H          -2.8202    2.2619   -2.1463 H       1  UNL1        0.0377
     41 H          -2.2734   -1.8770   -3.5353 H       1  UNL1        0.1921
     42 H          -4.6257   -3.7004    0.0299 H       1  UNL1        0.0625
     43 H          -5.6842   -2.7005    2.0621 H       1  UNL1        0.0618
     44 H          -5.5860   -0.3113    2.5017 H       1  UNL1        0.0618
     45 H          -4.4185    1.1350    0.8732 H       1  UNL1        0.0624
     46 H          -2.9332    2.7616    1.5023 H       1  UNL1        0.0621
     47 H          -0.9818    3.3112    2.7946 H       1  UNL1        0.0646
     48 H           3.8118    0.9695   -2.2040 H       1  UNL1        0.0465
     49 H           4.6660    1.2741   -0.6137 H       1  UNL1        0.0465
     50 H           3.2710   -1.2838   -1.6298 H       1  UNL1        0.0305
     51 H           5.0702   -0.9778   -1.4622 H       1  UNL1        0.0305
@<TRIPOS>BOND
     1     1     2    1
     2     1    30    1
     3     1    31    1
     4     1    32    1
     5     2     3    1
     6     3     4    1
     7     3    33    1
     8     4     5    1
     9     4    34    1
    10     4    35    1
    11     5     6    1
    12     5    36    1
    13     5    37    1
    14     6     7   am
    15     6    28    1
    16     7     8    2
    17     7     9    1
    18     9    10   ar
    19    10    11   ar
    20    10    38    1
    21    11    12    1
    22    11    24   ar
    23    12    13    1
    24    12    39    1
    25    12    40    1
    26    13    14   ar
    27    14    15   ar
    28    15    16   ar
    29    15    41    1
    30    16    17    2
    31    16    18   ar
    32    18    19   ar
    33    19    20   ar
    34    19    42    1
    35    20    21   ar
    36    20    43    1
    37    21    22   ar
    38    21    44    1
    39    22    23   ar
    40    22    45    1
    41    23    13   ar
    42    23    18   ar
    43    24    25   ar
    44    24    46    1
    45    25    26   ar
    46    25    47    1
    47    26    27    1
    48    26     9   ar
    49    28    29    1
    50    28    48    1
    51    28    49    1
    52    29     3    1
    53    29    50    1
    54    29    51    1
