@<TRIPOS>MOLECULE
*****
 51 53 0 0 0
SMALL
GASTEIGER

@<TRIPOS>ATOM
      1 O           4.4090    0.5369    0.6740 O.2     1  UNL1       -0.2739
      2 C           4.2878   -0.6605    0.3142 C.2     1  UNL1        0.2334
      3 C           5.5111   -1.4163   -0.0365 C.3     1  UNL1        0.0505
      4 C           6.7298   -0.5894    0.0847 C.ar    1  UNL1       -0.0386
      5 C           7.1407    0.1801   -0.9772 C.ar    1  UNL1       -0.0581
      6 C           8.2695    0.9692   -0.9340 C.ar    1  UNL1       -0.0615
      7 C           9.0280    1.0043    0.2009 C.ar    1  UNL1       -0.0617
      8 C           8.6329    0.2385    1.2804 C.ar    1  UNL1       -0.0615
      9 C           7.4878   -0.5581    1.2288 C.ar    1  UNL1       -0.0581
     10 N           3.0013   -1.2360    0.2576 N.am    1  UNL1       -0.2339
     11 N           1.8846   -0.4329    0.6108 N.am    1  UNL1       -0.2304
     12 C           0.7934   -0.2632   -0.2740 C.2     1  UNL1        0.2602
     13 O           0.8251   -0.8361   -1.3812 O.2     1  UNL1       -0.2687
     14 C          -0.3365    0.5677    0.1123 C.ar    1  UNL1        0.0400
     15 C          -0.3609    1.3362    1.2508 C.ar    1  UNL1       -0.0495
     16 C          -1.4833    2.1095    1.5482 C.ar    1  UNL1       -0.0592
     17 C          -2.5911    2.1357    0.7337 C.ar    1  UNL1       -0.0353
     18 C          -2.5597    1.3628   -0.4055 C.ar    1  UNL1        0.1062
     19 S          -3.9534    1.3601   -1.4951 S.O2    1  UNL1        0.0609
     20 O          -4.5022    2.7591   -1.4546 O.2     1  UNL1       -0.1528
     21 O          -3.4857    1.0769   -2.8828 O.2     1  UNL1       -0.1528
     22 N          -5.1372    0.2690   -1.0138 N.3     1  UNL1       -0.1766
     23 C          -5.7236    0.5044    0.2571 C.3     1  UNL1        0.0205
     24 C          -6.9215   -0.3095    0.5695 C.3     1  UNL1       -0.0385
     25 C          -7.2982   -1.2619   -0.5409 C.3     1  UNL1       -0.0506
     26 C          -6.1113   -1.9790   -1.1382 C.3     1  UNL1       -0.0385
     27 C          -4.9473   -1.0838   -1.3880 C.3     1  UNL1        0.0205
     28 C          -1.4605    0.6090   -0.6918 C.ar    1  UNL1       -0.0232
     29 H           5.5856   -2.2675    0.6839 H       1  UNL1        0.0407
     30 H           5.4017   -1.8740   -1.0511 H       1  UNL1        0.0407
     31 H           6.5634    0.1735   -1.8847 H       1  UNL1        0.0620
     32 H           8.5597    1.5582   -1.7873 H       1  UNL1        0.0618
     33 H           9.9146    1.5885    0.3102 H       1  UNL1        0.0618
     34 H           9.2146    0.2532    2.1856 H       1  UNL1        0.0618
     35 H           7.1768   -1.1639    2.0853 H       1  UNL1        0.0620
     36 H           2.8586   -2.2153   -0.0324 H       1  UNL1        0.1728
     37 H           1.9206    0.0025    1.5290 H       1  UNL1        0.1731
     38 H           0.4958    1.3419    1.9179 H       1  UNL1        0.0625
     39 H          -1.4487    2.6998    2.4642 H       1  UNL1        0.0618
     40 H          -3.4599    2.7360    0.9698 H       1  UNL1        0.0637
     41 H          -4.9446    0.3638    1.0430 H       1  UNL1        0.0444
     42 H          -5.9782    1.5961    0.3053 H       1  UNL1        0.0444
     43 H          -6.8478   -0.8629    1.5373 H       1  UNL1        0.0278
     44 H          -7.7979    0.3724    0.7006 H       1  UNL1        0.0278
     45 H          -7.9447   -2.0593   -0.0671 H       1  UNL1        0.0266
     46 H          -7.9118   -0.7614   -1.2910 H       1  UNL1        0.0266
     47 H          -6.4743   -2.4459   -2.0941 H       1  UNL1        0.0278
     48 H          -5.8247   -2.8343   -0.4910 H       1  UNL1        0.0278
     49 H          -4.6691   -1.1364   -2.4586 H       1  UNL1        0.0444
     50 H          -4.0638   -1.4674   -0.8132 H       1  UNL1        0.0444
     51 H          -1.4548    0.0096   -1.5891 H       1  UNL1        0.0644
@<TRIPOS>BOND
     1     1     2    2
     2     2     3    1
     3     2    10   am
     4     3     4    1
     5     3    29    1
     6     3    30    1
     7     4     5   ar
     8     5     6   ar
     9     5    31    1
    10     6     7   ar
    11     6    32    1
    12     7     8   ar
    13     7    33    1
    14     8     9   ar
    15     8    34    1
    16     9     4   ar
    17     9    35    1
    18    10    11    1
    19    10    36    1
    20    11    12   am
    21    11    37    1
    22    12    13    2
    23    12    14    1
    24    14    15   ar
    25    15    16   ar
    26    15    38    1
    27    16    17   ar
    28    16    39    1
    29    17    18   ar
    30    17    40    1
    31    18    19    1
    32    18    28   ar
    33    19    20    2
    34    19    21    2
    35    19    22    1
    36    22    23    1
    37    23    24    1
    38    23    41    1
    39    23    42    1
    40    24    25    1
    41    24    43    1
    42    24    44    1
    43    25    26    1
    44    25    45    1
    45    25    46    1
    46    26    27    1
    47    26    47    1
    48    26    48    1
    49    27    22    1
    50    27    49    1
    51    27    50    1
    52    28    14   ar
    53    28    51    1
