@<TRIPOS>MOLECULE
*****
 47 50 0 0 0
SMALL
GASTEIGER

@<TRIPOS>ATOM
      1 O           4.5953   -2.7234   -1.9958 O.2     1  UNL1       -0.2451
      2 C           4.0493   -1.9549   -1.1266 C.2     1  UNL1        0.3375
      3 O           2.7001   -1.9190   -1.0799 O.3     1  UNL1       -0.4771
      4 C           4.9063   -1.1705   -0.2294 C.ar    1  UNL1        0.0709
      5 C           6.2868   -1.4294   -0.2049 C.ar    1  UNL1       -0.0470
      6 C           7.1036   -0.8032    0.6954 C.ar    1  UNL1       -0.0609
      7 C           6.5849    0.0885    1.5916 C.ar    1  UNL1       -0.0610
      8 C           5.2195    0.3427    1.5616 C.ar    1  UNL1       -0.0488
      9 C           4.3615   -0.2832    0.6460 C.ar    1  UNL1        0.0510
     10 C           2.9726    0.1936    0.6258 C.2     1  UNL1        0.2490
     11 O           2.3710    0.2149    1.7058 O.2     1  UNL1       -0.2698
     12 N           2.3349    0.6238   -0.5595 N.am    1  UNL1       -0.2815
     13 C           1.0123    1.0965   -0.7004 C.ar    1  UNL1        0.0339
     14 C           0.6681    1.6745   -1.9192 C.ar    1  UNL1       -0.0405
     15 C          -0.5975    2.1744   -2.1342 C.ar    1  UNL1       -0.0597
     16 C          -1.5690    2.1227   -1.1564 C.ar    1  UNL1       -0.0581
     17 C          -1.2569    1.5493    0.0771 C.ar    1  UNL1       -0.0398
     18 C          -2.3017    1.5297    1.1405 C.3     1  UNL1        0.0172
     19 C          -3.6360    1.1538    0.6291 C.ar    1  UNL1        0.0736
     20 N          -4.6074    2.0897    0.4625 N.ar    1  UNL1       -0.1750
     21 N          -5.8083    1.8037    0.0107 N.ar    1  UNL1       -0.2425
     22 C          -6.1206    0.5393   -0.3105 C.ar    1  UNL1        0.2725
     23 O          -7.2596    0.2130   -0.7494 O.2     1  UNL1       -0.2658
     24 C          -5.1999   -0.4583   -0.1715 C.ar    1  UNL1        0.0496
     25 C          -5.4969   -1.7795   -0.5041 C.ar    1  UNL1       -0.0487
     26 C          -4.5416   -2.7518   -0.3559 C.ar    1  UNL1       -0.0610
     27 C          -3.2806   -2.4092    0.1266 C.ar    1  UNL1       -0.0611
     28 C          -2.9636   -1.1192    0.4606 C.ar    1  UNL1       -0.0521
     29 C          -3.9315   -0.1450    0.3080 C.ar    1  UNL1        0.0106
     30 C           0.0257    1.0606    0.2476 C.ar    1  UNL1       -0.0369
     31 H           2.0713   -2.1992   -1.8132 H       1  UNL1        0.2954
     32 H           6.6875   -2.1367   -0.9147 H       1  UNL1        0.0626
     33 H           8.1607   -1.0341    0.6758 H       1  UNL1        0.0618
     34 H           7.2266    0.5913    2.3118 H       1  UNL1        0.0618
     35 H           4.8002    1.0434    2.2656 H       1  UNL1        0.0625
     36 H           2.9328    0.6107   -1.4289 H       1  UNL1        0.1551
     37 H           1.3878    1.7381   -2.7173 H       1  UNL1        0.0636
     38 H          -0.8074    2.6096   -3.1053 H       1  UNL1        0.0618
     39 H          -2.5620    2.5146   -1.3212 H       1  UNL1        0.0620
     40 H          -1.9869    0.8113    1.9049 H       1  UNL1        0.0377
     41 H          -2.3816    2.5715    1.5484 H       1  UNL1        0.0377
     42 H          -6.5619    2.5346   -0.1184 H       1  UNL1        0.1921
     43 H          -6.5009   -1.9666   -0.8739 H       1  UNL1        0.0625
     44 H          -4.8085   -3.7647   -0.6248 H       1  UNL1        0.0618
     45 H          -2.5352   -3.1812    0.2393 H       1  UNL1        0.0618
     46 H          -1.9873   -0.8884    0.8328 H       1  UNL1        0.0624
     47 H           0.2441    0.6217    1.2012 H       1  UNL1        0.0639
@<TRIPOS>BOND
     1     1     2    2
     2     2     3    1
     3     2     4    1
     4     3    31    1
     5     4     5   ar
     6     5     6   ar
     7     5    32    1
     8     6     7   ar
     9     6    33    1
    10     7     8   ar
    11     7    34    1
    12     8     9   ar
    13     8    35    1
    14     9    10    1
    15     9     4   ar
    16    10    11    2
    17    10    12   am
    18    12    13    1
    19    12    36    1
    20    13    14   ar
    21    14    15   ar
    22    14    37    1
    23    15    16   ar
    24    15    38    1
    25    16    17   ar
    26    16    39    1
    27    17    18    1
    28    17    30   ar
    29    18    19    1
    30    18    40    1
    31    18    41    1
    32    19    20   ar
    33    20    21   ar
    34    21    22   ar
    35    21    42    1
    36    22    23    2
    37    22    24   ar
    38    24    25   ar
    39    25    26   ar
    40    25    43    1
    41    26    27   ar
    42    26    44    1
    43    27    28   ar
    44    27    45    1
    45    28    29   ar
    46    28    46    1
    47    29    19   ar
    48    29    24   ar
    49    30    13   ar
    50    30    47    1
