@<TRIPOS>MOLECULE
*****
 33 35 0 0 0
SMALL
GASTEIGER

@<TRIPOS>ATOM
      1 O           6.7656    1.1720   -1.2607 O.2     1  UNL1        0.0414
      2 N           5.5438    1.1122   -1.4885 N.pl3   1  UNL1        0.0797
      3 O           4.9769    2.0316   -2.3356 O.co2   1  UNL1       -0.5760
      4 C           4.7631    0.0989   -0.8709 C.ar    1  UNL1        0.2767
      5 C           5.3296   -0.8213   -0.0233 C.ar    1  UNL1        0.0158
      6 C           4.5420   -1.7993    0.5651 C.ar    1  UNL1       -0.0519
      7 C           3.1661   -1.8417    0.2890 C.ar    1  UNL1       -0.0188
      8 C           2.5982   -0.9252   -0.5561 C.ar    1  UNL1        0.1383
      9 O           1.2597   -0.9652   -0.8257 O.3     1  UNL1       -0.4234
     10 C           0.3049   -0.2805   -0.0737 C.ar    1  UNL1        0.3239
     11 N           0.7453    0.4547    0.9712 N.ar    1  UNL1       -0.2030
     12 C          -0.0835    1.1535    1.7622 C.ar    1  UNL1        0.0350
     13 C          -1.4489    1.0908    1.4581 C.ar    1  UNL1       -0.0173
     14 C          -1.9113    0.3472    0.3985 C.ar    1  UNL1        0.0778
     15 C          -3.3206    0.2574    0.0513 C.ar    1  UNL1        0.0006
     16 C          -3.7087   -0.5152   -1.0346 C.ar    1  UNL1       -0.0526
     17 C          -5.0372   -0.6350   -1.4086 C.ar    1  UNL1       -0.0611
     18 C          -6.0221    0.0138   -0.7090 C.ar    1  UNL1       -0.0617
     19 C          -5.6620    0.7879    0.3744 C.ar    1  UNL1       -0.0611
     20 C          -4.3223    0.8914    0.7285 C.ar    1  UNL1       -0.0526
     21 N          -0.9969   -0.3230   -0.3408 N.ar    1  UNL1       -0.1946
     22 C           3.3955    0.0302   -1.1246 C.ar    1  UNL1        0.0579
     23 H           6.3982   -0.7712    0.1777 H       1  UNL1        0.0685
     24 H           5.0147   -2.5080    1.2260 H       1  UNL1        0.0621
     25 H           2.6042   -2.6282    0.7782 H       1  UNL1        0.0654
     26 H           0.2195    1.7539    2.6063 H       1  UNL1        0.0832
     27 H          -2.1642    1.6297    2.0558 H       1  UNL1        0.0654
     28 H          -2.9706   -1.0486   -1.6213 H       1  UNL1        0.0624
     29 H          -5.3421   -1.2393   -2.2581 H       1  UNL1        0.0618
     30 H          -7.0593   -0.0991   -1.0265 H       1  UNL1        0.0618
     31 H          -6.4430    1.2975    0.9227 H       1  UNL1        0.0618
     32 H          -4.1129    1.5135    1.5863 H       1  UNL1        0.0624
     33 H           2.9784    0.7645   -1.7930 H       1  UNL1        0.0723
@<TRIPOS>UNITY_ATOM_ATTR
2 1
charge 1
3 1
charge -1
@<TRIPOS>BOND
     1     1     2    2
     2     2     3    1
     3     2     4    1
     4     4     5   ar
     5     5     6   ar
     6     5    23    1
     7     6     7   ar
     8     6    24    1
     9     7     8   ar
    10     7    25    1
    11     8     9    1
    12     8    22   ar
    13     9    10    1
    14    10    11   ar
    15    11    12   ar
    16    12    13   ar
    17    12    26    1
    18    13    14   ar
    19    13    27    1
    20    14    15    1
    21    14    21   ar
    22    15    16   ar
    23    16    17   ar
    24    16    28    1
    25    17    18   ar
    26    17    29    1
    27    18    19   ar
    28    18    30    1
    29    19    20   ar
    30    19    31    1
    31    20    15   ar
    32    20    32    1
    33    21    10   ar
    34    22     4   ar
    35    22    33    1
