@<TRIPOS>MOLECULE
*****
 44 47 0 0 0
SMALL
GASTEIGER

@<TRIPOS>ATOM
      1 O           1.0923   -1.3898    0.8875 O.2     1  UNL1       -0.2684
      2 C           1.0810   -0.3322    0.2536 C.2     1  UNL1        0.2654
      3 N          -0.2519    0.1207   -0.1042 N.am    1  UNL1       -0.2992
      4 C          -1.4410   -0.5803    0.2381 C.3     1  UNL1        0.0740
      5 C          -2.3062    0.2573    1.1086 C.ar    1  UNL1       -0.0228
      6 C          -2.4766    1.5781    0.7786 C.ar    1  UNL1       -0.0565
      7 C          -3.2832    2.3854    1.5752 C.ar    1  UNL1       -0.0614
      8 C          -3.8973    1.8584    2.6764 C.ar    1  UNL1       -0.0617
      9 C          -3.7009    0.5244    2.9753 C.ar    1  UNL1       -0.0614
     10 C          -2.9012   -0.3013    2.1965 C.ar    1  UNL1       -0.0565
     11 C          -2.2264   -1.0390   -0.9071 C.ar    1  UNL1       -0.0228
     12 C          -2.4604   -0.2465   -2.0042 C.ar    1  UNL1       -0.0565
     13 C          -3.2238   -0.7413   -3.0689 C.ar    1  UNL1       -0.0614
     14 C          -3.7335   -2.0221   -3.0041 C.ar    1  UNL1       -0.0617
     15 C          -3.5123   -2.8373   -1.9132 C.ar    1  UNL1       -0.0614
     16 C          -2.7546   -2.3053   -0.8898 C.ar    1  UNL1       -0.0565
     17 C           2.2262    0.4387   -0.1334 C.ar    1  UNL1        0.1533
     18 N           2.0346    1.5972   -0.8408 N.ar    1  UNL1       -0.1656
     19 N           2.9943    2.3728   -1.2426 N.ar    1  UNL1       -0.2420
     20 C           4.2708    2.0779   -0.9817 C.ar    1  UNL1        0.2725
     21 O           5.2249    2.7957   -1.3493 O.2     1  UNL1       -0.2658
     22 C           4.5471    0.9312   -0.2758 C.ar    1  UNL1        0.0501
     23 C           5.8287    0.5678    0.0267 C.ar    1  UNL1       -0.0487
     24 C           6.1380   -0.5744    0.7321 C.ar    1  UNL1       -0.0610
     25 C           5.1344   -1.4049    1.1640 C.ar    1  UNL1       -0.0611
     26 C           3.8144   -1.0372    0.8565 C.ar    1  UNL1       -0.0516
     27 C           3.5110    0.1028    0.1527 C.ar    1  UNL1        0.0195
     28 H          -0.3032    1.0030   -0.6357 H       1  UNL1        0.1500
     29 H          -1.0950   -1.4997    0.8099 H       1  UNL1        0.0599
     30 H          -2.0134    2.0416   -0.0781 H       1  UNL1        0.0621
     31 H          -3.4431    3.4357    1.3472 H       1  UNL1        0.0618
     32 H          -4.5307    2.4648    3.3139 H       1  UNL1        0.0618
     33 H          -4.1840    0.1065    3.8431 H       1  UNL1        0.0618
     34 H          -2.7765   -1.3430    2.4706 H       1  UNL1        0.0621
     35 H          -2.0783    0.7537   -2.0884 H       1  UNL1        0.0621
     36 H          -3.4208   -0.1268   -3.9493 H       1  UNL1        0.0618
     37 H          -4.3350   -2.4573   -3.8060 H       1  UNL1        0.0618
     38 H          -3.9203   -3.8403   -1.8794 H       1  UNL1        0.0618
     39 H          -2.5924   -2.9745   -0.0315 H       1  UNL1        0.0621
     40 H           2.8386    3.2682   -1.7899 H       1  UNL1        0.1921
     41 H           6.6203    1.2377   -0.3229 H       1  UNL1        0.0625
     42 H           7.1462   -0.8490    0.9633 H       1  UNL1        0.0618
     43 H           5.3122   -2.3236    1.7268 H       1  UNL1        0.0618
     44 H           3.0470   -1.6937    1.1997 H       1  UNL1        0.0624
@<TRIPOS>BOND
     1     1     2    2
     2     2     3   am
     3     2    17    1
     4     3     4    1
     5     3    28    1
     6     4     5    1
     7     4    11    1
     8     4    29    1
     9     5     6   ar
    10     6     7   ar
    11     6    30    1
    12     7     8   ar
    13     7    31    1
    14     8     9   ar
    15     8    32    1
    16     9    10   ar
    17     9    33    1
    18    10     5   ar
    19    10    34    1
    20    11    12   ar
    21    12    13   ar
    22    12    35    1
    23    13    14   ar
    24    13    36    1
    25    14    15   ar
    26    14    37    1
    27    15    16   ar
    28    15    38    1
    29    16    11   ar
    30    16    39    1
    31    17    18   ar
    32    18    19   ar
    33    19    20   ar
    34    19    40    1
    35    20    21    2
    36    20    22   ar
    37    22    23   ar
    38    23    24   ar
    39    23    41    1
    40    24    25   ar
    41    24    42    1
    42    25    26   ar
    43    25    43    1
    44    26    27   ar
    45    26    44    1
    46    27    17   ar
    47    27    22   ar
