@<TRIPOS>MOLECULE
*****
 49 52 0 0 0
SMALL
GASTEIGER

@<TRIPOS>ATOM
      1 O          -1.7900   -2.1919   -1.8418 O.2     1  UNL1       -0.2752
      2 C          -1.4459   -1.2094   -1.1218 C.2     1  UNL1        0.2216
      3 C          -2.3942   -0.0393   -1.0737 C.3     1  UNL1        0.0687
      4 C          -3.6133   -0.3839   -0.3175 C.ar    1  UNL1        0.0780
      5 N          -3.9058   -1.6410    0.0386 N.ar    1  UNL1       -0.1748
      6 N          -5.0184   -1.9231    0.7392 N.ar    1  UNL1       -0.2425
      7 C          -5.8832   -0.9581    1.1117 C.ar    1  UNL1        0.2725
      8 O          -6.9297   -1.1942    1.7675 O.2     1  UNL1       -0.2658
      9 C          -5.6301    0.3403    0.7727 C.ar    1  UNL1        0.0496
     10 C          -6.5010    1.3322    1.1460 C.ar    1  UNL1       -0.0487
     11 C          -6.2626    2.6606    0.8109 C.ar    1  UNL1       -0.0610
     12 C          -5.1358    2.9484    0.0991 C.ar    1  UNL1       -0.0611
     13 C          -4.2676    1.9397   -0.2700 C.ar    1  UNL1       -0.0521
     14 C          -4.4827    0.6197    0.0505 C.ar    1  UNL1        0.0108
     15 N          -0.2484   -1.2257   -0.4167 N.am    1  UNL1       -0.2982
     16 C           0.1393   -0.1605    0.4714 C.3     1  UNL1        0.0304
     17 C           1.3950    0.5110   -0.0259 C.3     1  UNL1        0.0280
     18 N           2.3868   -0.4905   -0.3058 N.pl3   1  UNL1       -0.3269
     19 C           3.7347   -0.1830    0.0553 C.ar    1  UNL1        0.0303
     20 C           4.1031   -0.0097    1.3505 C.ar    1  UNL1       -0.0406
     21 C           5.4122    0.3241    1.7107 C.ar    1  UNL1       -0.0595
     22 C           6.3548    0.4822    0.7210 C.ar    1  UNL1       -0.0500
     23 C           5.9968    0.3111   -0.5956 C.ar    1  UNL1        0.0566
     24 C           7.0238    0.5031   -1.6505 C.3     1  UNL1        0.4175
     25 F           6.5046    0.2948   -2.9185 F       1  UNL1       -0.1659
     26 F           8.0797   -0.3587   -1.4427 F       1  UNL1       -0.1659
     27 F           7.5144    1.8065   -1.5774 F       1  UNL1       -0.1659
     28 C           4.6804   -0.0235   -0.9340 C.ar    1  UNL1       -0.0290
     29 C           2.0744   -1.7351   -0.9126 C.3     1  UNL1        0.0280
     30 C           0.7061   -2.2945   -0.5668 C.3     1  UNL1        0.0304
     31 H          -1.8411    0.8243   -0.7237 H       1  UNL1        0.0423
     32 H          -2.6662    0.1024   -2.1755 H       1  UNL1        0.0423
     33 H          -5.2519   -2.9031    1.0213 H       1  UNL1        0.1921
     34 H          -7.4096    1.1488    1.7106 H       1  UNL1        0.0625
     35 H          -6.9584    3.4286    1.1128 H       1  UNL1        0.0618
     36 H          -4.9166    3.9913   -0.1800 H       1  UNL1        0.0618
     37 H          -3.3936    2.2283   -0.8326 H       1  UNL1        0.0624
     38 H           0.4480   -0.6931    1.4241 H       1  UNL1        0.0480
     39 H          -0.6512    0.5195    0.7841 H       1  UNL1        0.0480
     40 H           1.2195    1.0671   -0.9763 H       1  UNL1        0.0479
     41 H           1.7076    1.2247    0.7648 H       1  UNL1        0.0479
     42 H           3.4002   -0.1254    2.1388 H       1  UNL1        0.0636
     43 H           5.7038    0.4545    2.7379 H       1  UNL1        0.0618
     44 H           7.3915    0.7403    0.9560 H       1  UNL1        0.0623
     45 H           4.4177   -0.1500   -1.9824 H       1  UNL1        0.0641
     46 H           2.0652   -1.5733   -2.0190 H       1  UNL1        0.0479
     47 H           2.8797   -2.5032   -0.7434 H       1  UNL1        0.0479
     48 H           0.4448   -3.0539   -1.3056 H       1  UNL1        0.0480
     49 H           0.8133   -2.7794    0.4248 H       1  UNL1        0.0480
@<TRIPOS>BOND
     1     1     2    2
     2     2     3    1
     3     2    15   am
     4     3     4    1
     5     3    31    1
     6     3    32    1
     7     4     5   ar
     8     5     6   ar
     9     6     7   ar
    10     6    33    1
    11     7     8    2
    12     7     9   ar
    13     9    10   ar
    14    10    11   ar
    15    10    34    1
    16    11    12   ar
    17    11    35    1
    18    12    13   ar
    19    12    36    1
    20    13    14   ar
    21    13    37    1
    22    14     4   ar
    23    14     9   ar
    24    15    16    1
    25    16    17    1
    26    16    38    1
    27    16    39    1
    28    17    18    1
    29    17    40    1
    30    17    41    1
    31    18    19    1
    32    18    29    1
    33    19    20   ar
    34    20    21   ar
    35    20    42    1
    36    21    22   ar
    37    21    43    1
    38    22    23   ar
    39    22    44    1
    40    23    24    1
    41    23    28   ar
    42    24    25    1
    43    24    26    1
    44    24    27    1
    45    28    19   ar
    46    28    45    1
    47    29    30    1
    48    29    46    1
    49    29    47    1
    50    30    15    1
    51    30    48    1
    52    30    49    1
