@<TRIPOS>MOLECULE
*****
 31 32 0 0 0
SMALL
GASTEIGER

@<TRIPOS>ATOM
      1 C           5.2199   -1.0684   -0.0169 C.3     1  UNL1       -0.0397
      2 C           3.9022   -0.4293   -0.0210 C.ar    1  UNL1       -0.0504
      3 C           3.6904    0.8577    0.4235 C.ar    1  UNL1       -0.0582
      4 C           2.4600    1.4528    0.4145 C.ar    1  UNL1       -0.0507
      5 C           1.3529    0.7498   -0.0612 C.ar    1  UNL1        0.0223
      6 C           0.0644    1.3990   -0.0840 C.2     1  UNL1        0.1935
      7 O           0.1027    2.6807   -0.2277 O.2     1  UNL1       -0.2866
      8 C          -1.2204    0.7389    0.0388 C.ar    1  UNL1        0.0324
      9 C          -1.4145   -0.4855    0.6307 C.ar    1  UNL1       -0.0053
     10 C          -2.6887   -1.0608    0.7014 C.ar    1  UNL1        0.1659
     11 O          -2.8681   -2.2968    1.3010 O.3     1  UNL1       -0.5031
     12 C          -3.7950   -0.4332    0.1878 C.ar    1  UNL1        0.2370
     13 O          -5.0514   -1.0273    0.2717 O.3     1  UNL1       -0.4989
     14 C          -3.6172    0.7962   -0.4088 C.ar    1  UNL1        0.3184
     15 N          -4.7435    1.4669   -0.9501 N.pl3   1  UNL1        0.0836
     16 O          -4.7291    2.7086   -1.0144 O.2     1  UNL1        0.0416
     17 O          -5.8323    0.8040   -1.3968 O.co2   1  UNL1       -0.5759
     18 C          -2.3610    1.3595   -0.4767 C.ar    1  UNL1        0.0304
     19 C           1.5576   -0.5370   -0.5077 C.ar    1  UNL1       -0.0507
     20 C           2.8111   -1.1160   -0.4875 C.ar    1  UNL1       -0.0582
     21 H           5.2083   -1.8972    0.7122 H       1  UNL1        0.0278
     22 H           6.0369   -0.3744    0.2905 H       1  UNL1        0.0278
     23 H           5.4870   -1.4369   -1.0411 H       1  UNL1        0.0278
     24 H           4.5443    1.3908    0.7872 H       1  UNL1        0.0620
     25 H           2.2907    2.4535    0.7616 H       1  UNL1        0.0625
     26 H          -0.5762   -1.0161    1.0581 H       1  UNL1        0.0662
     27 H          -2.0655   -2.7920    1.6933 H       1  UNL1        0.2923
     28 H          -5.1409   -1.9421    0.7251 H       1  UNL1        0.2925
     29 H          -2.2223    2.3166   -0.9404 H       1  UNL1        0.0694
     30 H           0.7150   -1.1261   -0.9002 H       1  UNL1        0.0625
     31 H           2.8827   -2.1359   -0.8596 H       1  UNL1        0.0620
@<TRIPOS>UNITY_ATOM_ATTR
15 1
charge 1
17 1
charge -1
@<TRIPOS>BOND
     1     1     2    1
     2     1    21    1
     3     1    22    1
     4     1    23    1
     5     2     3   ar
     6     3     4   ar
     7     3    24    1
     8     4     5   ar
     9     4    25    1
    10     5     6    1
    11     5    19   ar
    12     6     7    2
    13     6     8    1
    14     8     9   ar
    15     9    10   ar
    16     9    26    1
    17    10    11    1
    18    10    12   ar
    19    11    27    1
    20    12    13    1
    21    12    14   ar
    22    13    28    1
    23    14    15    1
    24    14    18   ar
    25    15    16    2
    26    15    17    1
    27    18     8   ar
    28    18    29    1
    29    19    20   ar
    30    19    30    1
    31    20     2   ar
    32    20    31    1
