@<TRIPOS>MOLECULE
*****
 43 45 0 0 0
SMALL
GASTEIGER

@<TRIPOS>ATOM
      1 C          -8.6631   -1.1040    0.8282 C.3     1  UNL1        0.0125
      2 C          -7.3924   -0.7239    0.0962 C.2     1  UNL1        0.2141
      3 O          -7.4791   -0.3614   -1.0930 O.2     1  UNL1       -0.2758
      4 N          -6.1776   -0.7912    0.7706 N.am    1  UNL1       -0.2857
      5 C          -4.9099   -0.4657    0.2196 C.ar    1  UNL1        0.0334
      6 C          -4.6782    0.0551   -1.0172 C.ar    1  UNL1       -0.0399
      7 C          -3.3831    0.3445   -1.4947 C.ar    1  UNL1       -0.0508
      8 C          -2.2858    0.1116   -0.7252 C.ar    1  UNL1        0.0006
      9 C          -0.9014    0.3908   -1.1618 C.ar    1  UNL1        0.0760
     10 C          -0.6688    0.9143   -2.4058 C.ar    1  UNL1       -0.0174
     11 C           0.6478    1.1772   -2.8145 C.ar    1  UNL1        0.0332
     12 N           1.6090    0.8956   -1.9499 N.ar    1  UNL1       -0.2226
     13 C           1.4165    0.3820   -0.7229 C.ar    1  UNL1        0.2200
     14 N           2.4319    0.0796    0.2029 N.pl3   1  UNL1       -0.2836
     15 C           3.8270    0.2444    0.0493 C.ar    1  UNL1        0.0343
     16 C           4.4004    0.7500   -1.0898 C.ar    1  UNL1       -0.0404
     17 C           5.7699    0.8981   -1.2070 C.ar    1  UNL1       -0.0593
     18 C           6.5783    0.5325   -0.1632 C.ar    1  UNL1       -0.0495
     19 C           6.0512    0.0146    1.0145 C.ar    1  UNL1        0.0382
     20 C           6.9003   -0.3760    2.1271 C.2     1  UNL1        0.2416
     21 N           8.3107   -0.2477    2.0660 N.am    1  UNL1       -0.3253
     22 O           6.3909   -0.8398    3.1751 O.2     1  UNL1       -0.2704
     23 C           4.6943   -0.1169    1.0931 C.ar    1  UNL1       -0.0284
     24 N           0.1252    0.1313   -0.3396 N.ar    1  UNL1       -0.2142
     25 C          -2.4998   -0.4216    0.5459 C.ar    1  UNL1       -0.0508
     26 C          -3.7636   -0.6980    0.9969 C.ar    1  UNL1       -0.0399
     27 H          -8.4917   -0.9389    1.9199 H       1  UNL1        0.0323
     28 H          -9.4448   -0.3735    0.5271 H       1  UNL1        0.0323
     29 H          -8.9402   -2.1480    0.6162 H       1  UNL1        0.0323
     30 H          -6.2341   -1.1194    1.7931 H       1  UNL1        0.1548
     31 H          -5.4998    0.2691   -1.6795 H       1  UNL1        0.0636
     32 H          -3.2688    0.7589   -2.4920 H       1  UNL1        0.0625
     33 H          -1.4628    1.1450   -3.1156 H       1  UNL1        0.0654
     34 H           0.7885    1.5888   -3.8005 H       1  UNL1        0.0831
     35 H           2.1197   -0.3223    1.1341 H       1  UNL1        0.1550
     36 H           3.8244    1.0582   -1.9507 H       1  UNL1        0.0636
     37 H           6.2338    1.3014   -2.1144 H       1  UNL1        0.0618
     38 H           7.6539    0.6387   -0.2304 H       1  UNL1        0.0625
     39 H           8.7849   -0.4354    1.1584 H       1  UNL1        0.1453
     40 H           8.8574    0.0266    2.9060 H       1  UNL1        0.1453
     41 H           4.2375   -0.5115    1.9805 H       1  UNL1        0.0644
     42 H          -1.6077   -0.5979    1.1391 H       1  UNL1        0.0625
     43 H          -3.9006   -1.1154    1.9974 H       1  UNL1        0.0636
@<TRIPOS>BOND
     1     1     2    1
     2     1    27    1
     3     1    28    1
     4     1    29    1
     5     2     3    2
     6     2     4   am
     7     4     5    1
     8     4    30    1
     9     5     6   ar
    10     6     7   ar
    11     6    31    1
    12     7     8   ar
    13     7    32    1
    14     8     9    1
    15     8    25   ar
    16     9    10   ar
    17    10    11   ar
    18    10    33    1
    19    11    12   ar
    20    11    34    1
    21    12    13   ar
    22    13    14    1
    23    13    24   ar
    24    14    15    1
    25    14    35    1
    26    15    16   ar
    27    16    17   ar
    28    16    36    1
    29    17    18   ar
    30    17    37    1
    31    18    19   ar
    32    18    38    1
    33    19    20    1
    34    19    23   ar
    35    20    21   am
    36    20    22    2
    37    21    39    1
    38    21    40    1
    39    23    15   ar
    40    23    41    1
    41    24     9   ar
    42    25    26   ar
    43    25    42    1
    44    26     5   ar
    45    26    43    1
