@<TRIPOS>MOLECULE
*****
 35 37 0 0 0
SMALL
GASTEIGER

@<TRIPOS>ATOM
      1 N           6.7492   -0.2332    0.0020 N.am    1  UNL1       -0.3253
      2 C           5.4360   -0.7620   -0.0437 C.2     1  UNL1        0.2416
      3 O           5.1573   -1.8857    0.4639 O.2     1  UNL1       -0.2704
      4 C           4.4013    0.0319   -0.6988 C.ar    1  UNL1        0.0400
      5 C           4.6759    1.2595   -1.2605 C.ar    1  UNL1       -0.0494
      6 C           3.6996    1.9937   -1.8710 C.ar    1  UNL1       -0.0576
      7 C           2.4257    1.4734   -1.9116 C.ar    1  UNL1       -0.0192
      8 C           2.0998    0.2523   -1.3655 C.ar    1  UNL1        0.1326
      9 O           0.7881   -0.1818   -1.4592 O.3     1  UNL1       -0.4236
     10 C          -0.1653    0.1050   -0.4907 C.ar    1  UNL1        0.3239
     11 N           0.2225    0.8363    0.5748 N.ar    1  UNL1       -0.2030
     12 C          -0.6176    1.1685    1.5650 C.ar    1  UNL1        0.0350
     13 C          -1.9409    0.7161    1.4455 C.ar    1  UNL1       -0.0173
     14 C          -2.3671   -0.0285    0.3760 C.ar    1  UNL1        0.0778
     15 C          -3.7319   -0.4982    0.2473 C.ar    1  UNL1        0.0006
     16 C          -4.7227   -0.2576    1.1551 C.ar    1  UNL1       -0.0526
     17 C          -6.0273   -0.7420    0.9711 C.ar    1  UNL1       -0.0611
     18 C          -6.3413   -1.4737   -0.1321 C.ar    1  UNL1       -0.0617
     19 C          -5.3612   -1.7312   -1.0638 C.ar    1  UNL1       -0.0611
     20 C          -4.0808   -1.2536   -0.8793 C.ar    1  UNL1       -0.0526
     21 N          -1.4370   -0.3172   -0.5841 N.ar    1  UNL1       -0.1946
     22 C           3.1035   -0.4666   -0.7563 C.ar    1  UNL1       -0.0071
     23 H           7.5629   -0.7875   -0.3992 H       1  UNL1        0.1453
     24 H           6.9588    0.6874    0.4164 H       1  UNL1        0.1453
     25 H           5.7084    1.6359   -1.2046 H       1  UNL1        0.0625
     26 H           3.8936    2.9533   -2.3152 H       1  UNL1        0.0619
     27 H           1.6428    2.0358   -2.3877 H       1  UNL1        0.0654
     28 H          -0.3281    1.7549    2.4303 H       1  UNL1        0.0832
     29 H          -2.6449    0.9759    2.2434 H       1  UNL1        0.0654
     30 H          -4.5091    0.3141    2.0331 H       1  UNL1        0.0624
     31 H          -6.8038   -0.5390    1.7076 H       1  UNL1        0.0618
     32 H          -7.3601   -1.8304   -0.2387 H       1  UNL1        0.0618
     33 H          -5.6406   -2.3216   -1.9411 H       1  UNL1        0.0618
     34 H          -3.3249   -1.4584   -1.6084 H       1  UNL1        0.0624
     35 H           2.8794   -1.4257   -0.3196 H       1  UNL1        0.0662
@<TRIPOS>BOND
     1     1     2   am
     2     1    23    1
     3     1    24    1
     4     2     3    2
     5     2     4    1
     6     4     5   ar
     7     5     6   ar
     8     5    25    1
     9     6     7   ar
    10     6    26    1
    11     7     8   ar
    12     7    27    1
    13     8     9    1
    14     8    22   ar
    15     9    10    1
    16    10    11   ar
    17    11    12   ar
    18    12    13   ar
    19    12    28    1
    20    13    14   ar
    21    13    29    1
    22    14    15    1
    23    14    21   ar
    24    15    16   ar
    25    16    17   ar
    26    16    30    1
    27    17    18   ar
    28    17    31    1
    29    18    19   ar
    30    18    32    1
    31    19    20   ar
    32    19    33    1
    33    20    15   ar
    34    20    34    1
    35    21    10   ar
    36    22     4   ar
    37    22    35    1
