@<TRIPOS>MOLECULE
*****
 29 31 0 0 0
SMALL
GASTEIGER

@<TRIPOS>ATOM
      1 N           3.7077   -2.6026   -0.7943 N.pl3   1  UNL1       -0.3430
      2 C           3.2206   -1.3818   -0.2819 C.ar    1  UNL1        0.1221
      3 C           1.8816   -1.0605   -0.2195 C.ar    1  UNL1        0.0220
      4 C           1.4044    0.1213    0.2762 C.ar    1  UNL1        0.1549
      5 O           0.0478    0.4433    0.3378 O.3     1  UNL1       -0.4850
      6 C          -0.8822   -0.5107   -0.1412 C.3     1  UNL1        0.1148
      7 C          -2.2559   -0.0095   -0.0012 C.ar    1  UNL1       -0.0090
      8 C          -2.5529    1.2296    0.5310 C.ar    1  UNL1       -0.0553
      9 C          -3.8704    1.6582    0.6422 C.ar    1  UNL1       -0.0600
     10 C          -4.9228    0.8690    0.2288 C.ar    1  UNL1       -0.0434
     11 C          -4.6275   -0.3762   -0.3061 C.ar    1  UNL1        0.0413
     12 CL         -5.9635   -1.3748   -0.8294 Cl      1  UNL1       -0.0835
     13 C          -3.3117   -0.7968   -0.4139 C.ar    1  UNL1       -0.0370
     14 C           2.3397    1.0351    0.7377 C.ar    1  UNL1        0.1728
     15 N           2.2350    2.2735    1.2809 N.ar    1  UNL1       -0.1243
     16 N           3.4504    2.7007    1.5433 N.ar    1  UNL1       -0.0659
     17 N           4.3399    1.7926    1.1937 N.ar    1  UNL1       -0.2402
     18 C           3.6824    0.7281    0.6820 C.ar    1  UNL1        0.1813
     19 N           4.0975   -0.4552    0.1818 N.ar    1  UNL1       -0.2116
     20 H           3.6323   -3.4613   -0.2295 H       1  UNL1        0.1437
     21 H           4.1382   -2.6393   -1.7301 H       1  UNL1        0.1437
     22 H           1.1717   -1.7884   -0.5850 H       1  UNL1        0.0689
     23 H          -0.7245   -1.4906    0.3591 H       1  UNL1        0.0748
     24 H          -0.6824   -0.6556   -1.2187 H       1  UNL1        0.0748
     25 H          -1.7487    1.8608    0.8593 H       1  UNL1        0.0621
     26 H          -4.1234    2.6352    1.0606 H       1  UNL1        0.0618
     27 H          -5.9539    1.2180    0.3218 H       1  UNL1        0.0632
     28 H          -3.1274   -1.7924   -0.8447 H       1  UNL1        0.0636
     29 H           5.3979    1.8305    1.2739 H       1  UNL1        0.1923
@<TRIPOS>BOND
     1     1     2    1
     2     1    20    1
     3     1    21    1
     4     2     3   ar
     5     3     4   ar
     6     3    22    1
     7     4     5    1
     8     4    14   ar
     9     5     6    1
    10     6     7    1
    11     6    23    1
    12     6    24    1
    13     7     8   ar
    14     8     9   ar
    15     8    25    1
    16     9    10   ar
    17     9    26    1
    18    10    11   ar
    19    10    27    1
    20    11    12    1
    21    11    13   ar
    22    13     7   ar
    23    13    28    1
    24    14    15   ar
    25    15    16   ar
    26    16    17   ar
    27    17    18   ar
    28    17    29    1
    29    18    19   ar
    30    18    14   ar
    31    19     2   ar
