@<TRIPOS>MOLECULE
*****
 47 50 0 0 0
SMALL
GASTEIGER

@<TRIPOS>ATOM
      1 O           2.1328   -0.4014   -1.5512 O.2     1  UNL1       -0.2684
      2 C           1.2926    0.0449   -0.7572 C.2     1  UNL1        0.2650
      3 N           1.4343    1.4103   -0.2776 N.am    1  UNL1       -0.3059
      4 C           2.5542    2.1806   -0.7565 C.3     1  UNL1        0.0372
      5 C           3.8356    1.8172   -0.1366 C.ar    1  UNL1       -0.0301
      6 C           3.9178    0.8128    0.8004 C.ar    1  UNL1       -0.0544
      7 C           5.1426    0.4799    1.3796 C.ar    1  UNL1       -0.0261
      8 C           6.2699    1.1879    0.9851 C.ar    1  UNL1        0.1234
      9 F           7.4736    0.8628    1.5522 F       1  UNL1       -0.2055
     10 C           6.2185    2.1938    0.0538 C.ar    1  UNL1       -0.0261
     11 C           4.9687    2.4854   -0.4933 C.ar    1  UNL1       -0.0544
     12 C           0.1706   -0.7079   -0.2703 C.ar    1  UNL1        0.1535
     13 N          -0.7446   -0.0749    0.5291 N.ar    1  UNL1       -0.1626
     14 N          -1.8101   -0.6478    1.0388 N.ar    1  UNL1       -0.2239
     15 C          -2.7230    0.1308    1.8777 C.3     1  UNL1        0.0703
     16 C          -3.7799    0.7925    1.0908 C.ar    1  UNL1       -0.0260
     17 C          -3.6151    2.0599    0.5401 C.ar    1  UNL1       -0.0568
     18 C          -4.6207    2.6521   -0.1895 C.ar    1  UNL1       -0.0614
     19 C          -5.8262    2.0187   -0.4041 C.ar    1  UNL1       -0.0617
     20 C          -5.9929    0.7632    0.1401 C.ar    1  UNL1       -0.0614
     21 C          -4.9816    0.1509    0.8819 C.ar    1  UNL1       -0.0568
     22 C          -2.0048   -1.9396    0.7509 C.ar    1  UNL1        0.2753
     23 O          -3.0043   -2.5292    1.2125 O.2     1  UNL1       -0.2655
     24 C          -1.1308   -2.6617   -0.0499 C.ar    1  UNL1        0.0503
     25 C          -1.3265   -3.9837   -0.3420 C.ar    1  UNL1       -0.0487
     26 C          -0.4561   -4.7029   -1.1342 C.ar    1  UNL1       -0.0610
     27 C           0.6603   -4.1070   -1.6690 C.ar    1  UNL1       -0.0611
     28 C           0.8600   -2.7523   -1.3694 C.ar    1  UNL1       -0.0516
     29 C          -0.0103   -2.0338   -0.5778 C.ar    1  UNL1        0.0195
     30 H           0.7430    1.8046    0.3900 H       1  UNL1        0.1494
     31 H           2.3663    3.2596   -0.5099 H       1  UNL1        0.0512
     32 H           2.5593    2.1167   -1.8698 H       1  UNL1        0.0512
     33 H           3.0496    0.2527    1.1178 H       1  UNL1        0.0622
     34 H           5.2481   -0.3013    2.1177 H       1  UNL1        0.0646
     35 H           7.1152    2.7105   -0.2174 H       1  UNL1        0.0646
     36 H           4.9515    3.2850   -1.2285 H       1  UNL1        0.0622
     37 H          -2.1705    0.9286    2.4317 H       1  UNL1        0.0560
     38 H          -3.2066   -0.5026    2.6424 H       1  UNL1        0.0560
     39 H          -2.6700    2.5345    0.7191 H       1  UNL1        0.0621
     40 H          -4.4799    3.6332   -0.6101 H       1  UNL1        0.0618
     41 H          -6.6102    2.5176   -0.9909 H       1  UNL1        0.0618
     42 H          -6.9167    0.2280    0.0002 H       1  UNL1        0.0618
     43 H          -5.1599   -0.8417    1.2935 H       1  UNL1        0.0621
     44 H          -2.2149   -4.4676    0.0804 H       1  UNL1        0.0625
     45 H          -0.6081   -5.7572   -1.3700 H       1  UNL1        0.0618
     46 H           1.3791   -4.6089   -2.2941 H       1  UNL1        0.0618
     47 H           1.7200   -2.2934   -1.7759 H       1  UNL1        0.0624
@<TRIPOS>BOND
     1     1     2    2
     2     2     3   am
     3     2    12    1
     4     3     4    1
     5     3    30    1
     6     4     5    1
     7     4    31    1
     8     4    32    1
     9     5     6   ar
    10     6     7   ar
    11     6    33    1
    12     7     8   ar
    13     7    34    1
    14     8     9    1
    15     8    10   ar
    16    10    11   ar
    17    10    35    1
    18    11     5   ar
    19    11    36    1
    20    12    13   ar
    21    13    14   ar
    22    14    15    1
    23    14    22   ar
    24    15    16    1
    25    15    37    1
    26    15    38    1
    27    16    17   ar
    28    17    18   ar
    29    17    39    1
    30    18    19   ar
    31    18    40    1
    32    19    20   ar
    33    19    41    1
    34    20    21   ar
    35    20    42    1
    36    21    16   ar
    37    21    43    1
    38    22    23    2
    39    22    24   ar
    40    24    25   ar
    41    25    26   ar
    42    25    44    1
    43    26    27   ar
    44    26    45    1
    45    27    28   ar
    46    27    46    1
    47    28    29   ar
    48    28    47    1
    49    29    12   ar
    50    29    24   ar
