@<TRIPOS>MOLECULE
*****
 40 43 0 0 0
SMALL
GASTEIGER

@<TRIPOS>ATOM
      1 N           4.5782   -2.5652    1.5332 N.2     1  UNL1       -0.3282
      2 N           4.8481   -1.6355    0.7859 N.2     1  UNL1       -0.0146
      3 N           4.9958   -1.0334   -0.2992 N.2     1  UNL1        0.0789
      4 C           3.8861   -0.5573   -1.0755 C.3     1  UNL1        0.1461
      5 C           2.5557   -0.8183   -0.4296 C.3     1  UNL1        0.0991
      6 O           2.5043   -0.1888    0.7949 O.3     1  UNL1       -0.3880
      7 C           1.4825   -0.2182   -1.3321 C.3     1  UNL1        0.0547
      8 N           0.1587   -0.3656   -0.8558 N.ar    1  UNL1       -0.3044
      9 C          -0.5045    0.5110   -0.1061 C.ar    1  UNL1        0.0642
     10 C          -1.8112    0.2635    0.3268 C.ar    1  UNL1        0.0543
     11 C          -2.4319   -0.9192   -0.0304 C.ar    1  UNL1        0.0001
     12 C          -3.7261   -1.2104    0.3744 C.ar    1  UNL1       -0.0531
     13 C          -4.3045   -2.4023   -0.0059 C.ar    1  UNL1       -0.0611
     14 C          -3.6174   -3.3104   -0.7825 C.ar    1  UNL1       -0.0610
     15 C          -2.3310   -3.0279   -1.1885 C.ar    1  UNL1       -0.0488
     16 C          -1.7516   -1.8288   -0.8048 C.ar    1  UNL1        0.0474
     17 C          -0.4791   -1.5273   -1.1948 C.ar    1  UNL1        0.2596
     18 O           0.1142   -2.3889   -1.9061 O.2     1  UNL1       -0.2670
     19 C          -2.3087    1.3725    1.1209 C.2     1  UNL1        0.1963
     20 O          -3.4191    1.5329    1.6828 O.2     1  UNL1       -0.2865
     21 C          -1.2138    2.3258    1.1482 C.ar    1  UNL1        0.0315
     22 C          -1.1209    3.5796    1.7619 C.ar    1  UNL1       -0.0503
     23 C           0.0340    4.3158    1.6484 C.ar    1  UNL1       -0.0610
     24 C           1.1100    3.8395    0.9370 C.ar    1  UNL1       -0.0611
     25 C           1.0264    2.5844    0.3188 C.ar    1  UNL1       -0.0519
     26 C          -0.1191    1.8374    0.4220 C.ar    1  UNL1        0.0101
     27 H           3.8762   -0.9774   -2.1132 H       1  UNL1        0.0605
     28 H           3.9845    0.5566   -1.1740 H       1  UNL1        0.0605
     29 H           2.3819   -1.9202   -0.3082 H       1  UNL1        0.0632
     30 H           1.6508   -0.3895    1.2651 H       1  UNL1        0.2099
     31 H           1.8157    0.7435   -1.6910 H       1  UNL1        0.0519
     32 H           1.5526   -0.8943   -2.2821 H       1  UNL1        0.0519
     33 H          -4.2570   -0.4864    0.9863 H       1  UNL1        0.0624
     34 H          -5.3143   -2.6206    0.3147 H       1  UNL1        0.0618
     35 H          -4.0936   -4.2402   -1.0683 H       1  UNL1        0.0618
     36 H          -1.7778   -3.7490   -1.8084 H       1  UNL1        0.0625
     37 H          -1.9737    3.9404    2.3172 H       1  UNL1        0.0625
     38 H           0.1002    5.2805    2.1226 H       1  UNL1        0.0618
     39 H           2.0331    4.3681    0.8152 H       1  UNL1        0.0618
     40 H           1.8664    2.2233   -0.2199 H       1  UNL1        0.0624
@<TRIPOS>UNITY_ATOM_ATTR
1 1
charge -1
2 1
charge 1
@<TRIPOS>BOND
     1     1     2    2
     2     2     3    2
     3     3     4    1
     4     4     5    1
     5     4    27    1
     6     4    28    1
     7     5     6    1
     8     5     7    1
     9     5    29    1
    10     6    30    1
    11     7     8    1
    12     7    31    1
    13     7    32    1
    14     8     9   ar
    15     9    10   ar
    16    10    11   ar
    17    10    19    1
    18    11    12   ar
    19    12    13   ar
    20    12    33    1
    21    13    14   ar
    22    13    34    1
    23    14    15   ar
    24    14    35    1
    25    15    16   ar
    26    15    36    1
    27    16    17   ar
    28    16    11   ar
    29    17    18    2
    30    17     8   ar
    31    19    20    2
    32    19    21    1
    33    21    22   ar
    34    22    23   ar
    35    22    37    1
    36    23    24   ar
    37    23    38    1
    38    24    25   ar
    39    24    39    1
    40    25    26   ar
    41    25    40    1
    42    26    21   ar
    43    26     9    1
