@<TRIPOS>MOLECULE
*****
 36 37 0 0 0
SMALL
GASTEIGER

@<TRIPOS>ATOM
      1 C          -2.5789   -0.5004    2.5980 C.3     1  UNL1        0.0098
      2 N          -3.0507   -0.2763    1.2513 N.am    1  UNL1       -0.2587
      3 C          -4.3742   -0.6180    0.9211 C.2     1  UNL1        0.3037
      4 N          -4.8624   -0.4092   -0.3901 N.am    1  UNL1       -0.3129
      5 O          -5.1300   -1.1085    1.7823 O.2     1  UNL1       -0.2525
      6 C          -2.1512    0.2825    0.3154 C.ar    1  UNL1        0.0392
      7 C          -2.1454    1.6732    0.1644 C.ar    1  UNL1       -0.0401
      8 C          -1.2832    2.2538   -0.7392 C.ar    1  UNL1       -0.0582
      9 C          -0.4102    1.5151   -1.5154 C.ar    1  UNL1       -0.0392
     10 C          -0.4249    0.1502   -1.3582 C.ar    1  UNL1        0.0498
     11 N           0.4663   -0.6392   -2.1525 N.pl3   1  UNL1       -0.2160
     12 S           2.1021   -0.2286   -2.3559 S.O2    1  UNL1        0.0780
     13 O           2.2621    1.1303   -2.9783 O.2     1  UNL1       -0.1498
     14 O           2.7475   -1.2596   -3.2556 O.2     1  UNL1       -0.1498
     15 C           3.0114   -0.2122   -0.8618 C.ar    1  UNL1        0.1843
     16 C           3.1303    0.9312   -0.1042 C.ar    1  UNL1        0.1907
     17 F           2.5524    2.0862   -0.4857 F       1  UNL1       -0.2002
     18 C           3.8454    0.9629    1.0825 C.ar    1  UNL1        0.1983
     19 F           3.9456    2.1047    1.8089 F       1  UNL1       -0.1993
     20 C           4.4691   -0.1619    1.5498 C.ar    1  UNL1        0.1992
     21 F           5.1838   -0.1921    2.7048 F       1  UNL1       -0.1993
     22 C           4.3602   -1.3189    0.8015 C.ar    1  UNL1        0.1983
     23 F           4.9861   -2.4434    1.2720 F       1  UNL1       -0.1993
     24 C           3.6480   -1.3430   -0.3765 C.ar    1  UNL1        0.1907
     25 F           3.5835   -2.5041   -1.0541 F       1  UNL1       -0.2002
     26 C          -1.2871   -0.4628   -0.4513 C.ar    1  UNL1       -0.0178
     27 H          -1.5738   -0.9639    2.6392 H       1  UNL1        0.0433
     28 H          -2.5186    0.5090    3.0882 H       1  UNL1        0.0433
     29 H          -3.3170   -1.1046    3.1936 H       1  UNL1        0.0433
     30 H          -4.2296   -0.3471   -1.2306 H       1  UNL1        0.1465
     31 H          -5.8900   -0.3045   -0.5942 H       1  UNL1        0.1465
     32 H          -2.8281    2.2566    0.7709 H       1  UNL1        0.0636
     33 H          -1.2633    3.3457   -0.8728 H       1  UNL1        0.0619
     34 H           0.2523    2.0325   -2.2180 H       1  UNL1        0.0636
     35 H           0.0489   -1.4851   -2.6005 H       1  UNL1        0.1737
     36 H          -1.2764   -1.5405   -0.3490 H       1  UNL1        0.0655
@<TRIPOS>BOND
     1     1     2    1
     2     1    27    1
     3     1    28    1
     4     1    29    1
     5     2     3   am
     6     2     6    1
     7     3     4   am
     8     3     5    2
     9     4    30    1
    10     4    31    1
    11     6     7   ar
    12     7     8   ar
    13     7    32    1
    14     8     9   ar
    15     8    33    1
    16     9    10   ar
    17     9    34    1
    18    10    11    1
    19    10    26   ar
    20    11    12    1
    21    11    35    1
    22    12    13    2
    23    12    14    2
    24    12    15    1
    25    15    16   ar
    26    16    17    1
    27    16    18   ar
    28    18    19    1
    29    18    20   ar
    30    20    21    1
    31    20    22   ar
    32    22    23    1
    33    22    24   ar
    34    24    25    1
    35    24    15   ar
    36    26     6   ar
    37    26    36    1
