@<TRIPOS>MOLECULE
*****
 33 35 0 0 0
SMALL
GASTEIGER

@<TRIPOS>ATOM
      1 O           0.5622   -0.9087   -1.4336 O.2     1  UNL1       -0.2445
      2 C           0.8638   -0.5173   -0.2725 C.2     1  UNL1        0.3447
      3 O          -0.0968   -0.6044    0.6899 O.3     1  UNL1       -0.4217
      4 C          -1.3726   -1.0755    0.5391 C.ar    1  UNL1        0.1396
      5 C          -1.7527   -2.3880    0.7120 C.ar    1  UNL1       -0.0186
      6 C          -3.0682   -2.8034    0.5435 C.ar    1  UNL1       -0.0577
      7 C          -4.0259   -1.8786    0.1927 C.ar    1  UNL1       -0.0538
      8 C          -3.6880   -0.5562    0.0101 C.ar    1  UNL1       -0.0144
      9 C          -4.6277    0.4028   -0.3437 C.ar    1  UNL1       -0.0539
     10 C          -4.2811    1.7263   -0.5249 C.ar    1  UNL1       -0.0612
     11 C          -2.9739    2.1165   -0.3532 C.ar    1  UNL1       -0.0611
     12 C          -2.0447    1.1615   -0.0022 C.ar    1  UNL1       -0.0505
     13 C          -2.3576   -0.1744    0.1877 C.ar    1  UNL1        0.0245
     14 C           2.2107   -0.0052   -0.0541 C.ar    1  UNL1        0.0658
     15 C           2.5970    0.4362    1.1921 C.ar    1  UNL1       -0.0473
     16 C           3.8712    0.9288    1.4313 C.ar    1  UNL1       -0.0546
     17 C           4.7972    0.9915    0.4187 C.ar    1  UNL1        0.0156
     18 C           4.4300    0.5543   -0.8373 C.ar    1  UNL1        0.2739
     19 N           5.3693    0.6081   -1.9044 N.pl3   1  UNL1        0.0796
     20 O           6.5062    1.0381   -1.7290 O.2     1  UNL1        0.0414
     21 O           4.9898    0.1698   -3.1481 O.co2   1  UNL1       -0.5760
     22 C           3.1463    0.0620   -1.0621 C.ar    1  UNL1        0.0295
     23 H          -0.9957   -3.0978    0.9854 H       1  UNL1        0.0654
     24 H          -3.2715   -3.8523    0.7004 H       1  UNL1        0.0619
     25 H          -5.0491   -2.1832    0.0582 H       1  UNL1        0.0624
     26 H          -5.6455    0.0734   -0.4726 H       1  UNL1        0.0624
     27 H          -5.0848    2.3985   -0.8000 H       1  UNL1        0.0618
     28 H          -2.7432    3.1599   -0.5040 H       1  UNL1        0.0618
     29 H          -1.0236    1.4536    0.1344 H       1  UNL1        0.0625
     30 H           1.8943    0.3984    2.0001 H       1  UNL1        0.0626
     31 H           4.1836    1.2776    2.4067 H       1  UNL1        0.0620
     32 H           5.8018    1.3653    0.5484 H       1  UNL1        0.0685
     33 H           2.8794   -0.2774   -2.0616 H       1  UNL1        0.0693
@<TRIPOS>UNITY_ATOM_ATTR
19 1
charge 1
21 1
charge -1
@<TRIPOS>BOND
     1     1     2    2
     2     2     3    1
     3     2    14    1
     4     3     4    1
     5     4     5   ar
     6     5     6   ar
     7     5    23    1
     8     6     7   ar
     9     6    24    1
    10     7     8   ar
    11     7    25    1
    12     8     9   ar
    13     9    10   ar
    14     9    26    1
    15    10    11   ar
    16    10    27    1
    17    11    12   ar
    18    11    28    1
    19    12    13   ar
    20    12    29    1
    21    13     4   ar
    22    13     8   ar
    23    14    15   ar
    24    15    16   ar
    25    15    30    1
    26    16    17   ar
    27    16    31    1
    28    17    18   ar
    29    17    32    1
    30    18    19    1
    31    18    22   ar
    32    19    20    2
    33    19    21    1
    34    22    14   ar
    35    22    33    1
