@<TRIPOS>MOLECULE
*****
 32 33 0 0 0
SMALL
GASTEIGER

@<TRIPOS>ATOM
      1 O          -5.1676   -1.6930   -0.8569 O.2     1  UNL1       -0.2450
      2 C          -3.9490   -1.9315   -0.7578 C.2     1  UNL1        0.3407
      3 O          -3.5962   -3.2734   -1.1100 O.3     1  UNL1       -0.4770
      4 C          -3.0024   -0.9454   -0.3261 C.ar    1  UNL1        0.1104
      5 C          -1.6476   -1.1158   -0.3102 C.ar    1  UNL1       -0.0020
      6 C          -0.7808   -0.0772    0.0416 C.ar    1  UNL1        0.1284
      7 O           0.5675   -0.3167    0.0024 O.3     1  UNL1       -0.4870
      8 C           1.4760    0.6898    0.4947 C.3     1  UNL1        0.1173
      9 C           2.8438    0.1633    0.1918 C.ar    1  UNL1        0.0248
     10 C           3.1203   -0.2469   -1.0986 C.ar    1  UNL1       -0.0526
     11 C           4.3909   -0.6833   -1.3839 C.ar    1  UNL1       -0.0612
     12 C           5.3358   -0.7001   -0.4070 C.ar    1  UNL1       -0.0590
     13 C           5.0395   -0.2747    0.8605 C.ar    1  UNL1       -0.0261
     14 C           3.7769    0.1728    1.1952 C.ar    1  UNL1        0.1298
     15 F           3.4720    0.5955    2.4424 F       1  UNL1       -0.2051
     16 C          -1.3112    1.1362    0.3846 C.ar    1  UNL1        0.0611
     17 C          -2.6520    1.3669    0.3835 C.ar    1  UNL1        0.3183
     18 N          -3.1353    2.6437    0.7646 N.pl3   1  UNL1        0.0836
     19 O          -2.4822    3.6769    0.4876 O.2     1  UNL1        0.0416
     20 O          -4.3218    2.8585    1.4219 O.co2   1  UNL1       -0.5759
     21 C          -3.4750    0.3287    0.0240 C.ar    1  UNL1        0.2092
     22 O          -4.8755    0.4871   -0.0328 O.3     1  UNL1       -0.5007
     23 H          -4.2600   -3.9884   -0.6516 H       1  UNL1        0.2954
     24 H          -1.2642   -2.1002   -0.5393 H       1  UNL1        0.0663
     25 H           1.3383    0.9632    1.4814 H       1  UNL1        0.0749
     26 H           1.3079    1.5614   -0.2358 H       1  UNL1        0.0749
     27 H           2.3651   -0.1691   -1.8799 H       1  UNL1        0.0622
     28 H           4.6349   -0.9894   -2.4184 H       1  UNL1        0.0618
     29 H           6.3506   -1.0993   -0.6300 H       1  UNL1        0.0618
     30 H           5.7779   -0.3264    1.6376 H       1  UNL1        0.0646
     31 H          -0.5878    1.9156    0.7043 H       1  UNL1        0.0724
     32 H          -5.2887    1.3715    0.1204 H       1  UNL1        0.2924
@<TRIPOS>UNITY_ATOM_ATTR
18 1
charge 1
20 1
charge -1
@<TRIPOS>BOND
     1     1     2    2
     2     2     3    1
     3     2     4    1
     4     3    23    1
     5     4     5   ar
     6     5     6   ar
     7     5    24    1
     8     6     7    1
     9     6    16   ar
    10     7     8    1
    11     8     9    1
    12     8    25    1
    13     8    26    1
    14     9    10   ar
    15    10    11   ar
    16    10    27    1
    17    11    12   ar
    18    11    28    1
    19    12    13   ar
    20    12    29    1
    21    13    14   ar
    22    13    30    1
    23    14    15    1
    24    14     9   ar
    25    16    17   ar
    26    16    31    1
    27    17    18    1
    28    17    21   ar
    29    18    19    2
    30    18    20    1
    31    21    22    1
    32    21     4   ar
    33    22    32    1
