@<TRIPOS>MOLECULE
*****
 59 63 0 0 0
SMALL
GASTEIGER

@<TRIPOS>ATOM
      1 O          -1.3599    1.9632    2.8270 O.2     1  UNL1       -0.2700
      2 C          -1.1213    1.1791    1.7800 C.2     1  UNL1        0.2467
      3 C          -0.0128    0.2638    1.9168 C.ar    1  UNL1        0.0372
      4 C           0.5720    0.1646    3.1999 C.ar    1  UNL1       -0.0496
      5 C           1.6430   -0.6586    3.3810 C.ar    1  UNL1       -0.0608
      6 C           2.1775   -1.4009    2.3519 C.ar    1  UNL1       -0.0582
      7 C           1.6525   -1.3437    1.0881 C.ar    1  UNL1       -0.0408
      8 C           2.1622   -2.0994   -0.0926 C.3     1  UNL1        0.0168
      9 C           2.8661   -1.2935   -1.0791 C.ar    1  UNL1        0.0693
     10 N           2.1962   -0.7969   -2.1673 N.ar    1  UNL1       -0.1753
     11 N           2.7948   -0.0241   -3.0495 N.ar    1  UNL1       -0.2427
     12 C           4.0841    0.3375   -2.9626 C.ar    1  UNL1        0.2682
     13 O           4.6361    1.0792   -3.8191 O.2     1  UNL1       -0.2661
     14 C           4.8106   -0.1205   -1.9071 C.ar    1  UNL1        0.0232
     15 C           4.1662   -0.9443   -0.9724 C.ar    1  UNL1       -0.0158
     16 C           5.0725   -1.4211    0.1104 C.3     1  UNL1       -0.0255
     17 C           5.6282   -0.1511    0.7420 C.3     1  UNL1       -0.0487
     18 C           6.5644    0.4790   -0.2405 C.3     1  UNL1       -0.0486
     19 C           6.2438    0.1963   -1.6701 C.3     1  UNL1       -0.0222
     20 C           0.5413   -0.4814    0.9243 C.ar    1  UNL1       -0.0461
     21 N          -1.9761    1.3503    0.6991 N.am    1  UNL1       -0.2945
     22 C          -2.9935    2.4155    0.8611 C.3     1  UNL1        0.0308
     23 C          -4.3365    1.6902    0.8752 C.3     1  UNL1        0.0294
     24 N          -4.4356    0.9337   -0.3825 N.pl3   1  UNL1       -0.3122
     25 C          -5.6647    0.3205   -0.6857 C.ar    1  UNL1        0.1213
     26 C          -5.9567   -0.3782   -1.8277 C.ar    1  UNL1       -0.0217
     27 C          -7.1918   -0.9658   -2.0795 C.ar    1  UNL1       -0.0571
     28 C          -8.1991   -0.8601   -1.1542 C.ar    1  UNL1       -0.0435
     29 C          -7.8997   -0.1464    0.0119 C.ar    1  UNL1        0.0297
     30 N          -6.6987    0.3987    0.2057 N.ar    1  UNL1       -0.2403
     31 C          -3.3031    0.8505   -1.2451 C.3     1  UNL1        0.0294
     32 C          -1.9866    0.6016   -0.4871 C.3     1  UNL1        0.0308
     33 H           0.1633    0.7448    4.0433 H       1  UNL1        0.0625
     34 H           2.1183   -0.7600    4.3544 H       1  UNL1        0.0618
     35 H           3.0273   -2.0535    2.5602 H       1  UNL1        0.0620
     36 H           2.7681   -2.9311    0.3274 H       1  UNL1        0.0377
     37 H           1.2862   -2.6166   -0.5845 H       1  UNL1        0.0377
     38 H           2.2505    0.3324   -3.8619 H       1  UNL1        0.1921
     39 H           4.5543   -1.9922    0.8597 H       1  UNL1        0.0314
     40 H           5.9058   -1.9999   -0.3793 H       1  UNL1        0.0314
     41 H           4.7354    0.4897    0.9430 H       1  UNL1        0.0268
     42 H           6.1442   -0.4562    1.6623 H       1  UNL1        0.0268
     43 H           6.5683    1.5857   -0.0192 H       1  UNL1        0.0269
     44 H           7.5887    0.0797   -0.0068 H       1  UNL1        0.0269
     45 H           6.9027   -0.6249   -2.0806 H       1  UNL1        0.0315
     46 H           6.5265    1.1038   -2.2677 H       1  UNL1        0.0315
     47 H           0.1806   -0.4443   -0.0735 H       1  UNL1        0.0628
     48 H          -2.8336    2.9650    1.7845 H       1  UNL1        0.0480
     49 H          -2.9556    3.0329   -0.0579 H       1  UNL1        0.0480
     50 H          -5.1144    2.4654    0.8714 H       1  UNL1        0.0480
     51 H          -4.3463    1.0047    1.7121 H       1  UNL1        0.0480
     52 H          -5.1669   -0.4733   -2.5794 H       1  UNL1        0.0652
     53 H          -7.3930   -1.5094   -2.9880 H       1  UNL1        0.0619
     54 H          -9.1849   -1.2936   -1.2881 H       1  UNL1        0.0633
     55 H          -8.7118   -0.0786    0.7239 H       1  UNL1        0.0830
     56 H          -3.3542    0.0690   -2.0194 H       1  UNL1        0.0480
     57 H          -3.1781    1.8166   -1.7765 H       1  UNL1        0.0480
     58 H          -1.9797   -0.4962   -0.2670 H       1  UNL1        0.0480
     59 H          -1.1773    0.9024   -1.2165 H       1  UNL1        0.0480
@<TRIPOS>BOND
     1     1     2    2
     2     2     3    1
     3     2    21   am
     4     3     4   ar
     5     4     5   ar
     6     4    33    1
     7     5     6   ar
     8     5    34    1
     9     6     7   ar
    10     6    35    1
    11     7     8    1
    12     7    20   ar
    13     8     9    1
    14     8    36    1
    15     8    37    1
    16     9    10   ar
    17    10    11   ar
    18    11    12   ar
    19    11    38    1
    20    12    13    2
    21    12    14   ar
    22    14    15   ar
    23    15    16    1
    24    15     9   ar
    25    16    17    1
    26    16    39    1
    27    16    40    1
    28    17    18    1
    29    17    41    1
    30    17    42    1
    31    18    19    1
    32    18    43    1
    33    18    44    1
    34    19    14    1
    35    19    45    1
    36    19    46    1
    37    20     3   ar
    38    20    47    1
    39    21    22    1
    40    22    23    1
    41    22    48    1
    42    22    49    1
    43    23    24    1
    44    23    50    1
    45    23    51    1
    46    24    25    1
    47    24    31    1
    48    25    26   ar
    49    26    27   ar
    50    26    52    1
    51    27    28   ar
    52    27    53    1
    53    28    29   ar
    54    28    54    1
    55    29    30   ar
    56    29    55    1
    57    30    25   ar
    58    31    32    1
    59    31    56    1
    60    31    57    1
    61    32    21    1
    62    32    58    1
    63    32    59    1
