@<TRIPOS>MOLECULE
*****
 36 38 0 0 0
SMALL
GASTEIGER

@<TRIPOS>ATOM
      1 O           0.1983    1.9574   -0.1388 O.2     1  UNL1       -0.2651
      2 C           0.0469    1.0576   -1.0005 C.2     1  UNL1        0.3005
      3 N           1.1656    0.8353   -1.8635 N.am    1  UNL1       -0.2298
      4 N           2.3476    1.5938   -1.6689 N.pl3   1  UNL1       -0.2639
      5 C           3.2774    1.1295   -0.6990 C.ar    1  UNL1        0.0508
      6 C           3.8447    2.0007    0.1931 C.ar    1  UNL1       -0.0390
      7 C           4.7093    1.4647    1.1258 C.ar    1  UNL1       -0.0536
      8 C           5.0013    0.1154    1.1713 C.ar    1  UNL1        0.0157
      9 C           4.4400   -0.7755    0.2796 C.ar    1  UNL1        0.2750
     10 N           4.7252   -2.1783    0.3124 N.pl3   1  UNL1        0.0797
     11 O           4.2242   -2.9843   -0.4830 O.2     1  UNL1        0.0414
     12 O           5.5908   -2.6242    1.2581 O.co2   1  UNL1       -0.5760
     13 C           3.5762   -0.2387   -0.6523 C.ar    1  UNL1        0.0379
     14 C          -1.1780    0.2802   -1.1281 C.2     1  UNL1        0.2507
     15 O          -1.2395   -0.6879   -1.9661 O.2     1  UNL1       -0.2816
     16 C          -2.3811    0.5173   -0.3457 C.ar    1  UNL1        0.0519
     17 C          -2.9068    1.7102    0.1362 C.ar    1  UNL1        0.0137
     18 N          -4.0784    1.4789    0.7604 N.ar    1  UNL1       -0.3599
     19 C          -4.3551    0.1633    0.7133 C.ar    1  UNL1        0.0472
     20 C          -5.3793   -0.6448    1.1783 C.ar    1  UNL1       -0.0378
     21 C          -5.4182   -1.9955    1.0069 C.ar    1  UNL1       -0.0598
     22 C          -4.3641   -2.5995    0.3205 C.ar    1  UNL1       -0.0611
     23 C          -3.3398   -1.7982   -0.1486 C.ar    1  UNL1       -0.0519
     24 C          -3.3153   -0.4462    0.0312 C.ar    1  UNL1        0.0106
     25 H           1.0778    0.1209   -2.6149 H       1  UNL1        0.1731
     26 H           2.5115    2.4296   -2.2053 H       1  UNL1        0.1700
     27 H           3.6475    3.0671    0.1978 H       1  UNL1        0.0636
     28 H           5.1824    2.1113    1.8691 H       1  UNL1        0.0620
     29 H           5.6841   -0.3309    1.9071 H       1  UNL1        0.0685
     30 H           3.1281   -0.9182   -1.3630 H       1  UNL1        0.0704
     31 H          -2.4447    2.6858    0.0209 H       1  UNL1        0.0814
     32 H          -4.7164    2.1636    1.2269 H       1  UNL1        0.1654
     33 H          -6.1892   -0.1400    1.7063 H       1  UNL1        0.0638
     34 H          -6.2327   -2.6093    1.3794 H       1  UNL1        0.0618
     35 H          -4.3453   -3.6602    0.1682 H       1  UNL1        0.0618
     36 H          -2.4952   -2.2509   -0.6850 H       1  UNL1        0.0624
@<TRIPOS>UNITY_ATOM_ATTR
10 1
charge 1
12 1
charge -1
@<TRIPOS>BOND
     1     1     2    2
     2     2     3   am
     3     2    14    1
     4     3     4    1
     5     3    25    1
     6     4     5    1
     7     4    26    1
     8     5     6   ar
     9     6     7   ar
    10     6    27    1
    11     7     8   ar
    12     7    28    1
    13     8     9   ar
    14     8    29    1
    15     9    10    1
    16     9    13   ar
    17    10    11    2
    18    10    12    1
    19    13     5   ar
    20    13    30    1
    21    14    15    2
    22    14    16    1
    23    16    17   ar
    24    17    18   ar
    25    17    31    1
    26    18    19   ar
    27    18    32    1
    28    19    20   ar
    29    20    21   ar
    30    20    33    1
    31    21    22   ar
    32    21    34    1
    33    22    23   ar
    34    22    35    1
    35    23    24   ar
    36    23    36    1
    37    24    16   ar
    38    24    19   ar
