@<TRIPOS>MOLECULE
*****
 37 39 0 0 0
SMALL
GASTEIGER

@<TRIPOS>ATOM
      1 O           0.0221    0.1890   -1.4375 O.2     1  UNL1       -0.2917
      2 C          -0.4695   -0.3020   -0.3890 C.2     1  UNL1        0.1678
      3 C           0.4144   -1.0302    0.5379 C.3     1  UNL1        0.0362
      4 C           1.8204   -1.0698    0.0596 C.ar    1  UNL1       -0.0322
      5 C           2.3809   -2.2000   -0.5027 C.ar    1  UNL1       -0.0576
      6 C           3.6843   -2.2495   -0.9503 C.ar    1  UNL1       -0.0609
      7 C           4.4783   -1.1483   -0.8455 C.ar    1  UNL1       -0.0540
      8 C           3.9353    0.0005   -0.2828 C.ar    1  UNL1       -0.0176
      9 C           4.7468    1.1222   -0.1770 C.ar    1  UNL1       -0.0540
     10 C           4.2594    2.3003    0.3771 C.ar    1  UNL1       -0.0612
     11 C           2.9664    2.3491    0.8209 C.ar    1  UNL1       -0.0612
     12 C           2.1713    1.2330    0.7116 C.ar    1  UNL1       -0.0538
     13 C           2.6304    0.0423    0.1626 C.ar    1  UNL1       -0.0143
     14 C          -1.8870   -0.1340   -0.1302 C.ar    1  UNL1        0.0278
     15 C          -2.4285   -0.6728    1.0199 C.ar    1  UNL1       -0.0056
     16 C          -3.7696   -0.5614    1.3477 C.ar    1  UNL1        0.1659
     17 O          -4.2855   -1.1160    2.5154 O.3     1  UNL1       -0.5031
     18 C          -4.5779    0.1329    0.4522 C.ar    1  UNL1        0.2370
     19 O          -5.9078    0.2764    0.7198 O.3     1  UNL1       -0.4989
     20 C          -4.0750    0.6872   -0.7098 C.ar    1  UNL1        0.3184
     21 N          -4.9462    1.3824   -1.5816 N.pl3   1  UNL1        0.0836
     22 O          -5.9475    2.0208   -1.1683 O.2     1  UNL1        0.0416
     23 O          -4.7634    1.4136   -2.9622 O.co2   1  UNL1       -0.5759
     24 C          -2.7147    0.5427   -0.9877 C.ar    1  UNL1        0.0301
     25 H           0.0936   -2.0765    0.7204 H       1  UNL1        0.0394
     26 H           0.3816   -0.5275    1.5365 H       1  UNL1        0.0394
     27 H           1.7940   -3.1077   -0.6111 H       1  UNL1        0.0621
     28 H           4.0966   -3.1690   -1.3934 H       1  UNL1        0.0618
     29 H           5.5047   -1.1631   -1.1895 H       1  UNL1        0.0624
     30 H           5.7617    1.0545   -0.5349 H       1  UNL1        0.0624
     31 H           4.9282    3.1405    0.4360 H       1  UNL1        0.0618
     32 H           2.6096    3.2775    1.2486 H       1  UNL1        0.0618
     33 H           1.1540    1.3016    1.0708 H       1  UNL1        0.0624
     34 H          -1.7756   -1.2026    1.6894 H       1  UNL1        0.0662
     35 H          -3.6354   -1.6057    3.1154 H       1  UNL1        0.2923
     36 H          -6.3130   -0.1090    1.5497 H       1  UNL1        0.2925
     37 H          -2.3375    0.9788   -1.8948 H       1  UNL1        0.0694
@<TRIPOS>UNITY_ATOM_ATTR
21 1
charge 1
23 1
charge -1
@<TRIPOS>BOND
     1     1     2    2
     2     2     3    1
     3     2    14    1
     4     3     4    1
     5     3    25    1
     6     3    26    1
     7     4     5   ar
     8     5     6   ar
     9     5    27    1
    10     6     7   ar
    11     6    28    1
    12     7     8   ar
    13     7    29    1
    14     8     9   ar
    15     9    10   ar
    16     9    30    1
    17    10    11   ar
    18    10    31    1
    19    11    12   ar
    20    11    32    1
    21    12    13   ar
    22    12    33    1
    23    13     4   ar
    24    13     8   ar
    25    14    15   ar
    26    15    16   ar
    27    15    34    1
    28    16    17    1
    29    16    18   ar
    30    17    35    1
    31    18    19    1
    32    18    20   ar
    33    19    36    1
    34    20    21    1
    35    20    24   ar
    36    21    22    2
    37    21    23    1
    38    24    14   ar
    39    24    37    1
