@<TRIPOS>MOLECULE
*****
 30 32 0 0 0
SMALL
GASTEIGER

@<TRIPOS>ATOM
      1 O           3.8608    2.0619    1.1757 O.2     1  UNL1       -0.2658
      2 C           2.8137    1.6977    0.5590 C.ar    1  UNL1        0.2725
      3 N           1.9239    2.5840    0.1003 N.ar    1  UNL1       -0.2425
      4 N           0.8414    2.2029   -0.5365 N.ar    1  UNL1       -0.1750
      5 C           0.5420    0.9133   -0.7764 C.ar    1  UNL1        0.0736
      6 C          -0.7064    0.5895   -1.4427 C.3     1  UNL1        0.0185
      7 C          -1.8568    0.2421   -0.6215 C.ar    1  UNL1       -0.0232
      8 C          -2.3495   -1.0306   -0.5919 C.ar    1  UNL1       -0.0568
      9 C          -3.4797   -1.3428    0.1811 C.ar    1  UNL1       -0.0614
     10 C          -4.1366   -0.3962    0.9348 C.ar    1  UNL1       -0.0604
     11 C          -3.6422    0.9006    0.9100 C.ar    1  UNL1       -0.0431
     12 C          -2.5344    1.1887    0.1477 C.ar    1  UNL1        0.0445
     13 CL         -1.8917    2.8140    0.0921 Cl      1  UNL1       -0.0832
     14 C           1.4309   -0.0160   -0.3225 C.ar    1  UNL1        0.0106
     15 C           1.2432   -1.3647   -0.5245 C.ar    1  UNL1       -0.0521
     16 C           2.1654   -2.2753   -0.0654 C.ar    1  UNL1       -0.0611
     17 C           3.3076   -1.9137    0.6074 C.ar    1  UNL1       -0.0610
     18 C           3.5167   -0.5751    0.8187 C.ar    1  UNL1       -0.0487
     19 C           2.6012    0.3520    0.3642 C.ar    1  UNL1        0.0496
     20 H           2.1191    3.6228    0.2679 H       1  UNL1        0.1921
     21 H          -1.0299    1.4829   -2.0629 H       1  UNL1        0.0378
     22 H          -0.5854   -0.2075   -2.2398 H       1  UNL1        0.0378
     23 H          -1.9214   -1.8704   -1.1607 H       1  UNL1        0.0621
     24 H          -3.8336   -2.3696    0.1731 H       1  UNL1        0.0618
     25 H          -5.0125   -0.6590    1.5278 H       1  UNL1        0.0618
     26 H          -4.1394    1.6645    1.4924 H       1  UNL1        0.0632
     27 H           0.3599   -1.6505   -1.0684 H       1  UNL1        0.0624
     28 H           1.9766   -3.3323   -0.2465 H       1  UNL1        0.0618
     29 H           4.0312   -2.6267    0.9688 H       1  UNL1        0.0618
     30 H           4.3859   -0.1830    1.3385 H       1  UNL1        0.0625
@<TRIPOS>BOND
     1     1     2    2
     2     2     3   ar
     3     3     4   ar
     4     3    20    1
     5     4     5   ar
     6     5     6    1
     7     5    14   ar
     8     6     7    1
     9     6    21    1
    10     6    22    1
    11     7     8   ar
    12     8     9   ar
    13     8    23    1
    14     9    10   ar
    15     9    24    1
    16    10    11   ar
    17    10    25    1
    18    11    12   ar
    19    11    26    1
    20    12    13    1
    21    12     7   ar
    22    14    15   ar
    23    15    16   ar
    24    15    27    1
    25    16    17   ar
    26    16    28    1
    27    17    18   ar
    28    17    29    1
    29    18    19   ar
    30    18    30    1
    31    19     2   ar
    32    19    14   ar
