@<TRIPOS>MOLECULE
*****
 47 50 0 0 0
SMALL
GASTEIGER

@<TRIPOS>ATOM
      1 N           5.6296    2.9076   -0.3109 N.pl3   1  UNL1       -0.3431
      2 C           4.7976    1.9689    0.3600 C.ar    1  UNL1        0.1167
      3 C           4.3334    0.8076   -0.2544 C.ar    1  UNL1       -0.0143
      4 C           3.5279   -0.0931    0.4073 C.ar    1  UNL1       -0.0100
      5 C           3.0651   -1.2941   -0.2476 C.ar    1  UNL1        0.0230
      6 C           3.9170   -2.1451   -0.9628 C.ar    1  UNL1        0.0303
      7 N           3.1269   -3.1316   -1.4094 N.ar    1  UNL1       -0.2839
      8 N           1.8832   -2.9372   -1.0205 N.ar    1  UNL1       -0.1779
      9 C           1.8065   -1.8096   -0.2993 C.ar    1  UNL1        0.0751
     10 C           0.5914   -1.2677    0.2968 C.3     1  UNL1        0.0208
     11 C          -0.6439   -2.0999   -0.0907 C.3     1  UNL1       -0.0274
     12 C          -1.7450   -1.1117    0.3270 C.3     1  UNL1        0.0153
     13 N          -1.2382    0.1450   -0.1611 N.am    1  UNL1       -0.3006
     14 C          -2.0228    1.2842   -0.4364 C.2     1  UNL1        0.2187
     15 O          -1.4124    2.3274   -0.8664 O.2     1  UNL1       -0.2753
     16 C          -3.4748    1.4017   -0.2818 C.3     1  UNL1        0.0358
     17 C          -3.9451    1.1269    1.1192 C.3     1  UNL1       -0.0419
     18 C          -4.9376    0.0190    1.0809 C.3     1  UNL1       -0.0523
     19 C          -5.3700   -0.0553   -0.3456 C.3     1  UNL1       -0.0523
     20 C          -4.2855    0.5310   -1.1947 C.3     1  UNL1       -0.0419
     21 C           0.1960    0.0667   -0.3260 C.3     1  UNL1        0.0230
     22 C           3.2031    0.2102    1.7080 C.ar    1  UNL1       -0.0356
     23 C           3.6683    1.3736    2.3227 C.ar    1  UNL1        0.0302
     24 N           4.4512    2.2280    1.6466 N.ar    1  UNL1       -0.2407
     25 H           6.3080    2.5253   -1.0077 H       1  UNL1        0.1437
     26 H           5.5575    3.9129   -0.1107 H       1  UNL1        0.1437
     27 H           4.6298    0.6448   -1.2636 H       1  UNL1        0.0658
     28 H           4.9768   -1.9813   -1.0885 H       1  UNL1        0.0830
     29 H           3.5141   -3.9276   -1.9902 H       1  UNL1        0.1882
     30 H           0.5659   -1.2220    1.3861 H       1  UNL1        0.0380
     31 H          -0.6818   -2.1843   -1.1759 H       1  UNL1        0.0287
     32 H          -0.6943   -3.0281    0.4724 H       1  UNL1        0.0287
     33 H          -1.7108   -1.0528    1.4453 H       1  UNL1        0.0465
     34 H          -2.7151   -1.4176   -0.0501 H       1  UNL1        0.0465
     35 H          -3.7470    2.4837   -0.4783 H       1  UNL1        0.0394
     36 H          -3.0885    0.8718    1.7948 H       1  UNL1        0.0272
     37 H          -4.4575    2.0254    1.5706 H       1  UNL1        0.0272
     38 H          -4.5303   -0.9495    1.4604 H       1  UNL1        0.0265
     39 H          -5.8012    0.2364    1.7737 H       1  UNL1        0.0265
     40 H          -6.3419    0.5007   -0.4265 H       1  UNL1        0.0265
     41 H          -5.6132   -1.1049   -0.6121 H       1  UNL1        0.0265
     42 H          -4.8190    1.1958   -1.9399 H       1  UNL1        0.0272
     43 H          -3.7225   -0.1730   -1.8075 H       1  UNL1        0.0272
     44 H           0.7195    0.8453    0.3035 H       1  UNL1        0.0471
     45 H           0.5268    0.1546   -1.3645 H       1  UNL1        0.0471
     46 H           2.5874   -0.4215    2.3158 H       1  UNL1        0.0639
     47 H           3.4156    1.6136    3.3404 H       1  UNL1        0.0830
@<TRIPOS>BOND
     1     1     2    1
     2     1    25    1
     3     1    26    1
     4     2     3   ar
     5     3     4   ar
     6     3    27    1
     7     4     5    1
     8     4    22   ar
     9     5     6   ar
    10     6     7   ar
    11     6    28    1
    12     7     8   ar
    13     7    29    1
    14     8     9   ar
    15     9    10    1
    16     9     5   ar
    17    10    11    1
    18    10    30    1
    19    11    12    1
    20    11    31    1
    21    11    32    1
    22    12    13    1
    23    12    33    1
    24    12    34    1
    25    13    14   am
    26    13    21    1
    27    14    15    2
    28    14    16    1
    29    16    17    1
    30    16    35    1
    31    17    18    1
    32    17    36    1
    33    17    37    1
    34    18    19    1
    35    18    38    1
    36    18    39    1
    37    19    20    1
    38    19    40    1
    39    19    41    1
    40    20    16    1
    41    20    42    1
    42    20    43    1
    43    21    10    1
    44    21    44    1
    45    21    45    1
    46    22    23   ar
    47    22    46    1
    48    23    24   ar
    49    23    47    1
    50    24     2   ar
