@<TRIPOS>MOLECULE
*****
 41 43 0 0 0
SMALL
GASTEIGER

@<TRIPOS>ATOM
      1 N           5.0894   -2.8034    0.2736 N.am    1  UNL1       -0.3253
      2 C           4.0184   -2.1329   -0.3592 C.2     1  UNL1        0.2415
      3 O           3.3630   -2.7510   -1.2338 O.2     1  UNL1       -0.2704
      4 C           3.6731   -0.7575   -0.0138 C.ar    1  UNL1        0.0368
      5 C           4.3994   -0.0876    0.9481 C.ar    1  UNL1       -0.0496
      6 C           4.0507    1.2102    1.2536 C.ar    1  UNL1       -0.0607
      7 C           2.9817    1.8292    0.5982 C.ar    1  UNL1       -0.0568
      8 C           2.2450    1.1779   -0.3640 C.ar    1  UNL1       -0.0253
      9 C           1.1136    1.7487   -1.0956 C.3     1  UNL1        0.0703
     10 N          -0.1713    1.5246   -0.4883 N.ar    1  UNL1       -0.2241
     11 N          -0.9308    0.4971   -0.7253 N.ar    1  UNL1       -0.1679
     12 C          -2.1362    0.2496   -0.1787 C.ar    1  UNL1        0.0921
     13 C          -2.8337   -0.9451   -0.5639 C.ar    1  UNL1        0.0021
     14 C          -4.0698   -1.2649   -0.0473 C.ar    1  UNL1       -0.0525
     15 C          -4.7177   -2.4270   -0.4400 C.ar    1  UNL1       -0.0611
     16 C          -4.1415   -3.2753   -1.3462 C.ar    1  UNL1       -0.0617
     17 C          -2.9084   -2.9738   -1.8731 C.ar    1  UNL1       -0.0611
     18 C          -2.2759   -1.8308   -1.4841 C.ar    1  UNL1       -0.0525
     19 C          -2.6113    1.1660    0.7131 C.ar    1  UNL1       -0.0171
     20 C          -1.8354    2.2799    0.9980 C.ar    1  UNL1        0.1225
     21 C          -2.3568    3.2648    1.9629 C.3     1  UNL1        0.4225
     22 F          -1.5043    3.4027    3.0593 F       1  UNL1       -0.1657
     23 F          -3.6144    2.9093    2.4040 F       1  UNL1       -0.1657
     24 F          -2.4912    4.4708    1.2972 F       1  UNL1       -0.1657
     25 C          -0.6184    2.4429    0.3881 C.ar    1  UNL1        0.2793
     26 O           0.0366    3.4780    0.6916 O.2     1  UNL1       -0.2656
     27 C           2.6247   -0.1287   -0.6462 C.ar    1  UNL1       -0.0447
     28 H           4.9073   -3.7018    0.7499 H       1  UNL1        0.1453
     29 H           6.0329   -2.3837    0.2484 H       1  UNL1        0.1453
     30 H           5.2274   -0.5883    1.4457 H       1  UNL1        0.0625
     31 H           4.6066    1.7621    2.0084 H       1  UNL1        0.0618
     32 H           2.7019    2.8501    0.8325 H       1  UNL1        0.0621
     33 H           1.1434    1.3111   -2.1365 H       1  UNL1        0.0560
     34 H           1.2439    2.8446   -1.2079 H       1  UNL1        0.0560
     35 H          -4.5733   -0.6350    0.6703 H       1  UNL1        0.0624
     36 H          -5.6840   -2.6425   -0.0131 H       1  UNL1        0.0618
     37 H          -4.6683   -4.1956   -1.6490 H       1  UNL1        0.0618
     38 H          -2.4933   -3.6743   -2.5856 H       1  UNL1        0.0618
     39 H          -1.3164   -1.5794   -1.8830 H       1  UNL1        0.0624
     40 H          -3.5732    1.0292    1.1897 H       1  UNL1        0.0647
     41 H           2.0666   -0.6702   -1.3981 H       1  UNL1        0.0628
@<TRIPOS>BOND
     1     1     2   am
     2     1    28    1
     3     1    29    1
     4     2     3    2
     5     2     4    1
     6     4     5   ar
     7     5     6   ar
     8     5    30    1
     9     6     7   ar
    10     6    31    1
    11     7     8   ar
    12     7    32    1
    13     8     9    1
    14     8    27   ar
    15     9    10    1
    16     9    33    1
    17     9    34    1
    18    10    11   ar
    19    11    12   ar
    20    12    13    1
    21    12    19   ar
    22    13    14   ar
    23    14    15   ar
    24    14    35    1
    25    15    16   ar
    26    15    36    1
    27    16    17   ar
    28    16    37    1
    29    17    18   ar
    30    17    38    1
    31    18    13   ar
    32    18    39    1
    33    19    20   ar
    34    19    40    1
    35    20    21    1
    36    20    25   ar
    37    21    22    1
    38    21    23    1
    39    21    24    1
    40    25    26    2
    41    25    10   ar
    42    27     4   ar
    43    27    41    1
