@<TRIPOS>MOLECULE
*****
 49 52 0 0 0
SMALL
GASTEIGER

@<TRIPOS>ATOM
      1 O           4.3425    1.2164   -0.6589 O.2     1  UNL1       -0.2687
      2 C           4.7869    0.0316   -0.6586 C.2     1  UNL1        0.2601
      3 N           3.8836   -0.9847   -0.3248 N.am    1  UNL1       -0.2301
      4 N           2.5331   -0.7563    0.0076 N.am    1  UNL1       -0.2301
      5 C           2.1449    0.1582    1.0146 C.2     1  UNL1        0.2602
      6 O           3.1026    0.7672    1.6024 O.2     1  UNL1       -0.2687
      7 C           0.7995    0.4582    1.4294 C.ar    1  UNL1        0.0400
      8 C           0.5929    1.5971    2.2108 C.ar    1  UNL1       -0.0495
      9 C          -0.6616    1.9109    2.6416 C.ar    1  UNL1       -0.0592
     10 C          -1.7467    1.1171    2.3186 C.ar    1  UNL1       -0.0350
     11 C          -1.5881   -0.0296    1.5410 C.ar    1  UNL1        0.1094
     12 S          -2.9718   -0.9978    1.2066 S.O2    1  UNL1        0.0747
     13 O          -3.8628   -1.1390    2.4387 O.2     1  UNL1       -0.1498
     14 O          -2.4653   -2.4195    0.9767 O.2     1  UNL1       -0.1498
     15 N          -3.9261   -0.4751   -0.1046 N.pl3   1  UNL1       -0.2024
     16 C          -3.5041   -0.3623   -1.4799 C.3     1  UNL1        0.0390
     17 C          -4.7225   -0.2215   -2.3296 C.3     1  UNL1       -0.0083
     18 C          -5.7913    0.0763   -1.3300 C.ar    1  UNL1       -0.0232
     19 C          -7.0968    0.4529   -1.5736 C.ar    1  UNL1       -0.0567
     20 C          -7.9715    0.6943   -0.5395 C.ar    1  UNL1       -0.0614
     21 C          -7.4888    0.5443    0.7431 C.ar    1  UNL1       -0.0599
     22 C          -6.1839    0.1677    0.9885 C.ar    1  UNL1       -0.0388
     23 C          -5.2983   -0.0769   -0.0520 C.ar    1  UNL1        0.0545
     24 C          -0.3092   -0.3024    1.1314 C.ar    1  UNL1       -0.0229
     25 C           6.1997   -0.2013   -1.0022 C.ar    1  UNL1        0.0382
     26 C           6.9993    0.8941   -1.3275 C.ar    1  UNL1       -0.0496
     27 C           8.3294    0.7352   -1.6549 C.ar    1  UNL1       -0.0610
     28 C           8.9209   -0.5336   -1.6717 C.ar    1  UNL1       -0.0617
     29 C           8.1292   -1.6043   -1.3513 C.ar    1  UNL1       -0.0610
     30 C           6.7858   -1.4261   -1.0222 C.ar    1  UNL1       -0.0496
     31 H           4.2040   -1.9758   -0.3151 H       1  UNL1        0.1731
     32 H           1.7658   -1.2665   -0.4904 H       1  UNL1        0.1731
     33 H           1.4486    2.2404    2.4774 H       1  UNL1        0.0625
     34 H          -0.8114    2.8077    3.2555 H       1  UNL1        0.0618
     35 H          -2.7343    1.3848    2.6691 H       1  UNL1        0.0637
     36 H          -2.7615    0.4500   -1.5925 H       1  UNL1        0.0485
     37 H          -2.9807   -1.3008   -1.8190 H       1  UNL1        0.0485
     38 H          -4.9721   -1.1914   -2.8549 H       1  UNL1        0.0330
     39 H          -4.6588    0.5581   -3.1148 H       1  UNL1        0.0330
     40 H          -7.4797    0.5715   -2.5760 H       1  UNL1        0.0621
     41 H          -9.0142    0.9947   -0.7250 H       1  UNL1        0.0618
     42 H          -8.1733    0.7340    1.5599 H       1  UNL1        0.0618
     43 H          -5.7991    0.0494    1.9951 H       1  UNL1        0.0637
     44 H          -0.1693   -1.1934    0.5223 H       1  UNL1        0.0645
     45 H           6.5591    1.8985   -1.3219 H       1  UNL1        0.0625
     46 H           8.9834    1.5555   -1.9128 H       1  UNL1        0.0618
     47 H           9.9630   -0.6878   -1.9244 H       1  UNL1        0.0618
     48 H           8.4898   -2.6379   -1.3330 H       1  UNL1        0.0618
     49 H           6.1791   -2.2824   -0.7716 H       1  UNL1        0.0625
@<TRIPOS>BOND
     1     1     2    2
     2     2     3   am
     3     2    25    1
     4     3     4    1
     5     3    31    1
     6     4     5   am
     7     4    32    1
     8     5     6    2
     9     5     7    1
    10     7     8   ar
    11     8     9   ar
    12     8    33    1
    13     9    10   ar
    14     9    34    1
    15    10    11   ar
    16    10    35    1
    17    11    12    1
    18    11    24   ar
    19    12    13    2
    20    12    14    2
    21    12    15    1
    22    15    16    1
    23    16    17    1
    24    16    36    1
    25    16    37    1
    26    17    18    1
    27    17    38    1
    28    17    39    1
    29    18    19   ar
    30    19    20   ar
    31    19    40    1
    32    20    21   ar
    33    20    41    1
    34    21    22   ar
    35    21    42    1
    36    22    23   ar
    37    22    43    1
    38    23    15    1
    39    23    18   ar
    40    24     7   ar
    41    24    44    1
    42    25    26   ar
    43    26    27   ar
    44    26    45    1
    45    27    28   ar
    46    27    46    1
    47    28    29   ar
    48    28    47    1
    49    29    30   ar
    50    29    48    1
    51    30    25   ar
    52    30    49    1
