@<TRIPOS>MOLECULE
*****
 50 53 0 0 0
SMALL
GASTEIGER

@<TRIPOS>ATOM
      1 O           3.7098   -0.1843   -0.9185 O.2     1  UNL1       -0.2751
      2 C           3.4174   -0.0338    0.2911 C.2     1  UNL1        0.2226
      3 C           4.4274    0.5798    1.2350 C.3     1  UNL1        0.0495
      4 C           5.6680    0.9231    0.5256 C.ar    1  UNL1       -0.0386
      5 C           6.7280    0.0493    0.4287 C.ar    1  UNL1       -0.0581
      6 C           7.8928    0.3629   -0.2377 C.ar    1  UNL1       -0.0615
      7 C           8.0470    1.5897   -0.8468 C.ar    1  UNL1       -0.0617
      8 C           6.9959    2.4781   -0.7604 C.ar    1  UNL1       -0.0615
      9 C           5.8315    2.1625   -0.0930 C.ar    1  UNL1       -0.0581
     10 N           2.1622   -0.4319    0.7630 N.am    1  UNL1       -0.2701
     11 C           1.1107   -1.0132    0.0199 C.ar    1  UNL1        0.1252
     12 C           1.0978   -1.3103   -1.3106 C.ar    1  UNL1       -0.0215
     13 C           0.0171   -1.8765   -1.9634 C.ar    1  UNL1       -0.0568
     14 C          -1.1384   -2.1684   -1.2329 C.ar    1  UNL1       -0.0399
     15 C          -1.1106   -1.8653    0.0970 C.ar    1  UNL1        0.0492
     16 C          -2.2999   -2.1256    0.9422 C.3     1  UNL1        0.0340
     17 C          -2.9907   -0.8489    1.2364 C.ar    1  UNL1        0.0708
     18 N          -2.7612   -0.2051    2.4235 N.ar    1  UNL1       -0.1753
     19 N          -3.3279    0.9388    2.6716 N.ar    1  UNL1       -0.2427
     20 C          -4.1559    1.5678    1.8207 C.ar    1  UNL1        0.2682
     21 O          -4.6929    2.6755    2.0828 O.2     1  UNL1       -0.2661
     22 C          -4.4241    0.9580    0.6006 C.ar    1  UNL1        0.0232
     23 C          -3.8225   -0.2525    0.3459 C.ar    1  UNL1       -0.0157
     24 C          -4.1828   -0.8848   -0.9706 C.3     1  UNL1       -0.0255
     25 C          -5.6760   -0.7796   -1.1728 C.3     1  UNL1       -0.0487
     26 C          -6.2499    0.5706   -0.9497 C.3     1  UNL1       -0.0486
     27 C          -5.2938    1.5695   -0.4059 C.3     1  UNL1       -0.0222
     28 N          -0.0378   -1.3157    0.6896 N.ar    1  UNL1       -0.2364
     29 H           3.9630    1.4523    1.7023 H       1  UNL1        0.0407
     30 H           4.5832   -0.1879    2.0270 H       1  UNL1        0.0407
     31 H           6.6116   -0.9225    0.9065 H       1  UNL1        0.0620
     32 H           8.7371   -0.3299   -0.3153 H       1  UNL1        0.0618
     33 H           8.9704    1.8399   -1.3767 H       1  UNL1        0.0618
     34 H           7.1017    3.4426   -1.2342 H       1  UNL1        0.0618
     35 H           4.9860    2.8416   -0.0073 H       1  UNL1        0.0620
     36 H           2.0196   -0.2571    1.8140 H       1  UNL1        0.1562
     37 H           1.9704   -1.0990   -1.9019 H       1  UNL1        0.0652
     38 H           0.0588   -2.0933   -3.0230 H       1  UNL1        0.0619
     39 H          -1.9705   -2.6191   -1.7655 H       1  UNL1        0.0636
     40 H          -1.8994   -2.5046    1.9349 H       1  UNL1        0.0392
     41 H          -2.9493   -2.9280    0.5682 H       1  UNL1        0.0392
     42 H          -3.1594    1.4474    3.5860 H       1  UNL1        0.1921
     43 H          -3.9910   -1.9799   -0.8558 H       1  UNL1        0.0314
     44 H          -3.6171   -0.4108   -1.7686 H       1  UNL1        0.0314
     45 H          -5.8611   -1.1090   -2.2345 H       1  UNL1        0.0268
     46 H          -6.1585   -1.5539   -0.5182 H       1  UNL1        0.0268
     47 H          -6.6564    0.9850   -1.9134 H       1  UNL1        0.0269
     48 H          -7.1038    0.4795   -0.2193 H       1  UNL1        0.0269
     49 H          -4.6827    1.9807   -1.2360 H       1  UNL1        0.0315
     50 H          -5.8939    2.3963    0.0585 H       1  UNL1        0.0315
@<TRIPOS>BOND
     1     1     2    2
     2     2     3    1
     3     2    10   am
     4     3     4    1
     5     3    29    1
     6     3    30    1
     7     4     5   ar
     8     5     6   ar
     9     5    31    1
    10     6     7   ar
    11     6    32    1
    12     7     8   ar
    13     7    33    1
    14     8     9   ar
    15     8    34    1
    16     9     4   ar
    17     9    35    1
    18    10    11    1
    19    10    36    1
    20    11    12   ar
    21    12    13   ar
    22    12    37    1
    23    13    14   ar
    24    13    38    1
    25    14    15   ar
    26    14    39    1
    27    15    16    1
    28    15    28   ar
    29    16    17    1
    30    16    40    1
    31    16    41    1
    32    17    18   ar
    33    18    19   ar
    34    19    20   ar
    35    19    42    1
    36    20    21    2
    37    20    22   ar
    38    22    23   ar
    39    23    24    1
    40    23    17   ar
    41    24    25    1
    42    24    43    1
    43    24    44    1
    44    25    26    1
    45    25    45    1
    46    25    46    1
    47    26    27    1
    48    26    47    1
    49    26    48    1
    50    27    22    1
    51    27    49    1
    52    27    50    1
    53    28    11   ar
