@<TRIPOS>MOLECULE
*****
 37 39 0 0 0
SMALL
GASTEIGER

@<TRIPOS>ATOM
      1 O           1.0629    1.7304   -0.8150 O.2     1  UNL1       -0.2751
      2 C           0.4102    1.3002    0.1630 C.2     1  UNL1        0.2232
      3 C          -0.8729    1.8950    0.6014 C.3     1  UNL1        0.0688
      4 C          -2.0682    1.5123   -0.1348 C.ar    1  UNL1        0.0780
      5 N          -2.4550    2.1610   -1.2527 N.ar    1  UNL1       -0.1748
      6 N          -3.4945    1.8233   -1.9876 N.ar    1  UNL1       -0.2425
      7 C          -4.2668    0.7793   -1.6663 C.ar    1  UNL1        0.2725
      8 O          -5.2448    0.4966   -2.4071 O.2     1  UNL1       -0.2658
      9 C          -3.9275    0.0724   -0.5318 C.ar    1  UNL1        0.0496
     10 C          -4.7240   -1.0091   -0.1375 C.ar    1  UNL1       -0.0487
     11 C          -4.4157   -1.7131    1.0157 C.ar    1  UNL1       -0.0610
     12 C          -3.3439   -1.3735    1.7854 C.ar    1  UNL1       -0.0611
     13 C          -2.5581   -0.2811    1.3664 C.ar    1  UNL1       -0.0521
     14 C          -2.8279    0.4352    0.2373 C.ar    1  UNL1        0.0108
     15 N           0.9392    0.1994    0.8634 N.am    1  UNL1       -0.2809
     16 C           2.1988   -0.4064    0.5636 C.ar    1  UNL1        0.0991
     17 C           3.2179    0.2724   -0.0498 C.ar    1  UNL1       -0.0221
     18 C           4.4854   -0.2812   -0.2008 C.ar    1  UNL1        0.0727
     19 C           5.6140    0.5123   -0.8187 C.3     1  UNL1        0.4188
     20 F           5.9831    1.4805    0.1655 F       1  UNL1       -0.1658
     21 F           6.6610   -0.3191   -1.0525 F       1  UNL1       -0.1658
     22 F           5.1147    1.1730   -1.9029 F       1  UNL1       -0.1658
     23 C           4.7013   -1.5413    0.2808 C.ar    1  UNL1        0.0167
     24 N           3.6884   -2.2230    0.8922 N.ar    1  UNL1       -0.3270
     25 C           2.4593   -1.6822    1.0379 C.ar    1  UNL1        0.2701
     26 O           1.5240   -2.3455    1.6162 O.2     1  UNL1       -0.2659
     27 H          -0.7704    3.0330    0.4882 H       1  UNL1        0.0423
     28 H          -1.0226    1.7765    1.7312 H       1  UNL1        0.0423
     29 H          -3.7108    2.4072   -2.8610 H       1  UNL1        0.1921
     30 H          -5.5701   -1.2645   -0.7698 H       1  UNL1        0.0625
     31 H          -5.0854   -2.5523    1.2843 H       1  UNL1        0.0618
     32 H          -3.0973   -1.9316    2.6933 H       1  UNL1        0.0618
     33 H          -1.7506   -0.0265    2.0085 H       1  UNL1        0.0624
     34 H           0.3923   -0.2367    1.6733 H       1  UNL1        0.1550
     35 H           3.1315    1.2781   -0.4491 H       1  UNL1        0.0644
     36 H           5.6809   -1.9976    0.1742 H       1  UNL1        0.0813
     37 H           3.9415   -3.1530    1.2316 H       1  UNL1        0.1684
@<TRIPOS>BOND
     1     1     2    2
     2     2     3    1
     3     2    15   am
     4     3     4    1
     5     3    27    1
     6     3    28    1
     7     4     5   ar
     8     5     6   ar
     9     6     7   ar
    10     6    29    1
    11     7     8    2
    12     7     9   ar
    13     9    10   ar
    14    10    11   ar
    15    10    30    1
    16    11    12   ar
    17    11    31    1
    18    12    13   ar
    19    12    32    1
    20    13    14   ar
    21    13    33    1
    22    14     4   ar
    23    14     9   ar
    24    15    16    1
    25    15    34    1
    26    16    17   ar
    27    17    18   ar
    28    17    35    1
    29    18    19    1
    30    18    23   ar
    31    19    20    1
    32    19    21    1
    33    19    22    1
    34    23    24   ar
    35    23    36    1
    36    24    25   ar
    37    24    37    1
    38    25    26    2
    39    25    16   ar
