@<TRIPOS>MOLECULE
*****
 55 59 0 0 0
SMALL
GASTEIGER

@<TRIPOS>ATOM
      1 O           1.4800   -3.1271   -1.9801 O.2     1  UNL1       -0.2699
      2 C           1.0344   -2.2581   -1.1629 C.2     1  UNL1        0.2495
      3 C          -0.2898   -2.5068   -0.6383 C.ar    1  UNL1        0.0723
      4 C          -1.4526   -2.0533   -1.2326 C.ar    1  UNL1       -0.0433
      5 C          -2.6998   -2.2999   -0.7200 C.ar    1  UNL1       -0.0406
      6 C          -3.9822   -1.8218   -1.3112 C.3     1  UNL1        0.0171
      7 C          -4.6304   -0.7510   -0.5102 C.ar    1  UNL1        0.0736
      8 N          -5.6190   -1.1001    0.3803 N.ar    1  UNL1       -0.1750
      9 N          -6.2158   -0.2259    1.1556 N.ar    1  UNL1       -0.2425
     10 C          -5.9195    1.0824    1.1520 C.ar    1  UNL1        0.2725
     11 O          -6.4818    1.9235    1.8874 O.2     1  UNL1       -0.2658
     12 C          -4.9237    1.5185    0.2717 C.ar    1  UNL1        0.0496
     13 C          -4.5810    2.8475    0.2106 C.ar    1  UNL1       -0.0487
     14 C          -3.6105    3.2802   -0.6636 C.ar    1  UNL1       -0.0610
     15 C          -3.0003    2.3420   -1.4683 C.ar    1  UNL1       -0.0611
     16 C          -3.3111    1.0036   -1.4406 C.ar    1  UNL1       -0.0521
     17 C          -4.2981    0.5864   -0.5448 C.ar    1  UNL1        0.0106
     18 C          -2.8265   -3.0465    0.4628 C.ar    1  UNL1       -0.0555
     19 C          -1.6833   -3.5058    1.0677 C.ar    1  UNL1       -0.0254
     20 C          -0.4343   -3.2365    0.5202 C.ar    1  UNL1        0.1355
     21 F           0.6403   -3.7151    1.1625 F       1  UNL1       -0.2047
     22 N           1.8386   -1.1606   -0.8450 N.am    1  UNL1       -0.2945
     23 C           1.3928   -0.1374    0.0755 C.3     1  UNL1        0.0308
     24 C           2.4156    0.2016    1.1366 C.3     1  UNL1        0.0305
     25 N           3.7284    0.2869    0.5174 N.am    1  UNL1       -0.2983
     26 C           4.5023    1.4443    0.7239 C.2     1  UNL1        0.2187
     27 O           4.0460    2.3951    1.4489 O.2     1  UNL1       -0.2753
     28 C           5.8357    1.6528    0.1538 C.3     1  UNL1        0.0358
     29 C           6.8387    2.4949    0.8725 C.3     1  UNL1       -0.0412
     30 C           6.1230    3.0575   -0.2863 C.3     1  UNL1       -0.0412
     31 C           4.1329   -0.8515   -0.2734 C.3     1  UNL1        0.0305
     32 C           3.1510   -1.0284   -1.4402 C.3     1  UNL1        0.0308
     33 H          -1.3583   -1.4859   -2.1545 H       1  UNL1        0.0629
     34 H          -3.8397   -1.4541   -2.3543 H       1  UNL1        0.0377
     35 H          -4.7290   -2.6715   -1.3525 H       1  UNL1        0.0377
     36 H          -6.9787   -0.5068    1.8401 H       1  UNL1        0.1921
     37 H          -5.1093    3.5400    0.8817 H       1  UNL1        0.0625
     38 H          -3.3636    4.3407   -0.6858 H       1  UNL1        0.0618
     39 H          -2.2419    2.6682   -2.1545 H       1  UNL1        0.0618
     40 H          -2.8490    0.2801   -2.0731 H       1  UNL1        0.0624
     41 H          -3.8121   -3.2518    0.8835 H       1  UNL1        0.0621
     42 H          -1.7461   -4.0885    1.9871 H       1  UNL1        0.0646
     43 H           0.4693   -0.4517    0.6249 H       1  UNL1        0.0480
     44 H           1.2097    0.8100   -0.5008 H       1  UNL1        0.0480
     45 H           2.1521    1.1832    1.5379 H       1  UNL1        0.0480
     46 H           2.3700   -0.5834    1.9151 H       1  UNL1        0.0480
     47 H           6.2479    0.8485   -0.4748 H       1  UNL1        0.0394
     48 H           6.6008    2.8762    1.8928 H       1  UNL1        0.0273
     49 H           7.9031    2.2315    0.7442 H       1  UNL1        0.0273
     50 H           6.5765    3.1720   -1.2840 H       1  UNL1        0.0273
     51 H           5.4033    3.8764   -0.0443 H       1  UNL1        0.0273
     52 H           5.1508   -0.7924   -0.6560 H       1  UNL1        0.0480
     53 H           4.0268   -1.7887    0.3471 H       1  UNL1        0.0480
     54 H           3.4696   -1.9221   -1.9937 H       1  UNL1        0.0480
     55 H           3.2480   -0.1215   -2.0524 H       1  UNL1        0.0480
@<TRIPOS>BOND
     1     1     2    2
     2     2     3    1
     3     2    22   am
     4     3     4   ar
     5     4     5   ar
     6     4    33    1
     7     5     6    1
     8     5    18   ar
     9     6     7    1
    10     6    34    1
    11     6    35    1
    12     7     8   ar
    13     8     9   ar
    14     9    10   ar
    15     9    36    1
    16    10    11    2
    17    10    12   ar
    18    12    13   ar
    19    13    14   ar
    20    13    37    1
    21    14    15   ar
    22    14    38    1
    23    15    16   ar
    24    15    39    1
    25    16    17   ar
    26    16    40    1
    27    17     7   ar
    28    17    12   ar
    29    18    19   ar
    30    18    41    1
    31    19    20   ar
    32    19    42    1
    33    20    21    1
    34    20     3   ar
    35    22    23    1
    36    23    24    1
    37    23    43    1
    38    23    44    1
    39    24    25    1
    40    24    45    1
    41    24    46    1
    42    25    26   am
    43    25    31    1
    44    26    27    2
    45    26    28    1
    46    28    29    1
    47    28    47    1
    48    29    30    1
    49    29    48    1
    50    29    49    1
    51    30    28    1
    52    30    50    1
    53    30    51    1
    54    31    32    1
    55    31    52    1
    56    31    53    1
    57    32    22    1
    58    32    54    1
    59    32    55    1
