@<TRIPOS>MOLECULE
*****
 33 35 0 0 0
SMALL
GASTEIGER

@<TRIPOS>ATOM
      1 O          -2.0375   -2.1495   -0.0519 O.2     1  UNL1       -0.2884
      2 C          -2.3573   -0.9497   -0.0322 C.2     1  UNL1        0.2004
      3 C          -1.2809    0.0779   -0.0134 C.3     1  UNL1        0.1551
      4 O           0.0088   -0.5520   -0.0223 O.3     1  UNL1       -0.4520
      5 C           1.1770    0.1540   -0.0090 C.2     1  UNL1        0.3581
      6 O           1.1545    1.4009    0.0118 O.2     1  UNL1       -0.2432
      7 C           2.5042   -0.5092   -0.0183 C.ar    1  UNL1        0.1504
      8 N           2.7166   -1.8363   -0.0401 N.ar    1  UNL1       -0.2698
      9 N           3.9931   -2.0423   -0.0419 N.ar    1  UNL1       -0.1731
     10 C           4.6752   -0.8860   -0.0219 C.ar    1  UNL1        0.0933
     11 C           6.0221   -0.5781   -0.0151 C.ar    1  UNL1       -0.0340
     12 C           6.3767    0.7485    0.0074 C.ar    1  UNL1       -0.0597
     13 C           5.4337    1.7610    0.0230 C.ar    1  UNL1       -0.0610
     14 C           4.0833    1.4600    0.0164 C.ar    1  UNL1       -0.0503
     15 C           3.7285    0.1067   -0.0065 C.ar    1  UNL1        0.0338
     16 C          -3.7338   -0.4798   -0.0263 C.ar    1  UNL1        0.0237
     17 C          -4.0633    0.8584   -0.0042 C.ar    1  UNL1       -0.0483
     18 C          -5.3633    1.2998    0.0013 C.ar    1  UNL1       -0.0229
     19 C          -6.4065    0.4129   -0.0152 C.ar    1  UNL1        0.1584
     20 F          -7.6821    0.8298   -0.0101 F       1  UNL1       -0.2025
     21 C          -6.1073   -0.9315   -0.0375 C.ar    1  UNL1        0.1591
     22 F          -7.1266   -1.8105   -0.0538 F       1  UNL1       -0.2025
     23 C          -4.7794   -1.3758   -0.0430 C.ar    1  UNL1       -0.0130
     24 H          -1.3276    0.6992   -0.9315 H       1  UNL1        0.0782
     25 H          -1.3687    0.7571    0.8506 H       1  UNL1        0.0782
     26 H           1.9062   -2.5234   -0.0526 H       1  UNL1        0.1892
     27 H           6.7322   -1.3917   -0.0277 H       1  UNL1        0.0639
     28 H           7.4472    0.9657    0.0123 H       1  UNL1        0.0618
     29 H           5.7388    2.8090    0.0408 H       1  UNL1        0.0618
     30 H           3.3163    2.2011    0.0277 H       1  UNL1        0.0625
     31 H          -3.2276    1.5606    0.0088 H       1  UNL1        0.0625
     32 H          -5.5657    2.3498    0.0187 H       1  UNL1        0.0647
     33 H          -4.5868   -2.4363   -0.0606 H       1  UNL1        0.0654
@<TRIPOS>BOND
     1     1     2    2
     2     2     3    1
     3     2    16    1
     4     3     4    1
     5     3    24    1
     6     3    25    1
     7     4     5    1
     8     5     6    2
     9     5     7    1
    10     7     8   ar
    11     8     9   ar
    12     8    26    1
    13     9    10   ar
    14    10    11   ar
    15    11    12   ar
    16    11    27    1
    17    12    13   ar
    18    12    28    1
    19    13    14   ar
    20    13    29    1
    21    14    15   ar
    22    14    30    1
    23    15     7   ar
    24    15    10   ar
    25    16    17   ar
    26    17    18   ar
    27    17    31    1
    28    18    19   ar
    29    18    32    1
    30    19    20    1
    31    19    21   ar
    32    21    22    1
    33    21    23   ar
    34    23    16   ar
    35    23    33    1
