@<TRIPOS>MOLECULE
*****
 46 49 0 0 0
SMALL
GASTEIGER

@<TRIPOS>ATOM
      1 O          -5.5447    1.1158   -1.9468 O.2     1  UNL1       -0.2661
      2 C          -4.3556    0.7747   -1.7298 C.ar    1  UNL1        0.2682
      3 N          -3.3727    1.3414   -2.4848 N.ar    1  UNL1       -0.2427
      4 N          -2.0996    1.0370   -2.3183 N.ar    1  UNL1       -0.1753
      5 C          -1.6900    0.1347   -1.3785 C.ar    1  UNL1        0.0693
      6 C          -0.2496   -0.1661   -1.1949 C.3     1  UNL1        0.0168
      7 C           0.3504    0.5946   -0.0826 C.ar    1  UNL1       -0.0397
      8 C          -0.4075    1.2312    0.8508 C.ar    1  UNL1       -0.0581
      9 C           0.2493    1.9087    1.8555 C.ar    1  UNL1       -0.0597
     10 C           1.6159    1.9476    1.9235 C.ar    1  UNL1       -0.0393
     11 C           2.4322    1.2958    0.9683 C.ar    1  UNL1        0.0484
     12 N           3.8216    1.3912    1.1546 N.pl3   1  UNL1       -0.2135
     13 S           5.0511    1.4631   -0.0072 S.O2    1  UNL1        0.1056
     14 O           6.3971    1.7353    0.6078 O.2     1  UNL1       -0.1470
     15 O           4.6912    2.6023   -0.9555 O.2     1  UNL1       -0.1470
     16 C           5.1887    0.0327   -0.9648 C.ar    1  UNL1        0.2610
     17 C           4.5841   -1.1909   -0.8123 C.ar    1  UNL1        0.0041
     18 C           5.0028   -2.0358   -1.8147 C.ar    1  UNL1       -0.0219
     19 C           5.8724   -1.2807   -2.5664 C.ar    1  UNL1        0.0943
     20 O           5.9518   -0.1028   -2.0468 O.2     1  UNL1       -0.4449
     21 C           1.7530    0.6372   -0.0100 C.ar    1  UNL1       -0.0358
     22 C          -2.6834   -0.4395   -0.6155 C.ar    1  UNL1       -0.0158
     23 C          -4.0206   -0.1463   -0.7603 C.ar    1  UNL1        0.0232
     24 C          -5.1055   -0.7392    0.0369 C.3     1  UNL1       -0.0222
     25 C          -4.6329   -1.5456    1.1975 C.3     1  UNL1       -0.0486
     26 C          -3.2165   -1.1868    1.6173 C.3     1  UNL1       -0.0487
     27 C          -2.3324   -1.4543    0.4076 C.3     1  UNL1       -0.0255
     28 H          -3.6438    2.0378   -3.2162 H       1  UNL1        0.1921
     29 H           0.3292    0.0186   -2.1280 H       1  UNL1        0.0377
     30 H          -0.0781   -1.2581   -0.9524 H       1  UNL1        0.0377
     31 H          -1.4998    1.2359    0.8339 H       1  UNL1        0.0620
     32 H          -0.3808    2.4105    2.5906 H       1  UNL1        0.0618
     33 H           2.1106    2.4957    2.7350 H       1  UNL1        0.0636
     34 H           4.1135    1.4130    2.2036 H       1  UNL1        0.1738
     35 H           3.8868   -1.4422   -0.0143 H       1  UNL1        0.0670
     36 H           4.7133   -3.0636   -1.9767 H       1  UNL1        0.0650
     37 H           6.3911   -1.6629   -3.4566 H       1  UNL1        0.1030
     38 H           2.3037    0.1489   -0.7734 H       1  UNL1        0.0639
     39 H          -5.7669   -1.3808   -0.6155 H       1  UNL1        0.0315
     40 H          -5.7742    0.0638    0.4100 H       1  UNL1        0.0315
     41 H          -5.2919   -1.4451    2.0997 H       1  UNL1        0.0269
     42 H          -4.6309   -2.6359    0.9661 H       1  UNL1        0.0269
     43 H          -3.1997   -0.1167    1.8412 H       1  UNL1        0.0268
     44 H          -2.9325   -1.8263    2.4751 H       1  UNL1        0.0268
     45 H          -2.6249   -2.4427   -0.0655 H       1  UNL1        0.0314
     46 H          -1.2755   -1.5054    0.6669 H       1  UNL1        0.0314
@<TRIPOS>BOND
     1     1     2    2
     2     2     3   ar
     3     3     4   ar
     4     3    28    1
     5     4     5   ar
     6     5     6    1
     7     5    22   ar
     8     6     7    1
     9     6    29    1
    10     6    30    1
    11     7     8   ar
    12     8     9   ar
    13     8    31    1
    14     9    10   ar
    15     9    32    1
    16    10    11   ar
    17    10    33    1
    18    11    12    1
    19    11    21   ar
    20    12    13    1
    21    12    34    1
    22    13    14    2
    23    13    15    2
    24    13    16    1
    25    16    17   ar
    26    17    18   ar
    27    17    35    1
    28    18    19   ar
    29    18    36    1
    30    19    20   ar
    31    19    37    1
    32    20    16   ar
    33    21     7   ar
    34    21    38    1
    35    22    23   ar
    36    23    24    1
    37    23     2   ar
    38    24    25    1
    39    24    39    1
    40    24    40    1
    41    25    26    1
    42    25    41    1
    43    25    42    1
    44    26    27    1
    45    26    43    1
    46    26    44    1
    47    27    22    1
    48    27    45    1
    49    27    46    1
