@<TRIPOS>MOLECULE
*****
 41 43 0 0 0
SMALL
GASTEIGER

@<TRIPOS>ATOM
      1 C           0.3730   -0.9309   -2.6516 C.3     1  UNL1       -0.0189
      2 C           0.4633   -0.9614   -1.1545 C.3     1  UNL1        0.1761
      3 O          -0.7117   -0.6003   -0.5046 O.3     1  UNL1       -0.4487
      4 C          -1.4226   -1.3926    0.3481 C.2     1  UNL1        0.3407
      5 O          -0.8639   -2.5614    0.4923 O.2     1  UNL1       -0.2449
      6 C          -2.6356   -1.1367    1.0721 C.ar    1  UNL1        0.0732
      7 C          -3.1916   -2.1119    1.9005 C.ar    1  UNL1        0.0173
      8 C          -4.3299   -1.9159    2.6000 C.ar    1  UNL1        0.2500
      9 O          -4.8175   -2.8113    3.3448 O.2     1  UNL1       -0.2679
     10 N          -4.9724   -0.7435    2.5123 N.ar    1  UNL1       -0.3221
     11 C          -4.4856    0.2531    1.7220 C.ar    1  UNL1        0.0500
     12 C          -5.1440    1.4485    1.6348 C.ar    1  UNL1       -0.0377
     13 C          -4.6533    2.4617    0.8343 C.ar    1  UNL1       -0.0598
     14 C          -3.5028    2.2982    0.1116 C.ar    1  UNL1       -0.0611
     15 C          -2.8380    1.0837    0.2030 C.ar    1  UNL1       -0.0518
     16 C          -3.3057    0.0507    0.9966 C.ar    1  UNL1        0.0125
     17 C           1.5988   -0.0666   -0.6954 C.2     1  UNL1        0.2579
     18 O           1.3853    0.8321    0.1481 O.2     1  UNL1       -0.2714
     19 N           2.8794   -0.2567   -1.2225 N.am    1  UNL1       -0.2801
     20 C           4.0413    0.4844   -0.9049 C.ar    1  UNL1        0.0691
     21 C           4.1291    1.5247   -0.0232 C.ar    1  UNL1       -0.0377
     22 C           5.3214    2.2100    0.2373 C.ar    1  UNL1       -0.0598
     23 C           6.4863    1.8523   -0.4033 C.ar    1  UNL1       -0.0589
     24 C           6.4223    0.8069   -1.2962 C.ar    1  UNL1       -0.0246
     25 C           5.2368    0.1456   -1.5376 C.ar    1  UNL1        0.1445
     26 F           5.2115   -0.8940   -2.4363 F       1  UNL1       -0.2035
     27 H           0.2742   -1.9439   -3.0646 H       1  UNL1        0.0270
     28 H          -0.4208   -0.2378   -3.0166 H       1  UNL1        0.0270
     29 H           1.3279   -0.5197   -3.0397 H       1  UNL1        0.0270
     30 H           0.7131   -2.0008   -0.8550 H       1  UNL1        0.0830
     31 H          -2.6603   -3.0499    1.9588 H       1  UNL1        0.0680
     32 H          -5.8649   -0.5614    3.0478 H       1  UNL1        0.1689
     33 H          -6.0565    1.5722    2.2107 H       1  UNL1        0.0638
     34 H          -5.2097    3.3782    0.8032 H       1  UNL1        0.0618
     35 H          -3.1374    3.0950   -0.5037 H       1  UNL1        0.0618
     36 H          -1.9506    1.0141   -0.3801 H       1  UNL1        0.0624
     37 H           2.9588   -1.0548   -1.9399 H       1  UNL1        0.1550
     38 H           3.2635    1.8614    0.5146 H       1  UNL1        0.0637
     39 H           5.3311    3.0300    0.9490 H       1  UNL1        0.0618
     40 H           7.4266    2.3797   -0.2093 H       1  UNL1        0.0618
     41 H           7.3312    0.5202   -1.8027 H       1  UNL1        0.0647
@<TRIPOS>BOND
     1     1     2    1
     2     1    27    1
     3     1    28    1
     4     1    29    1
     5     2     3    1
     6     2    17    1
     7     2    30    1
     8     3     4    1
     9     4     5    2
    10     4     6    1
    11     6     7   ar
    12     7     8   ar
    13     7    31    1
    14     8     9    2
    15     8    10   ar
    16    10    11   ar
    17    10    32    1
    18    11    12   ar
    19    12    13   ar
    20    12    33    1
    21    13    14   ar
    22    13    34    1
    23    14    15   ar
    24    14    35    1
    25    15    16   ar
    26    15    36    1
    27    16     6   ar
    28    16    11   ar
    29    17    18    2
    30    17    19   am
    31    19    20    1
    32    19    37    1
    33    20    21   ar
    34    21    22   ar
    35    21    38    1
    36    22    23   ar
    37    22    39    1
    38    23    24   ar
    39    23    40    1
    40    24    25   ar
    41    24    41    1
    42    25    26    1
    43    25    20   ar
