@<TRIPOS>MOLECULE
*****
 47 49 0 0 0
SMALL
GASTEIGER

@<TRIPOS>ATOM
      1 N          -6.9688   -1.0092   -0.4885 N.pl3   1  UNL1       -0.3543
      2 C          -6.1496   -0.4494    0.5134 C.ar    1  UNL1        0.0829
      3 C          -6.6330    0.3832    1.4766 C.ar    1  UNL1        0.1458
      4 F          -7.9640    0.7301    1.5185 F       1  UNL1       -0.2035
      5 C          -5.8225    0.9203    2.4476 C.ar    1  UNL1       -0.0245
      6 C          -4.5005    0.6059    2.4379 C.ar    1  UNL1       -0.0571
      7 C          -3.9966   -0.2478    1.4505 C.ar    1  UNL1       -0.0374
      8 C          -4.7909   -0.7963    0.4703 C.ar    1  UNL1        0.0714
      9 N          -4.3135   -1.6566   -0.5434 N.pl3   1  UNL1       -0.2144
     10 S          -2.6618   -1.9485   -0.8229 S.O2    1  UNL1        0.0724
     11 O          -2.4269   -2.9816   -1.8879 O.2     1  UNL1       -0.1500
     12 O          -2.0293   -2.3945    0.4887 O.2     1  UNL1       -0.1500
     13 C          -1.8891   -0.4298   -1.2521 C.ar    1  UNL1        0.1092
     14 C          -2.5369    0.5195   -2.0190 C.ar    1  UNL1       -0.0350
     15 C          -1.8587    1.6742   -2.3879 C.ar    1  UNL1       -0.0592
     16 C          -0.5289    1.8822   -1.9906 C.ar    1  UNL1       -0.0495
     17 C           0.1083    0.9323   -1.2316 C.ar    1  UNL1        0.0400
     18 C           1.5266    1.1571   -0.8664 C.2     1  UNL1        0.2602
     19 O           1.9406    2.1707   -0.2959 O.2     1  UNL1       -0.2687
     20 N           2.4133    0.1071   -1.2221 N.am    1  UNL1       -0.2301
     21 N           3.7937    0.0841   -0.9893 N.am    1  UNL1       -0.2300
     22 C           4.3047    0.0300    0.3454 C.2     1  UNL1        0.2629
     23 O           3.4212    0.0236    1.2617 O.2     1  UNL1       -0.2686
     24 C           5.7104   -0.0205    0.6636 C.ar    1  UNL1        0.0733
     25 C           6.1123    0.2187    1.9829 C.ar    1  UNL1       -0.0468
     26 C           7.4490    0.1862    2.3370 C.ar    1  UNL1       -0.0609
     27 C           8.4094   -0.0829    1.3882 C.ar    1  UNL1       -0.0590
     28 C           8.0377   -0.3167    0.0981 C.ar    1  UNL1       -0.0257
     29 C           6.6784   -0.2816   -0.2487 C.ar    1  UNL1        0.1355
     30 F           6.4046   -0.5529   -1.5641 F       1  UNL1       -0.2047
     31 C          -0.5780   -0.2027   -0.8730 C.ar    1  UNL1       -0.0229
     32 H          -7.1279   -2.0531   -0.5624 H       1  UNL1        0.1425
     33 H          -7.4354   -0.4110   -1.1833 H       1  UNL1        0.1425
     34 H          -6.1766    1.5986    3.2285 H       1  UNL1        0.0647
     35 H          -3.7635    0.9765    3.1548 H       1  UNL1        0.0619
     36 H          -2.9389   -0.4827    1.4544 H       1  UNL1        0.0637
     37 H          -5.0185   -2.1398   -1.1514 H       1  UNL1        0.1737
     38 H          -3.5610    0.3728   -2.3275 H       1  UNL1        0.0637
     39 H          -2.3523    2.4262   -2.9837 H       1  UNL1        0.0618
     40 H          -0.0486    2.8184   -2.3110 H       1  UNL1        0.0625
     41 H           2.0198   -0.7322   -1.7101 H       1  UNL1        0.1731
     42 H           4.4496    0.1172   -1.7926 H       1  UNL1        0.1731
     43 H           5.3630    0.4311    2.7187 H       1  UNL1        0.0626
     44 H           7.7587    0.3739    3.3745 H       1  UNL1        0.0618
     45 H           9.4521   -0.1043    1.7037 H       1  UNL1        0.0618
     46 H           8.7578   -0.5287   -0.6572 H       1  UNL1        0.0646
     47 H          -0.0395   -0.9171   -0.2762 H       1  UNL1        0.0645
@<TRIPOS>BOND
     1     1     2    1
     2     1    32    1
     3     1    33    1
     4     2     3   ar
     5     3     4    1
     6     3     5   ar
     7     5     6   ar
     8     5    34    1
     9     6     7   ar
    10     6    35    1
    11     7     8   ar
    12     7    36    1
    13     8     9    1
    14     8     2   ar
    15     9    10    1
    16     9    37    1
    17    10    11    2
    18    10    12    2
    19    10    13    1
    20    13    14   ar
    21    14    15   ar
    22    14    38    1
    23    15    16   ar
    24    15    39    1
    25    16    17   ar
    26    16    40    1
    27    17    18    1
    28    17    31   ar
    29    18    19    2
    30    18    20   am
    31    20    21    1
    32    20    41    1
    33    21    22   am
    34    21    42    1
    35    22    23    2
    36    22    24    1
    37    24    25   ar
    38    25    26   ar
    39    25    43    1
    40    26    27   ar
    41    26    44    1
    42    27    28   ar
    43    27    45    1
    44    28    29   ar
    45    28    46    1
    46    29    30    1
    47    29    24   ar
    48    31    13   ar
    49    31    47    1
