@<TRIPOS>MOLECULE
*****
 31 33 0 0 0
SMALL
GASTEIGER

@<TRIPOS>ATOM
      1 C          -5.1423    0.6760   -0.6970 C.3     1  UNL1       -0.0397
      2 C          -3.7006    0.2738   -0.8062 C.ar    1  UNL1       -0.0487
      3 C          -3.3428   -0.7027   -1.7160 C.ar    1  UNL1       -0.0587
      4 C          -2.0181   -1.0328   -1.7759 C.ar    1  UNL1       -0.0597
      5 C          -1.0386   -0.4456   -0.9830 C.ar    1  UNL1       -0.0393
      6 C          -1.3910    0.5130   -0.0916 C.ar    1  UNL1        0.0483
      7 N          -0.5116    1.1749    0.8069 N.pl3   1  UNL1       -0.2162
      8 S           0.8474    0.5651    1.5571 S.O2    1  UNL1        0.0745
      9 O           0.4892   -0.6212    2.4434 O.2     1  UNL1       -0.1499
     10 O           1.3983    1.5882    2.5478 O.2     1  UNL1       -0.1499
     11 C           2.1863    0.1000    0.5658 C.ar    1  UNL1        0.1365
     12 C           2.2553    0.4928   -0.7727 C.ar    1  UNL1       -0.0328
     13 C           3.3858    0.1484   -1.4748 C.ar    1  UNL1       -0.0577
     14 C           4.4153   -0.5470   -0.9185 C.ar    1  UNL1       -0.0334
     15 C           4.2840   -0.9194    0.4550 C.ar    1  UNL1        0.1018
     16 N           5.3269   -1.6455    1.0811 N.ar    1  UNL1       -0.1907
     17 S           4.6667   -1.8495    2.7542 S.2     1  UNL1        0.1165
     18 N           3.2234   -1.0359    2.4847 N.ar    1  UNL1       -0.1888
     19 C           3.2300   -0.6052    1.1310 C.ar    1  UNL1        0.1264
     20 C          -2.7625    0.8660   -0.0175 C.ar    1  UNL1       -0.0364
     21 H          -5.6245    0.4508   -1.6739 H       1  UNL1        0.0278
     22 H          -5.6065    0.0542    0.0700 H       1  UNL1        0.0278
     23 H          -5.1877    1.7509   -0.4645 H       1  UNL1        0.0278
     24 H          -4.0564   -1.1897   -2.3534 H       1  UNL1        0.0620
     25 H          -1.7042   -1.7836   -2.4675 H       1  UNL1        0.0618
     26 H          -0.0278   -0.8045   -1.1044 H       1  UNL1        0.0636
     27 H          -0.7643    2.2050    1.0220 H       1  UNL1        0.1737
     28 H           1.4558    1.0516   -1.2511 H       1  UNL1        0.0638
     29 H           3.4760    0.4366   -2.5199 H       1  UNL1        0.0619
     30 H           5.2930   -0.8073   -1.4856 H       1  UNL1        0.0640
     31 H          -3.0547    1.6424    0.7043 H       1  UNL1        0.0639
@<TRIPOS>BOND
     1     1     2    1
     2     1    21    1
     3     1    22    1
     4     1    23    1
     5     2     3   ar
     6     3     4   ar
     7     3    24    1
     8     4     5   ar
     9     4    25    1
    10     5     6   ar
    11     5    26    1
    12     6     7    1
    13     6    20   ar
    14     7     8    1
    15     7    27    1
    16     8     9    2
    17     8    10    2
    18     8    11    1
    19    11    12   ar
    20    12    13   ar
    21    12    28    1
    22    13    14   ar
    23    13    29    1
    24    14    15   ar
    25    14    30    1
    26    15    16   ar
    27    16    17   ar
    28    17    18   ar
    29    18    19   ar
    30    19    11   ar
    31    19    15   ar
    32    20     2   ar
    33    20    31    1
