@<TRIPOS>MOLECULE
*****
 32 33 0 0 0
SMALL
GASTEIGER

@<TRIPOS>ATOM
      1 N          -3.4385   -1.6867    1.2187 N.3     1  UNL1       -0.2035
      2 S          -2.7532   -0.1220    1.4176 S.O2    1  UNL1        0.0578
      3 O          -3.7554    0.8585    1.9438 O.2     1  UNL1       -0.1532
      4 O          -1.6167   -0.1658    2.4295 O.2     1  UNL1       -0.1532
      5 C          -2.1535    0.5189   -0.1163 C.ar    1  UNL1        0.1272
      6 C          -2.6532    1.6716   -0.6569 C.ar    1  UNL1       -0.0335
      7 C          -2.1784    2.1423   -1.8387 C.ar    1  UNL1       -0.0598
      8 C          -1.1845    1.4470   -2.4933 C.ar    1  UNL1       -0.0599
      9 C          -0.6915    0.2858   -1.9345 C.ar    1  UNL1       -0.0374
     10 C          -1.1465   -0.2242   -0.7370 C.ar    1  UNL1        0.0743
     11 N          -0.6359   -1.4227   -0.1914 N.pl3   1  UNL1       -0.2142
     12 S           0.9923   -1.8950   -0.2836 S.O2    1  UNL1        0.0781
     13 O           1.2175   -3.2643    0.3213 O.2     1  UNL1       -0.1498
     14 O           1.4662   -2.0183   -1.7233 O.2     1  UNL1       -0.1498
     15 C           2.0986   -0.8103    0.5084 C.ar    1  UNL1        0.1843
     16 C           2.6996    0.1878   -0.2083 C.ar    1  UNL1        0.1907
     17 F           2.4740    0.3478   -1.5251 F       1  UNL1       -0.2002
     18 C           3.5928    1.1018    0.3665 C.ar    1  UNL1        0.1983
     19 F           4.1697    2.0770   -0.3691 F       1  UNL1       -0.1993
     20 C           3.8431    0.9460    1.7124 C.ar    1  UNL1        0.1992
     21 F           4.7057    1.8203    2.2919 F       1  UNL1       -0.1993
     22 C           3.2596   -0.0418    2.4607 C.ar    1  UNL1        0.1983
     23 F           3.5498   -0.1352    3.7693 F       1  UNL1       -0.1993
     24 C           2.3910   -0.9146    1.8564 C.ar    1  UNL1        0.1907
     25 F           1.7886   -1.9076    2.5514 F       1  UNL1       -0.2002
     26 H          -3.6796   -1.7782    0.1915 H       1  UNL1        0.1442
     27 H          -4.3019   -1.7986    1.8074 H       1  UNL1        0.1442
     28 H          -3.4430    2.1866   -0.0965 H       1  UNL1        0.0638
     29 H          -2.5783    3.0557   -2.2611 H       1  UNL1        0.0618
     30 H          -0.8085    1.8391   -3.4503 H       1  UNL1        0.0618
     31 H           0.0683   -0.2402   -2.4614 H       1  UNL1        0.0637
     32 H          -1.2982   -2.0608    0.2991 H       1  UNL1        0.1737
@<TRIPOS>BOND
     1     1     2    1
     2     1    26    1
     3     1    27    1
     4     2     3    2
     5     2     4    2
     6     2     5    1
     7     5     6   ar
     8     6     7   ar
     9     6    28    1
    10     7     8   ar
    11     7    29    1
    12     8     9   ar
    13     8    30    1
    14     9    10   ar
    15     9    31    1
    16    10    11    1
    17    10     5   ar
    18    11    12    1
    19    11    32    1
    20    12    13    2
    21    12    14    2
    22    12    15    1
    23    15    16   ar
    24    16    17    1
    25    16    18   ar
    26    18    19    1
    27    18    20   ar
    28    20    21    1
    29    20    22   ar
    30    22    23    1
    31    22    24   ar
    32    24    25    1
    33    24    15   ar
