@<TRIPOS>MOLECULE
*****
 41 43 0 0 0
SMALL
GASTEIGER

@<TRIPOS>ATOM
      1 O           2.9733    0.5681   -1.1096 O.2     1  UNL1       -0.2702
      2 C           3.5728   -0.1203   -0.2243 C.2     1  UNL1        0.2441
      3 N           2.8956   -1.1927    0.3910 N.am    1  UNL1       -0.3099
      4 C           1.5112   -1.5560    0.0551 C.3     1  UNL1        0.0275
      5 C           0.5420   -0.4344    0.3316 C.3     1  UNL1        0.0275
      6 N          -0.7711   -0.8722   -0.0166 N.am    1  UNL1       -0.3085
      7 C          -1.8796    0.0430    0.1640 C.2     1  UNL1        0.2648
      8 O          -1.5431    1.1392    0.6166 O.2     1  UNL1       -0.2684
      9 C          -3.1938   -0.4421   -0.2019 C.ar    1  UNL1        0.1533
     10 N          -3.3374   -1.7167   -0.6930 N.ar    1  UNL1       -0.1656
     11 N          -4.4979   -2.2275   -1.0465 N.ar    1  UNL1       -0.2420
     12 C          -5.6493   -1.5425   -0.9571 C.ar    1  UNL1        0.2725
     13 O          -6.7567   -2.0427   -1.2991 O.2     1  UNL1       -0.2658
     14 C          -5.6016   -0.2500   -0.4730 C.ar    1  UNL1        0.0501
     15 C          -6.7753    0.4763   -0.3715 C.ar    1  UNL1       -0.0487
     16 C          -6.7363    1.7582    0.1074 C.ar    1  UNL1       -0.0610
     17 C          -5.5200    2.2840    0.4744 C.ar    1  UNL1       -0.0611
     18 C          -4.3348    1.5686    0.3786 C.ar    1  UNL1       -0.0516
     19 C          -4.3549    0.2797   -0.1003 C.ar    1  UNL1        0.0195
     20 C           4.9286    0.2090    0.1311 C.ar    1  UNL1        0.0369
     21 C           5.5637    1.2667   -0.5344 C.ar    1  UNL1       -0.0469
     22 C           6.8577    1.6446   -0.2529 C.ar    1  UNL1       -0.0257
     23 C           7.5845    0.9918    0.7024 C.ar    1  UNL1        0.1234
     24 F           8.8572    1.3739    0.9696 F       1  UNL1       -0.2055
     25 C           6.9807   -0.0491    1.3676 C.ar    1  UNL1       -0.0257
     26 C           5.6693   -0.4339    1.0840 C.ar    1  UNL1       -0.0469
     27 H           3.4066   -1.7466    1.1141 H       1  UNL1        0.1491
     28 H           1.2607   -2.4806    0.5726 H       1  UNL1        0.0477
     29 H           1.5501   -1.8077   -1.0376 H       1  UNL1        0.0477
     30 H           0.6464   -0.1608    1.4030 H       1  UNL1        0.0477
     31 H           0.8041    0.4079   -0.3416 H       1  UNL1        0.0477
     32 H          -0.9331   -1.8340   -0.3948 H       1  UNL1        0.1491
     33 H          -4.5721   -3.2036   -1.4175 H       1  UNL1        0.1921
     34 H          -7.7128   -0.0097   -0.6841 H       1  UNL1        0.0625
     35 H          -7.6585    2.3482    0.1943 H       1  UNL1        0.0618
     36 H          -5.4810    3.2920    0.8522 H       1  UNL1        0.0618
     37 H          -3.4059    2.0075    0.6726 H       1  UNL1        0.0624
     38 H           5.0116    1.8116   -1.3052 H       1  UNL1        0.0626
     39 H           7.2995    2.4783   -0.8061 H       1  UNL1        0.0646
     40 H           7.5608   -0.5719    2.1317 H       1  UNL1        0.0646
     41 H           5.2388   -1.2538    1.6306 H       1  UNL1        0.0626
@<TRIPOS>BOND
     1     1     2    2
     2     2     3   am
     3     2    20    1
     4     3     4    1
     5     3    27    1
     6     4     5    1
     7     4    28    1
     8     4    29    1
     9     5     6    1
    10     5    30    1
    11     5    31    1
    12     6     7   am
    13     6    32    1
    14     7     8    2
    15     7     9    1
    16     9    10   ar
    17    10    11   ar
    18    11    12   ar
    19    11    33    1
    20    12    13    2
    21    12    14   ar
    22    14    15   ar
    23    15    16   ar
    24    15    34    1
    25    16    17   ar
    26    16    35    1
    27    17    18   ar
    28    17    36    1
    29    18    19   ar
    30    18    37    1
    31    19     9   ar
    32    19    14   ar
    33    20    21   ar
    34    21    22   ar
    35    21    38    1
    36    22    23   ar
    37    22    39    1
    38    23    24    1
    39    23    25   ar
    40    25    26   ar
    41    25    40    1
    42    26    20   ar
    43    26    41    1
