@<TRIPOS>MOLECULE
*****
 37 39 0 0 0
SMALL
GASTEIGER

@<TRIPOS>ATOM
      1 O           0.6153   -0.2305   -1.4822 O.2     1  UNL1       -0.2702
      2 C           1.1539    0.0752   -0.4122 C.2     1  UNL1        0.2444
      3 N           0.3228    0.5965    0.6458 N.am    1  UNL1       -0.3057
      4 C          -1.0461    0.8549    0.6075 C.3     1  UNL1        0.0565
      5 C          -2.0147   -0.1880    0.2817 C.ar    1  UNL1        0.0863
      6 N          -1.7313   -1.4486   -0.0482 N.ar    1  UNL1       -0.1737
      7 N          -2.6746   -2.3412   -0.3563 N.ar    1  UNL1       -0.2424
      8 C          -3.9971   -2.0472   -0.3671 C.ar    1  UNL1        0.2725
      9 O          -4.8802   -2.8922   -0.6667 O.2     1  UNL1       -0.2658
     10 C          -4.3689   -0.7576   -0.0347 C.ar    1  UNL1        0.0496
     11 C          -5.7060   -0.4173   -0.0256 C.ar    1  UNL1       -0.0487
     12 C          -6.0543    0.8688    0.3145 C.ar    1  UNL1       -0.0610
     13 C          -5.0637    1.7777    0.6339 C.ar    1  UNL1       -0.0611
     14 C          -3.7083    1.4320    0.6220 C.ar    1  UNL1       -0.0520
     15 C          -3.3876    0.1482    0.2818 C.ar    1  UNL1        0.0118
     16 C           2.5754   -0.0622   -0.2194 C.ar    1  UNL1        0.0367
     17 C           3.2844    1.0772    0.1808 C.ar    1  UNL1       -0.0491
     18 C           4.6378    1.0667    0.3581 C.ar    1  UNL1       -0.0494
     19 C           5.3350   -0.1056    0.1377 C.ar    1  UNL1        0.0549
     20 C           6.8136   -0.0712    0.3235 C.3     1  UNL1        0.4174
     21 F           7.2856   -1.2084    0.9211 F       1  UNL1       -0.1659
     22 F           7.3481    0.0499   -0.9591 F       1  UNL1       -0.1659
     23 F           7.2087    1.0171    1.0818 F       1  UNL1       -0.1659
     24 C           4.6802   -1.2582   -0.2541 C.ar    1  UNL1       -0.0494
     25 C           3.2946   -1.1983   -0.4234 C.ar    1  UNL1       -0.0491
     26 H           0.8787    0.7774    1.5307 H       1  UNL1        0.1494
     27 H          -1.1909    1.7357   -0.1075 H       1  UNL1        0.0528
     28 H          -1.3297    1.3206    1.6043 H       1  UNL1        0.0528
     29 H          -2.4297   -3.3134   -0.5982 H       1  UNL1        0.1921
     30 H          -6.4888   -1.1078   -0.2774 H       1  UNL1        0.0625
     31 H          -7.1031    1.1924    0.3369 H       1  UNL1        0.0618
     32 H          -5.2717    2.8090    0.9155 H       1  UNL1        0.0618
     33 H          -2.9499    2.1620    0.8665 H       1  UNL1        0.0624
     34 H           2.7405    2.0144    0.3571 H       1  UNL1        0.0625
     35 H           5.1854    1.9475    0.6647 H       1  UNL1        0.0623
     36 H           5.2341   -2.1911   -0.4335 H       1  UNL1        0.0623
     37 H           2.8024   -2.0845   -0.7218 H       1  UNL1        0.0625
@<TRIPOS>BOND
     1     1     2    2
     2     2     3   am
     3     2    16    1
     4     3     4    1
     5     3    26    1
     6     4     5    1
     7     4    27    1
     8     4    28    1
     9     5     6   ar
    10     6     7   ar
    11     7     8   ar
    12     7    29    1
    13     8     9    2
    14     8    10   ar
    15    10    11   ar
    16    11    12   ar
    17    11    30    1
    18    12    13   ar
    19    12    31    1
    20    13    14   ar
    21    13    32    1
    22    14    15   ar
    23    14    33    1
    24    15     5   ar
    25    15    10   ar
    26    16    17   ar
    27    17    18   ar
    28    17    34    1
    29    18    19   ar
    30    18    35    1
    31    19    20    1
    32    19    24   ar
    33    20    21    1
    34    20    22    1
    35    20    23    1
    36    24    25   ar
    37    24    36    1
    38    25    16   ar
    39    25    37    1
