@<TRIPOS>MOLECULE
*****
 43 45 0 0 0
SMALL
GASTEIGER

@<TRIPOS>ATOM
      1 C           5.0485   -2.3063   -2.0879 C.3     1  UNL1        0.0340
      2 N           4.4199   -1.3793   -1.1528 N.ar    1  UNL1       -0.2318
      3 N           3.2969   -1.7781   -0.5648 N.ar    1  UNL1       -0.1724
      4 C           2.6281   -1.0158    0.3127 C.ar    1  UNL1        0.0783
      5 C           1.3766   -1.4729    0.9643 C.3     1  UNL1        0.0685
      6 C           0.2387   -0.7604    0.3004 C.2     1  UNL1        0.2189
      7 O           0.4126    0.0605   -0.6372 O.2     1  UNL1       -0.2754
      8 N          -1.0866   -1.0262    0.7517 N.am    1  UNL1       -0.3147
      9 C          -2.1892   -0.3325    0.1057 C.3     1  UNL1        0.0157
     10 C          -3.4847   -0.7927    0.7718 C.3     1  UNL1       -0.0093
     11 C          -4.5854   -0.0698    0.0958 C.ar    1  UNL1       -0.0107
     12 C          -5.1899    0.9860    0.7230 C.ar    1  UNL1       -0.0558
     13 C          -6.2278    1.6956    0.1279 C.ar    1  UNL1       -0.0613
     14 C          -6.6321    1.2952   -1.1299 C.ar    1  UNL1       -0.0590
     15 C          -6.0251    0.2343   -1.7610 C.ar    1  UNL1       -0.0262
     16 C          -4.9934   -0.4579   -1.1493 C.ar    1  UNL1        0.1266
     17 F          -4.3649   -1.5086   -1.7301 F       1  UNL1       -0.2052
     18 C           3.1223    0.2328    0.6199 C.ar    1  UNL1        0.0108
     19 C           2.4868    1.0621    1.5088 C.ar    1  UNL1       -0.0521
     20 C           2.9995    2.3105    1.8026 C.ar    1  UNL1       -0.0611
     21 C           4.1594    2.7095    1.1884 C.ar    1  UNL1       -0.0610
     22 C           4.8353    1.9087    0.2858 C.ar    1  UNL1       -0.0487
     23 C           4.2865    0.6690    0.0222 C.ar    1  UNL1        0.0498
     24 C           4.9173   -0.1714   -0.8694 C.ar    1  UNL1        0.2748
     25 O           5.9810    0.1975   -1.4310 O.2     1  UNL1       -0.2656
     26 H           4.3144   -2.5049   -2.8841 H       1  UNL1        0.0474
     27 H           6.0238   -1.9532   -2.4348 H       1  UNL1        0.0474
     28 H           5.1460   -3.2712   -1.5218 H       1  UNL1        0.0474
     29 H           1.3660   -1.2929    2.0581 H       1  UNL1        0.0423
     30 H           1.2717   -2.5637    0.7245 H       1  UNL1        0.0423
     31 H          -1.2598   -1.7164    1.5428 H       1  UNL1        0.1487
     32 H          -2.1108    0.7838    0.2537 H       1  UNL1        0.0465
     33 H          -2.2400   -0.5244   -0.9664 H       1  UNL1        0.0465
     34 H          -3.4224   -0.4812    1.8362 H       1  UNL1        0.0329
     35 H          -3.5506   -1.8858    0.6394 H       1  UNL1        0.0329
     36 H          -4.8743    1.2972    1.7037 H       1  UNL1        0.0621
     37 H          -6.6885    2.5281    0.6487 H       1  UNL1        0.0618
     38 H          -7.4444    1.8356   -1.6186 H       1  UNL1        0.0618
     39 H          -6.3236   -0.0980   -2.7446 H       1  UNL1        0.0646
     40 H           1.5699    0.7331    1.9864 H       1  UNL1        0.0624
     41 H           2.4600    2.9094    2.5014 H       1  UNL1        0.0618
     42 H           4.5781    3.7024    1.4146 H       1  UNL1        0.0618
     43 H           5.7541    2.2122   -0.2068 H       1  UNL1        0.0625
@<TRIPOS>BOND
     1     1     2    1
     2     1    26    1
     3     1    27    1
     4     1    28    1
     5     2     3   ar
     6     3     4   ar
     7     4     5    1
     8     4    18   ar
     9     5     6    1
    10     5    29    1
    11     5    30    1
    12     6     7    2
    13     6     8   am
    14     8     9    1
    15     8    31    1
    16     9    10    1
    17     9    32    1
    18     9    33    1
    19    10    11    1
    20    10    34    1
    21    10    35    1
    22    11    12   ar
    23    12    13   ar
    24    12    36    1
    25    13    14   ar
    26    13    37    1
    27    14    15   ar
    28    14    38    1
    29    15    16   ar
    30    15    39    1
    31    16    17    1
    32    16    11   ar
    33    18    19   ar
    34    19    20   ar
    35    19    40    1
    36    20    21   ar
    37    20    41    1
    38    21    22   ar
    39    21    42    1
    40    22    23   ar
    41    22    43    1
    42    23    24   ar
    43    23    18   ar
    44    24    25    2
    45    24     2   ar
