@<TRIPOS>MOLECULE
*****
 34 36 0 0 0
SMALL
GASTEIGER

@<TRIPOS>ATOM
      1 O          -6.8303    1.6957   -0.0139 O.2     1  UNL1       -0.2451
      2 C          -5.6019    1.9390    0.0460 C.2     1  UNL1        0.3369
      3 O          -5.2109    3.2547    0.2135 O.3     1  UNL1       -0.4771
      4 C          -4.6740    0.8351   -0.0631 C.ar    1  UNL1        0.0606
      5 C          -5.0873   -0.4591   -0.2286 C.ar    1  UNL1       -0.0477
      6 C          -4.1988   -1.4925   -0.3302 C.ar    1  UNL1       -0.0592
      7 C          -2.8297   -1.1774   -0.2582 C.ar    1  UNL1       -0.0404
      8 C          -2.3651    0.0777   -0.0961 C.ar    1  UNL1        0.0344
      9 N          -1.0138    0.3867   -0.0252 N.pl3   1  UNL1       -0.2836
     10 C           0.0950   -0.4922   -0.1028 C.ar    1  UNL1        0.2200
     11 N           0.0032   -1.7962   -0.2614 N.ar    1  UNL1       -0.2226
     12 C           1.0891   -2.5761   -0.3277 C.ar    1  UNL1        0.0332
     13 C           2.3749   -2.0352   -0.2306 C.ar    1  UNL1       -0.0174
     14 C           2.4704   -0.6752   -0.0653 C.ar    1  UNL1        0.0775
     15 C           3.7648   -0.0244    0.0451 C.ar    1  UNL1        0.0186
     16 C           4.9560   -0.7110   -0.0073 C.ar    1  UNL1       -0.0497
     17 C           6.1636   -0.0287    0.1047 C.ar    1  UNL1       -0.0430
     18 C           6.1639    1.3355    0.2682 C.ar    1  UNL1        0.0276
     19 N           4.9924    1.9999    0.3185 N.ar    1  UNL1       -0.2626
     20 C           3.8329    1.3431    0.2107 C.ar    1  UNL1        0.0367
     21 N           1.3400    0.0320   -0.0088 N.ar    1  UNL1       -0.2142
     22 C          -3.3225    1.0905    0.0014 C.ar    1  UNL1       -0.0265
     23 H          -5.6999    4.0074   -0.2915 H       1  UNL1        0.2954
     24 H          -6.1654   -0.6471   -0.2781 H       1  UNL1        0.0626
     25 H          -4.5374   -2.5161   -0.4614 H       1  UNL1        0.0618
     26 H          -2.2025   -2.0527   -0.3474 H       1  UNL1        0.0636
     27 H          -0.7772    1.4397    0.1069 H       1  UNL1        0.1550
     28 H           0.9417   -3.6535   -0.4605 H       1  UNL1        0.0831
     29 H           3.2198   -2.7032   -0.2896 H       1  UNL1        0.0654
     30 H           5.0002   -1.7810   -0.1344 H       1  UNL1        0.0625
     31 H           7.1137   -0.5470    0.0664 H       1  UNL1        0.0633
     32 H           7.0730    1.9134    0.3602 H       1  UNL1        0.0829
     33 H           2.9218    1.9191    0.2570 H       1  UNL1        0.0836
     34 H          -2.9997    2.0991    0.1303 H       1  UNL1        0.0644
@<TRIPOS>BOND
     1     1     2    2
     2     2     3    1
     3     2     4    1
     4     3    23    1
     5     4     5   ar
     6     5     6   ar
     7     5    24    1
     8     6     7   ar
     9     6    25    1
    10     7     8   ar
    11     7    26    1
    12     8     9    1
    13     8    22   ar
    14     9    10    1
    15     9    27    1
    16    10    11   ar
    17    11    12   ar
    18    12    13   ar
    19    12    28    1
    20    13    14   ar
    21    13    29    1
    22    14    15    1
    23    14    21   ar
    24    15    16   ar
    25    16    17   ar
    26    16    30    1
    27    17    18   ar
    28    17    31    1
    29    18    19   ar
    30    18    32    1
    31    19    20   ar
    32    20    15   ar
    33    20    33    1
    34    21    10   ar
    35    22     4   ar
    36    22    34    1
