@<TRIPOS>MOLECULE
*****
 44 46 0 0 0
SMALL
GASTEIGER

@<TRIPOS>ATOM
      1 O           3.3949    1.8693   -0.5716 O.2     1  UNL1       -0.2687
      2 C           4.1063    0.8563   -0.3170 C.2     1  UNL1        0.2602
      3 N           3.4511   -0.4010   -0.3625 N.am    1  UNL1       -0.2301
      4 N           2.0925   -0.5534   -0.6684 N.am    1  UNL1       -0.2301
      5 C           1.3651   -1.5585    0.0131 C.2     1  UNL1        0.2602
      6 O           1.9784   -2.2595    0.8557 O.2     1  UNL1       -0.2687
      7 C          -0.0424   -1.8272   -0.2025 C.ar    1  UNL1        0.0400
      8 C          -0.6723   -2.8587    0.4564 C.ar    1  UNL1       -0.0495
      9 C          -2.0043   -3.1400    0.2757 C.ar    1  UNL1       -0.0592
     10 C          -2.7388   -2.3450   -0.6111 C.ar    1  UNL1       -0.0350
     11 C          -2.1443   -1.3096   -1.2839 C.ar    1  UNL1        0.1092
     12 S          -2.9648   -0.2560   -2.4012 S.O2    1  UNL1        0.0724
     13 O          -4.1357   -0.9413   -3.0494 O.2     1  UNL1       -0.1500
     14 O          -1.9831    0.0858   -3.4903 O.2     1  UNL1       -0.1500
     15 N          -3.4939    1.1433   -1.5634 N.pl3   1  UNL1       -0.2135
     16 C          -4.4156    1.1270   -0.4920 C.ar    1  UNL1        0.0831
     17 C          -5.2843    0.0840   -0.3059 C.ar    1  UNL1       -0.0365
     18 C          -6.2106    0.0271    0.7216 C.ar    1  UNL1       -0.0598
     19 C          -6.2579    1.0730    1.5980 C.ar    1  UNL1       -0.0589
     20 C          -5.3979    2.1334    1.4361 C.ar    1  UNL1       -0.0246
     21 C          -4.4892    2.1697    0.4124 C.ar    1  UNL1        0.1456
     22 F          -3.6502    3.2143    0.2612 F       1  UNL1       -0.2035
     23 C          -0.7867   -1.0751   -1.0566 C.ar    1  UNL1       -0.0229
     24 C           5.5364    1.0022    0.0066 C.ar    1  UNL1        0.0410
     25 C           6.3634   -0.0590    0.2472 C.ar    1  UNL1       -0.0314
     26 C           7.6925    0.1068    0.5462 C.ar    1  UNL1        0.0283
     27 N           8.2488    1.3217    0.6181 N.ar    1  UNL1       -0.2632
     28 C           7.4455    2.3719    0.3837 C.ar    1  UNL1        0.0283
     29 C           6.1091    2.2688    0.0801 C.ar    1  UNL1       -0.0314
     30 H           3.9921   -1.2681   -0.1590 H       1  UNL1        0.1731
     31 H           1.6587    0.0551   -1.3691 H       1  UNL1        0.1731
     32 H          -0.1017   -3.4854    1.1534 H       1  UNL1        0.0625
     33 H          -2.5299   -3.9424    0.7772 H       1  UNL1        0.0618
     34 H          -3.7877   -2.5661   -0.7609 H       1  UNL1        0.0637
     35 H          -3.1315    2.1103   -1.8335 H       1  UNL1        0.1738
     36 H          -5.2370   -0.7226   -1.0049 H       1  UNL1        0.0637
     37 H          -6.8593   -0.8454    0.7883 H       1  UNL1        0.0618
     38 H          -6.9660    1.0735    2.4178 H       1  UNL1        0.0618
     39 H          -5.4813    2.9355    2.1631 H       1  UNL1        0.0647
     40 H          -0.2973   -0.2565   -1.5799 H       1  UNL1        0.0645
     41 H           5.9644   -1.0545    0.2011 H       1  UNL1        0.0640
     42 H           8.2889   -0.7861    0.7254 H       1  UNL1        0.0830
     43 H           7.9079    3.3670    0.4434 H       1  UNL1        0.0830
     44 H           5.4676    3.1158   -0.1072 H       1  UNL1        0.0640
@<TRIPOS>BOND
     1     1     2    2
     2     2     3   am
     3     2    24    1
     4     3     4    1
     5     3    30    1
     6     4     5   am
     7     4    31    1
     8     5     6    2
     9     5     7    1
    10     7     8   ar
    11     8     9   ar
    12     8    32    1
    13     9    10   ar
    14     9    33    1
    15    10    11   ar
    16    10    34    1
    17    11    12    1
    18    11    23   ar
    19    12    13    2
    20    12    14    2
    21    12    15    1
    22    15    16    1
    23    15    35    1
    24    16    17   ar
    25    17    18   ar
    26    17    36    1
    27    18    19   ar
    28    18    37    1
    29    19    20   ar
    30    19    38    1
    31    20    21   ar
    32    20    39    1
    33    21    22    1
    34    21    16   ar
    35    23     7   ar
    36    23    40    1
    37    24    25   ar
    38    25    26   ar
    39    25    41    1
    40    26    27   ar
    41    26    42    1
    42    27    28   ar
    43    28    29   ar
    44    28    43    1
    45    29    24   ar
    46    29    44    1
