@<TRIPOS>MOLECULE
*****
 35 37 0 0 0
SMALL
GASTEIGER

@<TRIPOS>ATOM
      1 C          -2.2576   -3.5857    1.3668 C.ar    1  UNL1       -0.0617
      2 C          -0.9345   -3.3870    1.0463 C.ar    1  UNL1       -0.0611
      3 C          -0.4170   -2.1862    0.5762 C.ar    1  UNL1       -0.0524
      4 C          -1.2777   -1.1203    0.4163 C.ar    1  UNL1        0.0039
      5 C          -0.8623    0.1429   -0.1563 C.2     1  UNL1        0.1142
      6 N           0.1961    0.2462   -0.8599 N.2     1  UNL1       -0.1787
      7 N           1.1224   -0.6552   -1.2402 N.pl3   1  UNL1       -0.2204
      8 C           2.4926   -0.4462   -0.9195 C.ar    1  UNL1        0.1380
      9 C           3.2446    0.2493   -1.8541 C.ar    1  UNL1       -0.0203
     10 C           4.5811    0.5331   -1.6925 C.ar    1  UNL1       -0.0570
     11 C           5.1922    0.0958   -0.5331 C.ar    1  UNL1       -0.0435
     12 C           4.4123   -0.5884    0.3652 C.ar    1  UNL1        0.0297
     13 N           3.1068   -0.8520    0.1812 N.ar    1  UNL1       -0.2389
     14 C          -1.5748    1.4101    0.0377 C.ar    1  UNL1        0.0912
     15 C          -1.1708    2.5830   -0.5608 C.ar    1  UNL1       -0.0341
     16 C          -1.8444    3.7522   -0.3285 C.ar    1  UNL1       -0.0583
     17 C          -2.9431    3.7617    0.5154 C.ar    1  UNL1       -0.0436
     18 C          -3.3172    2.5594    1.0982 C.ar    1  UNL1        0.0283
     19 N          -2.6248    1.4558    0.8352 N.ar    1  UNL1       -0.2534
     20 C          -2.6137   -1.3068    0.7356 C.ar    1  UNL1       -0.0524
     21 C          -3.1188   -2.5243    1.2095 C.ar    1  UNL1       -0.0611
     22 H          -2.6301   -4.5446    1.7344 H       1  UNL1        0.0618
     23 H          -0.2277   -4.2244    1.1647 H       1  UNL1        0.0618
     24 H           0.6521   -2.1432    0.3873 H       1  UNL1        0.0624
     25 H           0.8781   -1.5018   -1.7857 H       1  UNL1        0.1760
     26 H           2.7801    0.5968   -2.7644 H       1  UNL1        0.0652
     27 H           5.1185    1.0836   -2.4628 H       1  UNL1        0.0619
     28 H           6.2390    0.3069   -0.3851 H       1  UNL1        0.0633
     29 H           4.8776   -0.9460    1.2951 H       1  UNL1        0.0830
     30 H          -0.3290    2.5937   -1.2118 H       1  UNL1        0.0639
     31 H          -1.5167    4.6712   -0.8060 H       1  UNL1        0.0619
     32 H          -3.5101    4.6487    0.7349 H       1  UNL1        0.0633
     33 H          -4.1884    2.5269    1.7772 H       1  UNL1        0.0830
     34 H          -3.3747   -0.5519    0.6313 H       1  UNL1        0.0624
     35 H          -4.1599   -2.6533    1.4524 H       1  UNL1        0.0618
@<TRIPOS>BOND
     1     1     2   ar
     2     1    22    1
     3     2     3   ar
     4     2    23    1
     5     3     4   ar
     6     3    24    1
     7     4     5    1
     8     4    20   ar
     9     5     6    2
    10     5    14    1
    11     6     7    1
    12     7     8    1
    13     7    25    1
    14     8     9   ar
    15     9    10   ar
    16     9    26    1
    17    10    11   ar
    18    10    27    1
    19    11    12   ar
    20    11    28    1
    21    12    13   ar
    22    12    29    1
    23    13     8   ar
    24    14    15   ar
    25    15    16   ar
    26    15    30    1
    27    16    17   ar
    28    16    31    1
    29    17    18   ar
    30    17    32    1
    31    18    19   ar
    32    18    33    1
    33    19    14   ar
    34    20    21   ar
    35    20    34    1
    36    21     1   ar
    37    21    35    1
