@<TRIPOS>MOLECULE
*****
 34 36 0 0 0
SMALL
GASTEIGER

@<TRIPOS>ATOM
      1 N          -6.5733    0.6561    0.5605 N.am    1  UNL1       -0.3253
      2 C          -5.2211    0.5557    0.9815 C.2     1  UNL1        0.2416
      3 O          -4.8466    1.1826    1.9867 O.2     1  UNL1       -0.2704
      4 C          -4.2984   -0.2758    0.2334 C.ar    1  UNL1        0.0400
      5 C          -4.6965   -0.9788   -0.8849 C.ar    1  UNL1       -0.0494
      6 C          -3.8014   -1.7745   -1.5959 C.ar    1  UNL1       -0.0576
      7 C          -2.4871   -1.8388   -1.1414 C.ar    1  UNL1       -0.0192
      8 C          -2.0675   -1.1502   -0.0338 C.ar    1  UNL1        0.1326
      9 O          -0.7582   -1.2470    0.3745 O.3     1  UNL1       -0.4235
     10 C           0.2297   -0.3740   -0.0866 C.ar    1  UNL1        0.3267
     11 N          -0.1419    0.5805   -0.9563 N.ar    1  UNL1       -0.1831
     12 C           0.7145    1.4781   -1.4705 C.ar    1  UNL1        0.1237
     13 N           1.9915    1.3930   -1.0797 N.ar    1  UNL1       -0.2157
     14 C           2.3821    0.4302   -0.1985 C.ar    1  UNL1        0.1666
     15 C           3.7979    0.4085    0.1756 C.ar    1  UNL1        0.0193
     16 C           4.2825   -0.5305    1.0611 C.ar    1  UNL1       -0.0510
     17 C           5.6227   -0.5656    1.4271 C.ar    1  UNL1       -0.0611
     18 C           6.5231    0.3623    0.8993 C.ar    1  UNL1       -0.0617
     19 C           6.0379    1.3006    0.0142 C.ar    1  UNL1       -0.0611
     20 C           4.7033    1.3144   -0.3330 C.ar    1  UNL1       -0.0510
     21 N           1.4971   -0.4436    0.2892 N.ar    1  UNL1       -0.1748
     22 C          -2.9636   -0.3682    0.6581 C.ar    1  UNL1       -0.0071
     23 H          -6.8128    0.8827   -0.4336 H       1  UNL1        0.1453
     24 H          -7.3769    0.5127    1.2043 H       1  UNL1        0.1453
     25 H          -5.7003   -0.9295   -1.2318 H       1  UNL1        0.0625
     26 H          -4.1304   -2.3192   -2.4708 H       1  UNL1        0.0619
     27 H          -1.7933   -2.4593   -1.6977 H       1  UNL1        0.0654
     28 H           0.3317    2.2034   -2.1566 H       1  UNL1        0.1049
     29 H           3.6014   -1.2554    1.4791 H       1  UNL1        0.0625
     30 H           5.9935   -1.3022    2.1194 H       1  UNL1        0.0618
     31 H           7.5571    0.3012    1.2094 H       1  UNL1        0.0618
     32 H           6.7429    2.0124   -0.3871 H       1  UNL1        0.0618
     33 H           4.3349    2.0519   -1.0255 H       1  UNL1        0.0625
     34 H          -2.6743    0.1862    1.5299 H       1  UNL1        0.0662
@<TRIPOS>BOND
     1     1     2   am
     2     1    23    1
     3     1    24    1
     4     2     3    2
     5     2     4    1
     6     4     5   ar
     7     5     6   ar
     8     5    25    1
     9     6     7   ar
    10     6    26    1
    11     7     8   ar
    12     7    27    1
    13     8     9    1
    14     8    22   ar
    15     9    10    1
    16    10    11   ar
    17    11    12   ar
    18    12    13   ar
    19    12    28    1
    20    13    14   ar
    21    14    15    1
    22    14    21   ar
    23    15    16   ar
    24    16    17   ar
    25    16    29    1
    26    17    18   ar
    27    17    30    1
    28    18    19   ar
    29    18    31    1
    30    19    20   ar
    31    19    32    1
    32    20    15   ar
    33    20    33    1
    34    21    10   ar
    35    22     4   ar
    36    22    34    1
