@<TRIPOS>MOLECULE
*****
 32 34 0 0 0
SMALL
GASTEIGER

@<TRIPOS>ATOM
      1 O          -3.8877    0.0825    2.6266 O.3     1  UNL1       -0.5032
      2 C          -2.9841   -0.0708    1.5805 C.ar    1  UNL1        0.1620
      3 C          -2.1768   -1.1792    1.4386 C.ar    1  UNL1       -0.0157
      4 C          -1.2904   -1.2595    0.3558 C.ar    1  UNL1       -0.0454
      5 C          -1.2044   -0.2525   -0.5758 C.ar    1  UNL1        0.0457
      6 C          -0.2978   -0.2905   -1.7171 C.ar    1  UNL1        0.0770
      7 N          -0.6746   -0.3589   -3.0333 N.ar    1  UNL1       -0.2763
      8 N           0.4097   -0.3654   -3.7482 N.ar    1  UNL1       -0.1811
      9 C           1.5054   -0.3046   -2.9758 C.ar    1  UNL1        0.0575
     10 C           1.0667   -0.2548   -1.6393 C.ar    1  UNL1        0.0273
     11 C           1.9732   -0.1897   -0.5058 C.ar    1  UNL1       -0.0142
     12 C           2.1715   -1.2437    0.3188 C.ar    1  UNL1       -0.0512
     13 C           3.0301   -1.1957    1.3966 C.ar    1  UNL1       -0.0259
     14 C           3.7220   -0.0334    1.6570 C.ar    1  UNL1        0.1234
     15 F           4.5579   -0.0116    2.7201 F       1  UNL1       -0.2055
     16 C           3.5347    1.0563    0.8269 C.ar    1  UNL1       -0.0259
     17 C           2.6556    0.9782   -0.2602 C.ar    1  UNL1       -0.0512
     18 C          -2.0211    0.8659   -0.4299 C.ar    1  UNL1        0.1713
     19 O          -1.9741    1.9076   -1.3396 O.3     1  UNL1       -0.5028
     20 C          -2.8853    0.9381    0.6304 C.ar    1  UNL1        0.2012
     21 O          -3.6861    2.0384    0.7711 O.3     1  UNL1       -0.5009
     22 H          -4.0123   -0.6019    3.3461 H       1  UNL1        0.2923
     23 H          -2.2661   -1.9446    2.1805 H       1  UNL1        0.0655
     24 H          -0.6866   -2.1575    0.2933 H       1  UNL1        0.0626
     25 H          -1.6798   -0.3958   -3.3070 H       1  UNL1        0.1889
     26 H           2.5513   -0.2905   -3.2645 H       1  UNL1        0.0854
     27 H           1.6579   -2.1676    0.1437 H       1  UNL1        0.0624
     28 H           3.1751   -2.0409    2.0400 H       1  UNL1        0.0646
     29 H           4.0911    1.9648    1.0510 H       1  UNL1        0.0646
     30 H           2.5594    1.8646   -0.8634 H       1  UNL1        0.0624
     31 H          -2.5756    2.7098   -1.2213 H       1  UNL1        0.2923
     32 H          -4.3587    2.2026    1.5043 H       1  UNL1        0.2924
@<TRIPOS>BOND
     1     1     2    1
     2     1    22    1
     3     2     3   ar
     4     3     4   ar
     5     3    23    1
     6     4     5   ar
     7     4    24    1
     8     5     6    1
     9     5    18   ar
    10     6     7   ar
    11     7     8   ar
    12     7    25    1
    13     8     9   ar
    14     9    10   ar
    15     9    26    1
    16    10    11    1
    17    10     6   ar
    18    11    12   ar
    19    12    13   ar
    20    12    27    1
    21    13    14   ar
    22    13    28    1
    23    14    15    1
    24    14    16   ar
    25    16    17   ar
    26    16    29    1
    27    17    11   ar
    28    17    30    1
    29    18    19    1
    30    18    20   ar
    31    19    31    1
    32    20    21    1
    33    20     2   ar
    34    21    32    1
